REMARK  1 active torsions:
REMARK  status: ('A' for Active; 'I' for Inactive)
REMARK    1  A    between atoms: C_4  and  N_2 
ROOT
ATOM      1  C   UNL d   1       1.917  -2.649  -0.021  0.00  0.00     0.045 A 
ATOM      2  C   UNL d   1       2.700  -2.079   1.006  0.00  0.00    -0.035 A 
ATOM      3  C   UNL d   1       2.508  -3.585  -0.899  0.00  0.00    -0.035 A 
ATOM      4  C   UNL d   1       4.662  -3.248   0.174  0.00  0.00     0.001 A 
ATOM      5  C   UNL d   1       4.071  -2.377   1.085  0.00  0.00     0.009 A 
ATOM      6  C   UNL d   1       3.884  -3.852  -0.808  0.00  0.00     0.009 A 
ATOM      7  C   UNL d   1       2.120  -1.166   2.051  0.00  0.00     0.050 C 
ATOM      8  C   UNL d   1       1.724  -4.296  -1.969  0.00  0.00     0.050 C 
ENDROOT
BRANCH   1   9
ATOM      9  N   UNL d   1       0.547  -2.341  -0.095  0.00  0.00    -0.344 N 
ATOM     10  C   UNL d   1       0.086  -1.560  -1.016  0.00  0.00     0.108 C 
ATOM     11  S   UNL d   1       0.965  -0.784  -2.318  0.00  0.00    -0.104 SA
ATOM     12  S   UNL d   1      -1.636  -1.234  -1.042  0.00  0.00    -0.104 SA
ATOM     13  C   UNL d   1      -0.477  -0.082  -3.164  0.00  0.00     0.092 C 
ATOM     14  C   UNL d   1      -1.698  -0.909  -2.818  0.00  0.00     0.092 C 
ATOM     15  HN  UNL d   1      -0.094  -2.740   0.590  1.00  0.00     0.167 HD
ENDBRANCH   1   9
TORSDOF 1
