REMARK  4 active torsions:
REMARK  status: ('A' for Active; 'I' for Inactive)
REMARK       I    between atoms: C_9  and  N_13 
REMARK       I    between atoms: N_15  and  C_9 
REMARK    1  A    between atoms: N_13  and  C_10 
REMARK    2  A    between atoms: C_11  and  O_16 
REMARK    3  A    between atoms: C_21  and  N_15 
REMARK    4  A    between atoms: O_16  and  C_22 
ROOT
ATOM      1  C   UNL d   1      -4.854  -0.538  -0.436  0.00  0.00     0.325 C 
ATOM      2  N   UNL d   1      -6.027  -1.198  -0.093  0.00  0.00    -0.309 N 
ATOM      3  N   UNL d   1      -4.967   0.840  -0.322  0.00  0.00    -0.309 N 
ATOM      4  O   UNL d   1      -3.821  -1.114  -0.754  0.00  0.00    -0.247 OA
ATOM      5  H   UNL d   1      -6.820  -0.631   0.156  0.00  0.00     0.170 HD
ATOM      6  H   UNL d   1      -5.834   1.211   0.035  0.00  0.00     0.170 HD
ENDROOT
BRANCH   2   7
ATOM      7  C   UNL d   1      -6.168  -2.606   0.061  0.00  0.00     0.038 A 
ATOM      8  C   UNL d   1      -5.130  -3.510  -0.253  0.00  0.00     0.062 A 
ATOM      9  C   UNL d   1      -5.340  -4.876   0.050  0.00  0.00     0.069 A 
ATOM     10  C   UNL d   1      -6.633  -5.339   0.645  0.00  0.00     0.067 A 
ATOM     11  N   UNL d   1      -4.456  -5.869  -0.138  0.00  0.00    -0.310 N 
ATOM     12  N   UNL d   1      -6.662  -6.658   0.892  0.00  0.00    -0.310 N 
ATOM     13  C   UNL d   1      -7.677  -4.419   0.900  0.00  0.00     0.035 A 
ATOM     14  S   UNL d   1      -5.182  -7.253   0.418  0.00  0.00     0.068 SA
ATOM     15  HN  UNL d   1      -7.436  -7.190   1.290  1.00  0.00     0.176 HD
ATOM     16  C   UNL d   1      -7.404  -3.067   0.595  0.00  0.00     0.032 A 
ATOM     17  HN  UNL d   1      -3.523  -5.788  -0.542  1.00  0.00     0.176 HD
ENDBRANCH   2   7
BRANCH   3  18
ATOM     18  C   UNL d   1      -3.893   1.758  -0.446  0.00  0.00     0.036 A 
ATOM     19  C   UNL d   1      -2.629   1.404  -0.927  0.00  0.00     0.032 A 
ATOM     20  C   UNL d   1      -1.566   2.310  -0.916  0.00  0.00     0.039 A 
ATOM     21  C   UNL d   1      -1.744   3.586  -0.401  0.00  0.00     0.078 A 
ATOM     22  C   UNL d   1      -3.025   3.987  -0.015  0.00  0.00     0.039 A 
ATOM     23  C   UNL d   1      -4.095   3.080  -0.036  0.00  0.00     0.032 A 
BRANCH  21  24
ATOM     24  O   UNL d   1      -0.757   4.520  -0.338  0.00  0.00    -0.255 OA
BRANCH  24  25
ATOM     25  C   UNL d   1       0.494   4.113   0.216  0.00  0.00     0.530 C 
ATOM     26  F   UNL d   1       0.625   2.783   0.407  0.00  0.00    -0.144 F 
ATOM     27  F   UNL d   1       1.485   4.520  -0.609  0.00  0.00    -0.144 F 
ATOM     28  F   UNL d   1       0.665   4.725   1.409  0.00  0.00    -0.144 F 
ENDBRANCH  24  25
ENDBRANCH  21  24
ENDBRANCH   3  18
TORSDOF 4
