REMARK  5 active torsions:
REMARK  status: ('A' for Active; 'I' for Inactive)
REMARK    1  A    between atoms: C_6  and  C_1 
REMARK    2  A    between atoms: C_8  and  N_3 
REMARK    3  A    between atoms: O_14  and  C_6 
REMARK    4  A    between atoms: O_15  and  C_12 
REMARK    5  A    between atoms: C_18  and  O_14 
ROOT
ATOM      1  C   UNL d   1       1.662  -1.152  -0.030  0.00  0.00     0.074 A 
ATOM      2  C   UNL d   1       2.468  -0.007  -0.034  0.00  0.00     0.030 A 
ATOM      3  N   UNL d   1       1.633   1.120  -0.022  0.00  0.00    -0.314 N 
ATOM      4  C   UNL d   1       0.300  -0.706  -0.014  0.00  0.00     0.012 A 
ATOM      5  C   UNL d   1       0.302   0.691  -0.014  0.00  0.00     0.051 A 
ATOM      6  C   UNL d   1      -0.915   1.405  -0.055  0.00  0.00     0.034 A 
ATOM      7  C   UNL d   1      -0.947  -1.381   0.007  0.00  0.00     0.051 A 
ATOM      8  C   UNL d   1       3.962   0.100   0.069  0.00  0.00     0.070 C 
ATOM      9  C   UNL d   1      -2.154  -0.675   0.011  0.00  0.00     0.069 A 
ATOM     10  C   UNL d   1      -2.129   0.710  -0.022  0.00  0.00     0.039 A 
ENDROOT
BRANCH   3  11
ATOM     11  C   UNL d   1       2.055   2.494   0.015  0.00  0.00     0.039 A 
ATOM     12  C   UNL d   1       3.164   2.926  -0.724  0.00  0.00     0.030 A 
ATOM     13  C   UNL d   1       3.586   4.257  -0.662  0.00  0.00     0.002 A 
ATOM     14  C   UNL d   1       2.881   5.179   0.105  0.00  0.00     0.000 A 
ATOM     15  C   UNL d   1       1.763   4.769   0.826  0.00  0.00     0.002 A 
ATOM     16  C   UNL d   1       1.362   3.429   0.797  0.00  0.00     0.030 A 
ENDBRANCH   3  11
BRANCH   1  17
ATOM     17  C   UNL d   1       2.074  -2.564   0.038  0.00  0.00     0.296 C 
ATOM     18  O   UNL d   1       1.290  -3.489   0.196  0.00  0.00    -0.259 OA
BRANCH  17  19
ATOM     19  O   UNL d   1       3.428  -2.733   0.003  0.00  0.00    -0.318 OA
BRANCH  19  20
ATOM     20  C   UNL d   1       3.913  -3.940   0.603  0.00  0.00     0.174 C 
ATOM     21  C   UNL d   1       4.003  -3.729   2.106  0.00  0.00     0.034 C 
ENDBRANCH  19  20
ENDBRANCH  17  19
ENDBRANCH   1  17
BRANCH   9  22
ATOM     22  O   UNL d   1      -3.279  -1.455   0.033  0.00  0.00    -0.356 OA
ATOM     23  C   UNL d   1      -4.529  -0.777   0.014  0.00  0.00     0.210 C 
ENDBRANCH   9  22
TORSDOF 5
