REMARK  6 active torsions:
REMARK  status: ('A' for Active; 'I' for Inactive)
REMARK    1  A    between atoms: C_7  and  C_3 
REMARK    2  A    between atoms: C_13  and  C_4 
REMARK    3  A    between atoms: C_14  and  C_6 
REMARK    4  A    between atoms: O_15  and  C_8 
REMARK    5  A    between atoms: O_16  and  C_9 
REMARK    6  A    between atoms: O_17  and  C_10 
ROOT
ATOM      1  N   UNL d   1      -1.160   0.013   0.057  0.00  0.00    -0.339 N 
ATOM      2  HN  UNL d   1      -2.178   0.054   0.094  1.00  0.00     0.167 HD
ATOM      3  C   UNL d   1      -0.328   1.041   0.015  0.00  0.00     0.117 A 
ATOM      4  C   UNL d   1      -0.381  -1.128   0.039  0.00  0.00     0.072 A 
ATOM      5  N   UNL d   1       0.963   0.575  -0.079  0.00  0.00    -0.339 N 
ATOM      6  C   UNL d   1       0.967  -0.800  -0.058  0.00  0.00     0.072 A 
ATOM      7  H   UNL d   1       1.786   1.158  -0.158  0.00  0.00     0.167 HD
ENDROOT
BRANCH   3   8
ATOM      8  C   UNL d   1      -0.709   2.459   0.085  0.00  0.00     0.013 A 
ATOM      9  C   UNL d   1      -2.055   2.803   0.246  0.00  0.00     0.055 A 
ATOM     10  C   UNL d   1      -2.480   4.139   0.366  0.00  0.00     0.105 A 
ATOM     11  C   UNL d   1      -1.525   5.179   0.309  0.00  0.00     0.135 A 
ATOM     12  C   UNL d   1      -0.165   4.837   0.159  0.00  0.00     0.105 A 
ATOM     13  C   UNL d   1       0.228   3.494   0.031  0.00  0.00     0.055 A 
BRANCH  10  14
ATOM     14  O   UNL d   1      -3.797   4.473   0.550  0.00  0.00    -0.353 OA
ATOM     15  C   UNL d   1      -4.764   3.432   0.610  0.00  0.00     0.210 C 
ENDBRANCH  10  14
BRANCH  11  16
ATOM     16  O   UNL d   1      -1.783   6.525   0.357  0.00  0.00    -0.351 OA
ATOM     17  C   UNL d   1      -3.112   7.008   0.459  0.00  0.00     0.210 C 
ENDBRANCH  11  16
BRANCH  12  18
ATOM     18  O   UNL d   1       0.903   5.700   0.064  0.00  0.00    -0.353 OA
ATOM     19  C   UNL d   1       0.834   6.899   0.829  0.00  0.00     0.210 C 
ENDBRANCH  12  18
ENDBRANCH   3   8
BRANCH   4  20
ATOM     20  C   UNL d   1      -0.962  -2.467   0.067  0.00  0.00    -0.007 A 
ATOM     21  C   UNL d   1      -2.146  -2.721  -0.632  0.00  0.00     0.014 A 
ATOM     22  C   UNL d   1      -2.639  -4.025  -0.752  0.00  0.00     0.001 A 
ATOM     23  C   UNL d   1      -1.947  -5.088  -0.171  0.00  0.00     0.000 A 
ATOM     24  C   UNL d   1      -0.799  -4.843   0.578  0.00  0.00     0.001 A 
ATOM     25  C   UNL d   1      -0.330  -3.534   0.725  0.00  0.00     0.014 A 
ENDBRANCH   4  20
BRANCH   6  26
ATOM     26  C   UNL d   1       2.204  -1.583  -0.138  0.00  0.00    -0.007 A 
ATOM     27  C   UNL d   1       2.257  -2.771  -0.881  0.00  0.00     0.014 A 
ATOM     28  C   UNL d   1       3.383  -3.595  -0.835  0.00  0.00     0.001 A 
ATOM     29  C   UNL d   1       4.496  -3.212  -0.093  0.00  0.00     0.000 A 
ATOM     30  C   UNL d   1       4.484  -2.001   0.597  0.00  0.00     0.001 A 
ATOM     31  C   UNL d   1       3.343  -1.195   0.581  0.00  0.00     0.014 A 
ENDBRANCH   6  26
TORSDOF 6
