REMARK  3 active torsions:
REMARK  status: ('A' for Active; 'I' for Inactive)
REMARK    1  A    between atoms: S_2  and  C_1 
REMARK       I    between atoms: N_5  and  C_1 
REMARK    2  A    between atoms: C_3  and  S_2 
REMARK    3  A    between atoms: C_11  and  N_5 
ROOT
ATOM      1  C   UNL d   1       0.914  -0.066  -0.064  0.00  0.00     0.289 C 
ATOM      2  N   UNL d   1       0.142   0.945   0.453  0.00  0.00    -0.318 N 
ATOM      3  O   UNL d   1       2.104  -0.274   0.084  0.00  0.00    -0.260 OA
ATOM      4  H   UNL d   1      -0.849   0.848   0.275  0.00  0.00     0.169 HD
ENDROOT
BRANCH   1   5
ATOM      5  S   UNL d   1      -0.052  -1.083  -1.127  0.00  0.00    -0.026 SA
BRANCH   5   6
ATOM      6  C   UNL d   1      -0.576  -2.394  -0.038  0.00  0.00     0.048 A 
ATOM      7  C   UNL d   1      -1.425  -2.152   1.049  0.00  0.00     0.136 A 
ATOM      8  C   UNL d   1      -1.945  -3.193   1.812  0.00  0.00     0.086 A 
ATOM      9  F   UNL d   1      -1.799  -0.897   1.348  0.00  0.00    -0.205 F 
ATOM     10  C   UNL d   1      -1.620  -4.500   1.478  0.00  0.00     0.119 A 
ATOM     11  C   UNL d   1      -0.773  -4.776   0.409  0.00  0.00     0.044 A 
ATOM     12  F   UNL d   1      -2.147  -5.511   2.180  0.00  0.00    -0.206 F 
ATOM     13  C   UNL d   1      -0.249  -3.723  -0.350  0.00  0.00     0.025 A 
ENDBRANCH   5   6
ENDBRANCH   1   5
BRANCH   2  14
ATOM     14  C   UNL d   1       0.562   2.052   1.213  0.00  0.00     0.035 A 
ATOM     15  C   UNL d   1       1.901   2.343   1.483  0.00  0.00     0.029 A 
ATOM     16  C   UNL d   1       2.244   3.473   2.235  0.00  0.00     0.002 A 
ATOM     17  C   UNL d   1       1.254   4.323   2.719  0.00  0.00     0.000 A 
ATOM     18  C   UNL d   1      -0.084   4.047   2.449  0.00  0.00     0.002 A 
ATOM     19  C   UNL d   1      -0.427   2.919   1.697  0.00  0.00     0.029 A 
ENDBRANCH   2  14
TORSDOF 3
