REMARK  4 active torsions:
REMARK  status: ('A' for Active; 'I' for Inactive)
REMARK    1  A    between atoms: C_2  and  C_1 
REMARK    2  A    between atoms: N_5  and  C_3 
REMARK       I    between atoms: C_4  and  N_6 
REMARK    3  A    between atoms: O_13  and  C_4 
REMARK    4  A    between atoms: N_6  and  N_5 
ROOT
ATOM      1  C   UNL d   1       0.491  -0.216  -1.335  0.00  0.00     0.087 A 
ATOM      2  C   UNL d   1       0.198   0.942  -2.051  0.00  0.00     0.113 A 
ATOM      3  N   UNL d   1      -0.132   0.894  -3.368  0.00  0.00    -0.355 N 
ATOM      4  HN  UNL d   1      -0.326   1.751  -3.887  1.00  0.00     0.166 HD
ATOM      5  C   UNL d   1       0.437  -1.451  -2.008  0.00  0.00     0.021 A 
ATOM      6  C   UNL d   1      -0.199  -0.308  -3.978  0.00  0.00     0.089 A 
ATOM      7  C   UNL d   1       0.078  -1.500  -3.349  0.00  0.00     0.018 A 
ENDROOT
BRANCH   2   8
ATOM      8  N   UNL d   1       0.207   2.200  -1.399  0.00  0.00    -0.185 NA
ATOM      9  H   UNL d   1      -0.662   2.301  -0.862  0.00  0.00     0.154 HD
BRANCH   8  10
ATOM     10  N   UNL d   1       0.363   3.284  -2.284  0.00  0.00    -0.261 N 
ATOM     11  C   UNL d   1      -0.303   4.449  -2.007  0.00  0.00     0.375 C 
ATOM     12  O   UNL d   1      -1.269   4.540  -1.262  0.00  0.00    -0.237 OA
ATOM     13  H   UNL d   1       1.245   3.337  -2.779  0.00  0.00     0.186 HD
BRANCH  11  14
ATOM     14  O   UNL d   1       0.303   5.482  -2.647  0.00  0.00    -0.308 OA
ATOM     15  C   UNL d   1      -0.255   6.763  -2.359  0.00  0.00     0.215 C 
ENDBRANCH  11  14
ENDBRANCH   8  10
ENDBRANCH   2   8
BRANCH   1  16
ATOM     16  C   UNL d   1       0.931  -0.211   0.101  0.00  0.00     0.420 C 
ATOM     17  F   UNL d   1       0.958   0.996   0.726  0.00  0.00    -0.166 F 
ATOM     18  F   UNL d   1       2.187  -0.727   0.250  0.00  0.00    -0.166 F 
ATOM     19  F   UNL d   1       0.128  -0.997   0.877  0.00  0.00    -0.166 F 
ENDBRANCH   1  16
TORSDOF 4
