REMARK  3 active torsions:
REMARK  status: ('A' for Active; 'I' for Inactive)
REMARK    1  A    between atoms: C_9  and  N_6 
REMARK    2  A    between atoms: C_10  and  C_9 
REMARK    3  A    between atoms: O_13  and  C_10 
ROOT
ATOM      1  C   UNL d   1      -0.137  -1.366   0.075  0.00  0.00     0.709 C 
ATOM      2  N   UNL d   1       1.027  -0.876   0.518  0.00  0.00    -0.115 N 
ATOM      3  HN  UNL d   1       1.769  -1.330   1.050  1.00  0.00     0.207 HD
ATOM      4  N   UNL d   1      -0.940  -0.390  -0.471  0.00  0.00    -0.113 N 
ATOM      5  HN  UNL d   1      -1.887  -0.514  -0.830  1.00  0.00     0.203 HD
ATOM      6  N   UNL d   1       0.938   0.385   0.063  0.00  0.00    -0.194 N 
ATOM      7  N   UNL d   1      -0.251   0.742  -0.441  0.00  0.00     0.011 NA
ATOM      8  N   UNL d   1      -0.502  -2.664   0.073  0.00  0.00    -0.211 N 
ATOM      9  O   UNL d   1      -1.069  -5.436  -0.174  0.00  0.00    -0.388 OA
ATOM     10  C   UNL d   1      -1.777  -3.100  -0.491  0.00  0.00     0.167 C 
ATOM     11  C   UNL d   1       0.143  -3.624   0.967  0.00  0.00     0.167 C 
ATOM     12  C   UNL d   1       0.222  -4.997   0.282  0.00  0.00     0.188 C 
ATOM     13  C   UNL d   1      -1.605  -4.493  -1.119  0.00  0.00     0.188 C 
ENDROOT
BRANCH   6  14
ATOM     14  C   UNL d   1       2.074   1.268   0.039  0.00  0.00     0.278 C 
BRANCH  14  15
ATOM     15  C   UNL d   1       2.844   1.089  -1.239  0.00  0.00     0.279 C 
ATOM     16  O   UNL d   1       2.605   0.290  -2.132  0.00  0.00    -0.263 OA
BRANCH  15  17
ATOM     17  O   UNL d   1       3.891   1.969  -1.263  0.00  0.00    -0.325 OA
ATOM     18  C   UNL d   1       4.688   1.880  -2.448  0.00  0.00     0.213 C 
ENDBRANCH  15  17
ENDBRANCH  14  15
ENDBRANCH   6  14
TORSDOF 3
