REMARK  4 active torsions:
REMARK  status: ('A' for Active; 'I' for Inactive)
REMARK    1  A    between atoms: C_4  and  N_1 
REMARK    2  A    between atoms: S_12  and  C_5 
REMARK    3  A    between atoms: C_14  and  C_9 
REMARK    4  A    between atoms: C_16  and  S_12 
ROOT
ATOM      1  N   UNL d   1       0.031   0.798  -0.042  0.00  0.00    -0.250 N 
ATOM      2  C   UNL d   1       1.178   0.050   0.002  0.00  0.00     0.232 C 
ATOM      3  C   UNL d   1      -1.113   0.023   0.000  0.00  0.00     0.245 C 
ATOM      4  C   UNL d   1      -0.701  -1.416   0.213  0.00  0.00     0.154 C 
ATOM      5  C   UNL d   1       0.811  -1.403   0.071  0.00  0.00     0.129 C 
ATOM      6  O   UNL d   1       2.338   0.433  -0.017  0.00  0.00    -0.273 OA
ATOM      7  O   UNL d   1      -2.279   0.392  -0.130  0.00  0.00    -0.271 OA
ENDROOT
BRANCH   1   8
ATOM      8  C   UNL d   1       0.014   2.206  -0.125  0.00  0.00     0.057 A 
ATOM      9  C   UNL d   1       0.637   2.880  -1.200  0.00  0.00    -0.034 A 
ATOM     10  C   UNL d   1       0.624   4.292  -1.238  0.00  0.00     0.017 A 
ATOM     11  C   UNL d   1       1.292   2.181  -2.364  0.00  0.00     0.050 C 
ATOM     12  C   UNL d   1      -0.007   5.067  -0.253  0.00  0.00    -0.049 A 
ATOM     13  C   UNL d   1      -0.626   4.368   0.794  0.00  0.00     0.017 A 
ATOM     14  C   UNL d   1      -0.620   2.964   0.882  0.00  0.00    -0.034 A 
ATOM     15  C   UNL d   1      -1.261   2.382   2.116  0.00  0.00     0.050 C 
BRANCH  12  16
ATOM     16  C   UNL d   1      -0.002   6.605  -0.323  0.00  0.00    -0.024 C 
ATOM     17  C   UNL d   1      -0.750   7.265   0.859  0.00  0.00     0.019 C 
ATOM     18  C   UNL d   1       1.451   7.128  -0.302  0.00  0.00     0.019 C 
ATOM     19  C   UNL d   1      -0.682   7.092  -1.619  0.00  0.00     0.019 C 
ENDBRANCH  12  16
ENDBRANCH   1   8
BRANCH   4  20
ATOM     20  S   UNL d   1      -1.265  -1.950   1.877  0.00  0.00    -0.115 SA
BRANCH  20  21
ATOM     21  C   UNL d   1      -0.684  -3.635   1.895  0.00  0.00     0.001 A 
ATOM     22  C   UNL d   1       0.166  -4.041   2.930  0.00  0.00     0.020 A 
ATOM     23  C   UNL d   1       0.658  -5.348   2.969  0.00  0.00     0.025 A 
ATOM     24  C   UNL d   1       0.286  -6.256   1.980  0.00  0.00     0.034 A 
ATOM     25  C   UNL d   1      -0.578  -5.868   0.957  0.00  0.00     0.025 A 
ATOM     26 CL   UNL d   1       0.893  -7.864   2.023  0.00  0.00    -0.084 Cl
ATOM     27  C   UNL d   1      -1.064  -4.558   0.916  0.00  0.00     0.020 A 
ENDBRANCH  20  21
ENDBRANCH   4  20
TORSDOF 4
