REMARK  3 active torsions:
REMARK  status: ('A' for Active; 'I' for Inactive)
REMARK       I    between atoms: N_3  and  C_1 
REMARK    1  A    between atoms: C_9  and  C_1 
REMARK    2  A    between atoms: C_2  and  N_3 
REMARK    3  A    between atoms: O_16  and  C_15 
ROOT
ATOM      1  C   UNL d   1       1.034   0.048   0.133  0.00  0.00     0.256 C 
ATOM      2  N   UNL d   1       0.401  -1.084  -0.350  0.00  0.00    -0.320 N 
ATOM      3  O   UNL d   1       2.242   0.253   0.119  0.00  0.00    -0.267 OA
ATOM      4  H   UNL d   1      -0.602  -1.049  -0.494  0.00  0.00     0.169 HD
ENDROOT
BRANCH   2   5
ATOM      5  C   UNL d   1       1.069  -2.201  -0.912  0.00  0.00     0.077 A 
ATOM      6  C   UNL d   1       2.434  -2.448  -0.740  0.00  0.00     0.076 A 
ATOM      7  C   UNL d   1       3.040  -3.521  -1.389  0.00  0.00     0.136 A 
ATOM      8  F   UNL d   1       4.356  -3.714  -1.216  0.00  0.00    -0.205 F 
ATOM      9  C   UNL d   1       2.297  -4.370  -2.207  0.00  0.00     0.052 A 
ATOM     10  C   UNL d   1       0.927  -4.168  -2.352  0.00  0.00     0.067 A 
ATOM     11 BR   UNL d   1       3.138  -5.786  -3.133  0.00  0.00    -0.048 Br
ATOM     12  C   UNL d   1       0.326  -3.094  -1.696  0.00  0.00     0.144 A 
ATOM     13  F   UNL d   1      -0.992  -2.895  -1.854  0.00  0.00    -0.204 F 
ENDBRANCH   2   5
BRANCH   1  14
ATOM     14  C   UNL d   1       0.164   1.135   0.649  0.00  0.00     0.035 A 
ATOM     15  C   UNL d   1       0.611   2.454   0.464  0.00  0.00     0.053 A 
ATOM     16  C   UNL d   1      -0.091   3.521   1.018  0.00  0.00     0.069 A 
ATOM     17  C   UNL d   1      -1.250   3.261   1.752  0.00  0.00     0.037 A 
ATOM     18  C   UNL d   1      -1.707   1.951   1.930  0.00  0.00     0.004 A 
ATOM     19  C   UNL d   1      -1.000   0.881   1.379  0.00  0.00     0.017 A 
BRANCH  16  20
ATOM     20  O   UNL d   1       0.261   4.839   0.931  0.00  0.00    -0.356 OA
ATOM     21  C   UNL d   1       1.457   5.138   0.216  0.00  0.00     0.210 C 
ENDBRANCH  16  20
ENDBRANCH   1  14
TORSDOF 3
