REMARK  4 active torsions:
REMARK  status: ('A' for Active; 'I' for Inactive)
REMARK    1  A    between atoms: N_5  and  S_1 
REMARK    2  A    between atoms: C_9  and  S_1 
REMARK    3  A    between atoms: C_2  and  C_12 
REMARK    4  A    between atoms: C_14  and  N_5 
ROOT
ATOM      1  C   UNL d   1       2.452   0.400  -4.366  0.00  0.00     0.019 A 
ATOM      2  C   UNL d   1       0.936  -0.503  -2.697  0.00  0.00     0.043 A 
ATOM      3  C   UNL d   1       2.191  -0.006  -3.048  0.00  0.00     0.046 A 
ATOM      4  C   UNL d   1       1.425   0.305  -5.318  0.00  0.00     0.016 A 
ATOM      5  C   UNL d   1       0.168  -0.192  -4.963  0.00  0.00     0.003 A 
ATOM      6  C   UNL d   1      -0.072  -0.606  -3.655  0.00  0.00     0.030 A 
ENDROOT
BRANCH   2   7
ATOM      7  N   UNL d   1       0.698  -0.969  -1.376  0.00  0.00    -0.281 N 
ATOM      8  H   UNL d   1       1.088  -0.425  -0.608  0.00  0.00     0.179 HD
BRANCH   7   9
ATOM      9  S   UNL d   1       0.786  -2.633  -1.081  0.00  0.00     0.263 S 
ATOM     10  O   UNL d   1      -0.042  -3.338  -2.035  0.00  0.00    -0.200 OA
ATOM     11  O   UNL d   1       0.604  -2.801   0.345  0.00  0.00    -0.200 OA
BRANCH   9  12
ATOM     12  C   UNL d   1       2.490  -3.014  -1.441  0.00  0.00     0.080 A 
ATOM     13  C   UNL d   1       3.447  -2.898  -0.426  0.00  0.00     0.027 A 
ATOM     14  C   UNL d   1       4.778  -3.228  -0.693  0.00  0.00     0.025 A 
ATOM     15  C   UNL d   1       5.140  -3.678  -1.964  0.00  0.00     0.034 A 
ATOM     16  C   UNL d   1       4.184  -3.801  -2.973  0.00  0.00     0.025 A 
ATOM     17 CL   UNL d   1       6.777  -4.100  -2.283  0.00  0.00    -0.084 Cl
ATOM     18  C   UNL d   1       2.850  -3.477  -2.711  0.00  0.00     0.027 A 
ENDBRANCH   9  12
ENDBRANCH   7   9
ENDBRANCH   2   7
BRANCH   1  19
ATOM     19  C   UNL d   1       3.776   0.903  -4.707  0.00  0.00     0.173 A 
ATOM     20  N   UNL d   1       4.845   1.048  -3.948  0.00  0.00    -0.278 N 
ATOM     21  N   UNL d   1       5.831   1.575  -4.757  0.00  0.00    -0.288 N 
ATOM     22  HN  UNL d   1       4.927   0.816  -2.958  1.00  0.00     0.189 HD
ATOM     23  C   UNL d   1       5.291   1.709  -5.944  0.00  0.00     0.251 A 
ATOM     24  HN  UNL d   1       6.786   1.812  -4.486  1.00  0.00     0.188 HD
ATOM     25  O   UNL d   1       3.993   1.304  -6.001  0.00  0.00    -0.286 OA
ENDBRANCH   1  19
TORSDOF 4
