REMARK  3 active torsions:
REMARK  status: ('A' for Active; 'I' for Inactive)
REMARK    1  A    between atoms: C_2  and  N_1 
REMARK    2  A    between atoms: C_8  and  C_3 
REMARK    3  A    between atoms: O_15  and  C_8 
ROOT
ATOM      1  C   UNL d   1      -2.515   0.053  -0.605  0.00  0.00     0.103 A 
ATOM      2  C   UNL d   1      -3.004   0.658  -1.752  0.00  0.00     0.074 A 
ATOM      3  S   UNL d   1      -3.698  -0.805   0.269  0.00  0.00    -0.083 SA
ATOM      4  C   UNL d   1      -4.425   0.435  -1.852  0.00  0.00     0.028 A 
ATOM      5  C   UNL d   1      -4.924  -0.333  -0.824  0.00  0.00     0.053 A 
ENDROOT
BRANCH   1   6
ATOM      6  N   UNL d   1      -1.252   0.044  -0.049  0.00  0.00    -0.237 N 
ATOM      7  C   UNL d   1      -0.606   1.208   0.241  0.00  0.00     0.256 C 
ATOM      8  C   UNL d   1       0.829   0.900   0.286  0.00  0.00     0.087 C 
ATOM      9  O   UNL d   1      -1.051   2.330   0.415  0.00  0.00    -0.268 OA
ATOM     10  C   UNL d   1       0.990  -0.355  -0.142  0.00  0.00     0.012 C 
ATOM     11  C   UNL d   1      -0.349  -0.911  -0.420  0.00  0.00     0.261 C 
ATOM     12  C   UNL d   1       2.248  -1.085  -0.406  0.00  0.00     0.054 C 
ATOM     13  O   UNL d   1      -0.532  -2.000  -0.940  0.00  0.00    -0.267 OA
ENDBRANCH   1   6
BRANCH   2  14
ATOM     14  C   UNL d   1      -2.180   1.376  -2.722  0.00  0.00     0.295 C 
ATOM     15  O   UNL d   1      -0.957   1.444  -2.662  0.00  0.00    -0.259 OA
BRANCH  14  16
ATOM     16  O   UNL d   1      -2.927   1.927  -3.724  0.00  0.00    -0.322 OA
ATOM     17  C   UNL d   1      -2.172   2.617  -4.721  0.00  0.00     0.213 C 
ENDBRANCH  14  16
ENDBRANCH   2  14
TORSDOF 3
