REMARK  4 active torsions:
REMARK  status: ('A' for Active; 'I' for Inactive)
REMARK    1  A    between atoms: O_13  and  C_1 
REMARK    2  A    between atoms: C_9  and  N_2 
REMARK    3  A    between atoms: N_7  and  C_3 
REMARK    4  A    between atoms: C_15  and  N_10 
ROOT
ATOM      1  C   UNL d   1      -5.127   1.642   0.403  0.00  0.00     0.193 C 
ATOM      2  N   UNL d   1      -5.425   2.963   0.073  0.00  0.00    -0.232 N 
ATOM      3  C   UNL d   1      -3.754   1.554   0.320  0.00  0.00     0.124 C 
ATOM      4  N   UNL d   1      -4.311   3.661  -0.285  0.00  0.00    -0.294 N 
ATOM      5  HN  UNL d   1      -4.265   4.604  -0.671  1.00  0.00     0.187 HD
ATOM      6  C   UNL d   1      -3.289   2.837  -0.019  0.00  0.00     0.055 C 
ATOM      7  C   UNL d   1      -1.897   3.329  -0.134  0.00  0.00     0.072 C 
ENDROOT
BRANCH   3   8
ATOM      8  N   UNL d   1      -3.016   0.397   0.591  0.00  0.00    -0.294 N 
ATOM      9  N   UNL d   1      -2.394  -0.248  -0.291  0.00  0.00    -0.300 N 
ATOM     10  HN  UNL d   1      -1.967  -1.140  -0.040  1.00  0.00     0.187 HD
ATOM     11  HN  UNL d   1      -2.980   0.060   1.552  1.00  0.00     0.187 HD
BRANCH   9  12
ATOM     12  C   UNL d   1      -2.267   0.217  -1.614  0.00  0.00     0.049 A 
ATOM     13  C   UNL d   1      -3.352   0.368  -2.486  0.00  0.00     0.054 A 
ATOM     14  C   UNL d   1      -3.145   0.814  -3.791  0.00  0.00     0.036 A 
ATOM     15 CL   UNL d   1      -4.495   1.059  -4.832  0.00  0.00    -0.084 Cl
ATOM     16  C   UNL d   1      -1.857   1.065  -4.264  0.00  0.00     0.024 A 
ATOM     17  C   UNL d   1      -0.764   0.866  -3.424  0.00  0.00     0.004 A 
ATOM     18  C   UNL d   1      -0.974   0.443  -2.109  0.00  0.00     0.031 A 
ENDBRANCH   9  12
ENDBRANCH   3   8
BRANCH   1  19
ATOM     19  O   UNL d   1      -6.022   0.685   0.667  0.00  0.00    -0.343 OA
ATOM     20  H   UNL d   1      -6.894   0.939   0.319  0.00  0.00     0.219 HD
ENDBRANCH   1  19
BRANCH   2  21
ATOM     21  C   UNL d   1      -6.689   3.612   0.067  0.00  0.00     0.060 A 
ATOM     22  C   UNL d   1      -7.699   3.245   0.966  0.00  0.00     0.055 A 
ATOM     23  C   UNL d   1      -8.931   3.900   0.917  0.00  0.00     0.036 A 
ATOM     24 CL   UNL d   1     -10.165   3.474   2.038  0.00  0.00    -0.084 Cl
ATOM     25  C   UNL d   1      -9.171   4.900  -0.024  0.00  0.00     0.024 A 
ATOM     26  C   UNL d   1      -8.161   5.277  -0.907  0.00  0.00     0.004 A 
ATOM     27  C   UNL d   1      -6.915   4.650  -0.850  0.00  0.00     0.032 A 
ENDBRANCH   2  21
TORSDOF 4
