REMARK  2 active torsions:
REMARK  status: ('A' for Active; 'I' for Inactive)
REMARK    1  A    between atoms: C_8  and  C_1 
REMARK    2  A    between atoms: C_9  and  C_2 
ROOT
ATOM      1  C   UNL d   1       1.287  -0.856  -0.043  0.00  0.00     0.078 A 
ATOM      2  C   UNL d   1      -0.015  -1.353   0.046  0.00  0.00     0.062 A 
ATOM      3  N   UNL d   1       0.209   1.118   0.105  0.00  0.00    -0.269 N 
ATOM      4  HN  UNL d   1       0.081   2.129   0.138  1.00  0.00     0.195 HD
ATOM      5  N   UNL d   1       1.387   0.535  -0.001  0.00  0.00    -0.292 N 
ATOM      6  HN  UNL d   1       2.270   1.043  -0.048  1.00  0.00     0.187 HD
ATOM      7  S   UNL d   1      -1.047   0.028   0.181  0.00  0.00     0.004 SA
ENDROOT
BRANCH   1   8
ATOM      8  C   UNL d   1       2.505  -1.654  -0.132  0.00  0.00    -0.007 A 
ATOM      9  C   UNL d   1       2.591  -2.806  -0.926  0.00  0.00     0.014 A 
ATOM     10  C   UNL d   1       3.759  -3.575  -0.937  0.00  0.00     0.001 A 
ATOM     11  C   UNL d   1       4.861  -3.183  -0.180  0.00  0.00     0.000 A 
ATOM     12  C   UNL d   1       4.803  -2.019   0.582  0.00  0.00     0.001 A 
ATOM     13  C   UNL d   1       3.632  -1.258   0.604  0.00  0.00     0.014 A 
ENDBRANCH   1   8
BRANCH   2  14
ATOM     14  C   UNL d   1      -0.580  -2.707   0.091  0.00  0.00    -0.015 A 
ATOM     15  C   UNL d   1       0.003  -3.699   0.895  0.00  0.00     0.013 A 
ATOM     16  C   UNL d   1      -0.491  -5.005   0.891  0.00  0.00     0.001 A 
ATOM     17  C   UNL d   1      -1.592  -5.332   0.104  0.00  0.00     0.000 A 
ATOM     18  C   UNL d   1      -2.200  -4.356  -0.681  0.00  0.00     0.001 A 
ATOM     19  C   UNL d   1      -1.695  -3.052  -0.691  0.00  0.00     0.013 A 
ENDBRANCH   2  14
TORSDOF 2
