REMARK  2 active torsions:
REMARK  status: ('A' for Active; 'I' for Inactive)
REMARK       I    between atoms: N_2  and  C_1 
REMARK    1  A    between atoms: C_3  and  C_1 
REMARK    2  A    between atoms: C_5  and  N_2 
ROOT
ATOM      1  N   UNL d   1       2.824  -3.182  -0.519  0.00  0.00    -0.191 NA
ATOM      2  C   UNL d   1       1.132  -0.597  -2.320  0.00  0.00     0.056 A 
ATOM      3  C   UNL d   1       2.538  -2.421  -1.351  0.00  0.00     0.102 C 
ATOM      4  C   UNL d   1       2.163  -1.552  -2.432  0.00  0.00     0.071 A 
ATOM      5  C   UNL d   1       2.771  -1.769  -3.679  0.00  0.00     0.025 A 
ATOM      6  C   UNL d   1       0.673   0.056  -3.471  0.00  0.00     0.031 A 
ATOM      7  C   UNL d   1       2.350  -1.063  -4.806  0.00  0.00     0.002 A 
ATOM      8  C   UNL d   1       1.294  -0.162  -4.704  0.00  0.00     0.002 A 
ENDROOT
BRANCH   2   9
ATOM      9  N   UNL d   1       0.516  -0.245  -1.097  0.00  0.00    -0.320 N 
ATOM     10  C   UNL d   1       1.240   0.045   0.053  0.00  0.00     0.280 C 
ATOM     11  O   UNL d   1       2.468   0.055   0.093  0.00  0.00    -0.265 OA
ATOM     12  H   UNL d   1      -0.414   0.161  -1.117  0.00  0.00     0.169 HD
BRANCH  10  13
ATOM     13  C   UNL d   1       0.427   0.423   1.189  0.00  0.00     0.142 A 
ATOM     14  O   UNL d   1      -0.941   0.358   1.110  0.00  0.00    -0.317 OA
ATOM     15  C   UNL d   1      -1.425   0.728   2.326  0.00  0.00     0.143 A 
ATOM     16  C   UNL d   1      -0.398   1.058   3.177  0.00  0.00     0.027 A 
ATOM     17  C   UNL d   1       0.795   0.866   2.446  0.00  0.00     0.045 A 
ENDBRANCH  10  13
ENDBRANCH   2   9
TORSDOF 2
