REMARK  3 active torsions:
REMARK  status: ('A' for Active; 'I' for Inactive)
REMARK    1  A    between atoms: C_2  and  C_1 
REMARK    2  A    between atoms: C_13  and  N_3 
REMARK    3  A    between atoms: C_14  and  N_4 
ROOT
ATOM      1  C   UNL d   1      -0.105  -1.271  -0.136  0.00  0.00     0.152 C 
ATOM      2  N   UNL d   1       0.999  -0.680   0.450  0.00  0.00    -0.224 N 
ATOM      3  N   UNL d   1       0.738   0.638   0.602  0.00  0.00     0.001 NA
ATOM      4  N   UNL d   1      -0.363   0.860  -0.103  0.00  0.00    -0.007 NA
ATOM      5  N   UNL d   1      -0.881  -0.310  -0.600  0.00  0.00    -0.269 N 
ATOM      6  HN  UNL d   1      -1.697  -0.415  -1.202  1.00  0.00     0.185 HD
ENDROOT
BRANCH   1   7
ATOM      7  C   UNL d   1      -0.439  -2.716  -0.157  0.00  0.00     0.052 C 
ATOM      8  C   UNL d   1      -1.208  -3.381  -1.092  0.00  0.00     0.046 C 
ATOM      9  N   UNL d   1      -1.197  -4.720  -0.704  0.00  0.00    -0.260 N 
ATOM     10  C   UNL d   1      -1.924  -2.817  -2.267  0.00  0.00     0.071 C 
ATOM     11  N   UNL d   1      -0.613  -4.872   0.521  0.00  0.00    -0.304 N 
ATOM     12  C   UNL d   1      -0.102  -3.679   0.806  0.00  0.00     0.125 C 
ATOM     13  HN  UNL d   1      -0.577  -5.716   1.092  1.00  0.00     0.186 HD
BRANCH   9  14
ATOM     14  C   UNL d   1      -1.646  -5.883  -1.387  0.00  0.00     0.056 A 
ATOM     15  C   UNL d   1      -1.671  -5.950  -2.784  0.00  0.00     0.031 A 
ATOM     16  C   UNL d   1      -2.122  -7.110  -3.420  0.00  0.00     0.002 A 
ATOM     17  C   UNL d   1      -2.538  -8.207  -2.668  0.00  0.00     0.000 A 
ATOM     18  C   UNL d   1      -2.484  -8.159  -1.277  0.00  0.00     0.002 A 
ATOM     19  C   UNL d   1      -2.024  -7.008  -0.636  0.00  0.00     0.031 A 
ENDBRANCH   9  14
ENDBRANCH   1   7
BRANCH   2  20
ATOM     20  C   UNL d   1       2.280  -1.223   0.703  0.00  0.00     0.056 A 
ATOM     21  C   UNL d   1       2.758  -2.294  -0.071  0.00  0.00     0.033 A 
ATOM     22  C   UNL d   1       4.034  -2.810   0.158  0.00  0.00     0.026 A 
ATOM     23  C   UNL d   1       4.830  -2.263   1.161  0.00  0.00     0.034 A 
ATOM     24  C   UNL d   1       4.366  -1.192   1.927  0.00  0.00     0.026 A 
ATOM     25 CL   UNL d   1       6.400  -2.905   1.444  0.00  0.00    -0.084 Cl
ATOM     26  C   UNL d   1       3.097  -0.655   1.687  0.00  0.00     0.033 A 
ENDBRANCH   2  20
TORSDOF 3
