REMARK  6 active torsions:
REMARK  status: ('A' for Active; 'I' for Inactive)
REMARK    1  A    between atoms: C_2  and  S_1 
REMARK    2  A    between atoms: N_4  and  S_1 
REMARK    3  A    between atoms: C_3  and  N_10 
REMARK       I    between atoms: C_12  and  N_19 
REMARK    4  A    between atoms: C_23  and  C_12 
REMARK    5  A    between atoms: C_24  and  C_13 
REMARK    6  A    between atoms: N_19  and  C_24 
ROOT
ATOM      1  N   UNL d   1       0.554   1.017   0.593  0.00  0.00    -0.303 N 
ATOM      2  N   UNL d   1       1.143   3.910   0.030  0.00  0.00     0.105 N 
ATOM      3  C   UNL d   1      -0.454   1.935  -0.010  0.00  0.00     0.165 C 
ATOM      4  C   UNL d   1       1.609   1.750   1.355  0.00  0.00     0.165 C 
ATOM      5  C   UNL d   1       0.197   3.105  -0.762  0.00  0.00     0.294 C 
ATOM      6  C   UNL d   1       2.136   3.019   0.646  0.00  0.00     0.294 C 
ENDROOT
BRANCH   1   7
ATOM      7  S   UNL d   1       1.123  -0.252  -0.361  0.00  0.00     0.267 S 
ATOM      8  O   UNL d   1       1.460   0.278  -1.666  0.00  0.00    -0.200 OA
ATOM      9  O   UNL d   1       2.096  -0.993   0.409  0.00  0.00    -0.200 OA
BRANCH   7  10
ATOM     10  C   UNL d   1      -0.133  -1.469  -0.703  0.00  0.00     0.120 A 
ATOM     11  S   UNL d   1      -1.661  -1.344   0.049  0.00  0.00    -0.080 SA
ATOM     12  C   UNL d   1      -2.257  -2.738  -0.760  0.00  0.00     0.002 A 
ATOM     13  C   UNL d   1      -1.275  -3.325  -1.534  0.00  0.00     0.018 A 
ATOM     14  C   UNL d   1      -0.057  -2.595  -1.499  0.00  0.00     0.034 A 
BRANCH  12  15
ATOM     15  C   UNL d   1      -3.675  -3.185  -0.590  0.00  0.00     0.169 C 
BRANCH  15  16
ATOM     16  N   UNL d   1      -4.461  -2.616  -1.663  0.00  0.00    -0.352 N 
ATOM     17  C   UNL d   1      -5.798  -2.928  -1.792  0.00  0.00     0.251 C 
ATOM     18  O   UNL d   1      -6.385  -3.690  -1.038  0.00  0.00    -0.268 OA
ATOM     19  H   UNL d   1      -4.092  -1.811  -2.149  0.00  0.00     0.163 HD
BRANCH  17  20
ATOM     20  C   UNL d   1      -6.524  -2.254  -2.909  0.00  0.00     0.032 A 
ATOM     21  C   UNL d   1      -5.872  -1.882  -4.092  0.00  0.00     0.017 A 
ATOM     22  C   UNL d   1      -6.589  -1.273  -5.125  0.00  0.00     0.001 A 
ATOM     23  C   UNL d   1      -7.956  -1.039  -4.984  0.00  0.00     0.000 A 
ATOM     24  C   UNL d   1      -8.613  -1.419  -3.814  0.00  0.00     0.001 A 
ATOM     25  C   UNL d   1      -7.898  -2.030  -2.778  0.00  0.00     0.017 A 
ENDBRANCH  17  20
ENDBRANCH  15  16
ENDBRANCH  12  15
ENDBRANCH   7  10
ENDBRANCH   1   7
BRANCH   2  26
ATOM     26  C   UNL d   1       0.576   4.973   0.891  0.00  0.00     0.290 C 
ATOM     27  C   UNL d   1      -0.432   5.833   0.115  0.00  0.00    -0.009 A 
ATOM     28  C   UNL d   1      -1.721   5.699   0.678  0.00  0.00    -0.017 A 
ATOM     29  C   UNL d   1      -0.221   6.594  -1.027  0.00  0.00     0.010 A 
ATOM     30  C   UNL d   1      -2.807   6.349   0.118  0.00  0.00     0.013 A 
ATOM     31  C   UNL d   1      -1.635   4.853   1.847  0.00  0.00    -0.017 C 
ATOM     32  C   UNL d   1      -2.600   7.120  -1.029  0.00  0.00     0.001 A 
ATOM     33  C   UNL d   1      -1.321   7.237  -1.599  0.00  0.00     0.001 A 
ATOM     34  C   UNL d   1      -0.282   4.527   2.074  0.00  0.00    -0.009 C 
ATOM     35  C   UNL d   1      -2.629   4.363   2.680  0.00  0.00     0.013 C 
ATOM     36  C   UNL d   1       0.098   3.900   3.249  0.00  0.00     0.010 C 
ATOM     37  C   UNL d   1      -0.899   3.378   4.075  0.00  0.00     0.001 C 
ATOM     38  C   UNL d   1      -2.253   3.578   3.773  0.00  0.00     0.001 C 
ENDBRANCH   2  26
TORSDOF 6
