REMARK  4 active torsions:
REMARK  status: ('A' for Active; 'I' for Inactive)
REMARK    1  A    between atoms: C_3  and  C_1 
REMARK       I    between atoms: N_7  and  C_3 
REMARK    2  A    between atoms: C_12  and  N_7 
REMARK    3  A    between atoms: C_13  and  N_8 
REMARK    4  A    between atoms: C_21  and  C_13 
ROOT
ATOM      1  C   UNL d   1       6.188  -0.752   0.791  0.00  0.00     0.268 C 
ATOM      2  N   UNL d   1       5.357   0.036   0.025  0.00  0.00    -0.351 N 
ATOM      3  O   UNL d   1       7.205  -0.323   1.322  0.00  0.00    -0.266 OA
ATOM      4  H   UNL d   1       4.476  -0.350  -0.281  0.00  0.00     0.163 HD
ENDROOT
BRANCH   2   5
ATOM      5  C   UNL d   1       5.658   1.422  -0.336  0.00  0.00     0.088 C 
ATOM      6  C   UNL d   1       5.080   1.745  -1.713  0.00  0.00     0.055 C 
ATOM      7  C   UNL d   1       5.397   3.184  -2.106  0.00  0.00     0.275 C 
ATOM      8  N   UNL d   1       4.901   4.175  -1.131  0.00  0.00     0.092 N 
ATOM      9  C   UNL d   1       5.404   3.879   0.224  0.00  0.00     0.275 C 
ATOM     10  C   UNL d   1       5.118   2.434   0.676  0.00  0.00     0.055 C 
BRANCH   8  11
ATOM     11  C   UNL d   1       5.332   5.517  -1.598  0.00  0.00     0.311 C 
BRANCH  11  12
ATOM     12  C   UNL d   1       4.869   6.707  -0.785  0.00  0.00    -0.030 A 
ATOM     13  C   UNL d   1       5.811   7.545  -0.164  0.00  0.00     0.009 A 
ATOM     14  C   UNL d   1       5.407   8.692   0.522  0.00  0.00     0.001 A 
ATOM     15  C   UNL d   1       4.056   9.022   0.592  0.00  0.00     0.000 A 
ATOM     16  C   UNL d   1       3.109   8.203  -0.025  0.00  0.00     0.001 A 
ATOM     17  C   UNL d   1       3.512   7.051  -0.706  0.00  0.00     0.009 A 
ENDBRANCH  11  12
ENDBRANCH   8  11
ENDBRANCH   2   5
BRANCH   1  18
ATOM     18  C   UNL d   1       5.790  -2.148   0.903  0.00  0.00     0.102 A 
ATOM     19  N   UNL d   1       6.498  -3.052   1.675  0.00  0.00    -0.351 N 
ATOM     20  C   UNL d   1       5.965  -4.317   1.583  0.00  0.00     0.043 A 
ATOM     21  H   UNL d   1       7.315  -2.800   2.216  0.00  0.00     0.166 HD
ATOM     22  C   UNL d   1       6.371  -5.525   2.171  0.00  0.00     0.032 A 
ATOM     23  C   UNL d   1       4.860  -4.230   0.740  0.00  0.00    -0.005 A 
ATOM     24  C   UNL d   1       5.614  -6.670   1.891  0.00  0.00     0.026 A 
ATOM     25  C   UNL d   1       4.501  -6.601   1.058  0.00  0.00     0.035 A 
ATOM     26  C   UNL d   1       4.112  -5.394   0.470  0.00  0.00     0.037 A 
ATOM     27 CL   UNL d   1       3.586  -8.027   0.743  0.00  0.00    -0.084 Cl
ATOM     28  C   UNL d   1       4.761  -2.873   0.320  0.00  0.00     0.049 A 
ENDBRANCH   1  18
TORSDOF 4
