REMARK  4 active torsions:
REMARK  status: ('A' for Active; 'I' for Inactive)
REMARK    1  A    between atoms: C_4  and  C_1 
REMARK       I    between atoms: C_2  and  N_3 
REMARK       I    between atoms: N_8  and  C_2 
REMARK    2  A    between atoms: N_3  and  C_7 
REMARK    3  A    between atoms: C_19  and  N_8 
REMARK    4  A    between atoms: C_10  and  C_11 
ROOT
ATOM      1  C   UNL d   1      -0.984  -2.072  -6.843  0.00  0.00     0.326 C 
ATOM      2  N   UNL d   1      -1.095  -1.310  -7.968  0.00  0.00    -0.294 N 
ATOM      3  N   UNL d   1      -1.358  -1.508  -5.655  0.00  0.00    -0.309 N 
ATOM      4  O   UNL d   1      -0.551  -3.209  -6.995  0.00  0.00    -0.247 OA
ATOM      5  H   UNL d   1      -0.781  -1.820  -8.780  0.00  0.00     0.172 HD
ATOM      6  H   UNL d   1      -1.827  -0.612  -5.742  0.00  0.00     0.170 HD
ENDROOT
BRANCH   2   7
ATOM      7  C   UNL d   1      -1.408   0.037  -8.131  0.00  0.00     0.108 A 
ATOM      8  C   UNL d   1      -1.267   0.565  -9.412  0.00  0.00     0.049 A 
ATOM      9  C   UNL d   1      -1.460   1.931  -9.614  0.00  0.00     0.021 A 
ATOM     10  C   UNL d   1      -1.798   2.742  -8.529  0.00  0.00     0.063 A 
ATOM     11  C   UNL d   1      -1.970   2.121  -7.301  0.00  0.00     0.106 A 
ATOM     12  N   UNL d   1      -1.785   0.793  -7.079  0.00  0.00    -0.351 N 
ATOM     13  HN  UNL d   1      -1.925   0.384  -6.154  1.00  0.00     0.166 HD
BRANCH  10  14
ATOM     14  C   UNL d   1      -1.931   4.228  -8.677  0.00  0.00     0.418 C 
ATOM     15  F   UNL d   1      -2.299   4.857  -7.527  0.00  0.00    -0.166 F 
ATOM     16  F   UNL d   1      -2.854   4.584  -9.612  0.00  0.00    -0.166 F 
ATOM     17  F   UNL d   1      -0.764   4.812  -9.064  0.00  0.00    -0.166 F 
ENDBRANCH  10  14
ENDBRANCH   2   7
BRANCH   3  18
ATOM     18  C   UNL d   1      -1.123  -2.016  -4.359  0.00  0.00     0.036 A 
ATOM     19  C   UNL d   1      -0.269  -3.084  -4.094  0.00  0.00     0.030 A 
ATOM     20  C   UNL d   1       0.058  -3.434  -2.776  0.00  0.00     0.010 A 
ATOM     21  C   UNL d   1      -0.459  -2.731  -1.674  0.00  0.00    -0.051 A 
ATOM     22  C   UNL d   1      -1.405  -1.732  -1.953  0.00  0.00     0.010 A 
ATOM     23  C   UNL d   1      -1.721  -1.370  -3.275  0.00  0.00     0.030 A 
BRANCH  21  24
ATOM     24  C   UNL d   1       0.090  -3.002  -0.260  0.00  0.00    -0.024 C 
ATOM     25  C   UNL d   1      -0.529  -2.101   0.832  0.00  0.00     0.019 C 
ATOM     26  C   UNL d   1      -0.149  -4.466   0.165  0.00  0.00     0.019 C 
ATOM     27  C   UNL d   1       1.613  -2.724  -0.257  0.00  0.00     0.019 C 
ENDBRANCH  21  24
ENDBRANCH   3  18
TORSDOF 4
