REMARK  6 active torsions:
REMARK  status: ('A' for Active; 'I' for Inactive)
REMARK    1  A    between atoms: S_2  and  C_1 
REMARK    2  A    between atoms: N_8  and  S_2 
REMARK    3  A    between atoms: C_9  and  C_3 
REMARK    4  A    between atoms: C_12  and  C_4 
REMARK    5  A    between atoms: C_7  and  C_5 
REMARK    6  A    between atoms: O_20  and  C_9 
ROOT
ATOM      1  C   UNL d   1       1.823   0.557  -0.077  0.00  0.00     0.115 C 
ATOM      2  C   UNL d   1       0.558   1.115   0.003  0.00  0.00     0.105 C 
ATOM      3  C   UNL d   1       1.775  -0.899  -0.231  0.00  0.00     0.021 C 
ATOM      4  C   UNL d   1       0.465  -1.361  -0.077  0.00  0.00     0.102 C 
ATOM      5  S   UNL d   1      -0.662  -0.072  -0.014  0.00  0.00    -0.077 SA
ENDROOT
BRANCH   1   6
ATOM      6  S   UNL d   1       3.283   1.512   0.078  0.00  0.00     0.263 S 
ATOM      7  O   UNL d   1       4.090   1.112  -1.048  0.00  0.00    -0.200 OA
ATOM      8  O   UNL d   1       2.872   2.884   0.268  0.00  0.00    -0.200 OA
BRANCH   6   9
ATOM      9  N   UNL d   1       4.043   1.045   1.514  0.00  0.00    -0.303 N 
ATOM     10  C   UNL d   1       3.330   1.327   2.796  0.00  0.00     0.161 C 
ATOM     11  C   UNL d   1       3.711   2.692   3.378  0.00  0.00     0.188 C 
ATOM     12  O   UNL d   1       5.132   2.819   3.515  0.00  0.00    -0.388 OA
ATOM     13  C   UNL d   1       5.767   2.705   2.234  0.00  0.00     0.188 C 
ATOM     14  C   UNL d   1       5.504   1.332   1.617  0.00  0.00     0.161 C 
ENDBRANCH   6   9
ENDBRANCH   1   6
BRANCH   2  15
ATOM     15  C   UNL d   1       0.127   2.488   0.178  0.00  0.00     0.301 C 
ATOM     16  O   UNL d   1      -0.496   2.891   1.149  0.00  0.00    -0.259 OA
BRANCH  15  17
ATOM     17  O   UNL d   1       0.481   3.231  -0.905  0.00  0.00    -0.322 OA
ATOM     18  C   UNL d   1       0.230   4.637  -0.797  0.00  0.00     0.213 C 
ENDBRANCH  15  17
ENDBRANCH   2  15
BRANCH   3  19
ATOM     19  C   UNL d   1       2.868  -1.869  -0.446  0.00  0.00    -0.023 A 
ATOM     20  C   UNL d   1       3.994  -1.913   0.380  0.00  0.00     0.012 A 
ATOM     21  C   UNL d   1       5.014  -2.849   0.175  0.00  0.00     0.001 A 
ATOM     22  C   UNL d   1       4.888  -3.810  -0.821  0.00  0.00     0.000 A 
ATOM     23  C   UNL d   1       3.759  -3.811  -1.633  0.00  0.00     0.001 A 
ATOM     24  C   UNL d   1       2.773  -2.830  -1.468  0.00  0.00     0.012 A 
ENDBRANCH   3  19
BRANCH   4  25
ATOM     25  C   UNL d   1      -0.082  -2.760   0.018  0.00  0.00     0.424 C 
ATOM     26  F   UNL d   1       0.800  -3.640   0.555  0.00  0.00    -0.166 F 
ATOM     27  F   UNL d   1      -1.193  -2.830   0.801  0.00  0.00    -0.166 F 
ATOM     28  F   UNL d   1      -0.435  -3.242  -1.202  0.00  0.00    -0.166 F 
ENDBRANCH   4  25
TORSDOF 6
