REMARK  2 active torsions:
REMARK  status: ('A' for Active; 'I' for Inactive)
REMARK    1  A    between atoms: C_4  and  N_1 
REMARK    2  A    between atoms: C_6  and  C_4 
ROOT
ATOM      1  N   UNL d   1       0.466  -0.772  -0.000  0.00  0.00    -0.289 N 
ATOM      2  C   UNL d   1       0.489   0.050   1.095  0.00  0.00     0.177 A 
ATOM      3  C   UNL d   1       0.492  -0.004  -1.143  0.00  0.00     0.244 A 
ATOM      4  N   UNL d   1       0.650   1.352   0.672  0.00  0.00    -0.358 N 
ATOM      5  S   UNL d   1       0.325  -0.305   2.705  0.00  0.00    -0.041 SA
ATOM      6  C   UNL d   1       0.676   1.452  -0.757  0.00  0.00     0.225 A 
ATOM      7  O   UNL d   1       0.349  -0.385  -2.297  0.00  0.00    -0.271 OA
ATOM      8  H   UNL d   1       0.656   2.134   1.316  0.00  0.00     0.162 HD
ENDROOT
BRANCH   1   9
ATOM      9  C   UNL d   1       0.256  -2.216  -0.037  0.00  0.00     0.174 C 
BRANCH   9  10
ATOM     10  C   UNL d   1       1.529  -3.035   0.064  0.00  0.00    -0.018 A 
ATOM     11  C   UNL d   1       2.244  -3.495  -1.056  0.00  0.00     0.042 A 
ATOM     12 CL   UNL d   1       1.749  -3.174  -2.677  0.00  0.00    -0.084 Cl
ATOM     13  C   UNL d   1       3.391  -4.286  -0.900  0.00  0.00     0.024 A 
ATOM     14  C   UNL d   1       3.844  -4.634   0.369  0.00  0.00     0.002 A 
ATOM     15  C   UNL d   1       3.154  -4.186   1.489  0.00  0.00     0.001 A 
ATOM     16  C   UNL d   1       2.011  -3.396   1.338  0.00  0.00     0.010 A 
ENDBRANCH   9  10
ENDBRANCH   1   9
TORSDOF 2
