REMARK  5 active torsions:
REMARK  status: ('A' for Active; 'I' for Inactive)
REMARK    1  A    between atoms: C_9  and  C_1 
REMARK    2  A    between atoms: C_8  and  C_2 
REMARK    3  A    between atoms: C_7  and  C_3 
REMARK       I    between atoms: N_13  and  C_8 
REMARK    4  A    between atoms: O_15  and  C_9 
REMARK    5  A    between atoms: N_18  and  N_13 
ROOT
ATOM      1  C   UNL d   1      -1.442  -0.316   0.068  0.00  0.00     0.110 A 
ATOM      2  C   UNL d   1      -0.903   0.942  -0.097  0.00  0.00     0.186 A 
ATOM      3  C   UNL d   1      -0.349  -1.210  -0.154  0.00  0.00     0.087 A 
ATOM      4  N   UNL d   1       0.747  -0.524  -0.504  0.00  0.00    -0.259 N 
ATOM      5  HN  UNL d   1       1.653  -0.913  -0.762  1.00  0.00     0.195 HD
ATOM      6  O   UNL d   1       0.409   0.806  -0.447  0.00  0.00    -0.231 OA
ENDROOT
BRANCH   3   7
ATOM      7  C   UNL d   1      -0.324  -2.676  -0.086  0.00  0.00     0.037 A 
ATOM      8  C   UNL d   1      -1.195  -3.466  -0.863  0.00  0.00     0.048 A 
ATOM      9 CL   UNL d   1      -2.281  -2.796  -2.039  0.00  0.00    -0.083 Cl
ATOM     10  C   UNL d   1      -1.192  -4.863  -0.755  0.00  0.00     0.025 A 
ATOM     11  C   UNL d   1      -0.293  -5.502   0.093  0.00  0.00     0.003 A 
ATOM     12  C   UNL d   1       0.602  -4.743   0.840  0.00  0.00     0.025 A 
ATOM     13  C   UNL d   1       0.582  -3.343   0.763  0.00  0.00     0.048 A 
ATOM     14 CL   UNL d   1       1.706  -2.508   1.788  0.00  0.00    -0.083 Cl
ENDBRANCH   3   7
BRANCH   1  15
ATOM     15  C   UNL d   1      -2.808  -0.646   0.395  0.00  0.00     0.298 C 
ATOM     16  O   UNL d   1      -3.105  -1.576   1.137  0.00  0.00    -0.259 OA
BRANCH  15  17
ATOM     17  O   UNL d   1      -3.698   0.095  -0.315  0.00  0.00    -0.322 OA
ATOM     18  C   UNL d   1      -5.065  -0.292  -0.175  0.00  0.00     0.213 C 
ENDBRANCH  15  17
ENDBRANCH   1  15
BRANCH   2  19
ATOM     19  C   UNL d   1      -1.428   2.280   0.051  0.00  0.00     0.292 C 
ATOM     20  O   UNL d   1      -2.587   2.542   0.372  0.00  0.00    -0.264 OA
ATOM     21  N   UNL d   1      -0.494   3.295  -0.168  0.00  0.00    -0.288 N 
ATOM     22  H   UNL d   1       0.492   3.051  -0.274  0.00  0.00     0.183 HD
BRANCH  21  23
ATOM     23  N   UNL d   1      -0.849   4.649   0.035  0.00  0.00    -0.247 NA
ATOM     24  H   UNL d   1      -1.806   4.658   0.415  0.00  0.00     0.143 HD
ATOM     25  H   UNL d   1      -0.938   5.093  -0.883  0.00  0.00     0.143 HD
ENDBRANCH  21  23
ENDBRANCH   2  19
TORSDOF 5
