REMARK  4 active torsions:
REMARK  status: ('A' for Active; 'I' for Inactive)
REMARK    1  A    between atoms: N_6  and  C_2 
REMARK       I    between atoms: C_3  and  N_5 
REMARK       I    between atoms: N_15  and  C_3 
REMARK    2  A    between atoms: C_8  and  S_17 
REMARK    3  A    between atoms: C_23  and  N_15 
REMARK    4  A    between atoms: S_17  and  C_27 
ROOT
ATOM      1  C   UNL d   1      -0.563  -6.804  -1.001  0.00  0.00     0.323 C 
ATOM      2  N   UNL d   1      -0.965  -5.617  -0.394  0.00  0.00    -0.332 N 
ATOM      3  N   UNL d   1      -1.315  -2.758   0.005  0.00  0.00    -0.265 NA
ATOM      4  N   UNL d   1       0.514  -7.439  -0.423  0.00  0.00    -0.309 N 
ATOM      5  O   UNL d   1      -1.162  -7.231  -1.986  0.00  0.00    -0.247 OA
ATOM      6  C   UNL d   1      -2.148  -4.920  -0.929  0.00  0.00     0.142 C 
ATOM      7  C   UNL d   1      -0.402  -4.951   0.790  0.00  0.00     0.142 C 
ATOM      8  C   UNL d   1      -0.102  -3.471   0.495  0.00  0.00     0.117 C 
ATOM      9  C   UNL d   1      -1.869  -3.425  -1.205  0.00  0.00     0.117 C 
ATOM     10  H   UNL d   1       0.911  -7.022   0.396  0.00  0.00     0.170 HD
ENDROOT
BRANCH   4  11
ATOM     11  C   UNL d   1       1.073  -8.691  -0.773  0.00  0.00     0.036 A 
ATOM     12  C   UNL d   1       0.646  -9.470  -1.847  0.00  0.00     0.031 A 
ATOM     13  C   UNL d   1       1.184 -10.745  -2.063  0.00  0.00     0.021 A 
ATOM     14  C   UNL d   1       2.151 -11.264  -1.201  0.00  0.00     0.009 A 
ATOM     15  C   UNL d   1       2.639 -10.461  -0.170  0.00  0.00     0.021 A 
ATOM     16  C   UNL d   1       2.102  -9.184   0.042  0.00  0.00     0.031 A 
BRANCH  14  17
ATOM     17  S   UNL d   1       2.773 -12.915  -1.417  0.00  0.00    -0.016 SA
BRANCH  17  18
ATOM     18  C   UNL d   1       1.316 -13.879  -0.969  0.00  0.00     0.448 C 
ATOM     19  F   UNL d   1       0.190 -13.141  -0.829  0.00  0.00    -0.160 F 
ATOM     20  F   UNL d   1       1.058 -14.819  -1.910  0.00  0.00    -0.160 F 
ATOM     21  F   UNL d   1       1.512 -14.531   0.203  0.00  0.00    -0.160 F 
ENDBRANCH  17  18
ENDBRANCH  14  17
ENDBRANCH   4  11
BRANCH   3  22
ATOM     22  C   UNL d   1      -0.978  -1.415  -0.323  0.00  0.00     0.097 A 
ATOM     23  C   UNL d   1      -1.853  -0.307  -0.161  0.00  0.00     0.043 A 
ATOM     24  C   UNL d   1      -1.316   0.928  -0.518  0.00  0.00     0.088 A 
ATOM     25  C   UNL d   1      -3.220  -0.132   0.322  0.00  0.00    -0.039 A 
ATOM     26  S   UNL d   1      -2.385   2.232  -0.295  0.00  0.00    -0.083 SA
ATOM     27  N   UNL d   1      -0.087   1.175  -0.995  0.00  0.00    -0.346 N 
ATOM     28  C   UNL d   1      -3.601   1.201   0.292  0.00  0.00     0.059 A 
ATOM     29  C   UNL d   1       0.643   0.074  -1.107  0.00  0.00     0.182 A 
ATOM     30  HN  UNL d   1       0.248   2.106  -1.244  1.00  0.00     0.167 HD
ATOM     31  N   UNL d   1       0.271  -1.174  -0.803  0.00  0.00    -0.342 N 
ATOM     32  HN  UNL d   1       0.925  -1.946  -0.931  1.00  0.00     0.167 HD
ATOM     33  C   UNL d   1      -4.143  -1.194   0.818  0.00  0.00     0.050 C 
ENDBRANCH   3  22
TORSDOF 4
