REMARK  7 active torsions:
REMARK  status: ('A' for Active; 'I' for Inactive)
REMARK    1  A    between atoms: N_2  and  C_1 
REMARK    2  A    between atoms: N_3  and  C_1 
REMARK    3  A    between atoms: C_5  and  N_3 
REMARK    4  A    between atoms: C_4  and  C_9 
REMARK    5  A    between atoms: O_14  and  C_4 
REMARK    6  A    between atoms: O_15  and  C_11 
REMARK    7  A    between atoms: C_18  and  O_14 
ROOT
ATOM      1  C   UNL d   1       0.915   0.229   0.540  0.00  0.00     0.174 C 
ATOM      2  S   UNL d   1       2.552  -0.117   0.389  0.00  0.00    -0.041 SA
ENDROOT
BRANCH   1   3
ATOM      3  N   UNL d   1       0.273   1.356   0.027  0.00  0.00    -0.358 N 
ATOM      4  C   UNL d   1      -0.766   2.041   0.809  0.00  0.00     0.126 C 
ATOM      5  C   UNL d   1      -1.851   2.619  -0.093  0.00  0.00     0.034 C 
ATOM      6  C   UNL d   1      -1.275   3.497  -1.208  0.00  0.00     0.088 C 
ATOM      7  C   UNL d   1      -0.090   2.842  -1.912  0.00  0.00     0.034 C 
ATOM      8  C   UNL d   1       0.927   2.245  -0.942  0.00  0.00     0.126 C 
BRANCH   6   9
ATOM      9  C   UNL d   1      -0.920   4.873  -0.669  0.00  0.00     0.263 C 
ATOM     10  O   UNL d   1      -0.540   5.095   0.471  0.00  0.00    -0.265 OA
BRANCH   9  11
ATOM     11  O   UNL d   1      -1.175   5.816  -1.613  0.00  0.00    -0.322 OA
BRANCH  11  12
ATOM     12  C   UNL d   1      -1.249   7.159  -1.117  0.00  0.00     0.174 C 
ATOM     13  C   UNL d   1      -2.664   7.412  -0.625  0.00  0.00     0.034 C 
ENDBRANCH  11  12
ENDBRANCH   9  11
ENDBRANCH   6   9
ENDBRANCH   1   3
BRANCH   1  14
ATOM     14  N   UNL d   1       0.188  -0.642   1.304  0.00  0.00    -0.331 N 
ATOM     15  H   UNL d   1       0.743  -1.244   1.904  0.00  0.00     0.168 HD
BRANCH  14  16
ATOM     16  C   UNL d   1      -1.153  -1.058   1.163  0.00  0.00     0.068 A 
ATOM     17  C   UNL d   1      -1.819  -1.633   2.257  0.00  0.00     0.095 A 
ATOM     18  C   UNL d   1      -3.112  -2.140   2.099  0.00  0.00     0.039 A 
ATOM     19  C   UNL d   1      -3.755  -2.060   0.863  0.00  0.00     0.003 A 
ATOM     20  C   UNL d   1      -3.103  -1.482  -0.224  0.00  0.00     0.002 A 
ATOM     21  C   UNL d   1      -1.807  -0.987  -0.075  0.00  0.00     0.032 A 
BRANCH  17  22
ATOM     22  O   UNL d   1      -1.281  -1.768   3.514  0.00  0.00    -0.354 OA
ATOM     23  C   UNL d   1      -0.767  -0.554   4.068  0.00  0.00     0.210 C 
ENDBRANCH  17  22
ENDBRANCH  14  16
ENDBRANCH   1  14
TORSDOF 7
