REMARK  3 active torsions:
REMARK  status: ('A' for Active; 'I' for Inactive)
REMARK    1  A    between atoms: C_3  and  C_4 
REMARK    2  A    between atoms: C_18  and  N_7 
REMARK    3  A    between atoms: C_16  and  C_12 
ROOT
ATOM      1  N   UNL d   1       0.177  -0.605   0.057  0.00  0.00    -0.284 N 
ATOM      2  C   UNL d   1       0.267   0.745  -0.024  0.00  0.00     0.151 A 
ATOM      3  C   UNL d   1      -1.106  -1.264   0.070  0.00  0.00     0.156 A 
ATOM      4  N   UNL d   1      -0.717   1.580  -0.046  0.00  0.00    -0.336 N 
ATOM      5  HN  UNL d   1      -0.558   2.584  -0.127  1.00  0.00     0.168 HD
ATOM      6  C   UNL d   1      -2.210  -0.258   0.141  0.00  0.00     0.034 A 
ATOM      7  C   UNL d   1      -1.986   1.063   0.044  0.00  0.00     0.043 A 
ATOM      8  S   UNL d   1       1.920   1.275  -0.067  0.00  0.00    -0.084 SA
ATOM      9  C   UNL d   1       1.351  -1.306   0.195  0.00  0.00     0.236 A 
ATOM     10  C   UNL d   1       2.556  -0.416   0.037  0.00  0.00     0.185 A 
ATOM     11  O   UNL d   1       1.435  -2.507   0.425  0.00  0.00    -0.272 OA
ENDROOT
BRANCH   3  12
ATOM     12  C   UNL d   1      -1.246  -2.095  -1.171  0.00  0.00     0.010 A 
ATOM     13  C   UNL d   1      -1.227  -1.685  -2.492  0.00  0.00     0.128 A 
ATOM     14  N   UNL d   1      -1.372  -2.806  -3.278  0.00  0.00    -0.267 N 
ATOM     15  N   UNL d   1      -1.542  -3.915  -2.515  0.00  0.00    -0.298 N 
ATOM     16  C   UNL d   1      -1.405  -3.501  -1.253  0.00  0.00     0.032 A 
ATOM     17  HN  UNL d   1      -1.735  -4.863  -2.837  1.00  0.00     0.187 HD
ATOM     18  C   UNL d   1      -1.424  -4.480  -0.137  0.00  0.00     0.070 C 
BRANCH  14  19
ATOM     19  C   UNL d   1      -1.336  -2.887  -4.697  0.00  0.00     0.056 A 
ATOM     20  C   UNL d   1      -1.045  -1.761  -5.481  0.00  0.00     0.031 A 
ATOM     21  C   UNL d   1      -0.976  -1.876  -6.872  0.00  0.00     0.002 A 
ATOM     22  C   UNL d   1      -1.206  -3.105  -7.487  0.00  0.00     0.000 A 
ATOM     23  C   UNL d   1      -1.506  -4.226  -6.715  0.00  0.00     0.002 A 
ATOM     24  C   UNL d   1      -1.569  -4.121  -5.324  0.00  0.00     0.031 A 
ENDBRANCH  14  19
ENDBRANCH   3  12
BRANCH   7  25
ATOM     25  C   UNL d   1      -3.131   2.012   0.041  0.00  0.00    -0.009 A 
ATOM     26  C   UNL d   1      -2.990   3.290   0.606  0.00  0.00     0.015 A 
ATOM     27  C   UNL d   1      -4.048   4.207   0.588  0.00  0.00     0.024 A 
ATOM     28  C   UNL d   1      -5.260   3.856  -0.001  0.00  0.00     0.034 A 
ATOM     29  C   UNL d   1      -5.422   2.599  -0.575  0.00  0.00     0.024 A 
ATOM     30 CL   UNL d   1      -6.559   4.982  -0.035  0.00  0.00    -0.084 Cl
ATOM     31  C   UNL d   1      -4.361   1.688  -0.560  0.00  0.00     0.015 A 
ENDBRANCH   7  25
TORSDOF 3
