REMARK  5 active torsions:
REMARK  status: ('A' for Active; 'I' for Inactive)
REMARK    1  A    between atoms: C_3  and  C_1 
REMARK    2  A    between atoms: N_11  and  C_2 
REMARK       I    between atoms: C_6  and  N_10 
REMARK    3  A    between atoms: O_18  and  C_6 
REMARK    4  A    between atoms: N_10  and  C_12 
REMARK    5  A    between atoms: C_19  and  O_18 
ROOT
ATOM      1  C   UNL d   1       4.719  -4.057  -2.200  0.00  0.00    -0.091 C 
ATOM      2  C   UNL d   1       4.759  -4.044  -3.403  0.00  0.00     0.014 C 
ATOM      3  C   UNL d   1       4.617  -4.029  -0.737  0.00  0.00     0.273 C 
ENDROOT
BRANCH   3   4
ATOM      4  O   UNL d   1       3.269  -3.716  -0.369  0.00  0.00    -0.292 OA
BRANCH   4   5
ATOM      5  C   UNL d   1       3.015  -2.388  -0.232  0.00  0.00     0.366 C 
ATOM      6  N   UNL d   1       1.662  -2.215  -0.126  0.00  0.00    -0.301 N 
ATOM      7  H   UNL d   1       1.134  -3.077  -0.166  0.00  0.00     0.171 HD
ATOM      8  O   UNL d   1       3.876  -1.523  -0.241  0.00  0.00    -0.238 OA
BRANCH   6   9
ATOM      9  C   UNL d   1       0.963  -0.998  -0.046  0.00  0.00     0.053 A 
ATOM     10  C   UNL d   1       1.572   0.245   0.017  0.00  0.00     0.051 A 
ATOM     11  C   UNL d   1       0.812   1.433   0.127  0.00  0.00     0.093 A 
ATOM     12  C   UNL d   1      -0.581   1.344   0.129  0.00  0.00     0.117 A 
ATOM     13  N   UNL d   1      -1.180   0.127   0.056  0.00  0.00    -0.350 N 
ATOM     14  C   UNL d   1      -0.419  -0.994  -0.023  0.00  0.00     0.119 A 
ATOM     15  HN  UNL d   1      -2.198   0.056   0.061  1.00  0.00     0.166 HD
BRANCH  11  16
ATOM     16  C   UNL d   1       1.593   2.709   0.250  0.00  0.00     0.421 C 
ATOM     17  F   UNL d   1       0.931   3.795   0.732  0.00  0.00    -0.166 F 
ATOM     18  F   UNL d   1       2.679   2.574   1.071  0.00  0.00    -0.166 F 
ATOM     19  F   UNL d   1       2.108   3.100  -0.955  0.00  0.00    -0.166 F 
ENDBRANCH  11  16
BRANCH  12  20
ATOM     20  N   UNL d   1      -1.406   2.457   0.289  0.00  0.00    -0.375 N 
ATOM     21  C   UNL d   1      -2.770   2.159   0.732  0.00  0.00     0.150 C 
ATOM     22  C   UNL d   1      -1.340   3.485  -0.752  0.00  0.00     0.150 C 
ENDBRANCH  12  20
ENDBRANCH   6   9
ENDBRANCH   4   5
ENDBRANCH   3   4
TORSDOF 5
