REMARK  8 active torsions:
REMARK  status: ('A' for Active; 'I' for Inactive)
REMARK    1  A    between atoms: C_4  and  C_1 
REMARK    2  A    between atoms: C_2  and  C_5 
REMARK       I    between atoms: C_3  and  N_6 
REMARK       I    between atoms: N_17  and  C_3 
REMARK    3  A    between atoms: N_6  and  C_9 
REMARK    4  A    between atoms: C_26  and  N_17 
REMARK    5  A    between atoms: C_18  and  C_25 
REMARK    6  A    between atoms: S_19  and  C_28 
REMARK    7  A    between atoms: C_25  and  S_19 
REMARK    8  A    between atoms: C_28  and  C_26 
ROOT
ATOM      1  C   UNL d   1       1.912  -5.721   2.806  0.00  0.00     0.320 C 
ATOM      2  N   UNL d   1       1.526  -4.803   3.761  0.00  0.00    -0.309 N 
ATOM      3  O   UNL d   1       3.046  -6.129   2.599  0.00  0.00    -0.247 OA
ATOM      4  N   UNL d   1       0.860  -6.143   2.025  0.00  0.00    -0.342 N 
ATOM      5  H   UNL d   1       0.540  -4.583   3.805  0.00  0.00     0.170 HD
ATOM      6  H   UNL d   1      -0.049  -6.203   2.461  0.00  0.00     0.164 HD
ENDROOT
BRANCH   4   7
ATOM      7  C   UNL d   1       1.119  -7.104   0.961  0.00  0.00     0.134 C 
BRANCH   7   8
ATOM      8  C   UNL d   1       1.173  -8.553   1.457  0.00  0.00     0.094 C 
BRANCH   8   9
ATOM      9  S   UNL d   1      -0.478  -9.049   2.063  0.00  0.00    -0.163 SA
BRANCH   9  10
ATOM     10  C   UNL d   1      -0.125 -10.786   2.470  0.00  0.00     0.112 C 
BRANCH  10  11
ATOM     11  C   UNL d   1      -1.375 -11.472   2.966  0.00  0.00    -0.048 A 
ATOM     12  C   UNL d   1      -2.258 -12.087   2.063  0.00  0.00     0.024 A 
ATOM     13  C   UNL d   1      -3.442 -12.695   2.511  0.00  0.00     0.048 A 
ATOM     14  C   UNL d   1      -3.733 -12.685   3.883  0.00  0.00     0.016 A 
ATOM     15  C   UNL d   1      -2.870 -12.065   4.785  0.00  0.00     0.001 A 
ATOM     16  C   UNL d   1      -1.700 -11.457   4.329  0.00  0.00     0.008 A 
BRANCH  13  17
ATOM     17  C   UNL d   1      -4.402 -13.346   1.545  0.00  0.00     0.417 C 
ATOM     18  F   UNL d   1      -4.015 -13.249   0.241  0.00  0.00    -0.166 F 
ATOM     19  F   UNL d   1      -4.562 -14.677   1.787  0.00  0.00    -0.166 F 
ATOM     20  F   UNL d   1      -5.650 -12.804   1.603  0.00  0.00    -0.166 F 
ENDBRANCH  13  17
ENDBRANCH  10  11
ENDBRANCH   9  10
ENDBRANCH   8   9
ENDBRANCH   7   8
ENDBRANCH   4   7
BRANCH   2  21
ATOM     21  C   UNL d   1       2.382  -4.110   4.645  0.00  0.00     0.037 A 
ATOM     22  C   UNL d   1       3.772  -4.259   4.620  0.00  0.00     0.045 A 
ATOM     23  C   UNL d   1       4.606  -3.569   5.511  0.00  0.00     0.050 A 
ATOM     24  C   UNL d   1       4.026  -2.693   6.435  0.00  0.00     0.016 A 
ATOM     25  C   UNL d   1       2.641  -2.524   6.466  0.00  0.00     0.003 A 
ATOM     26  C   UNL d   1       1.823  -3.231   5.576  0.00  0.00     0.029 A 
BRANCH  23  27
ATOM     27  C   UNL d   1       6.100  -3.787   5.465  0.00  0.00     0.417 C 
ATOM     28  F   UNL d   1       6.498  -4.697   4.535  0.00  0.00    -0.166 F 
ATOM     29  F   UNL d   1       6.591  -4.233   6.655  0.00  0.00    -0.166 F 
ATOM     30  F   UNL d   1       6.782  -2.643   5.183  0.00  0.00    -0.166 F 
ENDBRANCH  23  27
ENDBRANCH   2  21
TORSDOF 8
