REMARK  6 active torsions:
REMARK  status: ('A' for Active; 'I' for Inactive)
REMARK    1  A    between atoms: N_9  and  S_1 
REMARK    2  A    between atoms: C_10  and  S_1 
REMARK    3  A    between atoms: C_8  and  C_2 
REMARK    4  A    between atoms: C_5  and  C_12 
REMARK    5  A    between atoms: C_7  and  C_17 
REMARK    6  A    between atoms: C_17  and  N_9 
ROOT
ATOM      1  N   UNL d   1       0.410   0.263  -1.489  0.00  0.00    -0.310 N 
ATOM      2  H   UNL d   1      -0.557  -0.001  -1.683  0.00  0.00     0.172 HD
ENDROOT
BRANCH   1   3
ATOM      3  S   UNL d   1       0.869   0.073   0.114  0.00  0.00     0.259 S 
ATOM      4  O   UNL d   1       2.290   0.325   0.198  0.00  0.00    -0.201 OA
ATOM      5  O   UNL d   1       0.275  -1.152   0.598  0.00  0.00    -0.201 OA
BRANCH   3   6
ATOM      6  C   UNL d   1       0.023   1.419   0.912  0.00  0.00     0.080 A 
ATOM      7  C   UNL d   1       0.748   2.457   1.507  0.00  0.00     0.041 A 
ATOM      8  C   UNL d   1       0.066   3.547   2.072  0.00  0.00     0.049 A 
ATOM      9  C   UNL d   1      -1.340   3.563   2.035  0.00  0.00     0.016 A 
ATOM     10  C   UNL d   1      -2.054   2.510   1.459  0.00  0.00     0.002 A 
ATOM     11  C   UNL d   1      -1.375   1.431   0.900  0.00  0.00     0.025 A 
BRANCH   8  12
ATOM     12  C   UNL d   1       0.812   4.702   2.697  0.00  0.00     0.417 C 
ATOM     13  F   UNL d   1       2.164   4.551   2.679  0.00  0.00    -0.166 F 
ATOM     14  F   UNL d   1       0.560   5.880   2.060  0.00  0.00    -0.166 F 
ATOM     15  F   UNL d   1       0.473   4.900   4.000  0.00  0.00    -0.166 F 
ENDBRANCH   8  12
ENDBRANCH   3   6
ENDBRANCH   1   3
BRANCH   1  16
ATOM     16  C   UNL d   1       0.864   1.478  -2.164  0.00  0.00     0.189 C 
BRANCH  16  17
ATOM     17  C   UNL d   1       0.397   1.437  -3.587  0.00  0.00     0.035 A 
ATOM     18  N   UNL d   1      -0.971   1.415  -3.864  0.00  0.00    -0.351 N 
ATOM     19  C   UNL d   1      -1.174   1.408  -5.172  0.00  0.00     0.091 A 
ATOM     20  HN  UNL d   1      -1.708   1.405  -3.160  1.00  0.00     0.166 HD
ATOM     21  S   UNL d   1       0.264   1.429  -6.122  0.00  0.00    -0.081 SA
ATOM     22  C   UNL d   1       1.210   1.433  -4.702  0.00  0.00     0.078 A 
BRANCH  19  23
ATOM     23  C   UNL d   1      -2.507   1.384  -5.741  0.00  0.00     0.038 A 
ATOM     24  S   UNL d   1      -2.817   1.302  -7.432  0.00  0.00    -0.099 SA
ATOM     25  C   UNL d   1      -4.508   1.284  -7.207  0.00  0.00     0.050 A 
ATOM     26  C   UNL d   1      -4.849   1.353  -5.877  0.00  0.00     0.008 A 
ATOM     27  C   UNL d   1      -3.699   1.417  -5.035  0.00  0.00     0.022 A 
ENDBRANCH  19  23
ENDBRANCH  16  17
ENDBRANCH   1  16
TORSDOF 6
