REMARK  4 active torsions:
REMARK  status: ('A' for Active; 'I' for Inactive)
REMARK    1  A    between atoms: N_7  and  C_1 
REMARK    2  A    between atoms: C_9  and  C_4 
REMARK    3  A    between atoms: C_10  and  N_7 
REMARK    4  A    between atoms: N_8  and  C_9 
ROOT
ATOM      1  C   UNL d   1      -0.561  -0.148  -1.000  0.00  0.00     0.149 A 
ATOM      2  N   UNL d   1       0.591   0.463  -1.168  0.00  0.00    -0.338 N 
ATOM      3  HN  UNL d   1       0.997   0.683  -2.077  1.00  0.00     0.168 HD
ATOM      4  C   UNL d   1       1.183   0.772   0.046  0.00  0.00     0.046 A 
ATOM      5  S   UNL d   1      -0.998  -0.385   0.650  0.00  0.00    -0.064 SA
ATOM      6  C   UNL d   1       0.478   0.334   1.149  0.00  0.00     0.080 A 
ENDROOT
BRANCH   1   7
ATOM      7  N   UNL d   1      -1.389  -0.527  -2.000  0.00  0.00    -0.337 N 
ATOM      8  H   UNL d   1      -2.351  -0.749  -1.781  0.00  0.00     0.168 HD
BRANCH   7   9
ATOM      9  C   UNL d   1      -0.989  -0.858  -3.307  0.00  0.00     0.034 A 
ATOM     10  C   UNL d   1       0.281  -1.383  -3.593  0.00  0.00     0.029 A 
ATOM     11  C   UNL d   1       0.667  -1.669  -4.903  0.00  0.00     0.002 A 
ATOM     12  C   UNL d   1      -0.202  -1.400  -5.957  0.00  0.00     0.000 A 
ATOM     13  C   UNL d   1      -1.458  -0.857  -5.696  0.00  0.00     0.002 A 
ATOM     14  C   UNL d   1      -1.850  -0.593  -4.379  0.00  0.00     0.029 A 
ENDBRANCH   7   9
ENDBRANCH   1   7
BRANCH   4  15
ATOM     15  C   UNL d   1       2.451   1.575   0.023  0.00  0.00     0.329 C 
BRANCH  15  16
ATOM     16  N   UNL d   1       3.676   0.743   0.008  0.00  0.00     0.094 N 
ATOM     17  C   UNL d   1       4.837   1.655  -0.045  0.00  0.00     0.273 C 
ATOM     18  C   UNL d   1       6.169   0.909  -0.101  0.00  0.00     0.030 C 
ATOM     19  C   UNL d   1       6.206  -0.056  -1.276  0.00  0.00     0.003 C 
ATOM     20  C   UNL d   1       4.994  -0.975  -1.229  0.00  0.00     0.030 C 
ATOM     21  C   UNL d   1       3.691  -0.176  -1.147  0.00  0.00     0.273 C 
ENDBRANCH  15  16
ENDBRANCH   4  15
TORSDOF 4
