REMARK  5 active torsions:
REMARK  status: ('A' for Active; 'I' for Inactive)
REMARK    1  A    between atoms: C_13  and  N_2 
REMARK    2  A    between atoms: C_11  and  C_3 
REMARK    3  A    between atoms: C_12  and  C_6 
REMARK    4  A    between atoms: O_19  and  C_11 
REMARK    5  A    between atoms: C_27  and  O_19 
ROOT
ATOM      1  C   UNL d   1      -2.561   0.079   0.889  0.00  0.00     0.196 C 
ATOM      2  N   UNL d   1      -3.295   1.343   1.206  0.00  0.00    -0.265 N 
ATOM      3  C   UNL d   1      -4.851  -0.130   0.969  0.00  0.00     0.113 C 
ATOM      4  N   UNL d   1      -4.652   1.153   0.984  0.00  0.00    -0.294 N 
ATOM      5  HN  UNL d   1      -5.356   1.880   0.858  1.00  0.00     0.187 HD
ATOM      6  C   UNL d   1      -3.646  -0.944   1.296  0.00  0.00     0.122 C 
ATOM      7  C   UNL d   1      -1.299  -0.175   1.704  0.00  0.00     0.199 C 
ATOM      8  C   UNL d   1      -2.022   0.175  -0.539  0.00  0.00     0.199 C 
ATOM      9  C   UNL d   1      -0.557   0.291  -0.457  0.00  0.00     0.027 C 
ATOM     10  C   UNL d   1      -0.140  -0.060   0.818  0.00  0.00     0.027 C 
ATOM     11  O   UNL d   1      -2.635   0.205  -1.591  0.00  0.00    -0.289 OA
ATOM     12  O   UNL d   1      -1.196  -0.461   2.885  0.00  0.00    -0.289 OA
ATOM     13  C   UNL d   1       1.199  -0.147   1.155  0.00  0.00     0.016 C 
ATOM     14  C   UNL d   1       0.350   0.781  -1.385  0.00  0.00     0.016 C 
ATOM     15  C   UNL d   1       1.706   0.802  -1.028  0.00  0.00     0.001 C 
ATOM     16  C   UNL d   1       2.132   0.285   0.210  0.00  0.00     0.001 C 
ENDROOT
BRANCH   2  17
ATOM     17  C   UNL d   1      -2.927   2.661   1.402  0.00  0.00     0.052 A 
ATOM     18  C   UNL d   1      -3.807   3.495   2.129  0.00  0.00     0.031 A 
ATOM     19  C   UNL d   1      -3.603   4.868   2.286  0.00  0.00     0.002 A 
ATOM     20  C   UNL d   1      -2.488   5.455   1.700  0.00  0.00     0.000 A 
ATOM     21  C   UNL d   1      -1.579   4.659   1.018  0.00  0.00     0.002 A 
ATOM     22  C   UNL d   1      -1.786   3.275   0.884  0.00  0.00     0.031 A 
ENDBRANCH   2  17
BRANCH   6  23
ATOM     23  C   UNL d   1      -3.621  -2.446   1.188  0.00  0.00    -0.045 A 
ATOM     24  C   UNL d   1      -4.217  -3.195   0.169  0.00  0.00     0.008 A 
ATOM     25  C   UNL d   1      -4.459  -4.572   0.348  0.00  0.00     0.007 A 
ATOM     26  C   UNL d   1      -4.080  -5.230   1.526  0.00  0.00    -0.062 A 
ATOM     27  C   UNL d   1      -3.380  -4.513   2.497  0.00  0.00     0.007 A 
ATOM     28  C   UNL d   1      -4.455  -6.663   1.777  0.00  0.00     0.048 C 
ATOM     29  C   UNL d   1      -3.149  -3.148   2.316  0.00  0.00     0.008 A 
ENDBRANCH   6  23
BRANCH   3  30
ATOM     30  C   UNL d   1      -6.244  -0.688   0.880  0.00  0.00     0.308 C 
ATOM     31  O   UNL d   1      -6.624  -1.412  -0.020  0.00  0.00    -0.258 OA
BRANCH  30  32
ATOM     32  O   UNL d   1      -6.957  -0.189   1.910  0.00  0.00    -0.317 OA
BRANCH  32  33
ATOM     33  C   UNL d   1      -8.348  -0.522   1.942  0.00  0.00     0.175 C 
ATOM     34  C   UNL d   1      -9.135   0.205   0.863  0.00  0.00     0.034 C 
ENDBRANCH  32  33
ENDBRANCH  30  32
ENDBRANCH   3  30
TORSDOF 5
