REMARK  2 active torsions:
REMARK  status: ('A' for Active; 'I' for Inactive)
REMARK    1  A    between atoms: C_6  and  C_1 
REMARK    2  A    between atoms: C_10  and  C_6 
ROOT
ATOM      1  C   UNL d   1      -2.388   0.096  -0.011  0.00  0.00     0.128 A 
ATOM      2  O   UNL d   1      -1.577  -1.006  -0.024  0.00  0.00    -0.304 OA
ATOM      3  C   UNL d   1      -0.287  -0.572  -0.024  0.00  0.00     0.104 A 
ATOM      4  C   UNL d   1      -0.255   0.819  -0.016  0.00  0.00     0.003 A 
ATOM      5  C   UNL d   1      -1.612   1.239  -0.028  0.00  0.00     0.055 A 
ATOM      6  C   UNL d   1       0.857  -1.372  -0.022  0.00  0.00     0.047 A 
ATOM      7  C   UNL d   1       2.093  -0.722  -0.010  0.00  0.00     0.041 A 
ATOM      8  C   UNL d   1       0.996   1.462   0.003  0.00  0.00     0.033 A 
ATOM      9  C   UNL d   1       2.154   0.672   0.003  0.00  0.00     0.013 A 
ATOM     10 BR   UNL d   1       0.752  -3.254  -0.027  0.00  0.00    -0.048 Br
ATOM     11 BR   UNL d   1       3.845   1.523   0.021  0.00  0.00    -0.051 Br
ENDROOT
BRANCH   1  12
ATOM     12  C   UNL d   1      -3.822  -0.083   0.002  0.00  0.00     0.215 C 
ATOM     13  O   UNL d   1      -4.609   0.746  -0.460  0.00  0.00    -0.284 OA
BRANCH  12  14
ATOM     14  C   UNL d   1      -4.385  -1.305   0.647  0.00  0.00     0.017 A 
ATOM     15  C   UNL d   1      -5.583  -1.849   0.165  0.00  0.00     0.017 A 
ATOM     16  C   UNL d   1      -6.138  -2.975   0.784  0.00  0.00     0.025 A 
ATOM     17  C   UNL d   1      -5.505  -3.546   1.887  0.00  0.00     0.034 A 
ATOM     18  C   UNL d   1      -4.319  -3.005   2.380  0.00  0.00     0.025 A 
ATOM     19 CL   UNL d   1      -6.195  -4.919   2.658  0.00  0.00    -0.084 Cl
ATOM     20  C   UNL d   1      -3.763  -1.883   1.765  0.00  0.00     0.017 A 
ENDBRANCH  12  14
ENDBRANCH   1  12
TORSDOF 2
