REMARK  4 active torsions:
REMARK  status: ('A' for Active; 'I' for Inactive)
REMARK    1  A    between atoms: C_11  and  N_5 
REMARK    2  A    between atoms: S_13  and  C_8 
REMARK    3  A    between atoms: C_12  and  C_11 
REMARK    4  A    between atoms: C_23  and  S_13 
ROOT
ATOM      1  C   UNL d   1      -0.227  -0.818  -0.012  0.00  0.00     0.146 A 
ATOM      2  C   UNL d   1      -0.498   0.517   0.005  0.00  0.00     0.150 A 
ATOM      3  N   UNL d   1      -1.357  -1.567  -0.063  0.00  0.00    -0.320 N 
ATOM      4  HN  UNL d   1      -1.427  -2.584  -0.090  1.00  0.00     0.169 HD
ATOM      5  N   UNL d   1      -1.874   0.602  -0.009  0.00  0.00    -0.315 N 
ATOM      6  N   UNL d   1       1.057  -1.306   0.010  0.00  0.00    -0.287 N 
ATOM      7  N   UNL d   1       1.819   0.963   0.033  0.00  0.00    -0.269 N 
ATOM      8  C   UNL d   1      -2.342  -0.695  -0.071  0.00  0.00     0.154 A 
ATOM      9  C   UNL d   1       2.130  -0.411   0.028  0.00  0.00     0.332 A 
ATOM     10  C   UNL d   1       0.527   1.507   0.038  0.00  0.00     0.282 A 
ATOM     11  O   UNL d   1       3.294  -0.818   0.042  0.00  0.00    -0.246 OA
ATOM     12  O   UNL d   1       0.296   2.712   0.063  0.00  0.00    -0.265 OA
ATOM     13  C   UNL d   1       1.335  -2.725  -0.003  0.00  0.00     0.163 C 
ATOM     14  C   UNL d   1       2.919   1.908   0.032  0.00  0.00     0.164 C 
ENDROOT
BRANCH   5  15
ATOM     15  C   UNL d   1      -2.659   1.833   0.003  0.00  0.00     0.172 C 
BRANCH  15  16
ATOM     16  C   UNL d   1      -2.955   2.391   1.384  0.00  0.00    -0.018 A 
ATOM     17  C   UNL d   1      -3.635   3.622   1.506  0.00  0.00     0.043 A 
ATOM     18  C   UNL d   1      -3.852   4.215   2.754  0.00  0.00     0.048 A 
ATOM     19 CL   UNL d   1      -4.241   4.461   0.119  0.00  0.00    -0.084 Cl
ATOM     20  C   UNL d   1      -3.405   3.576   3.905  0.00  0.00     0.035 A 
ATOM     21  C   UNL d   1      -2.777   2.339   3.820  0.00  0.00     0.024 A 
ATOM     22 CL   UNL d   1      -3.625   4.321   5.439  0.00  0.00    -0.084 Cl
ATOM     23  C   UNL d   1      -2.560   1.747   2.571  0.00  0.00     0.012 A 
ENDBRANCH  15  16
ENDBRANCH   5  15
BRANCH   8  24
ATOM     24  S   UNL d   1      -4.021  -1.096  -0.246  0.00  0.00    -0.054 SA
BRANCH  24  25
ATOM     25  C   UNL d   1      -4.218  -2.334   1.026  0.00  0.00     0.008 A 
ATOM     26  C   UNL d   1      -5.232  -2.154   1.975  0.00  0.00     0.019 A 
ATOM     27  C   UNL d   1      -5.453  -3.109   2.971  0.00  0.00     0.001 A 
ATOM     28  C   UNL d   1      -4.666  -4.257   3.024  0.00  0.00     0.000 A 
ATOM     29  C   UNL d   1      -3.669  -4.458   2.072  0.00  0.00     0.001 A 
ATOM     30  C   UNL d   1      -3.455  -3.507   1.070  0.00  0.00     0.019 A 
ENDBRANCH  24  25
ENDBRANCH   8  24
TORSDOF 4
