REMARK  3 active torsions:
REMARK  status: ('A' for Active; 'I' for Inactive)
REMARK    1  A    between atoms: C_3  and  C_1 
REMARK    2  A    between atoms: N_4  and  N_11 
REMARK    3  A    between atoms: N_11  and  C_6 
ROOT
ATOM      1  C   UNL d   1      -0.430  -2.463  -7.285  0.00  0.00     0.209 C 
ATOM      2  N   UNL d   1      -0.150  -2.198  -6.044  0.00  0.00    -0.281 N 
ATOM      3  HN  UNL d   1       0.492  -2.798  -5.526  1.00  0.00     0.188 HD
ATOM      4  N   UNL d   1      -2.069  -0.986  -8.653  0.00  0.00    -0.189 NA
ATOM      5  N   UNL d   1       0.783  -4.534  -8.278  0.00  0.00    -0.189 NA
ATOM      6  C   UNL d   1      -1.342  -1.656  -8.043  0.00  0.00     0.130 C 
ATOM      7  C   UNL d   1       0.243  -3.612  -7.820  0.00  0.00     0.130 C 
ENDROOT
BRANCH   2   8
ATOM      8  N   UNL d   1      -0.718  -1.112  -5.434  0.00  0.00    -0.298 N 
ATOM      9  H   UNL d   1      -0.908  -0.250  -5.960  0.00  0.00     0.187 HD
BRANCH   8  10
ATOM     10  C   UNL d   1      -0.265  -0.815  -4.121  0.00  0.00     0.069 A 
ATOM     11  C   UNL d   1       0.171  -1.832  -3.260  0.00  0.00     0.033 A 
ATOM     12  C   UNL d   1       0.589  -1.544  -1.957  0.00  0.00     0.018 A 
ATOM     13  C   UNL d   1       0.580  -0.227  -1.477  0.00  0.00     0.049 A 
ATOM     14  C   UNL d   1       0.131   0.796  -2.325  0.00  0.00     0.042 A 
ATOM     15  C   UNL d   1      -0.294   0.501  -3.625  0.00  0.00     0.062 A 
ATOM     16 CL   UNL d   1      -0.823   1.806  -4.631  0.00  0.00    -0.082 Cl
BRANCH  13  17
ATOM     17  C   UNL d   1       1.039   0.065  -0.069  0.00  0.00     0.417 C 
ATOM     18  F   UNL d   1       1.040   1.391   0.239  0.00  0.00    -0.166 F 
ATOM     19  F   UNL d   1       2.306  -0.375   0.165  0.00  0.00    -0.166 F 
ATOM     20  F   UNL d   1       0.254  -0.537   0.866  0.00  0.00    -0.166 F 
ENDBRANCH  13  17
ENDBRANCH   8  10
ENDBRANCH   2   8
TORSDOF 3
