REMARK  3 active torsions:
REMARK  status: ('A' for Active; 'I' for Inactive)
REMARK    1  A    between atoms: C_2  and  N_1 
REMARK    2  A    between atoms: N_6  and  C_2 
REMARK    3  A    between atoms: C_15  and  N_6 
ROOT
ATOM      1  C   UNL d   1       2.940   1.346   1.258  0.00  0.00     0.175 C 
ATOM      2  S   UNL d   1       2.925   2.987   1.638  0.00  0.00    -0.041 SA
ENDROOT
BRANCH   1   3
ATOM      3  N   UNL d   1       2.094   0.748   0.304  0.00  0.00    -0.349 N 
ATOM      4  C   UNL d   1       0.955   1.479  -0.323  0.00  0.00     0.116 C 
ATOM      5  C   UNL d   1      -0.265   0.587  -0.253  0.00  0.00    -0.022 A 
ATOM      6  C   UNL d   1       1.277   1.905  -1.758  0.00  0.00     0.037 C 
ATOM      7  C   UNL d   1      -1.629   1.013  -0.346  0.00  0.00     0.017 A 
ATOM      8  C   UNL d   1      -0.190  -0.779  -0.043  0.00  0.00    -0.008 A 
ATOM      9  C   UNL d   1      -2.513  -0.035  -0.203  0.00  0.00     0.051 A 
ATOM     10  S   UNL d   1      -1.713  -1.530   0.023  0.00  0.00    -0.106 SA
ATOM     11  C   UNL d   1       1.085  -1.532   0.176  0.00  0.00     0.066 C 
ATOM     12  C   UNL d   1       2.278  -0.639  -0.195  0.00  0.00     0.131 C 
ENDBRANCH   1   3
BRANCH   1  13
ATOM     13  N   UNL d   1       3.737   0.423   1.923  0.00  0.00    -0.333 N 
ATOM     14  H   UNL d   1       3.245  -0.417   2.193  0.00  0.00     0.168 HD
BRANCH  13  15
ATOM     15  C   UNL d   1       5.037   0.571   2.453  0.00  0.00     0.035 A 
ATOM     16  C   UNL d   1       5.471  -0.368   3.393  0.00  0.00     0.053 A 
ATOM     17  C   UNL d   1       6.782  -0.330   3.884  0.00  0.00     0.042 A 
ATOM     18 CL   UNL d   1       7.235  -1.512   5.061  0.00  0.00    -0.084 Cl
ATOM     19  C   UNL d   1       7.694   0.630   3.422  0.00  0.00    -0.040 A 
ATOM     20  C   UNL d   1       7.246   1.577   2.495  0.00  0.00     0.011 A 
ATOM     21  C   UNL d   1       9.123   0.667   3.884  0.00  0.00     0.050 C 
ATOM     22  C   UNL d   1       5.936   1.542   2.007  0.00  0.00     0.030 A 
ENDBRANCH  13  15
ENDBRANCH   1  13
TORSDOF 3
