REMARK  4 active torsions:
REMARK  status: ('A' for Active; 'I' for Inactive)
REMARK    1  A    between atoms: C_5  and  C_1 
REMARK    2  A    between atoms: N_2  and  C_4 
REMARK    3  A    between atoms: S_9  and  C_3 
REMARK    4  A    between atoms: C_16  and  S_9 
ROOT
ATOM      1  C   UNL d   1       0.827   1.214   0.051  0.00  0.00     0.084 A 
ATOM      2  C   UNL d   1      -0.566   1.210  -0.001  0.00  0.00     0.089 A 
ATOM      3  C   UNL d   1       0.751  -1.219  -0.047  0.00  0.00     0.119 A 
ATOM      4  C   UNL d   1       1.488  -0.037   0.022  0.00  0.00     0.056 A 
ATOM      5  N   UNL d   1      -1.281   0.051  -0.078  0.00  0.00    -0.357 N 
ATOM      6  HN  UNL d   1      -2.300   0.076  -0.119  1.00  0.00     0.166 HD
ATOM      7  C   UNL d   1      -0.623  -1.133  -0.099  0.00  0.00     0.124 A 
ENDROOT
BRANCH   2   8
ATOM      8  S   UNL d   1      -1.594   2.656   0.119  0.00  0.00    -0.072 SA
BRANCH   8   9
ATOM      9  C   UNL d   1      -1.795   3.115  -1.593  0.00  0.00     0.007 A 
ATOM     10  C   UNL d   1      -2.319   2.228  -2.539  0.00  0.00     0.019 A 
ATOM     11  C   UNL d   1      -2.497   2.632  -3.865  0.00  0.00     0.001 A 
ATOM     12  C   UNL d   1      -2.163   3.929  -4.251  0.00  0.00     0.000 A 
ATOM     13  C   UNL d   1      -1.656   4.824  -3.312  0.00  0.00     0.001 A 
ATOM     14  C   UNL d   1      -1.475   4.420  -1.987  0.00  0.00     0.019 A 
ENDBRANCH   8   9
ENDBRANCH   2   8
BRANCH   1  15
ATOM     15  C   UNL d   1       1.683   2.443   0.147  0.00  0.00     0.420 C 
ATOM     16  F   UNL d   1       1.047   3.639   0.211  0.00  0.00    -0.166 F 
ATOM     17  F   UNL d   1       2.489   2.401   1.248  0.00  0.00    -0.166 F 
ATOM     18  F   UNL d   1       2.535   2.540  -0.915  0.00  0.00    -0.166 F 
ENDBRANCH   1  15
BRANCH   3  19
ATOM     19  N   UNL d   1       1.402  -2.522  -0.050  0.00  0.00    -0.114 N 
ATOM     20  O   UNL d   1       2.639  -2.541  -0.010  0.00  0.00    -0.532 OA
ATOM     21  O   UNL d   1       0.680  -3.526  -0.090  0.00  0.00    -0.532 OA
ENDBRANCH   3  19
TORSDOF 4
