REMARK  7 active torsions:
REMARK  status: ('A' for Active; 'I' for Inactive)
REMARK       I    between atoms: N_3  and  C_1 
REMARK    1  A    between atoms: C_8  and  C_1 
REMARK    2  A    between atoms: O_5  and  C_2 
REMARK    3  A    between atoms: C_4  and  N_3 
REMARK    4  A    between atoms: C_16  and  O_5 
REMARK    5  A    between atoms: C_9  and  C_10 
REMARK    6  A    between atoms: C_27  and  C_21 
REMARK    7  A    between atoms: C_28  and  C_27 
ROOT
ATOM      1  C   UNL d   1       0.540  -3.478  -0.765  0.00  0.00     0.169 A 
ATOM      2  C   UNL d   1       0.993  -2.489   0.121  0.00  0.00     0.067 A 
ATOM      3  N   UNL d   1       1.155  -4.684  -0.902  0.00  0.00    -0.345 N 
ATOM      4  HN  UNL d   1       0.784  -5.400  -1.527  1.00  0.00     0.167 HD
ATOM      5  C   UNL d   1       2.170  -2.738   0.830  0.00  0.00     0.029 A 
ATOM      6  C   UNL d   1       2.272  -4.896  -0.181  0.00  0.00     0.090 A 
ATOM      7  C   UNL d   1       2.819  -3.961   0.680  0.00  0.00     0.019 A 
ENDROOT
BRANCH   2   8
ATOM      8  N   UNL d   1       0.362  -1.224   0.282  0.00  0.00    -0.221 NA
ATOM      9  C   UNL d   1      -0.563  -1.071   1.314  0.00  0.00     0.235 C 
ATOM     10  O   UNL d   1      -1.003  -1.981   2.004  0.00  0.00    -0.274 OA
ATOM     11  H   UNL d   1       1.006  -0.444   0.258  0.00  0.00     0.137 HD
BRANCH   9  12
ATOM     12  C   UNL d   1      -0.959   0.344   1.617  0.00  0.00     0.026 A 
ATOM     13  C   UNL d   1      -0.970   1.325   0.620  0.00  0.00     0.017 A 
ATOM     14  C   UNL d   1      -1.398   2.625   0.914  0.00  0.00     0.008 A 
ATOM     15  C   UNL d   1      -1.823   2.971   2.207  0.00  0.00    -0.058 A 
ATOM     16  C   UNL d   1      -1.803   1.987   3.204  0.00  0.00     0.008 A 
ATOM     17  C   UNL d   1      -1.374   0.684   2.911  0.00  0.00     0.017 A 
BRANCH  15  18
ATOM     18  C   UNL d   1      -2.376   4.355   2.471  0.00  0.00     0.038 C 
BRANCH  18  19
ATOM     19  C   UNL d   1      -1.708   5.143   3.602  0.00  0.00     0.000 C 
ATOM     20  C   UNL d   1      -0.250   5.475   3.324  0.00  0.00     0.005 C 
ENDBRANCH  18  19
ENDBRANCH  15  18
ENDBRANCH   9  12
ENDBRANCH   2   8
BRANCH   1  21
ATOM     21  O   UNL d   1      -0.546  -3.199  -1.587  0.00  0.00    -0.292 OA
BRANCH  21  22
ATOM     22  C   UNL d   1      -0.602  -3.804  -2.829  0.00  0.00     0.077 A 
ATOM     23  C   UNL d   1      -1.863  -4.149  -3.306  0.00  0.00     0.038 A 
ATOM     24  C   UNL d   1      -2.014  -4.694  -4.591  0.00  0.00     0.011 A 
ATOM     25  C   UNL d   1      -0.911  -4.897  -5.446  0.00  0.00    -0.050 A 
ATOM     26  C   UNL d   1       0.353  -4.560  -4.938  0.00  0.00     0.011 A 
ATOM     27  C   UNL d   1       0.504  -4.002  -3.659  0.00  0.00     0.038 A 
BRANCH  25  28
ATOM     28  C   UNL d   1      -1.120  -5.414  -6.883  0.00  0.00    -0.024 C 
ATOM     29  C   UNL d   1       0.187  -5.535  -7.703  0.00  0.00     0.019 C 
ATOM     30  C   UNL d   1      -1.776  -6.811  -6.872  0.00  0.00     0.019 C 
ATOM     31  C   UNL d   1      -2.034  -4.431  -7.649  0.00  0.00     0.019 C 
ENDBRANCH  25  28
ENDBRANCH  21  22
ENDBRANCH   1  21
TORSDOF 7
