REMARK  4 active torsions:
REMARK  status: ('A' for Active; 'I' for Inactive)
REMARK    1  A    between atoms: C_7  and  C_1 
REMARK    2  A    between atoms: C_9  and  C_3 
REMARK       I    between atoms: N_10  and  C_7 
REMARK    3  A    between atoms: N_8  and  C_11 
REMARK    4  A    between atoms: C_18  and  N_10 
ROOT
ATOM      1  C   UNL d   1      -0.230  -1.051  -0.227  0.00  0.00     0.097 A 
ATOM      2  S   UNL d   1       1.299  -0.315  -0.441  0.00  0.00    -0.064 SA
ATOM      3  C   UNL d   1       0.601   1.247  -0.196  0.00  0.00     0.085 A 
ATOM      4  N   UNL d   1      -0.712   1.231  -0.052  0.00  0.00    -0.352 N 
ATOM      5  HN  UNL d   1      -1.294   2.063   0.047  1.00  0.00     0.166 HD
ATOM      6  C   UNL d   1      -1.192  -0.070  -0.053  0.00  0.00     0.029 A 
ATOM      7  C   UNL d   1      -2.651  -0.286   0.152  0.00  0.00     0.070 C 
ENDROOT
BRANCH   1   8
ATOM      8  C   UNL d   1      -0.435  -2.491  -0.197  0.00  0.00     0.265 C 
ATOM      9  N   UNL d   1       0.668  -3.282  -0.499  0.00  0.00    -0.322 N 
ATOM     10  H   UNL d   1       1.539  -2.792  -0.663  0.00  0.00     0.169 HD
ATOM     11  O   UNL d   1      -1.527  -2.954   0.119  0.00  0.00    -0.267 OA
BRANCH   9  12
ATOM     12  C   UNL d   1       0.723  -4.694  -0.426  0.00  0.00     0.037 A 
ATOM     13  C   UNL d   1      -0.413  -5.498  -0.286  0.00  0.00     0.065 A 
ATOM     14  C   UNL d   1      -0.284  -6.880  -0.095  0.00  0.00     0.105 A 
ATOM     15  C   UNL d   1       0.980  -7.480  -0.081  0.00  0.00     0.036 A 
ATOM     16  C   UNL d   1       2.110  -6.689  -0.281  0.00  0.00     0.005 A 
ATOM     17  C   UNL d   1       1.982  -5.306  -0.460  0.00  0.00     0.029 A 
BRANCH  14  18
ATOM     18  N   UNL d   1      -1.486  -7.696   0.114  0.00  0.00    -0.116 N 
ATOM     19  O   UNL d   1      -2.590  -7.137   0.049  0.00  0.00    -0.532 OA
ATOM     20  O   UNL d   1      -1.325  -8.903   0.344  0.00  0.00    -0.532 OA
ENDBRANCH  14  18
ENDBRANCH   9  12
ENDBRANCH   1   8
BRANCH   3  21
ATOM     21  C   UNL d   1       1.420   2.477  -0.175  0.00  0.00    -0.002 A 
ATOM     22  C   UNL d   1       0.780   3.730  -0.279  0.00  0.00     0.024 A 
ATOM     23  C   UNL d   1       1.546   4.887  -0.270  0.00  0.00    -0.022 A 
ATOM     24  C   UNL d   1       1.132   6.308  -0.311  0.00  0.00     0.068 C 
ATOM     25  C   UNL d   1       2.923   4.825  -0.137  0.00  0.00     0.075 A 
ATOM     26  C   UNL d   1       2.494   6.940  -0.608  0.00  0.00     0.180 C 
ATOM     27  O   UNL d   1       3.535   6.051  -0.138  0.00  0.00    -0.350 OA
ATOM     28  C   UNL d   1       3.586   3.628   0.002  0.00  0.00     0.038 A 
ATOM     29  C   UNL d   1       2.829   2.451  -0.022  0.00  0.00     0.017 A 
ENDBRANCH   3  21
TORSDOF 4
