REMARK  3 active torsions:
REMARK  status: ('A' for Active; 'I' for Inactive)
REMARK    1  A    between atoms: C_6  and  N_1 
REMARK    2  A    between atoms: C_9  and  C_4 
REMARK    3  A    between atoms: O_15  and  C_12 
ROOT
ATOM      1  N   UNL d   1       0.020   0.844  -0.054  0.00  0.00    -0.252 N 
ATOM      2  C   UNL d   1      -1.114   0.083   0.147  0.00  0.00     0.240 C 
ATOM      3  C   UNL d   1       1.140   0.050  -0.178  0.00  0.00     0.232 C 
ATOM      4  C   UNL d   1      -0.751  -1.378   0.023  0.00  0.00     0.120 C 
ATOM      5  C   UNL d   1       0.764  -1.385   0.020  0.00  0.00     0.122 C 
ATOM      6  O   UNL d   1      -2.263   0.457   0.352  0.00  0.00    -0.272 OA
ATOM      7  O   UNL d   1       2.309   0.380  -0.341  0.00  0.00    -0.273 OA
ENDROOT
BRANCH   1   8
ATOM      8  C   UNL d   1       0.044   2.272  -0.096  0.00  0.00     0.045 A 
ATOM      9  C   UNL d   1      -0.978   3.046   0.476  0.00  0.00     0.033 A 
ATOM     10  C   UNL d   1      -0.938   4.449   0.457  0.00  0.00     0.039 A 
ATOM     11  C   UNL d   1       0.120   5.112  -0.155  0.00  0.00     0.068 A 
ATOM     12  C   UNL d   1       1.141   4.364  -0.729  0.00  0.00     0.039 A 
ATOM     13  C   UNL d   1       1.103   2.965  -0.705  0.00  0.00     0.033 A 
BRANCH  11  14
ATOM     14  O   UNL d   1       0.283   6.467  -0.214  0.00  0.00    -0.356 OA
ATOM     15  C   UNL d   1      -0.915   7.234  -0.193  0.00  0.00     0.210 C 
ENDBRANCH  11  14
ENDBRANCH   1   8
BRANCH   4  16
ATOM     16  C   UNL d   1      -1.341  -2.042  -1.206  0.00  0.00    -0.045 A 
ATOM     17  C   UNL d   1      -1.052  -1.593  -2.506  0.00  0.00     0.008 A 
ATOM     18  C   UNL d   1      -1.570  -2.256  -3.619  0.00  0.00     0.001 A 
ATOM     19  C   UNL d   1      -2.387  -3.371  -3.451  0.00  0.00     0.000 A 
ATOM     20  C   UNL d   1      -2.695  -3.819  -2.169  0.00  0.00     0.001 A 
ATOM     21  C   UNL d   1      -2.176  -3.159  -1.053  0.00  0.00     0.008 A 
ENDBRANCH   4  16
TORSDOF 3
