REMARK  2 active torsions:
REMARK  status: ('A' for Active; 'I' for Inactive)
REMARK    1  A    between atoms: C_2  and  C_1 
REMARK       I    between atoms: N_5  and  C_2 
REMARK    2  A    between atoms: C_11  and  N_5 
ROOT
ATOM      1  C   UNL d   1      -1.711  -2.383   0.083  0.00  0.00     0.280 C 
ATOM      2  N   UNL d   1      -0.977  -3.546  -0.026  0.00  0.00    -0.321 N 
ATOM      3  O   UNL d   1      -1.279  -1.262   0.335  0.00  0.00    -0.265 OA
ATOM      4  H   UNL d   1      -1.498  -4.394  -0.216  0.00  0.00     0.169 HD
ENDROOT
BRANCH   1   5
ATOM      5  C   UNL d   1      -3.179  -2.585  -0.143  0.00  0.00     0.147 A 
ATOM      6  O   UNL d   1      -3.655  -3.874  -0.482  0.00  0.00    -0.270 OA
ATOM      7  C   UNL d   1      -4.989  -4.067  -0.721  0.00  0.00     0.288 A 
ATOM      8  O   UNL d   1      -5.441  -5.162  -1.035  0.00  0.00    -0.260 OA
ATOM      9  C   UNL d   1      -5.887  -2.905  -0.583  0.00  0.00     0.082 A 
ATOM     10  C   UNL d   1      -5.407  -1.704  -0.252  0.00  0.00     0.009 A 
ATOM     11  C   UNL d   1      -4.001  -1.531  -0.029  0.00  0.00     0.043 A 
ENDBRANCH   1   5
BRANCH   2  12
ATOM     12  C   UNL d   1       0.427  -3.674   0.080  0.00  0.00     0.035 A 
ATOM     13  C   UNL d   1       1.291  -2.599   0.298  0.00  0.00     0.029 A 
ATOM     14  C   UNL d   1       2.674  -2.792   0.367  0.00  0.00     0.002 A 
ATOM     15  C   UNL d   1       3.209  -4.068   0.222  0.00  0.00     0.000 A 
ATOM     16  C   UNL d   1       2.360  -5.151   0.013  0.00  0.00     0.002 A 
ATOM     17  C   UNL d   1       0.976  -4.957  -0.058  0.00  0.00     0.029 A 
ENDBRANCH   2  12
TORSDOF 2
