REMARK  3 active torsions:
REMARK  status: ('A' for Active; 'I' for Inactive)
REMARK    1  A    between atoms: C_6  and  N_1 
REMARK    2  A    between atoms: C_8  and  C_4 
REMARK    3  A    between atoms: C_9  and  C_6 
ROOT
ATOM      1  N   UNL d   1       1.128   1.028  -0.068  0.00  0.00    -0.312 N 
ATOM      2  C   UNL d   1       1.966  -0.091   0.029  0.00  0.00     0.237 A 
ATOM      3  C   UNL d   1      -0.220   0.651  -0.104  0.00  0.00     0.045 A 
ATOM      4  C   UNL d   1       1.063  -1.345   0.016  0.00  0.00     0.146 A 
ATOM      5  C   UNL d   1      -0.317  -0.741  -0.074  0.00  0.00    -0.014 A 
ATOM      6  O   UNL d   1       3.187  -0.078   0.102  0.00  0.00    -0.272 OA
ATOM      7  C   UNL d   1      -1.549  -1.377  -0.086  0.00  0.00     0.011 A 
ATOM      8  C   UNL d   1      -1.350   1.448  -0.135  0.00  0.00     0.030 A 
ATOM      9  C   UNL d   1      -2.697  -0.584  -0.106  0.00  0.00     0.001 A 
ATOM     10  C   UNL d   1      -2.598   0.817  -0.127  0.00  0.00     0.002 A 
ENDROOT
BRANCH   1  11
ATOM     11  C   UNL d   1       1.607   2.393  -0.038  0.00  0.00     0.170 C 
BRANCH  11  12
ATOM     12  C   UNL d   1       1.512   3.017   1.335  0.00  0.00    -0.040 A 
ATOM     13  C   UNL d   1       2.259   2.499   2.405  0.00  0.00     0.009 A 
ATOM     14  C   UNL d   1       2.150   3.053   3.681  0.00  0.00     0.001 A 
ATOM     15  C   UNL d   1       1.302   4.137   3.901  0.00  0.00     0.000 A 
ATOM     16  C   UNL d   1       0.572   4.675   2.843  0.00  0.00     0.001 A 
ATOM     17  C   UNL d   1       0.678   4.121   1.566  0.00  0.00     0.009 A 
ENDBRANCH  11  12
ENDBRANCH   1  11
BRANCH   4  18
ATOM     18  C   UNL d   1       1.247  -2.237   1.228  0.00  0.00    -0.041 A 
ATOM     19  C   UNL d   1       0.992  -1.765   2.528  0.00  0.00     0.008 A 
ATOM     20  C   UNL d   1       1.093  -2.618   3.627  0.00  0.00     0.001 A 
ATOM     21  C   UNL d   1       1.456  -3.950   3.446  0.00  0.00     0.000 A 
ATOM     22  C   UNL d   1       1.728  -4.428   2.166  0.00  0.00     0.001 A 
ATOM     23  C   UNL d   1       1.625  -3.578   1.063  0.00  0.00     0.008 A 
ENDBRANCH   4  18
TORSDOF 3
