REMARK  1 active torsions:
REMARK  status: ('A' for Active; 'I' for Inactive)
REMARK    1  A    between atoms: C_6  and  N_1 
ROOT
ATOM      1  N   UNL d   1       2.461  -0.589   0.001  0.00  0.00    -0.254 N 
ATOM      2  C   UNL d   1       2.407   0.815   0.018  0.00  0.00     0.186 A 
ATOM      3  C   UNL d   1       1.312  -1.407  -0.004  0.00  0.00     0.267 A 
ATOM      4  C   UNL d   1       0.002  -0.722   0.017  0.00  0.00     0.059 A 
ATOM      5  N   UNL d   1       1.162   1.383   0.067  0.00  0.00    -0.332 N 
ATOM      6  C   UNL d   1      -0.028   0.666   0.042  0.00  0.00     0.050 A 
ATOM      7  S   UNL d   1       3.682   1.910  -0.095  0.00  0.00    -0.040 SA
ATOM      8  O   UNL d   1       1.321  -2.636  -0.014  0.00  0.00    -0.267 OA
ATOM      9  C   UNL d   1      -1.196  -1.445  -0.008  0.00  0.00     0.019 A 
ATOM     10  C   UNL d   1      -1.245   1.349   0.022  0.00  0.00     0.030 A 
ATOM     11  C   UNL d   1      -2.416  -0.765  -0.030  0.00  0.00     0.001 A 
ATOM     12  C   UNL d   1      -2.439   0.630  -0.021  0.00  0.00     0.002 A 
ATOM     13  H   UNL d   1       1.134   2.398   0.059  0.00  0.00     0.168 HD
ENDROOT
BRANCH   1  14
ATOM     14  C   UNL d   1       3.723  -1.263  -0.089  0.00  0.00     0.046 A 
ATOM     15  C   UNL d   1       4.699  -1.101   0.903  0.00  0.00     0.055 A 
ATOM     16  C   UNL d   1       5.962  -1.685   0.755  0.00  0.00     0.058 A 
ATOM     17 CL   UNL d   1       7.118  -1.423   2.014  0.00  0.00    -0.082 Cl
ATOM     18  C   UNL d   1       6.255  -2.439  -0.386  0.00  0.00     0.055 A 
ATOM     19  C   UNL d   1       5.272  -2.636  -1.359  0.00  0.00     0.028 A 
ATOM     20 CL   UNL d   1       7.809  -3.141  -0.660  0.00  0.00    -0.083 Cl
ATOM     21  C   UNL d   1       4.006  -2.063  -1.204  0.00  0.00     0.032 A 
ENDBRANCH   1  14
TORSDOF 1
