REMARK  4 active torsions:
REMARK  status: ('A' for Active; 'I' for Inactive)
REMARK    1  A    between atoms: C_1  and  O_7 
REMARK    2  A    between atoms: C_2  and  O_8 
REMARK    3  A    between atoms: C_3  and  O_9 
REMARK    4  A    between atoms: C_5  and  O_10 
ROOT
ATOM      1  C   UNL d   1       1.256  -0.004   0.187  0.00  0.00     0.204 C 
ATOM      2  C   UNL d   1       0.030  -0.826  -0.208  0.00  0.00     0.182 C 
ATOM      3  C   UNL d   1       1.087   1.443  -0.310  0.00  0.00     0.290 C 
ATOM      4  O   UNL d   1      -0.083   2.017   0.285  0.00  0.00    -0.356 OA
ATOM      5  C   UNL d   1      -1.254  -0.144   0.296  0.00  0.00     0.173 C 
ATOM      6  C   UNL d   1      -1.280   1.333  -0.097  0.00  0.00     0.205 C 
ENDROOT
BRANCH   1   7
ATOM      7  O   UNL d   1       2.443  -0.633  -0.316  0.00  0.00    -0.388 OA
ATOM      8  H   UNL d   1       2.284  -1.594  -0.232  0.00  0.00     0.210 HD
ENDBRANCH   1   7
BRANCH   2   9
ATOM      9  O   UNL d   1       0.177  -2.153   0.327  0.00  0.00    -0.390 OA
ATOM     10  H   UNL d   1      -0.409  -2.243   1.098  0.00  0.00     0.210 HD
ENDBRANCH   2   9
BRANCH   3  11
ATOM     11  O   UNL d   1       0.992   1.475  -1.741  0.00  0.00    -0.363 OA
ATOM     12  C   UNL d   1       1.133   2.794  -2.249  0.00  0.00     0.204 C 
ENDBRANCH   3  11
BRANCH   5  13
ATOM     13  O   UNL d   1      -2.408  -0.826  -0.184  0.00  0.00    -0.391 OA
ATOM     14  H   UNL d   1      -2.287  -1.007  -1.135  0.00  0.00     0.210 HD
ENDBRANCH   5  13
TORSDOF 4
