REMARK  4 active torsions:
REMARK  status: ('A' for Active; 'I' for Inactive)
REMARK    1  A    between atoms: C_4  and  C_2 
REMARK    2  A    between atoms: C_9  and  C_2 
REMARK    3  A    between atoms: C_6  and  C_4 
REMARK    4  A    between atoms: C_7  and  C_6 
ROOT
ATOM      1  C   UNL d   1       2.298  -0.776  -0.692  0.00  0.00     0.000 C 
ATOM      2  C   UNL d   1       2.658  -1.439  -1.819  0.00  0.00    -0.030 C 
ATOM      3  C   UNL d   1       1.263  -1.367   0.199  0.00  0.00     0.189 C 
ATOM      4  C   UNL d   1      -0.094  -0.756   0.168  0.00  0.00     0.021 A 
ATOM      5  O   UNL d   1       1.484  -2.390   0.838  0.00  0.00    -0.287 OA
ATOM      6  C   UNL d   1      -0.357   0.627   0.184  0.00  0.00    -0.044 A 
ATOM      7  C   UNL d   1       2.846   0.543  -0.226  0.00  0.00     0.043 C 
ATOM      8  C   UNL d   1      -1.162  -1.671   0.110  0.00  0.00     0.016 A 
ATOM      9  C   UNL d   1       1.877   1.677  -0.536  0.00  0.00     0.009 C 
ATOM     10  C   UNL d   1       0.688   1.694   0.415  0.00  0.00     0.040 C 
ATOM     11  C   UNL d   1      -1.700   1.051   0.101  0.00  0.00     0.008 A 
ATOM     12  C   UNL d   1      -2.481  -1.228   0.027  0.00  0.00     0.001 A 
ATOM     13  C   UNL d   1      -2.749   0.135   0.011  0.00  0.00     0.001 A 
ENDROOT
BRANCH   2  14
ATOM     14  C   UNL d   1       2.037  -2.716  -2.335  0.00  0.00     0.124 C 
BRANCH  14  15
ATOM     15  C   UNL d   1       2.652  -4.000  -1.777  0.00  0.00     0.163 C 
ATOM     16  O   UNL d   1       3.852  -4.204  -1.667  0.00  0.00    -0.292 OA
BRANCH  15  17
ATOM     17  C   UNL d   1       1.668  -5.031  -1.352  0.00  0.00     0.010 A 
ATOM     18  C   UNL d   1       0.518  -5.269  -2.114  0.00  0.00     0.015 A 
ATOM     19  C   UNL d   1      -0.537  -5.998  -1.566  0.00  0.00     0.007 A 
ATOM     20  C   UNL d   1      -0.442  -6.496  -0.262  0.00  0.00    -0.062 A 
ATOM     21  C   UNL d   1       0.764  -6.360   0.441  0.00  0.00     0.007 A 
ATOM     22  C   UNL d   1      -1.635  -7.144   0.376  0.00  0.00     0.048 C 
ATOM     23  C   UNL d   1       1.822  -5.631  -0.103  0.00  0.00     0.015 A 
ENDBRANCH  15  17
ENDBRANCH  14  15
ENDBRANCH   2  14
BRANCH   2  24
ATOM     24  C   UNL d   1       3.558  -0.782  -2.782  0.00  0.00    -0.029 A 
ATOM     25  C   UNL d   1       4.939  -0.993  -2.756  0.00  0.00     0.012 A 
ATOM     26  C   UNL d   1       5.763  -0.286  -3.636  0.00  0.00     0.001 A 
ATOM     27  C   UNL d   1       5.210   0.625  -4.539  0.00  0.00     0.000 A 
ATOM     28  C   UNL d   1       3.833   0.823  -4.578  0.00  0.00     0.001 A 
ATOM     29  C   UNL d   1       3.009   0.118  -3.704  0.00  0.00     0.012 A 
ENDBRANCH   2  24
TORSDOF 4
