REMARK  7 active torsions:
REMARK  status: ('A' for Active; 'I' for Inactive)
REMARK    1  A    between atoms: C_2  and  S_1 
REMARK    2  A    between atoms: N_15  and  S_1 
REMARK    3  A    between atoms: C_7  and  C_3 
REMARK    4  A    between atoms: O_17  and  C_7 
REMARK    5  A    between atoms: C_10  and  C_20 
REMARK    6  A    between atoms: C_19  and  N_15 
REMARK    7  A    between atoms: C_20  and  C_19 
ROOT
ATOM      1  N   UNL d   1       2.604  -0.064   0.021  0.00  0.00    -0.214 NA
ATOM      2  H   UNL d   1       2.957   0.113   0.963  0.00  0.00     0.140 HD
ENDROOT
BRANCH   1   3
ATOM      3  S   UNL d   1       0.903  -0.030   0.056  0.00  0.00     0.264 S 
ATOM      4  O   UNL d   1       0.506   0.981   1.008  0.00  0.00    -0.204 OA
ATOM      5  O   UNL d   1       0.416  -0.059  -1.305  0.00  0.00    -0.204 OA
BRANCH   3   6
ATOM      6  C   UNL d   1       0.373  -1.596   0.768  0.00  0.00     0.186 A 
ATOM      7  C   UNL d   1      -0.417  -2.597   0.226  0.00  0.00     0.071 A 
ATOM      8  C   UNL d   1      -0.500  -3.666   1.161  0.00  0.00     0.072 A 
ATOM      9  C   UNL d   1       0.270  -3.262   2.241  0.00  0.00     0.067 A 
ATOM     10  O   UNL d   1       0.809  -2.030   2.003  0.00  0.00    -0.301 OA
ATOM     11  C   UNL d   1       0.609  -3.875   3.549  0.00  0.00     0.078 C 
BRANCH   8  12
ATOM     12  C   UNL d   1      -1.229  -4.904   1.021  0.00  0.00     0.295 C 
ATOM     13  O   UNL d   1      -1.255  -5.779   1.880  0.00  0.00    -0.259 OA
BRANCH  12  14
ATOM     14  O   UNL d   1      -1.887  -4.990  -0.175  0.00  0.00    -0.322 OA
ATOM     15  C   UNL d   1      -2.623  -6.197  -0.352  0.00  0.00     0.213 C 
ENDBRANCH  12  14
ENDBRANCH   8  12
ENDBRANCH   3   6
ENDBRANCH   1   3
BRANCH   1  16
ATOM     16  C   UNL d   1       3.158  -1.266  -0.639  0.00  0.00     0.109 C 
BRANCH  16  17
ATOM     17  C   UNL d   1       4.687  -1.243  -0.696  0.00  0.00     0.056 C 
BRANCH  17  18
ATOM     18  C   UNL d   1       5.193  -2.502  -1.333  0.00  0.00    -0.029 A 
ATOM     19  C   UNL d   1       5.437  -2.713  -2.677  0.00  0.00     0.096 A 
ATOM     20  N   UNL d   1       5.758  -4.034  -2.853  0.00  0.00    -0.365 N 
ATOM     21  C   UNL d   1       5.704  -4.701  -1.651  0.00  0.00     0.042 A 
ATOM     22  H   UNL d   1       5.961  -4.470  -3.742  0.00  0.00     0.165 HD
ATOM     23  C   UNL d   1       5.409  -3.753  -0.671  0.00  0.00    -0.002 A 
ATOM     24  C   UNL d   1       5.877  -6.059  -1.359  0.00  0.00     0.030 A 
ATOM     25  C   UNL d   1       5.324  -4.175   0.671  0.00  0.00     0.014 A 
ATOM     26  C   UNL d   1       5.474  -5.531   0.978  0.00  0.00     0.001 A 
ATOM     27  C   UNL d   1       5.736  -6.459  -0.026  0.00  0.00     0.002 A 
ENDBRANCH  17  18
ENDBRANCH  16  17
ENDBRANCH   1  16
TORSDOF 7
