REMARK  8 active torsions:
REMARK  status: ('A' for Active; 'I' for Inactive)
REMARK    1  A    between atoms: C1_1  and  C2_3 
REMARK    2  A    between atoms: O2_8  and  C2_3 
REMARK    3  A    between atoms: C5_9  and  C3_5 
REMARK    4  A    between atoms: C6_10  and  C5_9 
REMARK    5  A    between atoms: C9_13  and  C6_10 
REMARK    6  A    between atoms: C7_11  and  C8_12 
REMARK    7  A    between atoms: C8_12  and  C10_14 
REMARK    8  A    between atoms: C10_14  and  C9_13 
ROOT
ATOM      1  C1  <1> d   1      -1.407   0.811  -0.068  0.00  0.00     0.327 C 
ATOM      2  N1  <1> d   1      -1.390  -0.665   0.078  0.00  0.00     0.113 N 
ATOM      3  S1  <1> d   1       1.146   0.028  -0.083  0.00  0.00    -0.131 SA
ATOM      4  C3  <1> d   1      -0.130  -1.199  -0.436  0.00  0.00     0.282 C 
ATOM      5  C4  <1> d   1      -0.005   1.400  -0.267  0.00  0.00     0.122 C 
ATOM      6  H3  <1> d   1      -2.168  -1.131  -0.383  0.00  0.00     0.318 HD
ENDROOT
BRANCH   4   7
ATOM      7  C5  <1> d   1       0.175  -2.569   0.183  0.00  0.00     0.046 C 
BRANCH   7   8
ATOM      8  C6  <1> d   1       0.278  -2.564   1.711  0.00  0.00     0.003 C 
BRANCH   8   9
ATOM      9  C9  <1> d   1       0.567  -3.961   2.244  0.00  0.00     0.000 C 
BRANCH   9  10
ATOM     10  C10 <1> d   1       0.665  -3.927   3.764  0.00  0.00     0.000 C 
BRANCH  10  11
ATOM     11  C8  <1> d   1       0.953  -5.317   4.314  0.00  0.00    -0.000 C 
BRANCH  11  12
ATOM     12  C7  <1> d   1       1.051  -5.288   5.835  0.00  0.00    -0.005 C 
ATOM     13  C11 <1> d   1       1.338  -6.675   6.378  0.00  0.00     0.005 C 
ENDBRANCH  11  12
ENDBRANCH  10  11
ENDBRANCH   9  10
ENDBRANCH   8   9
ENDBRANCH   7   8
ENDBRANCH   4   7
BRANCH   1  14
ATOM     14  C2  <1> d   1      -2.352   1.249  -1.192  0.00  0.00     0.175 C 
ATOM     15  O1  <1> d   1      -2.032   1.915  -2.173  0.00  0.00    -0.648 OA
BRANCH  14  16
ATOM     16  O2  <1> d   1      -3.630   0.835  -1.003  0.00  0.00    -0.775 OA
ATOM     17  H6  <1> d   1      -3.756   0.355  -0.166  0.00  0.00     0.167 HD
ENDBRANCH  14  16
ENDBRANCH   1  14
TORSDOF 8
