REMARK  7 active torsions:
REMARK  status: ('A' for Active; 'I' for Inactive)
REMARK    1  A    between atoms: C_7  and  C_1 
REMARK    2  A    between atoms: C_12  and  C_2 
REMARK    3  A    between atoms: N_6  and  C_5 
REMARK    4  A    between atoms: C_9  and  C_10 
REMARK    5  A    between atoms: N_24  and  C_10 
REMARK    6  A    between atoms: O_18  and  C_12 
REMARK    7  A    between atoms: N_14  and  O_18 
ROOT
ATOM      1  C   UNL d   1      -1.462  -1.097   0.508  0.00  0.00     0.320 C 
ATOM      2  O   UNL d   1      -2.140  -2.031   0.920  0.00  0.00    -0.257 OA
ENDROOT
BRANCH   1   3
ATOM      3  C   UNL d   1      -0.077  -1.255   0.094  0.00  0.00     0.102 A 
ATOM      4  C   UNL d   1       0.598  -2.446  -0.329  0.00  0.00     0.087 A 
ATOM      5  N   UNL d   1       1.863  -2.165  -0.678  0.00  0.00    -0.259 N 
ATOM      6  O   UNL d   1       2.046  -0.827  -0.458  0.00  0.00    -0.241 OA
ATOM      7  HN  UNL d   1       2.555  -2.823  -1.038  1.00  0.00     0.195 HD
ATOM      8  C   UNL d   1       0.896  -0.274  -0.003  0.00  0.00     0.091 A 
ATOM      9  C   UNL d   1       0.999   1.173   0.274  0.00  0.00     0.080 C 
BRANCH   4  10
ATOM     10  C   UNL d   1       0.118  -3.822  -0.473  0.00  0.00     0.037 A 
ATOM     11  C   UNL d   1      -0.934  -4.141  -1.354  0.00  0.00     0.048 A 
ATOM     12 CL   UNL d   1      -1.766  -2.948  -2.297  0.00  0.00    -0.083 Cl
ATOM     13  C   UNL d   1      -1.321  -5.473  -1.559  0.00  0.00     0.025 A 
ATOM     14  C   UNL d   1      -0.648  -6.511  -0.921  0.00  0.00     0.003 A 
ATOM     15  C   UNL d   1       0.398  -6.218  -0.053  0.00  0.00     0.025 A 
ATOM     16  C   UNL d   1       0.770  -4.887   0.183  0.00  0.00     0.048 A 
ATOM     17 CL   UNL d   1       2.055  -4.646   1.325  0.00  0.00    -0.083 Cl
ENDBRANCH   4  10
ENDBRANCH   1   3
BRANCH   1  18
ATOM     18  O   UNL d   1      -1.901   0.198   0.330  0.00  0.00    -0.193 OA
BRANCH  18  19
ATOM     19  N   UNL d   1      -3.307   0.295   0.449  0.00  0.00    -0.244 N 
ATOM     20  C   UNL d   1      -3.719   1.476   0.082  0.00  0.00     0.133 C 
ATOM     21  HN  UNL d   1      -3.915  -0.455   0.776  1.00  0.00     0.196 HD
BRANCH  20  22
ATOM     22  C   UNL d   1      -5.153   1.709   0.078  0.00  0.00     0.117 A 
ATOM     23  O   UNL d   1      -5.587   2.973  -0.241  0.00  0.00    -0.285 OA
ATOM     24  C   UNL d   1      -6.945   2.936  -0.205  0.00  0.00     0.215 A 
ATOM     25  C   UNL d   1      -7.409   1.690   0.140  0.00  0.00     0.066 A 
ATOM     26  C   UNL d   1      -6.246   0.896   0.329  0.00  0.00     0.045 A 
BRANCH  24  27
ATOM     27  N   UNL d   1      -7.619   4.155  -0.525  0.00  0.00    -0.090 N 
ATOM     28  O   UNL d   1      -8.856   4.108  -0.555  0.00  0.00    -0.530 OA
ATOM     29  O   UNL d   1      -6.925   5.157  -0.742  0.00  0.00    -0.530 OA
ENDBRANCH  24  27
ENDBRANCH  20  22
BRANCH  20  30
ATOM     30  N   UNL d   1      -2.863   2.492  -0.285  0.00  0.00    -0.285 NA
ATOM     31  H   UNL d   1      -3.270   3.422  -0.244  0.00  0.00     0.125 HD
ATOM     32  H   UNL d   1      -1.949   2.428   0.137  0.00  0.00     0.125 HD
ENDBRANCH  20  30
ENDBRANCH  18  19
ENDBRANCH   1  18
TORSDOF 7
