REMARK  3 active torsions:
REMARK  status: ('A' for Active; 'I' for Inactive)
REMARK    1  A    between atoms: C_4  and  C_1 
REMARK    2  A    between atoms: N_6  and  C_2 
REMARK       I    between atoms: C_3  and  N_5 
REMARK       I    between atoms: N_7  and  C_3 
REMARK    3  A    between atoms: C_8  and  N_7 
ROOT
ATOM      1  C   UNL d   1      -3.074   6.293  -0.326  0.00  0.00     0.323 C 
ATOM      2  N   UNL d   1      -2.602   4.979  -0.269  0.00  0.00    -0.332 N 
ATOM      3  N   UNL d   1      -1.074   2.554  -0.004  0.00  0.00    -0.266 NA
ATOM      4  N   UNL d   1      -4.122   6.585   0.520  0.00  0.00    -0.306 N 
ATOM      5  O   UNL d   1      -2.550   7.115  -1.073  0.00  0.00    -0.247 OA
ATOM      6  C   UNL d   1      -2.827   4.062   0.866  0.00  0.00     0.142 C 
ATOM      7  C   UNL d   1      -1.381   4.736  -1.055  0.00  0.00     0.142 C 
ATOM      8  C   UNL d   1      -2.418   2.596   0.605  0.00  0.00     0.117 C 
ATOM      9  C   UNL d   1      -1.087   3.252  -1.304  0.00  0.00     0.117 C 
ATOM     10  H   UNL d   1      -4.159   6.055   1.374  0.00  0.00     0.171 HD
ENDROOT
BRANCH   4  11
ATOM     11  C   UNL d   1      -4.846   7.803   0.515  0.00  0.00     0.075 A 
ATOM     12  C   UNL d   1      -4.998   8.634  -0.610  0.00  0.00     0.146 A 
ATOM     13  C   UNL d   1      -5.673   9.850  -0.525  0.00  0.00     0.086 A 
ATOM     14  F   UNL d   1      -4.582   8.256  -1.826  0.00  0.00    -0.204 F 
ATOM     15  C   UNL d   1      -6.234  10.229   0.683  0.00  0.00     0.119 A 
ATOM     16  C   UNL d   1      -6.153   9.402   1.799  0.00  0.00     0.044 A 
ATOM     17  F   UNL d   1      -6.883  11.396   0.773  0.00  0.00    -0.206 F 
ATOM     18  C   UNL d   1      -5.464   8.187   1.714  0.00  0.00     0.036 A 
ENDBRANCH   4  11
BRANCH   3  19
ATOM     19  C   UNL d   1      -0.477   1.293  -0.042  0.00  0.00     0.097 A 
ATOM     20  C   UNL d   1       0.909   1.145  -0.144  0.00  0.00     0.086 A 
ATOM     21  C   UNL d   1       1.446  -0.158  -0.179  0.00  0.00     0.021 A 
ATOM     22  C   UNL d   1       0.614  -1.261  -0.079  0.00  0.00     0.018 A 
ATOM     23  C   UNL d   1      -0.736  -1.026   0.050  0.00  0.00     0.089 A 
ATOM     24  N   UNL d   1      -1.285   0.209   0.071  0.00  0.00    -0.356 N 
ATOM     25  HN  UNL d   1      -2.293   0.325   0.170  1.00  0.00     0.166 HD
BRANCH  20  26
ATOM     26  C   UNL d   1       1.862   2.303  -0.226  0.00  0.00     0.420 C 
ATOM     27  F   UNL d   1       1.430   3.481   0.302  0.00  0.00    -0.166 F 
ATOM     28  F   UNL d   1       3.045   2.047   0.410  0.00  0.00    -0.166 F 
ATOM     29  F   UNL d   1       2.210   2.582  -1.518  0.00  0.00    -0.166 F 
ENDBRANCH  20  26
ENDBRANCH   3  19
TORSDOF 3
