REMARK  9 active torsions:
REMARK  status: ('A' for Active; 'I' for Inactive)
REMARK    1  A    between atoms: C_7  and  C_2 
REMARK    2  A    between atoms: O_19  and  C_5 
REMARK    3  A    between atoms: C_14  and  C_6 
REMARK    4  A    between atoms: O_15  and  C_9 
REMARK    5  A    between atoms: C_22  and  O_15 
REMARK    6  A    between atoms: O_20  and  C_16 
REMARK    7  A    between atoms: C_25  and  O_20 
REMARK    8  A    between atoms: C_24  and  C_22 
REMARK    9  A    between atoms: C_34  and  C_25 
ROOT
ATOM      1  C   UNL d   1       0.311   0.418   1.467  0.00  0.00     0.106 C 
ATOM      2  C   UNL d   1      -2.212   0.072   0.342  0.00  0.00     0.048 C 
ATOM      3  N   UNL d   1      -1.505   1.183   0.051  0.00  0.00    -0.335 N 
ATOM      4  HN  UNL d   1      -1.904   1.905  -0.550  1.00  0.00     0.168 HD
ATOM      5  C   UNL d   1      -0.255   1.333   0.568  0.00  0.00     0.164 C 
ATOM      6  C   UNL d   1      -0.431  -0.730   1.816  0.00  0.00     0.001 C 
ATOM      7  C   UNL d   1      -1.655  -0.919   1.157  0.00  0.00     0.044 C 
ATOM      8  C   UNL d   1       1.597   0.639   2.055  0.00  0.00     0.104 C 
ATOM      9  N   UNL d   1       2.641   0.815   2.534  0.00  0.00    -0.191 NA
ENDROOT
BRANCH   5  10
ATOM     10  O   UNL d   1       0.271   2.546   0.215  0.00  0.00    -0.340 OA
ATOM     11  C   UNL d   1       1.670   2.646  -0.011  0.00  0.00     0.211 C 
ENDBRANCH   5  10
BRANCH   6  12
ATOM     12  C   UNL d   1      -0.067  -1.672   2.916  0.00  0.00    -0.024 A 
ATOM     13  C   UNL d   1       0.399  -1.201   4.159  0.00  0.00     0.013 A 
ATOM     14  C   UNL d   1       0.736  -2.071   5.201  0.00  0.00     0.007 A 
ATOM     15  C   UNL d   1       0.564  -3.447   5.058  0.00  0.00    -0.062 A 
ATOM     16  C   UNL d   1       0.045  -3.935   3.857  0.00  0.00     0.007 A 
ATOM     17  C   UNL d   1       0.969  -4.368   6.170  0.00  0.00     0.048 C 
ATOM     18  C   UNL d   1      -0.256  -3.062   2.801  0.00  0.00     0.013 A 
ENDBRANCH   6  12
BRANCH   2  19
ATOM     19  C   UNL d   1      -3.663   0.031  -0.014  0.00  0.00     0.024 A 
ATOM     20  C   UNL d   1      -4.275   0.641  -1.135  0.00  0.00     0.084 A 
ATOM     21  C   UNL d   1      -5.677   0.543  -1.307  0.00  0.00     0.074 A 
ATOM     22  C   UNL d   1      -6.493  -0.071  -0.359  0.00  0.00     0.071 A 
ATOM     23  C   UNL d   1      -5.910  -0.697   0.726  0.00  0.00     0.038 A 
ATOM     24  C   UNL d   1      -4.532  -0.628   0.897  0.00  0.00     0.019 A 
BRANCH  20  25
ATOM     25  O   UNL d   1      -3.486   1.320  -2.041  0.00  0.00    -0.346 OA
BRANCH  25  26
ATOM     26  C   UNL d   1      -4.176   2.282  -2.854  0.00  0.00     0.214 C 
BRANCH  26  27
ATOM     27  C   UNL d   1      -3.253   3.285  -3.512  0.00  0.00    -0.034 A 
ATOM     28  C   UNL d   1      -3.687   3.962  -4.669  0.00  0.00     0.012 A 
ATOM     29  C   UNL d   1      -2.893   4.948  -5.255  0.00  0.00     0.043 A 
ATOM     30  C   UNL d   1      -1.670   5.268  -4.679  0.00  0.00     0.116 A 
ATOM     31  C   UNL d   1      -1.230   4.624  -3.529  0.00  0.00     0.043 A 
ATOM     32  F   UNL d   1      -0.908   6.219  -5.237  0.00  0.00    -0.206 F 
ATOM     33  C   UNL d   1      -2.023   3.638  -2.941  0.00  0.00     0.012 A 
ENDBRANCH  26  27
ENDBRANCH  25  26
ENDBRANCH  20  25
BRANCH  22  34
ATOM     34  O   UNL d   1      -7.842   0.016  -0.569  0.00  0.00    -0.347 OA
BRANCH  34  35
ATOM     35  C   UNL d   1      -8.625  -0.057   0.626  0.00  0.00     0.214 C 
BRANCH  35  36
ATOM     36  C   UNL d   1      -9.959   0.601   0.397  0.00  0.00    -0.034 A 
ATOM     37  C   UNL d   1     -11.056  -0.146  -0.043  0.00  0.00     0.009 A 
ATOM     38  C   UNL d   1     -12.301   0.461  -0.221  0.00  0.00     0.001 A 
ATOM     39  C   UNL d   1     -12.450   1.828   0.031  0.00  0.00     0.000 A 
ATOM     40  C   UNL d   1     -11.358   2.585   0.449  0.00  0.00     0.001 A 
ATOM     41  C   UNL d   1     -10.115   1.977   0.625  0.00  0.00     0.009 A 
ENDBRANCH  35  36
ENDBRANCH  34  35
ENDBRANCH  22  34
ENDBRANCH   2  19
TORSDOF 9
