REMARK  4 active torsions:
REMARK  status: ('A' for Active; 'I' for Inactive)
REMARK    1  A    between atoms: C_15  and  N_4 
REMARK       I    between atoms: C_12  and  N_10 
REMARK    2  A    between atoms: O_21  and  C_12 
REMARK    3  A    between atoms: C_16  and  C_15 
REMARK       I    between atoms: N_22  and  C_16 
REMARK    4  A    between atoms: C_23  and  O_21 
ROOT
ATOM      1  C   UNL d   1       0.694   0.383  -0.016  0.00  0.00     0.073 A 
ATOM      2  C   UNL d   1       1.216  -0.893  -0.060  0.00  0.00     0.091 A 
ATOM      3  C   UNL d   1       1.631   1.495   0.003  0.00  0.00     0.262 A 
ATOM      4  N   UNL d   1       2.972   1.106   0.003  0.00  0.00    -0.301 N 
ATOM      5  C   UNL d   1      -0.738   0.382   0.009  0.00  0.00    -0.023 A 
ATOM      6  C   UNL d   1      -1.239  -0.910  -0.001  0.00  0.00     0.010 A 
ATOM      7  N   UNL d   1       2.529  -1.231  -0.097  0.00  0.00    -0.346 N 
ATOM      8  HN  UNL d   1       2.850  -2.198  -0.156  1.00  0.00     0.167 HD
ATOM      9  S   UNL d   1      -0.007  -2.085  -0.056  0.00  0.00    -0.074 SA
ATOM     10  N   UNL d   1      -3.488  -0.099   0.333  0.00  0.00    -0.323 N 
ATOM     11  C   UNL d   1       3.341  -0.224  -0.053  0.00  0.00     0.187 A 
ATOM     12  C   UNL d   1      -4.354  -0.048   1.407  0.00  0.00     0.363 C 
ATOM     13  C   UNL d   1      -2.695  -1.292   0.010  0.00  0.00     0.174 C 
ATOM     14  C   UNL d   1      -1.667   1.565   0.074  0.00  0.00     0.061 C 
ATOM     15  C   UNL d   1      -3.095   1.148  -0.331  0.00  0.00     0.133 C 
ATOM     16  O   UNL d   1       1.266   2.665  -0.000  0.00  0.00    -0.267 OA
ATOM     17  O   UNL d   1      -4.868   0.984   1.821  0.00  0.00    -0.238 OA
ENDROOT
BRANCH   4  18
ATOM     18  C   UNL d   1       3.996   2.134   0.132  0.00  0.00     0.235 C 
BRANCH  18  19
ATOM     19  C   UNL d   1       4.499   2.719  -1.188  0.00  0.00     0.233 C 
ATOM     20  O   UNL d   1       5.329   3.624  -1.227  0.00  0.00    -0.272 OA
ATOM     21  N   UNL d   1       4.064   2.151  -2.350  0.00  0.00    -0.369 N 
ATOM     22  H   UNL d   1       3.219   1.600  -2.394  0.00  0.00     0.159 HD
ATOM     23  H   UNL d   1       4.362   2.608  -3.206  0.00  0.00     0.159 HD
ENDBRANCH  18  19
ENDBRANCH   4  18
BRANCH  12  24
ATOM     24  O   UNL d   1      -4.536  -1.267   1.982  0.00  0.00    -0.304 OA
BRANCH  24  25
ATOM     25  C   UNL d   1      -5.084  -1.255   3.307  0.00  0.00     0.176 C 
ATOM     26  C   UNL d   1      -3.936  -1.099   4.287  0.00  0.00     0.034 C 
ENDBRANCH  24  25
ENDBRANCH  12  24
TORSDOF 4
