REMARK  2 active torsions:
REMARK  status: ('A' for Active; 'I' for Inactive)
REMARK    1  A    between atoms: C_3  and  N_1 
REMARK    2  A    between atoms: N_9  and  C_6 
ROOT
ATOM      1  C   UNL d   1       0.389  -0.857   0.836  0.00  0.00     0.112 A 
ATOM      2  N   UNL d   1      -0.682  -1.487   0.295  0.00  0.00    -0.351 N 
ATOM      3  HN  UNL d   1      -0.980  -1.295  -0.662  1.00  0.00     0.166 HD
ATOM      4  C   UNL d   1       0.808  -1.081   2.152  0.00  0.00    -0.017 A 
ATOM      5  C   UNL d   1       0.103  -2.021   2.920  0.00  0.00     0.031 A 
ATOM      6  C   UNL d   1      -1.343  -2.379   1.068  0.00  0.00     0.108 A 
ATOM      7  C   UNL d   1      -0.990  -2.675   2.370  0.00  0.00     0.027 A 
ATOM      8 BR   UNL d   1      -1.970  -3.931   3.376  0.00  0.00    -0.050 Br
ATOM      9  C   UNL d   1       1.990  -0.384   2.757  0.00  0.00     0.052 C 
ENDROOT
BRANCH   1  10
ATOM     10  N   UNL d   1       1.036   0.095   0.033  0.00  0.00    -0.338 N 
ATOM     11  C   UNL d   1       0.978  -0.057  -1.249  0.00  0.00     0.179 C 
ATOM     12  HN  UNL d   1       1.535   0.881   0.448  1.00  0.00     0.168 HD
BRANCH  11  13
ATOM     13  N   UNL d   1       1.516   0.782  -2.200  0.00  0.00    -0.386 N 
ATOM     14  C   UNL d   1       1.389   0.509  -3.620  0.00  0.00     0.149 C 
ATOM     15  C   UNL d   1       2.165   2.031  -1.843  0.00  0.00     0.149 C 
ENDBRANCH  11  13
ENDBRANCH   1  10
TORSDOF 2
