REMARK  4 active torsions:
REMARK  status: ('A' for Active; 'I' for Inactive)
REMARK    1  A    between atoms: C_6  and  N_1 
REMARK    2  A    between atoms: C_8  and  C_6 
REMARK    3  A    between atoms: N_7  and  C_11 
REMARK       I    between atoms: N_9  and  C_8 
REMARK    4  A    between atoms: C_10  and  N_9 
ROOT
ATOM      1  C   UNL d   1       3.414   1.773  -1.182  0.00  0.00     0.220 C 
ATOM      2  N   UNL d   1       3.222   2.663  -0.124  0.00  0.00    -0.226 NA
ATOM      3  O   UNL d   1       2.595   0.927  -1.541  0.00  0.00    -0.278 OA
ATOM      4  H   UNL d   1       3.591   3.577  -0.360  0.00  0.00     0.136 HD
ENDROOT
BRANCH   1   5
ATOM      5  C   UNL d   1       4.678   2.028  -2.021  0.00  0.00     0.232 C 
BRANCH   5   6
ATOM      6  N   UNL d   1       5.689   2.805  -1.330  0.00  0.00    -0.272 N 
ATOM      7  C   UNL d   1       6.546   2.262  -0.416  0.00  0.00     0.262 A 
ATOM      8  C   UNL d   1       7.314   3.367   0.142  0.00  0.00     0.048 A 
ATOM      9  O   UNL d   1       6.647   1.104  -0.052  0.00  0.00    -0.267 OA
ATOM     10  C   UNL d   1       8.244   3.374   1.162  0.00  0.00     0.018 A 
ATOM     11  C   UNL d   1       6.883   4.530  -0.472  0.00  0.00     0.048 A 
ATOM     12  C   UNL d   1       8.729   4.619   1.571  0.00  0.00     0.001 A 
ATOM     13  C   UNL d   1       8.289   5.807   0.948  0.00  0.00     0.001 A 
ATOM     14  C   UNL d   1       7.357   5.771  -0.095  0.00  0.00     0.018 A 
ATOM     15  C   UNL d   1       5.833   4.160  -1.419  0.00  0.00     0.262 A 
ATOM     16  O   UNL d   1       5.175   4.948  -2.070  0.00  0.00    -0.267 OA
ENDBRANCH   5   6
ENDBRANCH   1   5
BRANCH   2  17
ATOM     17  C   UNL d   1       1.934   2.730   0.468  0.00  0.00     0.041 A 
ATOM     18  C   UNL d   1       1.494   1.868   1.502  0.00  0.00     0.052 A 
ATOM     19  C   UNL d   1       0.150   2.044   1.909  0.00  0.00     0.031 A 
ATOM     20  C   UNL d   1      -0.709   2.987   1.334  0.00  0.00     0.002 A 
ATOM     21  C   UNL d   1      -0.237   3.828   0.340  0.00  0.00     0.002 A 
ATOM     22  C   UNL d   1       1.083   3.715  -0.079  0.00  0.00     0.026 A 
BRANCH  18  23
ATOM     23  N   UNL d   1       2.268   0.961   2.218  0.00  0.00    -0.375 N 
ATOM     24  C   UNL d   1       3.737   0.986   2.261  0.00  0.00     0.149 C 
ATOM     25  C   UNL d   1       4.219   0.392   3.606  0.00  0.00     0.187 C 
ATOM     26  O   UNL d   1       3.665  -0.907   3.884  0.00  0.00    -0.388 OA
ATOM     27  C   UNL d   1       2.227  -0.853   3.858  0.00  0.00     0.187 C 
ATOM     28  C   UNL d   1       1.727  -0.389   2.483  0.00  0.00     0.149 C 
ENDBRANCH  18  23
ENDBRANCH   2  17
TORSDOF 4
