REMARK  5 active torsions:
REMARK  status: ('A' for Active; 'I' for Inactive)
REMARK    1  A    between atoms: C_2  and  N_1 
REMARK    2  A    between atoms: C_4  and  C_5 
REMARK       I    between atoms: N_6  and  C_4 
REMARK    3  A    between atoms: C_15  and  N_6 
REMARK    4  A    between atoms: C_9  and  C_15 
REMARK    5  A    between atoms: O_16  and  C_9 
ROOT
ATOM      1  C   UNL d   1       0.196  -0.040   1.191  0.00  0.00     0.109 A 
ATOM      2  C   UNL d   1       0.552   0.762   2.287  0.00  0.00     0.053 A 
ATOM      3  C   UNL d   1      -0.184   0.688   3.479  0.00  0.00     0.034 A 
ATOM      4  C   UNL d   1      -0.873  -0.947   1.250  0.00  0.00    -0.029 A 
ATOM      5  C   UNL d   1      -1.270  -0.194   3.545  0.00  0.00     0.018 A 
ATOM      6  C   UNL d   1      -1.606  -0.999   2.447  0.00  0.00     0.010 A 
ATOM      7  C   UNL d   1      -1.279  -1.867   0.133  0.00  0.00     0.050 C 
ENDROOT
BRANCH   3   8
ATOM      8  C   UNL d   1       0.241   1.565   4.616  0.00  0.00     0.252 C 
ATOM      9  N   UNL d   1      -0.464   1.506   5.798  0.00  0.00    -0.347 N 
ATOM     10  H   UNL d   1      -1.260   0.896   5.941  0.00  0.00     0.163 HD
ATOM     11  O   UNL d   1       1.203   2.316   4.482  0.00  0.00    -0.268 OA
BRANCH   9  12
ATOM     12  C   UNL d   1      -0.073   2.336   6.925  0.00  0.00     0.232 C 
BRANCH  12  13
ATOM     13  C   UNL d   1      -0.991   2.121   8.121  0.00  0.00     0.158 C 
ATOM     14  O   UNL d   1      -1.938   1.346   8.127  0.00  0.00    -0.649 OA
BRANCH  13  15
ATOM     15  O   UNL d   1      -0.660   2.876   9.194  0.00  0.00    -0.775 OA
ATOM     16  H   UNL d   1       0.117   3.454   9.058  0.00  0.00     0.167 HD
ENDBRANCH  13  15
ENDBRANCH  12  13
ENDBRANCH   9  12
ENDBRANCH   3   8
BRANCH   1  17
ATOM     17  N   UNL d   1       0.978   0.117  -0.026  0.00  0.00    -0.115 N 
ATOM     18  O   UNL d   1       2.194  -0.115   0.053  0.00  0.00    -0.532 OA
ATOM     19  O   UNL d   1       0.377   0.484  -1.044  0.00  0.00    -0.532 OA
ENDBRANCH   1  17
TORSDOF 5
