REMARK  6 active torsions:
REMARK  status: ('A' for Active; 'I' for Inactive)
REMARK    1  A    between atoms: C_6  and  N_1 
REMARK    2  A    between atoms: C_9  and  C_4 
REMARK       I    between atoms: C_8  and  N_11 
REMARK       I    between atoms: N_14  and  C_8 
REMARK    3  A    between atoms: O_19  and  C_9 
REMARK    4  A    between atoms: N_11  and  C_10 
REMARK    5  A    between atoms: C_17  and  N_14 
REMARK    6  A    between atoms: C_28  and  O_19 
ROOT
ATOM      1  C   UNL d   1      -0.684  -2.296   0.085  0.00  0.00     0.154 A 
ATOM      2  C   UNL d   1      -0.268  -3.211   1.073  0.00  0.00     0.082 A 
ATOM      3  N   UNL d   1      -1.541  -2.658  -0.914  0.00  0.00    -0.349 N 
ATOM      4  HN  UNL d   1      -1.773  -2.008  -1.666  1.00  0.00     0.167 HD
ATOM      5  C   UNL d   1      -0.892  -4.463   1.103  0.00  0.00     0.035 A 
ATOM      6  C   UNL d   1      -2.073  -3.896  -0.881  0.00  0.00     0.090 A 
ATOM      7  C   UNL d   1      -1.812  -4.812   0.119  0.00  0.00     0.019 A 
ENDROOT
BRANCH   1   8
ATOM      8  N   UNL d   1      -0.208  -0.933   0.096  0.00  0.00    -0.241 N 
ATOM      9  N   UNL d   1       0.495  -0.461   1.165  0.00  0.00    -0.296 N 
ATOM     10  C   UNL d   1       0.776   0.810   0.883  0.00  0.00     0.041 A 
ATOM     11  HN  UNL d   1       0.753  -0.976   2.007  1.00  0.00     0.187 HD
ATOM     12  C   UNL d   1       1.565   1.601   1.868  0.00  0.00     0.071 C 
ATOM     13  C   UNL d   1       0.273   1.197  -0.384  0.00  0.00     0.087 A 
ATOM     14  C   UNL d   1      -0.387   0.066  -0.859  0.00  0.00     0.050 A 
ATOM     15  C   UNL d   1      -1.127  -0.152  -2.134  0.00  0.00     0.071 C 
BRANCH  13  16
ATOM     16  C   UNL d   1       0.442   2.470  -1.075  0.00  0.00     0.297 C 
ATOM     17  O   UNL d   1       0.147   2.657  -2.245  0.00  0.00    -0.259 OA
BRANCH  16  18
ATOM     18  O   UNL d   1       1.052   3.402  -0.287  0.00  0.00    -0.318 OA
BRANCH  18  19
ATOM     19  C   UNL d   1       1.629   4.516  -0.978  0.00  0.00     0.174 C 
ATOM     20  C   UNL d   1       3.013   4.116  -1.456  0.00  0.00     0.034 C 
ENDBRANCH  18  19
ENDBRANCH  16  18
ENDBRANCH  13  16
ENDBRANCH   1   8
BRANCH   2  21
ATOM     21  N   UNL d   1       0.722  -2.883   2.022  0.00  0.00    -0.305 N 
ATOM     22  C   UNL d   1       1.677  -3.641   2.646  0.00  0.00     0.325 C 
ATOM     23  N   UNL d   1       1.912  -4.875   2.093  0.00  0.00    -0.309 N 
ATOM     24  O   UNL d   1       2.301  -3.141   3.575  0.00  0.00    -0.247 OA
ATOM     25  H   UNL d   1       1.524  -5.021   1.176  0.00  0.00     0.170 HD
ATOM     26  H   UNL d   1       0.875  -1.880   2.172  0.00  0.00     0.171 HD
BRANCH  23  27
ATOM     27  C   UNL d   1       2.735  -5.901   2.595  0.00  0.00     0.036 A 
ATOM     28  C   UNL d   1       3.380  -5.841   3.829  0.00  0.00     0.030 A 
ATOM     29  C   UNL d   1       4.062  -6.955   4.327  0.00  0.00     0.009 A 
ATOM     30  C   UNL d   1       4.102  -8.148   3.600  0.00  0.00    -0.062 A 
ATOM     31  C   UNL d   1       3.529  -8.184   2.326  0.00  0.00     0.009 A 
ATOM     32  C   UNL d   1       4.724  -9.367   4.210  0.00  0.00     0.048 C 
ATOM     33  C   UNL d   1       2.851  -7.067   1.827  0.00  0.00     0.030 A 
ENDBRANCH  23  27
ENDBRANCH   2  21
TORSDOF 6
