REMARK  6 active torsions:
REMARK  status: ('A' for Active; 'I' for Inactive)
REMARK    1  A    between atoms: N_6  and  C_1 
REMARK    2  A    between atoms: C_2  and  C_3 
REMARK       I    between atoms: C_9  and  N_7 
REMARK    3  A    between atoms: C_22  and  C_9 
REMARK    4  A    between atoms: S_20  and  C_22 
REMARK    5  A    between atoms: C_24  and  S_20 
REMARK    6  A    between atoms: C_23  and  C_24 
ROOT
ATOM      1  N   UNL d   1       0.654   2.248   0.004  0.00  0.00    -0.363 N 
ATOM      2  N   UNL d   1       2.418   4.451  -0.148  0.00  0.00    -0.348 N 
ATOM      3  C   UNL d   1       3.006   5.692  -0.346  0.00  0.00     0.229 C 
ATOM      4  C   UNL d   1       1.351   2.480  -1.268  0.00  0.00     0.144 C 
ATOM      5  C   UNL d   1       0.266   3.499   0.674  0.00  0.00     0.144 C 
ATOM      6  C   UNL d   1       2.663   3.238  -0.953  0.00  0.00     0.145 C 
ATOM      7  C   UNL d   1       1.560   4.252   1.036  0.00  0.00     0.145 C 
ATOM      8  O   UNL d   1       2.726   6.643   0.386  0.00  0.00    -0.273 OA
ENDROOT
BRANCH   1   9
ATOM      9  C   UNL d   1      -0.163   1.135   0.110  0.00  0.00     0.125 A 
ATOM     10  N   UNL d   1      -0.628   0.581  -1.036  0.00  0.00    -0.350 N 
ATOM     11  C   UNL d   1      -1.317  -0.584  -0.971  0.00  0.00     0.106 A 
ATOM     12  HN  UNL d   1      -0.462   1.034  -1.935  1.00  0.00     0.166 HD
ATOM     13  C   UNL d   1      -1.578  -1.266   0.206  0.00  0.00     0.065 A 
ATOM     14  C   UNL d   1      -1.120  -0.689   1.391  0.00  0.00     0.045 A 
ATOM     15  C   UNL d   1      -0.404   0.507   1.349  0.00  0.00     0.078 A 
ATOM     16 CL   UNL d   1       0.276   1.054   2.847  0.00  0.00    -0.080 Cl
BRANCH  13  17
ATOM     17  C   UNL d   1      -2.282  -2.583   0.174  0.00  0.00     0.418 C 
ATOM     18  F   UNL d   1      -2.407  -3.158   1.405  0.00  0.00    -0.166 F 
ATOM     19  F   UNL d   1      -3.540  -2.495  -0.327  0.00  0.00    -0.166 F 
ATOM     20  F   UNL d   1      -1.631  -3.500  -0.595  0.00  0.00    -0.166 F 
ENDBRANCH  13  17
ENDBRANCH   1   9
BRANCH   3  21
ATOM     21  C   UNL d   1       4.005   5.804  -1.494  0.00  0.00     0.177 C 
BRANCH  21  22
ATOM     22  S   UNL d   1       4.733   7.463  -1.688  0.00  0.00    -0.155 SA
BRANCH  22  23
ATOM     23  C   UNL d   1       5.651   7.570  -0.119  0.00  0.00     0.112 C 
BRANCH  23  24
ATOM     24  C   UNL d   1       6.309   8.916   0.050  0.00  0.00    -0.049 A 
ATOM     25  C   UNL d   1       5.605   9.978   0.639  0.00  0.00     0.008 A 
ATOM     26  C   UNL d   1       6.216  11.220   0.820  0.00  0.00     0.001 A 
ATOM     27  C   UNL d   1       7.533  11.415   0.407  0.00  0.00     0.000 A 
ATOM     28  C   UNL d   1       8.235  10.374  -0.198  0.00  0.00     0.001 A 
ATOM     29  C   UNL d   1       7.626   9.131  -0.380  0.00  0.00     0.008 A 
ENDBRANCH  23  24
ENDBRANCH  22  23
ENDBRANCH  21  22
ENDBRANCH   3  21
TORSDOF 6
