REMARK  3 active torsions:
REMARK  status: ('A' for Active; 'I' for Inactive)
REMARK    1  A    between atoms: N_8  and  C_3 
REMARK       I    between atoms: C_5  and  N_7 
REMARK    2  A    between atoms: C_10  and  C_5 
REMARK    3  A    between atoms: N_7  and  N_8 
ROOT
ATOM      1  N   UNL d   1       3.638  -1.292   0.345  0.00  0.00    -0.285 N 
ATOM      2  H   UNL d   1       3.635  -2.304   0.475  0.00  0.00     0.188 HD
ENDROOT
BRANCH   1   3
ATOM      3  N   UNL d   1       4.832  -0.757  -0.144  0.00  0.00    -0.264 N 
ATOM      4  C   UNL d   1       6.005  -1.253   0.393  0.00  0.00     0.270 C 
ATOM      5  O   UNL d   1       6.025  -2.201   1.176  0.00  0.00    -0.266 OA
ATOM      6  H   UNL d   1       4.734   0.180  -0.532  0.00  0.00     0.190 HD
BRANCH   4   7
ATOM      7  C   UNL d   1       7.283  -0.617  -0.050  0.00  0.00     0.033 A 
ATOM      8  C   UNL d   1       7.353   0.281  -1.125  0.00  0.00     0.019 A 
ATOM      9  C   UNL d   1       8.594   0.758  -1.564  0.00  0.00     0.025 A 
ATOM     10  C   UNL d   1       9.766   0.341  -0.935  0.00  0.00     0.034 A 
ATOM     11  C   UNL d   1       9.710  -0.534   0.146  0.00  0.00     0.025 A 
ATOM     12 CL   UNL d   1      11.289   0.889  -1.516  0.00  0.00    -0.084 Cl
ATOM     13  C   UNL d   1       8.471  -1.009   0.589  0.00  0.00     0.019 A 
ENDBRANCH   4   7
ENDBRANCH   1   3
BRANCH   1  14
ATOM     14  C   UNL d   1       2.475  -0.585   0.087  0.00  0.00     0.106 A 
ATOM     15  N   UNL d   1       2.567   0.604  -0.440  0.00  0.00    -0.343 N 
ATOM     16  C   UNL d   1       1.451   1.398  -0.730  0.00  0.00     0.050 A 
ATOM     17  HN  UNL d   1       3.495   0.973  -0.650  1.00  0.00     0.167 HD
ATOM     18  C   UNL d   1       0.122   1.049  -0.486  0.00  0.00     0.027 A 
ATOM     19  C   UNL d   1       1.725   2.644  -1.314  0.00  0.00     0.031 A 
ATOM     20  S   UNL d   1      -0.367  -0.483   0.253  0.00  0.00    -0.120 SA
ATOM     21  C   UNL d   1      -0.908   1.942  -0.832  0.00  0.00     0.021 A 
ATOM     22  C   UNL d   1       1.204  -1.313   0.476  0.00  0.00     0.157 A 
ATOM     23  C   UNL d   1      -0.619   3.176  -1.416  0.00  0.00     0.002 A 
ATOM     24  C   UNL d   1       0.700   3.529  -1.657  0.00  0.00     0.002 A 
ENDBRANCH   1  14
TORSDOF 3
