REMARK  3 active torsions:
REMARK  status: ('A' for Active; 'I' for Inactive)
REMARK    1  A    between atoms: C_2  and  C_1 
REMARK       I    between atoms: N_6  and  C_2 
REMARK    2  A    between atoms: O_4  and  C_3 
REMARK    3  A    between atoms: C_8  and  O_4 
ROOT
ATOM      1  C   UNL d   1       1.412  -0.150  -0.160  0.00  0.00     0.065 A 
ATOM      2  C   UNL d   1       0.498  -1.224  -0.086  0.00  0.00     0.085 A 
ATOM      3  C   UNL d   1       0.921   1.173  -0.184  0.00  0.00     0.020 A 
ATOM      4  C   UNL d   1      -0.873  -0.930   0.014  0.00  0.00     0.038 A 
ATOM      5  C   UNL d   1      -0.445   1.439  -0.114  0.00  0.00     0.001 A 
ATOM      6  C   UNL d   1      -1.340   0.386  -0.004  0.00  0.00     0.003 A 
ENDROOT
BRANCH   1   7
ATOM      7  C   UNL d   1       2.903  -0.272  -0.219  0.00  0.00     0.252 C 
ATOM      8  O   UNL d   1       3.622   0.694  -0.456  0.00  0.00    -0.268 OA
ATOM      9  N   UNL d   1       3.465  -1.488   0.032  0.00  0.00    -0.366 N 
ATOM     10  H   UNL d   1       2.896  -2.307   0.218  0.00  0.00     0.159 HD
ATOM     11  H   UNL d   1       4.472  -1.560   0.023  0.00  0.00     0.159 HD
ENDBRANCH   1   7
BRANCH   2  12
ATOM     12  O   UNL d   1       0.978  -2.517  -0.100  0.00  0.00    -0.346 OA
BRANCH  12  13
ATOM     13  C   UNL d   1       0.091  -3.562  -0.543  0.00  0.00     0.120 C 
ATOM     14  C   UNL d   1      -0.067  -3.527  -2.062  0.00  0.00     0.040 C 
ATOM     15  C   UNL d   1       0.674  -4.907  -0.111  0.00  0.00     0.040 C 
ENDBRANCH  12  13
ENDBRANCH   2  12
TORSDOF 3
