REMARK  2 active torsions:
REMARK  status: ('A' for Active; 'I' for Inactive)
REMARK    1  A    between atoms: N_6  and  C_1 
REMARK       I    between atoms: C_7  and  N_6 
REMARK    2  A    between atoms: C_9  and  C_7 
ROOT
ATOM      1  C   UNL d   1       2.408  -0.851   0.262  0.00  0.00     0.098 C 
ATOM      2  C   UNL d   1       1.955   0.453   0.073  0.00  0.00     0.085 C 
ATOM      3  C   UNL d   1       0.509   0.533   0.117  0.00  0.00    -0.021 C 
ATOM      4  C   UNL d   1      -0.044  -0.714   0.324  0.00  0.00    -0.007 C 
ATOM      5  S   UNL d   1       1.114  -1.890   0.652  0.00  0.00    -0.075 SA
ATOM      6  C   UNL d   1       2.828   1.566  -0.209  0.00  0.00     0.103 C 
ATOM      7  N   UNL d   1       3.534   2.453  -0.446  0.00  0.00    -0.191 NA
ATOM      8  C   UNL d   1      -0.363   1.736  -0.127  0.00  0.00     0.042 C 
ATOM      9  C   UNL d   1      -1.497  -1.065   0.293  0.00  0.00     0.051 C 
ATOM     10  C   UNL d   1      -1.856   1.431   0.132  0.00  0.00     0.009 C 
ATOM     11  C   UNL d   1      -2.307   0.050  -0.395  0.00  0.00    -0.014 C 
ATOM     12  C   UNL d   1      -2.209  -0.042  -1.922  0.00  0.00     0.010 C 
ENDROOT
BRANCH   1  13
ATOM     13  N   UNL d   1       3.702  -1.359   0.190  0.00  0.00    -0.314 N 
ATOM     14  C   UNL d   1       4.035  -2.714   0.235  0.00  0.00     0.280 C 
ATOM     15  O   UNL d   1       3.252  -3.645   0.368  0.00  0.00    -0.265 OA
ATOM     16  H   UNL d   1       4.468  -0.720  -0.002  0.00  0.00     0.170 HD
BRANCH  14  17
ATOM     17  C   UNL d   1       5.448  -2.995   0.084  0.00  0.00     0.142 A 
ATOM     18  O   UNL d   1       6.354  -1.995  -0.145  0.00  0.00    -0.317 OA
ATOM     19  C   UNL d   1       7.572  -2.593  -0.253  0.00  0.00     0.143 A 
ATOM     20  C   UNL d   1       7.467  -3.954  -0.092  0.00  0.00     0.027 A 
ATOM     21  C   UNL d   1       6.097  -4.215   0.124  0.00  0.00     0.045 A 
ENDBRANCH  14  17
ENDBRANCH   1  13
TORSDOF 2
