REMARK  9 active torsions:
REMARK  status: ('A' for Active; 'I' for Inactive)
REMARK    1  A    between atoms: C_25  and  C_4 
REMARK    2  A    between atoms: C_24  and  N_7 
REMARK    3  A    between atoms: C_8  and  C_22 
REMARK    4  A    between atoms: S_16  and  C_9 
REMARK    5  A    between atoms: C_20  and  C_10 
REMARK    6  A    between atoms: N_13  and  C_17 
REMARK    7  A    between atoms: C_15  and  C_30 
REMARK       I    between atoms: N_26  and  C_15 
REMARK    8  A    between atoms: C_30  and  S_16 
REMARK    9  A    between atoms: N_18  and  N_26 
ROOT
ATOM      1  N   UNL d   1       0.317  -6.003  -1.356  0.00  0.00    -0.308 N 
ATOM      2  HN  UNL d   1      -0.174  -5.717  -2.203  1.00  0.00     0.186 HD
ATOM      3  C   UNL d   1      -0.302  -6.144  -0.224  0.00  0.00     0.122 C 
ENDROOT
BRANCH   1   4
ATOM      4  N   UNL d   1       1.678  -6.260  -1.353  0.00  0.00    -0.270 N 
ATOM      5  C   UNL d   1       2.544  -5.731  -0.396  0.00  0.00     0.245 C 
ATOM      6  O   UNL d   1       2.162  -5.177   0.637  0.00  0.00    -0.271 OA
ATOM      7  H   UNL d   1       2.069  -6.398  -2.284  0.00  0.00     0.190 HD
BRANCH   5   8
ATOM      8  C   UNL d   1       4.031  -5.975  -0.635  0.00  0.00     0.186 C 
BRANCH   8   9
ATOM      9  S   UNL d   1       4.511  -5.846  -2.383  0.00  0.00    -0.083 SA
BRANCH   9  10
ATOM     10  C   UNL d   1       6.231  -6.056  -2.269  0.00  0.00     0.163 A 
ATOM     11  N   UNL d   1       7.080  -5.993  -3.346  0.00  0.00    -0.315 N 
ATOM     12  C   UNL d   1       8.354  -6.194  -2.844  0.00  0.00     0.134 A 
ATOM     13  C   UNL d   1       6.678  -5.820  -4.719  0.00  0.00     0.160 C 
ATOM     14  N   UNL d   1       8.242  -6.406  -1.543  0.00  0.00    -0.283 N 
ATOM     15  N   UNL d   1       6.916  -6.306  -1.183  0.00  0.00    -0.278 N 
ATOM     16  HN  UNL d   1       9.013  -6.611  -0.908  1.00  0.00     0.188 HD
ATOM     17  HN  UNL d   1       6.537  -6.409  -0.241  1.00  0.00     0.189 HD
BRANCH  12  18
ATOM     18  C   UNL d   1       9.619  -6.250  -3.594  0.00  0.00     0.012 A 
ATOM     19  C   UNL d   1       9.897  -5.417  -4.681  0.00  0.00     0.032 A 
ATOM     20  C   UNL d   1      11.087  -5.590  -5.373  0.00  0.00     0.088 A 
ATOM     21  N   UNL d   1      12.025  -6.496  -5.037  0.00  0.00    -0.375 N 
ATOM     22  C   UNL d   1      11.773  -7.251  -3.947  0.00  0.00     0.088 A 
ATOM     23  HN  UNL d   1      12.882  -6.607  -5.579  1.00  0.00     0.164 HD
ATOM     24  C   UNL d   1      10.605  -7.163  -3.205  0.00  0.00     0.032 A 
ENDBRANCH  12  18
ENDBRANCH   9  10
ENDBRANCH   8   9
ENDBRANCH   5   8
ENDBRANCH   1   4
BRANCH   3  25
ATOM     25  C   UNL d   1      -1.717  -5.859  -0.129  0.00  0.00     0.027 A 
ATOM     26  C   UNL d   1      -2.683  -6.417   0.758  0.00  0.00     0.072 A 
ATOM     27  N   UNL d   1      -3.875  -5.821   0.606  0.00  0.00    -0.292 N 
ATOM     28  N   UNL d   1      -3.721  -4.945  -0.417  0.00  0.00    -0.266 N 
ATOM     29  HN  UNL d   1      -4.722  -5.992   1.148  1.00  0.00     0.187 HD
ATOM     30  C   UNL d   1      -2.426  -4.944  -0.881  0.00  0.00     0.132 A 
BRANCH  26  31
ATOM     31  C   UNL d   1      -2.524  -7.514   1.722  0.00  0.00    -0.007 A 
ATOM     32  C   UNL d   1      -1.655  -8.584   1.456  0.00  0.00     0.016 A 
ATOM     33  C   UNL d   1      -1.500  -9.630   2.374  0.00  0.00     0.037 A 
ATOM     34  C   UNL d   1      -2.238  -9.622   3.559  0.00  0.00     0.102 A 
ATOM     35  C   UNL d   1      -3.135  -8.581   3.831  0.00  0.00     0.037 A 
ATOM     36  C   UNL d   1      -3.273  -7.534   2.910  0.00  0.00     0.016 A 
BRANCH  34  37
ATOM     37  N   UNL d   1      -2.081 -10.725   4.516  0.00  0.00    -0.116 N 
ATOM     38  O   UNL d   1      -1.259 -11.612   4.245  0.00  0.00    -0.532 OA
ATOM     39  O   UNL d   1      -2.780 -10.704   5.542  0.00  0.00    -0.532 OA
ENDBRANCH  34  37
ENDBRANCH  26  31
BRANCH  28  40
ATOM     40  C   UNL d   1      -4.827  -4.180  -0.892  0.00  0.00     0.056 A 
ATOM     41  C   UNL d   1      -4.700  -3.330  -2.000  0.00  0.00     0.031 A 
ATOM     42  C   UNL d   1      -5.809  -2.620  -2.470  0.00  0.00     0.002 A 
ATOM     43  C   UNL d   1      -7.045  -2.744  -1.837  0.00  0.00     0.000 A 
ATOM     44  C   UNL d   1      -7.176  -3.575  -0.727  0.00  0.00     0.002 A 
ATOM     45  C   UNL d   1      -6.074  -4.291  -0.254  0.00  0.00     0.031 A 
ENDBRANCH  28  40
ENDBRANCH   3  25
TORSDOF 9
