REMARK  5 active torsions:
REMARK  status: ('A' for Active; 'I' for Inactive)
REMARK    1  A    between atoms: C_2  and  C_1 
REMARK    2  A    between atoms: C_7  and  C_1 
REMARK    3  A    between atoms: C_12  and  C_2 
REMARK    4  A    between atoms: N_5  and  N_3 
REMARK    5  A    between atoms: C_13  and  C_8 
ROOT
ATOM      1  C   UNL d   1       0.902  -0.091   0.143  0.00  0.00     0.109 C 
ATOM      2  N   UNL d   1       0.359   1.088   0.321  0.00  0.00    -0.296 N 
ATOM      3  HN  UNL d   1       0.915   1.944   0.335  1.00  0.00     0.187 HD
ENDROOT
BRANCH   1   4
ATOM      4  C   UNL d   1       2.427  -0.060   0.008  0.00  0.00     0.210 C 
ATOM      5  O   UNL d   1       3.119  -0.915   0.553  0.00  0.00    -0.285 OA
BRANCH   4   6
ATOM      6  C   UNL d   1       3.099   1.058  -0.708  0.00  0.00     0.016 A 
ATOM      7  C   UNL d   1       4.390   1.423  -0.291  0.00  0.00     0.015 A 
ATOM      8  C   UNL d   1       5.050   2.498  -0.891  0.00  0.00     0.001 A 
ATOM      9  C   UNL d   1       4.431   3.202  -1.921  0.00  0.00     0.000 A 
ATOM     10  C   UNL d   1       3.158   2.829  -2.359  0.00  0.00     0.001 A 
ATOM     11  C   UNL d   1       2.493   1.757  -1.755  0.00  0.00     0.015 A 
ENDBRANCH   4   6
ENDBRANCH   1   4
BRANCH   1  12
ATOM     12  C   UNL d   1       0.176  -1.415   0.111  0.00  0.00    -0.004 A 
ATOM     13  C   UNL d   1       0.725  -2.564   0.695  0.00  0.00     0.014 A 
ATOM     14  C   UNL d   1      -0.011  -3.752   0.777  0.00  0.00     0.001 A 
ATOM     15  C   UNL d   1      -1.315  -3.806   0.294  0.00  0.00     0.000 A 
ATOM     16  C   UNL d   1      -1.865  -2.688  -0.321  0.00  0.00     0.001 A 
ATOM     17  C   UNL d   1      -1.113  -1.515  -0.441  0.00  0.00     0.014 A 
ENDBRANCH   1  12
BRANCH   2  18
ATOM     18  N   UNL d   1      -1.010   1.100   0.488  0.00  0.00    -0.309 N 
ATOM     19  C   UNL d   1      -1.516   2.291   0.527  0.00  0.00     0.136 C 
ATOM     20  HN  UNL d   1      -1.571   0.252   0.572  1.00  0.00     0.186 HD
BRANCH  19  21
ATOM     21  C   UNL d   1      -2.976   2.489   0.581  0.00  0.00     0.049 A 
ATOM     22  N   UNL d   1      -3.394   3.775   0.628  0.00  0.00    -0.365 N 
ATOM     23  C   UNL d   1      -4.733   3.969   0.615  0.00  0.00     0.088 A 
ATOM     24  HN  UNL d   1      -2.737   4.555   0.671  1.00  0.00     0.165 HD
ATOM     25  C   UNL d   1      -5.666   2.942   0.543  0.00  0.00     0.017 A 
ATOM     26  C   UNL d   1      -5.205   1.633   0.492  0.00  0.00     0.004 A 
ATOM     27  C   UNL d   1      -3.835   1.395   0.519  0.00  0.00     0.031 A 
ENDBRANCH  19  21
ENDBRANCH   2  18
TORSDOF 5
