REMARK  6 active torsions:
REMARK  status: ('A' for Active; 'I' for Inactive)
REMARK    1  A    between atoms: C_3  and  C_4 
REMARK    2  A    between atoms: C_4  and  O_18 
REMARK    3  A    between atoms: S_17  and  C_7 
REMARK    4  A    between atoms: C_22  and  S_17 
REMARK    5  A    between atoms: O_18  and  C_24 
REMARK    6  A    between atoms: C_24  and  C_22 
ROOT
ATOM      1  S   UNL d   1       3.931   1.504  -0.013  0.00  0.00    -0.109 SA
ENDROOT
BRANCH   1   2
ATOM      2  C   UNL d   1       2.340   0.715   0.122  0.00  0.00     0.085 A 
ATOM      3  N   UNL d   1       1.203   1.446   0.133  0.00  0.00    -0.348 N 
ATOM      4  C   UNL d   1       0.040   0.756   0.223  0.00  0.00     0.060 A 
ATOM      5  HN  UNL d   1       1.219   2.464   0.077  1.00  0.00     0.166 HD
ATOM      6  C   UNL d   1       0.020  -0.661   0.296  0.00  0.00     0.059 A 
ATOM      7  C   UNL d   1      -1.177   1.431   0.244  0.00  0.00     0.032 A 
ATOM      8  N   UNL d   1       1.154  -1.380   0.284  0.00  0.00    -0.361 N 
ATOM      9  C   UNL d   1      -1.194  -1.331   0.384  0.00  0.00     0.032 A 
ATOM     10  C   UNL d   1       2.303  -0.670   0.197  0.00  0.00     0.125 A 
ATOM     11  HN  UNL d   1       1.150  -2.398   0.338  1.00  0.00     0.165 HD
ATOM     12  C   UNL d   1      -2.404  -0.638   0.402  0.00  0.00     0.002 A 
ATOM     13  C   UNL d   1      -2.396   0.748   0.332  0.00  0.00     0.002 A 
ENDBRANCH   1   2
BRANCH   1  14
ATOM     14  C   UNL d   1       3.495   3.278   0.067  0.00  0.00     0.108 C 
BRANCH  14  15
ATOM     15  C   UNL d   1       4.779   4.115   0.025  0.00  0.00     0.189 C 
BRANCH  15  16
ATOM     16  O   UNL d   1       5.656   3.831   1.134  0.00  0.00    -0.317 OA
BRANCH  16  17
ATOM     17  C   UNL d   1       5.349   4.441   2.302  0.00  0.00     0.293 C 
ATOM     18  O   UNL d   1       4.425   5.220   2.479  0.00  0.00    -0.259 OA
BRANCH  17  19
ATOM     19  C   UNL d   1       6.303   4.046   3.373  0.00  0.00     0.042 A 
ATOM     20  C   UNL d   1       6.194   4.683   4.617  0.00  0.00     0.041 A 
ATOM     21  C   UNL d   1       7.064   4.348   5.653  0.00  0.00     0.036 A 
ATOM     22 CL   UNL d   1       6.924   5.141   7.173  0.00  0.00    -0.084 Cl
ATOM     23  C   UNL d   1       8.044   3.378   5.470  0.00  0.00     0.047 A 
ATOM     24  C   UNL d   1       8.149   2.741   4.235  0.00  0.00     0.036 A 
ATOM     25  C   UNL d   1       7.287   3.066   3.185  0.00  0.00     0.041 A 
ATOM     26 CL   UNL d   1       9.353   1.533   4.006  0.00  0.00    -0.084 Cl
ENDBRANCH  17  19
ENDBRANCH  16  17
ENDBRANCH  15  16
ENDBRANCH  14  15
ENDBRANCH   1  14
TORSDOF 6
