REMARK  4 active torsions:
REMARK  status: ('A' for Active; 'I' for Inactive)
REMARK    1  A    between atoms: N_2  and  C_1 
REMARK    2  A    between atoms: N_8  and  C_1 
REMARK    3  A    between atoms: C_3  and  N_2 
REMARK    4  A    between atoms: C_15  and  N_8 
ROOT
ATOM      1  N   UNL d   1       0.177  -0.456  -0.861  0.00  0.00    -0.333 N 
ATOM      2  H   UNL d   1      -0.475  -1.149  -0.521  0.00  0.00     0.168 HD
ENDROOT
BRANCH   1   3
ATOM      3  C   UNL d   1       1.118  -0.077   0.060  0.00  0.00     0.172 C 
ATOM      4  S   UNL d   1       2.712   0.358  -0.205  0.00  0.00    -0.041 SA
BRANCH   3   5
ATOM      5  N   UNL d   1       0.720  -0.095   1.364  0.00  0.00    -0.362 N 
ATOM      6  H   UNL d   1       1.483   0.089   2.009  0.00  0.00     0.162 HD
BRANCH   5   7
ATOM      7  C   UNL d   1      -0.562  -0.440   1.968  0.00  0.00     0.092 C 
ATOM      8  C   UNL d   1      -0.700  -1.952   2.313  0.00  0.00     0.031 C 
ATOM      9  C   UNL d   1       0.477  -2.369   3.170  0.00  0.00    -0.024 C 
ATOM     10  C   UNL d   1      -1.772  -1.904   3.409  0.00  0.00     0.019 C 
ATOM     11  C   UNL d   1       0.333  -1.766   4.360  0.00  0.00    -0.026 C 
ATOM     12  C   UNL d   1      -0.953  -0.973   4.307  0.00  0.00     0.010 C 
ATOM     13  C   UNL d   1      -0.744   0.234   3.366  0.00  0.00     0.034 C 
ENDBRANCH   5   7
ENDBRANCH   3   5
ENDBRANCH   1   3
BRANCH   1  14
ATOM     14  C   UNL d   1       0.156  -0.254  -2.263  0.00  0.00     0.035 A 
ATOM     15  C   UNL d   1      -0.563  -1.175  -3.042  0.00  0.00     0.043 A 
ATOM     16  C   UNL d   1      -0.636  -1.008  -4.443  0.00  0.00    -0.006 A 
ATOM     17  C   UNL d   1      -1.235  -1.748  -5.500  0.00  0.00     0.030 A 
ATOM     18  C   UNL d   1      -0.014   0.098  -5.021  0.00  0.00     0.042 A 
ATOM     19  C   UNL d   1      -0.979  -1.081  -6.678  0.00  0.00     0.089 A 
ATOM     20  N   UNL d   1      -0.242   0.033  -6.377  0.00  0.00    -0.365 N 
ATOM     21  H   UNL d   1       0.092   0.712  -7.046  0.00  0.00     0.165 HD
ATOM     22  C   UNL d   1       0.683   1.044  -4.268  0.00  0.00     0.033 A 
ATOM     23  C   UNL d   1       0.750   0.849  -2.882  0.00  0.00     0.032 A 
ENDBRANCH   1  14
TORSDOF 4
