REMARK  2 active torsions:
REMARK  status: ('A' for Active; 'I' for Inactive)
REMARK    1  A    between atoms: N_11  and  C_4 
REMARK    2  A    between atoms: C_14  and  N_11 
ROOT
ATOM      1  N   UNL d   1       1.649   1.005   0.019  0.00  0.00    -0.334 N 
ATOM      2  HN  UNL d   1       1.931   1.983   0.088  1.00  0.00     0.168 HD
ATOM      3  C   UNL d   1       0.330   0.562   0.006  0.00  0.00     0.073 A 
ATOM      4  C   UNL d   1       2.481  -0.003  -0.067  0.00  0.00     0.145 A 
ATOM      5  C   UNL d   1       0.187  -0.827  -0.060  0.00  0.00     0.038 A 
ATOM      6  S   UNL d   1       1.740  -1.553  -0.149  0.00  0.00    -0.052 SA
ATOM      7  C   UNL d   1      -0.858   1.326   0.054  0.00  0.00     0.063 A 
ATOM      8  C   UNL d   1      -1.072  -1.456  -0.057  0.00  0.00     0.045 A 
ATOM      9  C   UNL d   1      -2.120   0.733   0.048  0.00  0.00     0.050 A 
ATOM     10  C   UNL d   1      -2.214  -0.651  -0.002  0.00  0.00     0.037 A 
ATOM     11 CL   UNL d   1      -0.671   3.025   0.115  0.00  0.00    -0.082 Cl
ATOM     12 CL   UNL d   1      -3.765  -1.397  -0.000  0.00  0.00    -0.084 Cl
ENDROOT
BRANCH   4  13
ATOM     13  N   UNL d   1       3.830   0.082  -0.087  0.00  0.00    -0.371 N 
ATOM     14  H   UNL d   1       4.325  -0.794   0.037  0.00  0.00     0.161 HD
BRANCH  13  15
ATOM     15  C   UNL d   1       4.467   1.236   0.522  0.00  0.00     0.117 C 
ATOM     16  C   UNL d   1       5.978   1.093   0.412  0.00  0.00     0.026 C 
ENDBRANCH  13  15
ENDBRANCH   4  13
TORSDOF 2
