REMARK  4 active torsions:
REMARK  status: ('A' for Active; 'I' for Inactive)
REMARK    1  A    between atoms: C_2  and  C_1 
REMARK       I    between atoms: N_6  and  C_2 
REMARK    2  A    between atoms: C_3  and  C_4 
REMARK    3  A    between atoms: O_15  and  C_5 
REMARK    4  A    between atoms: C_13  and  N_6 
ROOT
ATOM      1  C   UNL d   1       0.864   1.251  -0.156  0.00  0.00     0.098 A 
ATOM      2  C   UNL d   1       1.728   0.189   0.165  0.00  0.00     0.069 A 
ATOM      3  C   UNL d   1      -0.397   0.925  -0.671  0.00  0.00     0.158 A 
ATOM      4  N   UNL d   1      -0.865  -0.344  -0.779  0.00  0.00    -0.346 N 
ATOM      5  HN  UNL d   1      -1.783  -0.538  -1.177  1.00  0.00     0.167 HD
ATOM      6  C   UNL d   1      -0.071  -1.334  -0.341  0.00  0.00     0.091 A 
ATOM      7  C   UNL d   1       1.220  -1.123   0.103  0.00  0.00     0.034 A 
ENDROOT
BRANCH   1   8
ATOM      8  C   UNL d   1       1.074   2.662   0.271  0.00  0.00     0.261 C 
ATOM      9  N   UNL d   1       2.282   3.269  -0.004  0.00  0.00    -0.323 N 
ATOM     10  H   UNL d   1       3.012   2.725  -0.458  0.00  0.00     0.169 HD
ATOM     11  O   UNL d   1       0.166   3.167   0.929  0.00  0.00    -0.267 OA
BRANCH   9  12
ATOM     12  C   UNL d   1       2.680   4.554   0.446  0.00  0.00     0.035 A 
ATOM     13  C   UNL d   1       1.786   5.517   0.926  0.00  0.00     0.031 A 
ATOM     14  C   UNL d   1       2.246   6.750   1.401  0.00  0.00     0.026 A 
ATOM     15  C   UNL d   1       3.609   7.026   1.401  0.00  0.00     0.034 A 
ATOM     16  C   UNL d   1       4.512   6.088   0.909  0.00  0.00     0.026 A 
ATOM     17 CL   UNL d   1       4.178   8.529   2.013  0.00  0.00    -0.084 Cl
ATOM     18  C   UNL d   1       4.047   4.861   0.420  0.00  0.00     0.031 A 
ENDBRANCH   9  12
ENDBRANCH   1   8
BRANCH   2  19
ATOM     19  C   UNL d   1       3.154   0.360   0.598  0.00  0.00     0.418 C 
ATOM     20  F   UNL d   1       3.812   1.332  -0.097  0.00  0.00    -0.166 F 
ATOM     21  F   UNL d   1       3.290   0.658   1.913  0.00  0.00    -0.166 F 
ATOM     22  F   UNL d   1       3.898  -0.765   0.389  0.00  0.00    -0.166 F 
ENDBRANCH   2  19
BRANCH   3  23
ATOM     23  O   UNL d   1      -1.172   1.944  -1.190  0.00  0.00    -0.340 OA
ATOM     24  C   UNL d   1      -2.480   1.532  -1.575  0.00  0.00     0.211 C 
ENDBRANCH   3  23
TORSDOF 4
