REMARK  7 active torsions:
REMARK  status: ('A' for Active; 'I' for Inactive)
REMARK    1  A    between atoms: C_2  and  C_1 
REMARK    2  A    between atoms: C_5  and  C_1 
REMARK    3  A    between atoms: N_7  and  C_5 
REMARK    4  A    between atoms: O_12  and  N_7 
REMARK    5  A    between atoms: C_11  and  O_12 
REMARK    6  A    between atoms: C_14  and  C_11 
REMARK    7  A    between atoms: C_15  and  C_14 
ROOT
ATOM      1  C   UNL d   1      -0.344   1.604  -1.208  0.00  0.00     0.109 C 
ATOM      2  N   UNL d   1      -0.260   0.738  -0.157  0.00  0.00    -0.387 N 
ATOM      3  H   UNL d   1       0.014   1.117   0.742  0.00  0.00     0.157 HD
ATOM      4  H   UNL d   1      -0.978   0.026  -0.130  0.00  0.00     0.157 HD
ENDROOT
BRANCH   1   5
ATOM      5  C   UNL d   1       0.538   2.824  -1.106  0.00  0.00     0.048 A 
ATOM      6  C   UNL d   1       0.307   3.809   0.036  0.00  0.00     0.024 A 
ATOM      7  C   UNL d   1      -0.120   4.183  -1.344  0.00  0.00     0.024 A 
BRANCH   5   8
ATOM      8  C   UNL d   1       1.955   2.580  -1.637  0.00  0.00    -0.020 A 
ATOM      9  C   UNL d   1       3.014   2.089  -0.844  0.00  0.00     0.043 A 
ATOM     10  C   UNL d   1       4.210   1.639  -1.415  0.00  0.00     0.048 A 
ATOM     11 CL   UNL d   1       2.868   1.946   0.876  0.00  0.00    -0.084 Cl
ATOM     12  C   UNL d   1       4.372   1.675  -2.794  0.00  0.00     0.035 A 
ATOM     13  C   UNL d   1       3.378   2.212  -3.603  0.00  0.00     0.024 A 
ATOM     14 CL   UNL d   1       5.788   1.007  -3.506  0.00  0.00    -0.084 Cl
ATOM     15  C   UNL d   1       2.188   2.666  -3.027  0.00  0.00     0.012 A 
ENDBRANCH   5   8
ENDBRANCH   1   5
BRANCH   1  16
ATOM     16  N   UNL d   1      -1.043   1.469  -2.286  0.00  0.00    -0.245 N 
ATOM     17  HN  UNL d   1      -1.085   2.152  -3.042  1.00  0.00     0.196 HD
BRANCH  16  18
ATOM     18  O   UNL d   1      -1.740   0.245  -2.268  0.00  0.00    -0.198 OA
BRANCH  18  19
ATOM     19  C   UNL d   1      -2.416   0.060  -3.447  0.00  0.00     0.281 C 
ATOM     20  O   UNL d   1      -2.513   0.858  -4.379  0.00  0.00    -0.263 OA
BRANCH  19  21
ATOM     21  C   UNL d   1      -3.049  -1.312  -3.456  0.00  0.00     0.121 C 
BRANCH  21  22
ATOM     22  C   UNL d   1      -2.184  -2.414  -4.112  0.00  0.00    -0.043 C 
ATOM     23  C   UNL d   1      -0.881  -2.636  -3.327  0.00  0.00     0.015 C 
ATOM     24  C   UNL d   1      -2.990  -3.728  -4.107  0.00  0.00     0.015 C 
ATOM     25  C   UNL d   1      -1.846  -2.060  -5.570  0.00  0.00     0.015 C 
ENDBRANCH  21  22
ENDBRANCH  19  21
ENDBRANCH  18  19
ENDBRANCH  16  18
ENDBRANCH   1  16
TORSDOF 7
