REMARK  7 active torsions:
REMARK  status: ('A' for Active; 'I' for Inactive)
REMARK    1  A    between atoms: C_2  and  S_1 
REMARK    2  A    between atoms: N_4  and  S_1 
REMARK    3  A    between atoms: N_8  and  C_5 
REMARK    4  A    between atoms: C_14  and  N_8 
REMARK    5  A    between atoms: C_9  and  C_14 
REMARK    6  A    between atoms: O_15  and  C_9 
REMARK    7  A    between atoms: C_19  and  O_15 
ROOT
ATOM      1  C   UNL d   1       0.527  -0.098   1.706  0.00  0.00     0.081 A 
ATOM      2  C   UNL d   1       0.113   1.011   2.452  0.00  0.00     0.049 A 
ATOM      3  C   UNL d   1      -0.444   0.860   3.730  0.00  0.00     0.016 A 
ATOM      4  C   UNL d   1       0.422  -1.383   2.233  0.00  0.00     0.026 A 
ATOM      5  C   UNL d   1      -0.495  -0.437   4.286  0.00  0.00    -0.041 A 
ATOM      6  C   UNL d   1      -0.068  -1.546   3.526  0.00  0.00     0.010 A 
ATOM      7  C   UNL d   1      -1.032  -0.684   5.673  0.00  0.00     0.050 C 
ENDROOT
BRANCH   3   8
ATOM      8  N   UNL d   1      -0.845   1.978   4.479  0.00  0.00    -0.283 NA
ATOM      9  H   UNL d   1      -1.452   1.738   5.264  0.00  0.00     0.128 HD
BRANCH   8  10
ATOM     10  C   UNL d   1      -1.400   3.127   3.734  0.00  0.00     0.203 C 
BRANCH  10  11
ATOM     11  C   UNL d   1      -2.532   3.792   4.505  0.00  0.00     0.272 C 
ATOM     12  O   UNL d   1      -2.963   3.410   5.587  0.00  0.00    -0.264 OA
BRANCH  11  13
ATOM     13  O   UNL d   1      -3.059   4.796   3.747  0.00  0.00    -0.321 OA
BRANCH  13  14
ATOM     14  C   UNL d   1      -4.371   5.235   4.125  0.00  0.00     0.174 C 
ATOM     15  C   UNL d   1      -5.391   4.327   3.461  0.00  0.00     0.034 C 
ENDBRANCH  13  14
ENDBRANCH  11  13
ENDBRANCH  10  11
ENDBRANCH   8  10
ENDBRANCH   3   8
BRANCH   1  16
ATOM     16  S   UNL d   1       1.030   0.139   0.016  0.00  0.00     0.260 S 
ATOM     17  O   UNL d   1       0.451   1.388  -0.436  0.00  0.00    -0.200 OA
ATOM     18  O   UNL d   1       0.766  -1.098  -0.692  0.00  0.00    -0.200 OA
BRANCH  16  19
ATOM     19  N   UNL d   1       2.715   0.346   0.109  0.00  0.00    -0.315 N 
ATOM     20  C   UNL d   1       3.202   1.580   0.744  0.00  0.00     0.162 C 
ATOM     21  C   UNL d   1       3.525  -0.841   0.420  0.00  0.00     0.162 C 
ENDBRANCH  16  19
ENDBRANCH   1  16
TORSDOF 7
