REMARK  1 active torsions:
REMARK  status: ('A' for Active; 'I' for Inactive)
REMARK    1  A    between atoms: O_11  and  N_7 
ROOT
ATOM      1  N   UNL d   1       1.452  -0.343  -3.536  0.00  0.00     0.094 N 
ATOM      2  C   UNL d   1       1.322   0.859  -2.693  0.00  0.00     0.228 C 
ATOM      3  C   UNL d   1       0.714   0.041  -4.756  0.00  0.00     0.228 C 
ATOM      4  C   UNL d   1      -1.150   0.731  -3.228  0.00  0.00     0.014 C 
ATOM      5  C   UNL d   1      -0.107   0.869  -2.129  0.00  0.00     0.090 C 
ATOM      6  C   UNL d   1      -0.784  -0.094  -4.450  0.00  0.00     0.090 C 
ATOM      7  N   UNL d   1      -2.319   1.264  -3.016  0.00  0.00    -0.277 N 
ATOM      8  HN  UNL d   1      -2.562   1.801  -2.183  1.00  0.00     0.193 HD
ATOM      9  C   UNL d   1       1.574   2.023  -3.649  0.00  0.00     0.038 C 
ATOM     10  C   UNL d   1       1.093   1.511  -5.006  0.00  0.00     0.038 C 
ATOM     11  C   UNL d   1       2.842  -0.702  -3.821  0.00  0.00     0.310 C 
ENDROOT
BRANCH   7  12
ATOM     12  O   UNL d   1      -3.202   1.010  -4.075  0.00  0.00    -0.290 OA
ATOM     13  H   UNL d   1      -4.026   1.429  -3.763  0.00  0.00     0.244 HD
ENDBRANCH   7  12
TORSDOF 1
