REMARK  2 active torsions:
REMARK  status: ('A' for Active; 'I' for Inactive)
REMARK       I    between atoms: N_2  and  C_1 
REMARK    1  A    between atoms: C_4  and  C_1 
REMARK    2  A    between atoms: C_5  and  N_2 
ROOT
ATOM      1  C   UNL d   1       1.063  -0.194   0.095  0.00  0.00     0.253 C 
ATOM      2  N   UNL d   1       0.262  -1.347  -0.051  0.00  0.00    -0.348 N 
ATOM      3  O   UNL d   1       0.593   0.942   0.233  0.00  0.00    -0.267 OA
ATOM      4  C   UNL d   1       0.776  -2.658   0.348  0.00  0.00     0.153 C 
ENDROOT
BRANCH   1   5
ATOM      5  C   UNL d   1       2.563  -0.268   0.044  0.00  0.00     0.032 A 
ATOM      6  C   UNL d   1       3.250  -1.248  -0.685  0.00  0.00     0.017 A 
ATOM      7  C   UNL d   1       4.648  -1.241  -0.754  0.00  0.00     0.001 A 
ATOM      8  C   UNL d   1       5.374  -0.215  -0.155  0.00  0.00     0.000 A 
ATOM      9  C   UNL d   1       4.707   0.787   0.547  0.00  0.00     0.001 A 
ATOM     10  C   UNL d   1       3.311   0.753   0.657  0.00  0.00     0.017 A 
ENDBRANCH   1   5
BRANCH   2  11
ATOM     11  C   UNL d   1      -1.232  -1.270  -0.158  0.00  0.00     0.087 C 
ATOM     12  C   UNL d   1      -1.825  -2.453  -0.972  0.00  0.00     0.025 C 
ATOM     13  C   UNL d   1      -1.496  -2.345  -2.462  0.00  0.00     0.002 C 
ATOM     14  C   UNL d   1      -1.977  -1.023  -3.054  0.00  0.00     0.000 C 
ATOM     15  C   UNL d   1      -1.504   0.177  -2.239  0.00  0.00     0.002 C 
ATOM     16  C   UNL d   1      -1.849   0.009  -0.762  0.00  0.00     0.025 C 
ENDBRANCH   2  11
TORSDOF 2
