REMARK  0 active torsions:
REMARK  status: ('A' for Active; 'I' for Inactive)
ROOT
ATOM      1  C   UNL d   1      -2.501   0.669  -0.290  0.00  0.00     0.323 C 
ATOM      2  C   UNL d   1      -2.432  -0.807   0.097  0.00  0.00     0.286 C 
ATOM      3  C   UNL d   1      -1.240   1.450   0.027  0.00  0.00     0.226 C 
ATOM      4  N   UNL d   1      -1.191  -1.394   0.138  0.00  0.00    -0.322 N 
ATOM      5  C   UNL d   1       0.035   0.702   0.014  0.00  0.00     0.042 A 
ATOM      6  C   UNL d   1       0.013  -0.692   0.043  0.00  0.00     0.049 A 
ATOM      7  O   UNL d   1      -3.423  -1.508   0.312  0.00  0.00    -0.267 OA
ATOM      8  O   UNL d   1      -1.215   2.663   0.232  0.00  0.00    -0.287 OA
ATOM      9 CL   UNL d   1      -2.680   0.707  -2.087  0.00  0.00    -0.064 Cl
ATOM     10  F   UNL d   1      -3.608   1.273   0.241  0.00  0.00    -0.206 F 
ATOM     11  C   UNL d   1       1.255   1.388  -0.004  0.00  0.00     0.017 A 
ATOM     12  C   UNL d   1       1.211  -1.407   0.023  0.00  0.00     0.030 A 
ATOM     13  C   UNL d   1       2.451   0.672  -0.021  0.00  0.00     0.001 A 
ATOM     14  C   UNL d   1       2.429  -0.723  -0.017  0.00  0.00     0.002 A 
ATOM     15  H   UNL d   1      -1.188  -2.396   0.295  0.00  0.00     0.169 HD
ENDROOT
TORSDOF 0
