REMARK  5 active torsions:
REMARK  status: ('A' for Active; 'I' for Inactive)
REMARK    1  A    between atoms: C_3  and  C_1 
REMARK    2  A    between atoms: C_2  and  C_7 
REMARK    3  A    between atoms: O_18  and  C_2 
REMARK    4  A    between atoms: N_5  and  O_18 
REMARK    5  A    between atoms: C_21  and  C_20 
ROOT
ATOM      1  C   UNL d   1      -1.061   0.086  -5.443  0.00  0.00     0.315 C 
ATOM      2  O   UNL d   1      -1.258   1.173  -5.970  0.00  0.00    -0.257 OA
ENDROOT
BRANCH   1   3
ATOM      3  C   UNL d   1      -0.496  -0.025  -4.075  0.00  0.00     0.041 A 
ATOM      4  C   UNL d   1       0.276   1.046  -3.604  0.00  0.00     0.018 A 
ATOM      5  C   UNL d   1       0.818   1.015  -2.318  0.00  0.00     0.017 A 
ATOM      6  C   UNL d   1       0.587  -0.083  -1.475  0.00  0.00     0.048 A 
ATOM      7  C   UNL d   1      -0.199  -1.147  -1.948  0.00  0.00     0.017 A 
ATOM      8  C   UNL d   1      -0.737  -1.122  -3.241  0.00  0.00     0.018 A 
BRANCH   6   9
ATOM      9  C   UNL d   1       1.180  -0.095  -0.086  0.00  0.00     0.417 C 
ATOM     10  F   UNL d   1       0.879  -1.216   0.625  0.00  0.00    -0.166 F 
ATOM     11  F   UNL d   1       0.753   0.954   0.672  0.00  0.00    -0.166 F 
ATOM     12  F   UNL d   1       2.539  -0.016  -0.101  0.00  0.00    -0.166 F 
ENDBRANCH   6   9
ENDBRANCH   1   3
BRANCH   1  13
ATOM     13  O   UNL d   1      -1.247  -1.157  -5.990  0.00  0.00    -0.195 OA
BRANCH  13  14
ATOM     14  N   UNL d   1      -1.738  -0.999  -7.299  0.00  0.00    -0.268 N 
ATOM     15  C   UNL d   1      -1.848  -2.138  -7.899  0.00  0.00     0.126 C 
ATOM     16  HN  UNL d   1      -1.977  -0.101  -7.720  1.00  0.00     0.194 HD
BRANCH  15  17
ATOM     17  C   UNL d   1      -2.341  -2.200  -9.291  0.00  0.00    -0.017 A 
ATOM     18  C   UNL d   1      -2.490  -3.441  -9.918  0.00  0.00     0.040 A 
ATOM     19  C   UNL d   1      -2.958  -3.488 -11.234  0.00  0.00     0.073 A 
ATOM     20 CL   UNL d   1      -3.147  -5.016 -12.007  0.00  0.00    -0.081 Cl
ATOM     21  C   UNL d   1      -3.271  -2.310 -11.914  0.00  0.00     0.138 A 
ATOM     22  C   UNL d   1      -3.122  -1.074 -11.292  0.00  0.00     0.045 A 
ATOM     23  F   UNL d   1      -3.719  -2.344 -13.176  0.00  0.00    -0.204 F 
ATOM     24  C   UNL d   1      -2.657  -1.018  -9.978  0.00  0.00     0.016 A 
ENDBRANCH  15  17
ENDBRANCH  13  14
ENDBRANCH   1  13
TORSDOF 5
