REMARK  4 active torsions:
REMARK  status: ('A' for Active; 'I' for Inactive)
REMARK    1  A    between atoms: C_8  and  S_1 
REMARK    2  A    between atoms: N_12  and  S_1 
REMARK    3  A    between atoms: C_9  and  C_18 
REMARK    4  A    between atoms: C_18  and  N_12 
ROOT
ATOM      1  S   UNL d   1       1.149  -0.038  -0.082  0.00  0.00     0.259 S 
ATOM      2  O   UNL d   1       0.503   0.855   0.857  0.00  0.00    -0.201 OA
ATOM      3  O   UNL d   1       2.590  -0.127  -0.171  0.00  0.00    -0.201 OA
ENDROOT
BRANCH   1   4
ATOM      4  C   UNL d   1       0.528   0.372  -1.700  0.00  0.00     0.081 A 
ATOM      5  C   UNL d   1      -0.679   1.082  -1.804  0.00  0.00     0.057 A 
ATOM      6  C   UNL d   1      -1.141   1.559  -3.043  0.00  0.00     0.065 A 
ATOM      7  N   UNL d   1      -2.333   2.308  -3.155  0.00  0.00    -0.381 N 
ATOM      8  C   UNL d   1      -0.370   1.226  -4.183  0.00  0.00     0.095 A 
ATOM      9  C   UNL d   1      -2.487   2.925  -4.482  0.00  0.00     0.149 C 
ATOM     10  C   UNL d   1      -2.693   3.182  -2.037  0.00  0.00     0.150 C 
ATOM     11  C   UNL d   1      -2.100   1.932  -5.569  0.00  0.00     0.195 C 
ATOM     12  O   UNL d   1      -0.717   1.580  -5.469  0.00  0.00    -0.347 OA
ATOM     13  C   UNL d   1       0.847   0.542  -4.074  0.00  0.00     0.040 A 
ATOM     14  C   UNL d   1       1.307   0.124  -2.828  0.00  0.00     0.028 A 
ENDBRANCH   1   4
BRANCH   1  15
ATOM     15  N   UNL d   1       0.547  -1.571   0.210  0.00  0.00    -0.310 N 
ATOM     16  H   UNL d   1      -0.465  -1.664   0.098  0.00  0.00     0.172 HD
BRANCH  15  17
ATOM     17  C   UNL d   1       1.285  -2.707  -0.351  0.00  0.00     0.189 C 
BRANCH  17  18
ATOM     18  C   UNL d   1       0.554  -3.961   0.035  0.00  0.00     0.035 A 
ATOM     19  N   UNL d   1      -0.840  -3.971   0.000  0.00  0.00    -0.351 N 
ATOM     20  C   UNL d   1      -1.308  -5.138   0.405  0.00  0.00     0.091 A 
ATOM     21  HN  UNL d   1      -1.418  -3.185  -0.297  1.00  0.00     0.166 HD
ATOM     22  C   UNL d   1      -2.729  -5.382   0.496  0.00  0.00     0.038 A 
ATOM     23  S   UNL d   1      -0.097  -6.299   0.797  0.00  0.00    -0.081 SA
ATOM     24  S   UNL d   1      -3.420  -6.868   1.013  0.00  0.00    -0.099 SA
ATOM     25  C   UNL d   1      -3.724  -4.465   0.192  0.00  0.00     0.022 A 
ATOM     26  C   UNL d   1      -5.016  -6.282   0.831  0.00  0.00     0.050 A 
ATOM     27  C   UNL d   1      -5.038  -4.981   0.385  0.00  0.00     0.008 A 
ATOM     28  C   UNL d   1       1.123  -5.157   0.437  0.00  0.00     0.078 A 
ENDBRANCH  17  18
ENDBRANCH  15  17
ENDBRANCH   1  15
TORSDOF 4
