REMARK  5 active torsions:
REMARK  status: ('A' for Active; 'I' for Inactive)
REMARK       I    between atoms: N_2  and  C_1 
REMARK    1  A    between atoms: C_4  and  C_1 
REMARK       I    between atoms: C_3  and  N_2 
REMARK       I    between atoms: N_5  and  C_3 
REMARK    2  A    between atoms: C_6  and  N_5 
REMARK    3  A    between atoms: C_19  and  C_13 
REMARK    4  A    between atoms: C_20  and  C_19 
REMARK    5  A    between atoms: C_21  and  C_20 
ROOT
ATOM      1  C   UNL d   1       4.512  -2.341   4.937  0.00  0.00     0.261 C 
ATOM      2  N   UNL d   1       4.056  -1.958   3.689  0.00  0.00    -0.275 N 
ATOM      3  C   UNL d   1       2.731  -1.884   3.347  0.00  0.00     0.327 C 
ATOM      4  N   UNL d   1       2.419  -1.065   2.295  0.00  0.00    -0.308 N 
ATOM      5  O   UNL d   1       3.834  -2.863   5.816  0.00  0.00    -0.267 OA
ATOM      6  O   UNL d   1       1.803  -2.416   3.948  0.00  0.00    -0.247 OA
ATOM      7  H   UNL d   1       4.686  -1.432   3.107  0.00  0.00     0.173 HD
ATOM      8  H   UNL d   1       1.437  -0.814   2.309  0.00  0.00     0.170 HD
ENDROOT
BRANCH   4   9
ATOM      9  C   UNL d   1       3.208  -0.495   1.283  0.00  0.00     0.042 A 
ATOM     10  C   UNL d   1       2.920   0.811   0.848  0.00  0.00    -0.035 A 
ATOM     11  C   UNL d   1       3.603   1.328  -0.267  0.00  0.00     0.016 A 
ATOM     12  C   UNL d   1       1.940   1.713   1.546  0.00  0.00     0.050 C 
ATOM     13  C   UNL d   1       4.573   0.575  -0.946  0.00  0.00    -0.058 A 
ATOM     14  C   UNL d   1       4.862  -0.713  -0.486  0.00  0.00     0.009 A 
ATOM     15  C   UNL d   1       4.181  -1.243   0.618  0.00  0.00     0.031 A 
BRANCH  13  16
ATOM     16  C   UNL d   1       5.235   1.113  -2.194  0.00  0.00     0.038 C 
BRANCH  16  17
ATOM     17  C   UNL d   1       5.985   2.439  -2.016  0.00  0.00     0.004 C 
BRANCH  17  18
ATOM     18  C   UNL d   1       7.211   2.313  -1.111  0.00  0.00    -0.004 C 
ATOM     19  C   UNL d   1       7.955   3.636  -1.003  0.00  0.00     0.005 C 
ENDBRANCH  17  18
ENDBRANCH  16  17
ENDBRANCH  13  16
ENDBRANCH   4   9
BRANCH   1  20
ATOM     20  C   UNL d   1       5.942  -2.043   5.253  0.00  0.00     0.054 A 
ATOM     21  C   UNL d   1       6.993  -2.040   4.326  0.00  0.00     0.049 A 
ATOM     22 CL   UNL d   1       6.809  -2.464   2.663  0.00  0.00    -0.083 Cl
ATOM     23  C   UNL d   1       8.295  -1.725   4.739  0.00  0.00     0.025 A 
ATOM     24  C   UNL d   1       8.567  -1.435   6.075  0.00  0.00     0.002 A 
ATOM     25  C   UNL d   1       7.538  -1.464   7.010  0.00  0.00     0.001 A 
ATOM     26  C   UNL d   1       6.237  -1.765   6.603  0.00  0.00     0.019 A 
ENDBRANCH   1  20
TORSDOF 5
