REMARK  2 active torsions:
REMARK  status: ('A' for Active; 'I' for Inactive)
REMARK    1  A    between atoms: C_4  and  C_1 
REMARK    2  A    between atoms: C_3  and  C_2 
ROOT
ATOM      1  C   UNL d   1      -0.245   2.680  -0.184  0.00  0.00     0.053 C 
ATOM      2  C   UNL d   1      -0.612   3.402   0.894  0.00  0.00     0.126 C 
ATOM      3  N   UNL d   1      -0.502   2.494   3.313  0.00  0.00    -0.191 NA
ATOM      4  N   UNL d   1      -1.512   5.793   0.512  0.00  0.00    -0.191 NA
ATOM      5  C   UNL d   1      -0.553   2.894   2.222  0.00  0.00     0.111 C 
ATOM      6  C   UNL d   1      -1.099   4.724   0.699  0.00  0.00     0.111 C 
ENDROOT
BRANCH   1   7
ATOM      7  C   UNL d   1       0.180   1.323  -0.094  0.00  0.00     0.018 A 
ATOM      8  C   UNL d   1       1.451   0.784   0.089  0.00  0.00     0.014 A 
ATOM      9  C   UNL d   1       1.398  -0.657   0.056  0.00  0.00     0.020 A 
ATOM     10  C   UNL d   1       0.125  -1.149  -0.102  0.00  0.00     0.051 A 
ATOM     11  S   UNL d   1      -1.019   0.097  -0.263  0.00  0.00    -0.101 SA
BRANCH   8  12
ATOM     12  C   UNL d   1       2.742   1.555   0.255  0.00  0.00     0.295 C 
ATOM     13  O   UNL d   1       3.723   0.812   1.004  0.00  0.00    -0.355 OA
ATOM     14  C   UNL d   1       3.934   1.567   2.195  0.00  0.00     0.197 C 
ATOM     15  C   UNL d   1       3.628   2.978   1.782  0.00  0.00     0.197 C 
ATOM     16  O   UNL d   1       2.535   2.835   0.879  0.00  0.00    -0.355 OA
ENDBRANCH   8  12
ENDBRANCH   1   7
TORSDOF 2
