REMARK  3 active torsions:
REMARK  status: ('A' for Active; 'I' for Inactive)
REMARK    1  A    between atoms: C_2  and  C_1 
REMARK       I    between atoms: N_4  and  C_1 
REMARK       I    between atoms: C_3  and  N_5 
REMARK    2  A    between atoms: C_6  and  C_3 
REMARK    3  A    between atoms: N_5  and  N_4 
ROOT
ATOM      1  C   UNL d   1      -1.771   1.642  -1.891  0.00  0.00     0.270 C 
ATOM      2  N   UNL d   1      -1.176   0.996  -0.824  0.00  0.00    -0.263 N 
ATOM      3  O   UNL d   1      -1.122   2.146  -2.804  0.00  0.00    -0.266 OA
ATOM      4  H   UNL d   1      -1.673   0.399  -0.165  0.00  0.00     0.190 HD
ENDROOT
BRANCH   2   5
ATOM      5  N   UNL d   1       0.219   0.857  -0.837  0.00  0.00    -0.263 N 
ATOM      6  C   UNL d   1       0.812   0.005   0.079  0.00  0.00     0.271 C 
ATOM      7  O   UNL d   1       0.153  -0.615   0.909  0.00  0.00    -0.266 OA
ATOM      8  H   UNL d   1       0.723   1.419  -1.521  0.00  0.00     0.190 HD
BRANCH   6   9
ATOM      9  C   UNL d   1       2.300  -0.124  -0.019  0.00  0.00     0.044 A 
ATOM     10  C   UNL d   1       3.131  -0.224   1.139  0.00  0.00    -0.010 A 
ATOM     11  C   UNL d   1       4.532  -0.354   0.944  0.00  0.00    -0.025 A 
ATOM     12  C   UNL d   1       2.671  -0.193   2.480  0.00  0.00     0.013 A 
ATOM     13  C   UNL d   1       5.399  -0.445   2.047  0.00  0.00     0.012 A 
ATOM     14  C   UNL d   1       5.066  -0.393  -0.352  0.00  0.00     0.012 A 
ATOM     15  C   UNL d   1       4.910  -0.415   3.350  0.00  0.00     0.001 A 
ATOM     16  C   UNL d   1       3.546  -0.292   3.567  0.00  0.00     0.001 A 
ATOM     17  C   UNL d   1       4.240  -0.310  -1.470  0.00  0.00     0.002 A 
ATOM     18  C   UNL d   1       2.866  -0.179  -1.306  0.00  0.00     0.018 A 
ENDBRANCH   6   9
ENDBRANCH   2   5
BRANCH   1  19
ATOM     19  C   UNL d   1      -3.260   1.692  -1.906  0.00  0.00     0.035 A 
ATOM     20  C   UNL d   1      -3.910   1.835  -3.139  0.00  0.00     0.049 A 
ATOM     21  C   UNL d   1      -5.297   1.912  -3.226  0.00  0.00     0.060 A 
ATOM     22  N   UNL d   1      -5.884   2.038  -4.433  0.00  0.00    -0.363 N 
ATOM     23  C   UNL d   1      -6.067   1.856  -2.037  0.00  0.00     0.059 A 
ATOM     24  C   UNL d   1      -7.233   2.110  -4.444  0.00  0.00     0.105 A 
ATOM     25  HN  UNL d   1      -5.338   2.077  -5.294  1.00  0.00     0.165 HD
ATOM     26  C   UNL d   1      -7.981   2.057  -3.286  0.00  0.00     0.105 A 
ATOM     27  N   UNL d   1      -7.412   1.930  -2.067  0.00  0.00    -0.363 N 
ATOM     28  HN  UNL d   1      -7.972   1.892  -1.215  1.00  0.00     0.165 HD
ATOM     29  C   UNL d   1      -5.415   1.728  -0.818  0.00  0.00     0.033 A 
ATOM     30  C   UNL d   1      -4.020   1.646  -0.737  0.00  0.00     0.019 A 
ENDBRANCH   1  19
TORSDOF 3
