REMARK  1 active torsions:
REMARK  status: ('A' for Active; 'I' for Inactive)
REMARK    1  A    between atoms: C_2  and  N_1 
ROOT
ATOM      1  C   UNL d   1      -0.019   2.269  -0.065  0.00  0.00     0.057 A 
ATOM      2  C   UNL d   1       0.612   2.964  -1.122  0.00  0.00    -0.034 A 
ATOM      3  C   UNL d   1      -0.657   2.998   0.966  0.00  0.00    -0.034 A 
ATOM      4  C   UNL d   1       0.603   4.371  -1.125  0.00  0.00     0.015 A 
ATOM      5  C   UNL d   1      -0.660   4.406   0.919  0.00  0.00     0.015 A 
ATOM      6  C   UNL d   1      -0.031   5.098  -0.116  0.00  0.00    -0.061 A 
ATOM      7  C   UNL d   1      -1.318   2.361   2.163  0.00  0.00     0.050 C 
ATOM      8  C   UNL d   1       1.236   2.299  -2.321  0.00  0.00     0.050 C 
ATOM      9  C   UNL d   1      -0.034   6.598  -0.168  0.00  0.00     0.048 C 
ENDROOT
BRANCH   1  10
ATOM     10  N   UNL d   1      -0.013   0.859  -0.039  0.00  0.00    -0.244 N 
ATOM     11  C   UNL d   1       1.112   0.086  -0.002  0.00  0.00     0.255 A 
ATOM     12  C   UNL d   1       0.664  -1.314   0.020  0.00  0.00     0.080 A 
ATOM     13  O   UNL d   1       2.289   0.395   0.037  0.00  0.00    -0.268 OA
ATOM     14  C   UNL d   1      -0.668  -1.321  -0.005  0.00  0.00     0.080 A 
ATOM     15  C   UNL d   1      -1.127   0.074  -0.043  0.00  0.00     0.255 A 
ATOM     16  O   UNL d   1      -2.309   0.371  -0.096  0.00  0.00    -0.268 OA
ENDBRANCH   1  10
TORSDOF 1
