REMARK  8 active torsions:
REMARK  status: ('A' for Active; 'I' for Inactive)
REMARK       I    between atoms: N_2  and  C_1 
REMARK       I    between atoms: N_4  and  C_1 
REMARK    1  A    between atoms: C_6  and  C_3 
REMARK    2  A    between atoms: C_11  and  N_4 
REMARK    3  A    between atoms: C_8  and  C_6 
REMARK    4  A    between atoms: C_7  and  O_10 
REMARK       I    between atoms: N_15  and  C_8 
REMARK    5  A    between atoms: C_9  and  C_14 
REMARK    6  A    between atoms: O_26  and  C_9 
REMARK    7  A    between atoms: O_10  and  C_13 
REMARK    8  A    between atoms: C_19  and  N_15 
ROOT
ATOM      1  C   UNL d   1       1.221  -0.110   0.247  0.00  0.00     0.323 C 
ATOM      2  N   UNL d   1       0.405   0.896  -0.299  0.00  0.00    -0.318 N 
ATOM      3  C   UNL d   1       0.994   2.067  -1.004  0.00  0.00     0.189 C 
ATOM      4  N   UNL d   1       0.486  -1.219   0.630  0.00  0.00    -0.306 N 
ATOM      5  C   UNL d   1       1.422   3.187  -0.027  0.00  0.00     0.241 C 
ATOM      6  N   UNL d   1       0.596   3.364   1.068  0.00  0.00    -0.358 N 
ATOM      7  O   UNL d   1       2.438  -0.014   0.339  0.00  0.00    -0.247 OA
ATOM      8  O   UNL d   1       2.278   4.032  -0.279  0.00  0.00    -0.271 OA
ATOM      9  C   UNL d   1      -0.728   1.315   0.537  0.00  0.00     0.148 C 
ATOM     10  C   UNL d   1      -0.217   2.288   1.614  0.00  0.00     0.142 C 
ATOM     11  H   UNL d   1      -0.238  -1.478  -0.028  0.00  0.00     0.171 HD
ATOM     12  H   UNL d   1       0.880   4.126   1.674  0.00  0.00     0.162 HD
ENDROOT
BRANCH   3  13
ATOM     13  C   UNL d   1       2.012   1.805  -2.128  0.00  0.00     0.138 C 
BRANCH  13  14
ATOM     14  C   UNL d   1       1.308   1.339  -3.392  0.00  0.00     0.224 C 
ATOM     15  N   UNL d   1       2.148   0.720  -4.302  0.00  0.00    -0.327 N 
ATOM     16  H   UNL d   1       3.099   0.542  -3.992  0.00  0.00     0.169 HD
ATOM     17  O   UNL d   1       0.102   1.534  -3.568  0.00  0.00    -0.273 OA
BRANCH  15  18
ATOM     18  C   UNL d   1       1.766   0.125  -5.529  0.00  0.00     0.035 A 
ATOM     19  C   UNL d   1       0.515   0.302  -6.134  0.00  0.00     0.047 A 
ATOM     20  C   UNL d   1       0.168  -0.429  -7.284  0.00  0.00     0.041 A 
ATOM     21  C   UNL d   1       1.103  -1.299  -7.858  0.00  0.00     0.018 A 
ATOM     22  C   UNL d   1       2.369  -1.440  -7.295  0.00  0.00     0.003 A 
ATOM     23  C   UNL d   1       2.699  -0.730  -6.137  0.00  0.00     0.029 A 
BRANCH  20  24
ATOM     24  C   UNL d   1      -1.183  -0.369  -7.913  0.00  0.00     0.293 C 
ATOM     25  O   UNL d   1      -1.434  -0.878  -8.992  0.00  0.00    -0.259 OA
BRANCH  24  26
ATOM     26  O   UNL d   1      -2.077   0.243  -7.098  0.00  0.00    -0.323 OA
ATOM     27  C   UNL d   1      -3.441   0.168  -7.520  0.00  0.00     0.213 C 
ENDBRANCH  24  26
ENDBRANCH  20  24
ENDBRANCH  15  18
ENDBRANCH  13  14
ENDBRANCH   3  13
BRANCH   4  28
ATOM     28  C   UNL d   1       0.852  -2.222   1.563  0.00  0.00     0.070 A 
ATOM     29  C   UNL d   1       0.373  -3.535   1.373  0.00  0.00     0.105 A 
ATOM     30  C   UNL d   1       0.501  -4.485   2.393  0.00  0.00     0.039 A 
ATOM     31  C   UNL d   1       1.177  -4.162   3.568  0.00  0.00     0.003 A 
ATOM     32  C   UNL d   1       1.715  -2.885   3.729  0.00  0.00     0.002 A 
ATOM     33  C   UNL d   1       1.556  -1.914   2.728  0.00  0.00     0.032 A 
BRANCH  29  34
ATOM     34  O   UNL d   1      -0.204  -3.803   0.159  0.00  0.00    -0.253 OA
BRANCH  34  35
ATOM     35  C   UNL d   1       0.007  -5.104  -0.378  0.00  0.00     0.530 C 
ATOM     36  F   UNL d   1       1.066  -5.756   0.159  0.00  0.00    -0.144 F 
ATOM     37  F   UNL d   1      -1.102  -5.852  -0.193  0.00  0.00    -0.144 F 
ATOM     38  F   UNL d   1       0.229  -4.995  -1.706  0.00  0.00    -0.144 F 
ENDBRANCH  34  35
ENDBRANCH  29  34
ENDBRANCH   4  28
TORSDOF 8
