REMARK  3 active torsions:
REMARK  status: ('A' for Active; 'I' for Inactive)
REMARK    1  A    between atoms: C_10  and  C_1 
REMARK    2  A    between atoms: C_14  and  C_5 
REMARK    3  A    between atoms: N_11  and  C_10 
ROOT
ATOM      1  C   UNL d   1       0.150  -1.873   0.006  0.00  0.00     0.020 A 
ATOM      2  N   UNL d   1      -1.017   0.084   0.122  0.00  0.00    -0.260 N 
ATOM      3  HN  UNL d   1      -1.772   0.769   0.146  1.00  0.00     0.195 HD
ATOM      4  C   UNL d   1      -1.152  -1.255   0.065  0.00  0.00     0.075 A 
ATOM      5  O   UNL d   1       0.328   0.351   0.142  0.00  0.00    -0.242 OA
ATOM      6  C   UNL d   1       1.024  -0.806   0.091  0.00  0.00     0.082 A 
ATOM      7  C   UNL d   1       2.494  -0.674   0.085  0.00  0.00     0.079 C 
ENDROOT
BRANCH   1   8
ATOM      8  C   UNL d   1       0.550  -3.296  -0.175  0.00  0.00     0.160 C 
BRANCH   8   9
ATOM      9  N   UNL d   1       0.113  -3.792  -1.482  0.00  0.00    -0.406 N 
ATOM     10  C   UNL d   1       0.544  -3.036  -2.662  0.00  0.00     0.132 C 
ATOM     11  C   UNL d   1       1.973  -3.264  -3.106  0.00  0.00     0.159 C 
ATOM     12  S   UNL d   1       2.240  -4.970  -3.492  0.00  0.00     0.147 S 
ATOM     13  C   UNL d   1       1.526  -5.831  -2.119  0.00  0.00     0.159 C 
ATOM     14  O   UNL d   1       3.668  -5.204  -3.460  0.00  0.00    -0.228 OA
ATOM     15  O   UNL d   1       1.467  -5.289  -4.681  0.00  0.00    -0.228 OA
ATOM     16  C   UNL d   1       0.203  -5.243  -1.654  0.00  0.00     0.132 C 
ENDBRANCH   8   9
ENDBRANCH   1   8
BRANCH   4  17
ATOM     17  C   UNL d   1      -2.500  -1.843   0.062  0.00  0.00    -0.007 A 
ATOM     18  C   UNL d   1      -3.578  -1.137  -0.502  0.00  0.00     0.014 A 
ATOM     19  C   UNL d   1      -4.878  -1.651  -0.470  0.00  0.00     0.001 A 
ATOM     20  C   UNL d   1      -5.123  -2.881   0.132  0.00  0.00     0.000 A 
ATOM     21  C   UNL d   1      -4.071  -3.592   0.701  0.00  0.00     0.001 A 
ATOM     22  C   UNL d   1      -2.770  -3.075   0.671  0.00  0.00     0.014 A 
ENDBRANCH   4  17
TORSDOF 3
