REMARK  5 active torsions:
REMARK  status: ('A' for Active; 'I' for Inactive)
REMARK       I    between atoms: N_2  and  C_1 
REMARK       I    between atoms: N_5  and  C_1 
REMARK    1  A    between atoms: C_6  and  N_3 
REMARK    2  A    between atoms: C_4  and  O_10 
REMARK    3  A    between atoms: C_14  and  N_5 
REMARK    4  A    between atoms: O_10  and  C_18 
REMARK    5  A    between atoms: O_23  and  C_13 
ROOT
ATOM      1  C   UNL d   1       1.334  -0.173  -0.191  0.00  0.00     0.323 C 
ATOM      2  N   UNL d   1       0.811  -0.809   0.943  0.00  0.00    -0.331 N 
ATOM      3  N   UNL d   1      -0.366  -1.655   3.437  0.00  0.00    -0.376 N 
ATOM      4  N   UNL d   1       0.731  -0.531  -1.376  0.00  0.00    -0.309 N 
ATOM      5  O   UNL d   1       2.264   0.627  -0.100  0.00  0.00    -0.247 OA
ATOM      6  C   UNL d   1       1.340  -0.337   2.238  0.00  0.00     0.147 C 
ATOM      7  C   UNL d   1      -0.559  -1.353   1.008  0.00  0.00     0.147 C 
ATOM      8  C   UNL d   1      -0.784  -2.309   2.191  0.00  0.00     0.143 C 
ATOM      9  C   UNL d   1       1.066  -1.290   3.421  0.00  0.00     0.143 C 
ATOM     10  H   UNL d   1       0.160  -1.355  -1.352  0.00  0.00     0.170 HD
ENDROOT
BRANCH   4  11
ATOM     11  C   UNL d   1       0.997  -0.047  -2.677  0.00  0.00     0.036 A 
ATOM     12  C   UNL d   1       1.879   0.993  -2.965  0.00  0.00     0.032 A 
ATOM     13  C   UNL d   1       2.134   1.366  -4.294  0.00  0.00     0.039 A 
ATOM     14  C   UNL d   1       1.504   0.702  -5.346  0.00  0.00     0.078 A 
ATOM     15  C   UNL d   1       0.576  -0.298  -5.054  0.00  0.00     0.039 A 
ATOM     16  C   UNL d   1       0.327  -0.672  -3.731  0.00  0.00     0.032 A 
BRANCH  14  17
ATOM     17  O   UNL d   1       1.692   0.929  -6.678  0.00  0.00    -0.255 OA
BRANCH  17  18
ATOM     18  C   UNL d   1       2.833   1.681  -7.055  0.00  0.00     0.530 C 
ATOM     19  F   UNL d   1       3.958   1.206  -6.480  0.00  0.00    -0.144 F 
ATOM     20  F   UNL d   1       2.982   1.592  -8.396  0.00  0.00    -0.144 F 
ATOM     21  F   UNL d   1       2.675   2.983  -6.736  0.00  0.00    -0.144 F 
ENDBRANCH  17  18
ENDBRANCH  14  17
ENDBRANCH   4  11
BRANCH   3  22
ATOM     22  C   UNL d   1      -0.931  -2.059   4.649  0.00  0.00     0.064 A 
ATOM     23  C   UNL d   1      -0.945  -1.224   5.792  0.00  0.00     0.094 A 
ATOM     24  C   UNL d   1      -1.593  -1.603   6.975  0.00  0.00     0.039 A 
ATOM     25  C   UNL d   1      -2.266  -2.818   7.050  0.00  0.00     0.003 A 
ATOM     26  C   UNL d   1      -2.256  -3.670   5.953  0.00  0.00     0.002 A 
ATOM     27  C   UNL d   1      -1.596  -3.295   4.777  0.00  0.00     0.032 A 
BRANCH  23  28
ATOM     28  O   UNL d   1      -0.300  -0.010   5.848  0.00  0.00    -0.354 OA
ATOM     29  C   UNL d   1      -0.912   0.976   5.020  0.00  0.00     0.210 C 
ENDBRANCH  23  28
ENDBRANCH   3  22
TORSDOF 5
