REMARK  5 active torsions:
REMARK  status: ('A' for Active; 'I' for Inactive)
REMARK       I    between atoms: N_4  and  C_1 
REMARK    1  A    between atoms: C_5  and  C_1 
REMARK       I    between atoms: C_2  and  N_3 
REMARK    2  A    between atoms: C_6  and  C_2 
REMARK    3  A    between atoms: N_3  and  N_4 
REMARK    4  A    between atoms: C_7  and  C_10 
REMARK    5  A    between atoms: C_8  and  C_9 
ROOT
ATOM      1  C   UNL d   1       0.328   3.459  -0.971  0.00  0.00     0.270 C 
ATOM      2  N   UNL d   1       1.033   2.343  -0.560  0.00  0.00    -0.263 N 
ATOM      3  O   UNL d   1      -0.851   3.428  -1.305  0.00  0.00    -0.266 OA
ATOM      4  H   UNL d   1       2.049   2.315  -0.481  0.00  0.00     0.190 HD
ENDROOT
BRANCH   2   5
ATOM      5  N   UNL d   1       0.383   1.109  -0.505  0.00  0.00    -0.263 N 
ATOM      6  C   UNL d   1       1.091   0.013  -0.056  0.00  0.00     0.270 C 
ATOM      7  O   UNL d   1       2.276   0.071   0.282  0.00  0.00    -0.266 OA
ATOM      8  H   UNL d   1      -0.635   1.135  -0.573  0.00  0.00     0.190 HD
BRANCH   6   9
ATOM      9  C   UNL d   1       0.338  -1.270   0.021  0.00  0.00     0.033 A 
ATOM     10  C   UNL d   1      -0.727  -1.546  -0.841  0.00  0.00     0.017 A 
ATOM     11  C   UNL d   1      -1.408  -2.767  -0.755  0.00  0.00     0.009 A 
ATOM     12  C   UNL d   1      -1.054  -3.744   0.195  0.00  0.00    -0.051 A 
ATOM     13  C   UNL d   1       0.039  -3.454   1.033  0.00  0.00     0.009 A 
ATOM     14  C   UNL d   1       0.729  -2.237   0.948  0.00  0.00     0.017 A 
BRANCH  12  15
ATOM     15  C   UNL d   1      -1.864  -5.050   0.310  0.00  0.00    -0.024 C 
ATOM     16  C   UNL d   1      -1.352  -5.985   1.428  0.00  0.00     0.019 C 
ATOM     17  C   UNL d   1      -3.338  -4.713   0.628  0.00  0.00     0.019 C 
ATOM     18  C   UNL d   1      -1.819  -5.851  -1.009  0.00  0.00     0.019 C 
ENDBRANCH  12  15
ENDBRANCH   6   9
ENDBRANCH   2   5
BRANCH   1  19
ATOM     19  C   UNL d   1       1.105   4.729  -0.997  0.00  0.00     0.033 A 
ATOM     20  C   UNL d   1       0.807   5.717  -1.939  0.00  0.00     0.017 A 
ATOM     21  C   UNL d   1       1.569   6.896  -1.989  0.00  0.00     0.009 A 
ATOM     22  C   UNL d   1       2.635   7.122  -1.094  0.00  0.00    -0.051 A 
ATOM     23  C   UNL d   1       2.872   6.136  -0.120  0.00  0.00     0.009 A 
ATOM     24  C   UNL d   1       2.123   4.957  -0.071  0.00  0.00     0.017 A 
BRANCH  22  25
ATOM     25  C   UNL d   1       3.520   8.379  -1.213  0.00  0.00    -0.024 C 
ATOM     26  C   UNL d   1       4.640   8.433  -0.146  0.00  0.00     0.019 C 
ATOM     27  C   UNL d   1       4.206   8.399  -2.597  0.00  0.00     0.019 C 
ATOM     28  C   UNL d   1       2.686   9.668  -1.061  0.00  0.00     0.019 C 
ENDBRANCH  22  25
ENDBRANCH   1  19
TORSDOF 5
