REMARK  6 active torsions:
REMARK  status: ('A' for Active; 'I' for Inactive)
REMARK    1  A    between atoms: N_13  and  N_1 
REMARK    2  A    between atoms: C_18  and  C_2 
REMARK    3  A    between atoms: S_20  and  C_5 
REMARK    4  A    between atoms: C_6  and  C_16 
REMARK    5  A    between atoms: C_19  and  N_9 
REMARK    6  A    between atoms: C_17  and  C_12 
ROOT
ATOM      1  N   UNL d   1       0.546  -7.115   0.542  0.00  0.00    -0.292 N 
ATOM      2  HN  UNL d   1       0.900  -7.994   0.918  1.00  0.00     0.187 HD
ATOM      3  C   UNL d   1       0.136  -4.896   0.210  0.00  0.00     0.027 A 
ATOM      4  N   UNL d   1      -0.386  -6.963  -0.427  0.00  0.00    -0.266 N 
ATOM      5  C   UNL d   1       0.912  -5.875   0.908  0.00  0.00     0.072 A 
ATOM      6  C   UNL d   1      -0.625  -5.632  -0.678  0.00  0.00     0.132 A 
ENDROOT
BRANCH   3   7
ATOM      7  C   UNL d   1       0.078  -3.451   0.284  0.00  0.00     0.123 C 
ATOM      8  N   UNL d   1       0.624  -2.837   1.277  0.00  0.00    -0.301 N 
ATOM      9  HN  UNL d   1       1.018  -3.340   2.072  1.00  0.00     0.186 HD
BRANCH   8  10
ATOM     10  N   UNL d   1       0.645  -1.462   1.202  0.00  0.00    -0.214 N 
ATOM     11  C   UNL d   1       1.018  -0.616   0.149  0.00  0.00     0.154 A 
ATOM     12  N   UNL d   1       0.897   0.640   0.551  0.00  0.00    -0.281 N 
ATOM     13  N   UNL d   1       0.524   0.651   1.866  0.00  0.00    -0.277 N 
ATOM     14  HN  UNL d   1       1.056   1.465  -0.028  1.00  0.00     0.188 HD
ATOM     15  C   UNL d   1       0.398  -0.595   2.253  0.00  0.00     0.182 A 
ATOM     16  HN  UNL d   1       0.371   1.479   2.442  1.00  0.00     0.189 HD
BRANCH  11  17
ATOM     17  C   UNL d   1       1.439  -0.998  -1.204  0.00  0.00     0.014 A 
ATOM     18  C   UNL d   1       1.052  -0.202  -2.284  0.00  0.00     0.032 A 
ATOM     19  C   UNL d   1       1.378  -0.612  -3.567  0.00  0.00     0.088 A 
ATOM     20  N   UNL d   1       2.051  -1.749  -3.841  0.00  0.00    -0.375 N 
ATOM     21  C   UNL d   1       2.469  -2.474  -2.788  0.00  0.00     0.088 A 
ATOM     22  HN  UNL d   1       2.233  -2.044  -4.800  1.00  0.00     0.164 HD
ATOM     23  C   UNL d   1       2.215  -2.126  -1.473  0.00  0.00     0.032 A 
ENDBRANCH  11  17
BRANCH  15  24
ATOM     24  S   UNL d   1      -0.109  -1.123   3.826  0.00  0.00    -0.095 SA
ATOM     25  C   UNL d   1      -0.355   0.470   4.652  0.00  0.00     0.099 C 
ENDBRANCH  15  24
ENDBRANCH   8  10
ENDBRANCH   3   7
BRANCH   5  26
ATOM     26  C   UNL d   1       2.008  -5.701   1.875  0.00  0.00    -0.007 A 
ATOM     27  C   UNL d   1       2.954  -4.680   1.719  0.00  0.00     0.015 A 
ATOM     28  C   UNL d   1       3.992  -4.495   2.634  0.00  0.00     0.024 A 
ATOM     29  C   UNL d   1       4.120  -5.370   3.705  0.00  0.00     0.034 A 
ATOM     30  C   UNL d   1       3.222  -6.423   3.859  0.00  0.00     0.024 A 
ATOM     31 CL   UNL d   1       5.403  -5.153   4.829  0.00  0.00    -0.084 Cl
ATOM     32  C   UNL d   1       2.170  -6.588   2.947  0.00  0.00     0.015 A 
ENDBRANCH   5  26
BRANCH   4  33
ATOM     33  C   UNL d   1      -0.992  -8.091  -1.051  0.00  0.00     0.056 A 
ATOM     34  C   UNL d   1      -1.883  -7.936  -2.127  0.00  0.00     0.031 A 
ATOM     35  C   UNL d   1      -2.475  -9.058  -2.712  0.00  0.00     0.002 A 
ATOM     36  C   UNL d   1      -2.193 -10.336  -2.234  0.00  0.00     0.000 A 
ATOM     37  C   UNL d   1      -1.310 -10.497  -1.163  0.00  0.00     0.002 A 
ATOM     38  C   UNL d   1      -0.707  -9.379  -0.579  0.00  0.00     0.031 A 
ENDBRANCH   4  33
TORSDOF 6
