REMARK  4 active torsions:
REMARK  status: ('A' for Active; 'I' for Inactive)
REMARK    1  A    between atoms: C_12  and  C_1 
REMARK    2  A    between atoms: C_18  and  C_7 
REMARK    3  A    between atoms: C_15  and  C_8 
REMARK    4  A    between atoms: C_14  and  C_16 
ROOT
ATOM      1  C   UNL d   1       0.119   1.218  -0.060  0.00  0.00     0.100 A 
ATOM      2  N   UNL d   1       0.678  -3.641   0.042  0.00  0.00    -0.318 N 
ATOM      3  HN  UNL d   1       1.687  -3.574   0.177  1.00  0.00     0.169 HD
ATOM      4  C   UNL d   1      -0.199  -2.662  -0.098  0.00  0.00     0.189 A 
ATOM      5  S   UNL d   1      -1.040  -0.058  -0.136  0.00  0.00    -0.081 SA
ATOM      6  C   UNL d   1       0.146  -1.272  -0.071  0.00  0.00     0.059 A 
ATOM      7  C   UNL d   1       1.421   0.718  -0.027  0.00  0.00    -0.003 A 
ATOM      8  C   UNL d   1      -0.101  -4.775  -0.038  0.00  0.00     0.138 A 
ATOM      9  C   UNL d   1       1.408  -0.726  -0.000  0.00  0.00     0.037 A 
ATOM     10  N   UNL d   1      -1.405  -4.527  -0.230  0.00  0.00    -0.242 N 
ATOM     11  HN  UNL d   1      -2.166  -5.198  -0.328  1.00  0.00     0.196 HD
ATOM     12  O   UNL d   1      -1.475  -3.137  -0.262  0.00  0.00    -0.217 OA
ENDROOT
BRANCH   8  13
ATOM     13  C   UNL d   1       0.461  -6.110   0.125  0.00  0.00     0.011 A 
ATOM     14  C   UNL d   1       1.821  -6.278   0.417  0.00  0.00     0.031 A 
ATOM     15  C   UNL d   1       2.364  -7.554   0.654  0.00  0.00     0.048 A 
ATOM     16  C   UNL d   1       1.521  -8.672   0.570  0.00  0.00     0.016 A 
ATOM     17  C   UNL d   1       0.172  -8.523   0.255  0.00  0.00     0.002 A 
ATOM     18  C   UNL d   1      -0.356  -7.250   0.041  0.00  0.00     0.015 A 
BRANCH  15  19
ATOM     19  C   UNL d   1       3.816  -7.727   1.023  0.00  0.00     0.417 C 
ATOM     20  F   UNL d   1       4.516  -6.559   1.060  0.00  0.00    -0.166 F 
ATOM     21  F   UNL d   1       3.970  -8.291   2.254  0.00  0.00    -0.166 F 
ATOM     22  F   UNL d   1       4.485  -8.537   0.156  0.00  0.00    -0.166 F 
ENDBRANCH  15  19
ENDBRANCH   8  13
BRANCH   1  23
ATOM     23  C   UNL d   1      -0.410   2.623  -0.031  0.00  0.00     0.424 C 
ATOM     24  F   UNL d   1      -1.764   2.685   0.097  0.00  0.00    -0.166 F 
ATOM     25  F   UNL d   1       0.100   3.340   1.003  0.00  0.00    -0.166 F 
ATOM     26  F   UNL d   1      -0.122   3.305  -1.171  0.00  0.00    -0.166 F 
ENDBRANCH   1  23
BRANCH   7  27
ATOM     27  C   UNL d   1       2.646   1.534   0.004  0.00  0.00    -0.025 A 
ATOM     28  C   UNL d   1       3.763   1.093   0.735  0.00  0.00     0.012 A 
ATOM     29  C   UNL d   1       4.961   1.817   0.732  0.00  0.00     0.001 A 
ATOM     30  C   UNL d   1       5.056   3.006   0.016  0.00  0.00     0.000 A 
ATOM     31  C   UNL d   1       3.964   3.455  -0.718  0.00  0.00     0.001 A 
ATOM     32  C   UNL d   1       2.780   2.711  -0.743  0.00  0.00     0.012 A 
ENDBRANCH   7  27
TORSDOF 4
