REMARK  4 active torsions:
REMARK  status: ('A' for Active; 'I' for Inactive)
REMARK    1  A    between atoms: N_4  and  C_1 
REMARK    2  A    between atoms: C_5  and  N_4 
REMARK    3  A    between atoms: C_6  and  C_5 
REMARK    4  A    between atoms: O_12  and  C_7 
ROOT
ATOM      1  N   UNL d   1      -0.582   3.179  -1.347  0.00  0.00    -0.372 N 
ATOM      2  H   UNL d   1      -1.092   3.570  -2.129  0.00  0.00     0.161 HD
ENDROOT
BRANCH   1   3
ATOM      3  C   UNL d   1       0.327   2.212  -1.684  0.00  0.00     0.101 A 
ATOM      4  N   UNL d   1       0.395   1.916  -2.998  0.00  0.00    -0.353 N 
ATOM      5  C   UNL d   1       1.275   0.968  -3.395  0.00  0.00     0.089 A 
ATOM      6  HN  UNL d   1      -0.201   2.394  -3.674  1.00  0.00     0.166 HD
ATOM      7  C   UNL d   1       2.112   0.282  -2.536  0.00  0.00     0.017 A 
ATOM      8  C   UNL d   1       2.039   0.588  -1.187  0.00  0.00     0.005 A 
ATOM      9  C   UNL d   1       1.137   1.560  -0.758  0.00  0.00     0.048 A 
ENDBRANCH   1   3
BRANCH   1  10
ATOM     10  C   UNL d   1      -0.831   3.645  -0.010  0.00  0.00     0.159 C 
BRANCH  10  11
ATOM     11  C   UNL d   1      -1.876   4.735   0.003  0.00  0.00    -0.040 A 
ATOM     12  C   UNL d   1      -3.237   4.424   0.137  0.00  0.00     0.011 A 
ATOM     13  C   UNL d   1      -4.200   5.439   0.196  0.00  0.00     0.037 A 
ATOM     14  C   UNL d   1      -3.813   6.776   0.107  0.00  0.00     0.068 A 
ATOM     15  C   UNL d   1      -2.461   7.091  -0.034  0.00  0.00     0.037 A 
ATOM     16  C   UNL d   1      -1.499   6.080  -0.101  0.00  0.00     0.011 A 
BRANCH  14  17
ATOM     17  O   UNL d   1      -4.655   7.850   0.193  0.00  0.00    -0.356 OA
ATOM     18  C   UNL d   1      -5.983   7.629  -0.271  0.00  0.00     0.210 C 
ENDBRANCH  14  17
ENDBRANCH  10  11
ENDBRANCH   1  10
TORSDOF 4
