REMARK  2 active torsions:
REMARK  status: ('A' for Active; 'I' for Inactive)
REMARK    1  A    between atoms: C_2  and  C_1 
REMARK       I    between atoms: N_4  and  C_2 
REMARK    2  A    between atoms: C_9  and  N_6 
ROOT
ATOM      1  C   UNL d   1       0.212   3.158   0.125  0.00  0.00     0.256 C 
ATOM      2  N   UNL d   1      -1.159   3.419  -0.025  0.00  0.00    -0.346 N 
ATOM      3  N   UNL d   1      -3.884   4.306  -0.372  0.00  0.00    -0.280 NA
ATOM      4  O   UNL d   1       1.057   3.612  -0.646  0.00  0.00    -0.267 OA
ATOM      5  C   UNL d   1      -2.179   3.163   1.006  0.00  0.00     0.141 C 
ATOM      6  C   UNL d   1      -1.516   4.436  -1.029  0.00  0.00     0.141 C 
ATOM      7  C   UNL d   1      -2.970   4.335  -1.529  0.00  0.00     0.115 C 
ATOM      8  C   UNL d   1      -3.629   3.131   0.487  0.00  0.00     0.115 C 
ENDROOT
BRANCH   1   9
ATOM      9  C   UNL d   1       0.706   2.333   1.258  0.00  0.00     0.069 A 
ATOM     10  C   UNL d   1       1.559   1.240   1.022  0.00  0.00     0.096 A 
ATOM     11  C   UNL d   1       2.079   0.498   2.096  0.00  0.00     0.003 A 
ATOM     12  O   UNL d   1       1.855   0.895  -0.271  0.00  0.00    -0.325 OA
ATOM     13  C   UNL d   1       3.033  -0.631   1.838  0.00  0.00     0.212 C 
ATOM     14  C   UNL d   1       1.752   0.865   3.406  0.00  0.00     0.054 A 
ATOM     15  O   UNL d   1       2.988  -1.046   0.480  0.00  0.00    -0.362 OA
ATOM     16  C   UNL d   1       3.030   0.092  -0.371  0.00  0.00     0.345 C 
ATOM     17  C   UNL d   1       0.941   1.970   3.630  0.00  0.00     0.118 A 
ATOM     18  C   UNL d   1       0.441   2.723   2.575  0.00  0.00     0.062 A 
ATOM     19  F   UNL d   1       0.648   2.327   4.887  0.00  0.00    -0.206 F 
ENDBRANCH   1   9
BRANCH   3  20
ATOM     20  C   UNL d   1      -5.240   4.573  -0.577  0.00  0.00     0.010 A 
ATOM     21  C   UNL d   1      -5.896   4.380  -1.800  0.00  0.00     0.026 A 
ATOM     22  C   UNL d   1      -7.255   4.683  -1.945  0.00  0.00     0.044 A 
ATOM     23  C   UNL d   1      -7.965   5.196  -0.867  0.00  0.00     0.116 A 
ATOM     24  C   UNL d   1      -7.345   5.405   0.355  0.00  0.00     0.044 A 
ATOM     25  F   UNL d   1      -9.262   5.495  -1.010  0.00  0.00    -0.206 F 
ATOM     26  C   UNL d   1      -5.991   5.091   0.496  0.00  0.00     0.026 A 
ENDBRANCH   3  20
TORSDOF 2
