REMARK  11 active torsions:
REMARK  status: ('A' for Active; 'I' for Inactive)
REMARK    1  A    between atoms: C_3  and  C_1 
REMARK    2  A    between atoms: C_4  and  C_1 
REMARK    3  A    between atoms: N_5  and  C_2 
REMARK    4  A    between atoms: O_13  and  C_3 
REMARK    5  A    between atoms: O_12  and  C_4 
REMARK    6  A    between atoms: C_6  and  N_5 
REMARK    7  A    between atoms: C_19  and  O_12 
REMARK    8  A    between atoms: C_18  and  O_13 
REMARK    9  A    between atoms: C_17  and  C_14 
REMARK   10  A    between atoms: C_20  and  C_17 
REMARK   11  A    between atoms: C_21  and  C_20 
ROOT
ATOM      1  N   UNL d   1       0.900   0.009   2.442  0.00  0.00    -0.364 N 
ATOM      2  H   UNL d   1       0.295  -0.101   1.624  0.00  0.00     0.165 HD
ENDROOT
BRANCH   1   3
ATOM      3  C   UNL d   1       2.179   0.444   2.178  0.00  0.00     0.112 C 
ATOM      4  C   UNL d   1       2.767   0.635   0.977  0.00  0.00     0.129 C 
BRANCH   4   5
ATOM      5  C   UNL d   1       4.203   0.980   0.884  0.00  0.00     0.300 C 
ATOM      6  O   UNL d   1       4.730   1.502  -0.083  0.00  0.00    -0.259 OA
BRANCH   5   7
ATOM      7  O   UNL d   1       4.864   0.545   1.995  0.00  0.00    -0.318 OA
BRANCH   7   8
ATOM      8  C   UNL d   1       6.290   0.432   1.884  0.00  0.00     0.174 C 
ATOM      9  C   UNL d   1       6.614  -0.994   1.477  0.00  0.00     0.034 C 
ENDBRANCH   7   8
ENDBRANCH   5   7
ENDBRANCH   4   5
BRANCH   4  10
ATOM     10  C   UNL d   1       1.964   0.362  -0.231  0.00  0.00     0.300 C 
ATOM     11  O   UNL d   1       0.737   0.356  -0.253  0.00  0.00    -0.259 OA
BRANCH  10  12
ATOM     12  O   UNL d   1       2.763  -0.073  -1.235  0.00  0.00    -0.318 OA
BRANCH  12  13
ATOM     13  C   UNL d   1       2.109  -0.808  -2.276  0.00  0.00     0.174 C 
ATOM     14  C   UNL d   1       2.153  -2.278  -1.898  0.00  0.00     0.034 C 
ENDBRANCH  12  13
ENDBRANCH  10  12
ENDBRANCH   4  10
ENDBRANCH   1   3
BRANCH   1  15
ATOM     15  C   UNL d   1       0.227  -0.036   3.676  0.00  0.00     0.037 A 
ATOM     16  C   UNL d   1      -0.851  -0.924   3.869  0.00  0.00    -0.035 A 
ATOM     17  C   UNL d   1      -1.520  -0.949   5.108  0.00  0.00     0.016 A 
ATOM     18  C   UNL d   1      -1.345  -1.867   2.803  0.00  0.00     0.050 C 
ATOM     19  C   UNL d   1      -1.115  -0.133   6.172  0.00  0.00    -0.058 A 
ATOM     20  C   UNL d   1      -0.003   0.689   5.997  0.00  0.00     0.009 A 
ATOM     21  C   UNL d   1       0.654   0.736   4.769  0.00  0.00     0.030 A 
BRANCH  19  22
ATOM     22  C   UNL d   1      -1.865  -0.154   7.481  0.00  0.00     0.038 C 
BRANCH  22  23
ATOM     23  C   UNL d   1      -2.434   1.211   7.895  0.00  0.00     0.004 C 
BRANCH  23  24
ATOM     24  C   UNL d   1      -3.457   1.765   6.900  0.00  0.00    -0.004 C 
ATOM     25  C   UNL d   1      -4.013   3.101   7.369  0.00  0.00     0.005 C 
ENDBRANCH  23  24
ENDBRANCH  22  23
ENDBRANCH  19  22
ENDBRANCH   1  15
TORSDOF 11
