REMARK  7 active torsions:
REMARK  status: ('A' for Active; 'I' for Inactive)
REMARK    1  A    between atoms: C_5  and  C_1 
REMARK    2  A    between atoms: C_3  and  C_2 
REMARK    3  A    between atoms: C_4  and  C_9 
REMARK       I    between atoms: N_10  and  C_5 
REMARK    4  A    between atoms: C_9  and  N_10 
REMARK    5  A    between atoms: O_19  and  C_11 
REMARK    6  A    between atoms: O_21  and  C_13 
REMARK    7  A    between atoms: O_20  and  C_14 
ROOT
ATOM      1  C   UNL d   1       1.058   2.860   1.613  0.00  0.00     0.254 C 
ATOM      2  N   UNL d   1       0.579   3.796   0.731  0.00  0.00    -0.352 N 
ATOM      3  O   UNL d   1       0.349   2.075   2.246  0.00  0.00    -0.268 OA
ATOM      4  H   UNL d   1       1.211   4.409   0.241  0.00  0.00     0.163 HD
ENDROOT
BRANCH   1   5
ATOM      5  C   UNL d   1       2.512   2.835   1.861  0.00  0.00     0.062 A 
ATOM      6  C   UNL d   1       3.517   2.754   0.890  0.00  0.00     0.069 A 
ATOM      7  C   UNL d   1       4.858   2.750   1.327  0.00  0.00     0.073 A 
ATOM      8  C   UNL d   1       5.138   2.789   2.683  0.00  0.00     0.142 A 
ATOM      9  N   UNL d   1       4.183   2.824   3.630  0.00  0.00    -0.346 N 
ATOM     10  C   UNL d   1       2.899   2.833   3.200  0.00  0.00     0.108 A 
ATOM     11  HN  UNL d   1       4.415   2.843   4.623  1.00  0.00     0.167 HD
BRANCH   6  12
ATOM     12  C   UNL d   1       3.274   2.641  -0.584  0.00  0.00     0.418 C 
ATOM     13  F   UNL d   1       1.994   2.385  -0.953  0.00  0.00    -0.166 F 
ATOM     14  F   UNL d   1       3.618   3.788  -1.236  0.00  0.00    -0.166 F 
ATOM     15  F   UNL d   1       4.018   1.655  -1.159  0.00  0.00    -0.166 F 
ENDBRANCH   6  12
BRANCH   8  16
ATOM     16  O   UNL d   1       6.470   2.783   3.039  0.00  0.00    -0.341 OA
ATOM     17  C   UNL d   1       6.669   2.849   4.449  0.00  0.00     0.211 C 
ENDBRANCH   8  16
ENDBRANCH   1   5
BRANCH   2  18
ATOM     18  C   UNL d   1      -0.816   3.785   0.312  0.00  0.00     0.167 C 
BRANCH  18  19
ATOM     19  C   UNL d   1      -1.384   5.162   0.050  0.00  0.00     0.026 A 
ATOM     20  C   UNL d   1      -1.399   5.770  -1.221  0.00  0.00     0.078 A 
ATOM     21  C   UNL d   1      -2.092   6.976  -1.413  0.00  0.00     0.037 A 
ATOM     22  C   UNL d   1      -2.792   7.579  -0.374  0.00  0.00     0.005 A 
ATOM     23  C   UNL d   1      -2.779   6.997   0.887  0.00  0.00     0.037 A 
ATOM     24  C   UNL d   1      -2.041   5.830   1.119  0.00  0.00     0.078 A 
BRANCH  20  25
ATOM     25  O   UNL d   1      -0.941   5.245  -2.399  0.00  0.00    -0.355 OA
ATOM     26  C   UNL d   1       0.373   4.710  -2.427  0.00  0.00     0.210 C 
ENDBRANCH  20  25
BRANCH  24  27
ATOM     27  O   UNL d   1      -1.981   5.227   2.350  0.00  0.00    -0.355 OA
ATOM     28  C   UNL d   1      -2.168   6.038   3.505  0.00  0.00     0.210 C 
ENDBRANCH  24  27
ENDBRANCH  18  19
ENDBRANCH   2  18
TORSDOF 7
