REMARK  8 active torsions:
REMARK  status: ('A' for Active; 'I' for Inactive)
REMARK    1  A    between atoms: C_4  and  C_1 
REMARK    2  A    between atoms: N_2  and  C_3 
REMARK       I    between atoms: N_5  and  C_4 
REMARK    3  A    between atoms: C_6  and  N_5 
REMARK    4  A    between atoms: C_7  and  C_14 
REMARK    5  A    between atoms: O_23  and  C_7 
REMARK    6  A    between atoms: O_12  and  C_15 
REMARK    7  A    between atoms: C_14  and  O_12 
REMARK    8  A    between atoms: C_27  and  O_23 
ROOT
ATOM      1  C   UNL d   1       4.091  -2.532  -0.319  0.00  0.00     0.043 A 
ATOM      2  C   UNL d   1       4.540  -3.495   0.596  0.00  0.00     0.066 A 
ATOM      3  C   UNL d   1       3.909  -4.736   0.668  0.00  0.00     0.072 A 
ATOM      4  C   UNL d   1       3.114  -2.866  -1.275  0.00  0.00    -0.035 A 
ATOM      5  C   UNL d   1       2.545  -4.146  -1.237  0.00  0.00     0.012 A 
ATOM      6  C   UNL d   1       2.930  -5.069  -0.267  0.00  0.00     0.037 A 
ATOM      7  C   UNL d   1       2.663  -1.934  -2.365  0.00  0.00     0.050 C 
ENDROOT
BRANCH   1   8
ATOM      8  N   UNL d   1       4.618  -1.222  -0.181  0.00  0.00    -0.322 N 
ATOM      9  C   UNL d   1       3.785  -0.162   0.112  0.00  0.00     0.258 C 
ATOM     10  O   UNL d   1       2.556  -0.273   0.124  0.00  0.00    -0.267 OA
ATOM     11  H   UNL d   1       5.568  -1.180   0.181  0.00  0.00     0.169 HD
BRANCH   9  12
ATOM     12  C   UNL d   1       4.323   1.200   0.466  0.00  0.00     0.065 A 
ATOM     13  C   UNL d   1       5.514   1.599   1.101  0.00  0.00     0.120 A 
ATOM     14  C   UNL d   1       5.688   2.947   1.512  0.00  0.00     0.060 A 
ATOM     15  C   UNL d   1       4.708   3.903   1.265  0.00  0.00     0.036 A 
ATOM     16  C   UNL d   1       3.556   3.551   0.590  0.00  0.00     0.025 A 
ATOM     17 CL   UNL d   1       4.925   5.520   1.803  0.00  0.00    -0.084 Cl
ATOM     18  C   UNL d   1       3.372   2.221   0.201  0.00  0.00     0.021 A 
BRANCH  13  19
ATOM     19  N   UNL d   1       6.644   0.714   1.399  0.00  0.00    -0.115 N 
ATOM     20  O   UNL d   1       6.759  -0.337   0.761  0.00  0.00    -0.532 OA
ATOM     21  O   UNL d   1       7.467   1.091   2.244  0.00  0.00    -0.532 OA
ENDBRANCH  13  19
ENDBRANCH   9  12
ENDBRANCH   1   8
BRANCH   3  22
ATOM     22  O   UNL d   1       4.130  -5.684   1.628  0.00  0.00    -0.336 OA
BRANCH  22  23
ATOM     23  C   UNL d   1       4.550  -5.218   2.908  0.00  0.00     0.224 C 
ATOM     24  C   UNL d   1       4.586  -6.436   3.828  0.00  0.00     0.051 C 
BRANCH  23  25
ATOM     25  C   UNL d   1       3.714  -4.134   3.613  0.00  0.00     0.288 C 
ATOM     26  O   UNL d   1       4.199  -3.334   4.408  0.00  0.00    -0.262 OA
BRANCH  25  27
ATOM     27  O   UNL d   1       2.397  -4.191   3.273  0.00  0.00    -0.320 OA
BRANCH  27  28
ATOM     28  C   UNL d   1       1.557  -3.197   3.879  0.00  0.00     0.174 C 
ATOM     29  C   UNL d   1       1.655  -1.874   3.140  0.00  0.00     0.034 C 
ENDBRANCH  27  28
ENDBRANCH  25  27
ENDBRANCH  23  25
ENDBRANCH  22  23
ENDBRANCH   3  22
TORSDOF 8
