REMARK  7 active torsions:
REMARK  status: ('A' for Active; 'I' for Inactive)
REMARK    1  A    between atoms: C_7  and  C_1 
REMARK    2  A    between atoms: C_13  and  C_3 
REMARK    3  A    between atoms: C_12  and  C_6 
REMARK    4  A    between atoms: O_18  and  C_8 
REMARK    5  A    between atoms: O_19  and  C_12 
REMARK    6  A    between atoms: C_22  and  O_18 
REMARK    7  A    between atoms: C_23  and  O_19 
ROOT
ATOM      1  C   UNL d   1      -1.965   0.830   0.103  0.00  0.00     0.102 A 
ATOM      2  C   UNL d   1       0.103  -0.580  -0.063  0.00  0.00     0.067 A 
ATOM      3  C   UNL d   1      -0.822   1.601  -0.064  0.00  0.00     0.024 A 
ATOM      4  C   UNL d   1       0.364   0.783  -0.164  0.00  0.00     0.064 A 
ATOM      5  S   UNL d   1      -1.592  -0.845   0.091  0.00  0.00    -0.080 SA
ATOM      6  C   UNL d   1       2.437  -1.035  -0.222  0.00  0.00     0.089 A 
ATOM      7  C   UNL d   1       1.142  -1.552  -0.086  0.00  0.00     0.105 A 
ATOM      8  N   UNL d   1       1.625   1.264  -0.323  0.00  0.00    -0.363 N 
ATOM      9  HN  UNL d   1       1.818   2.262  -0.417  1.00  0.00     0.165 HD
ATOM     10  C   UNL d   1       2.602   0.341  -0.350  0.00  0.00     0.109 A 
ENDROOT
BRANCH   3  11
ATOM     11  C   UNL d   1      -0.839   3.066  -0.073  0.00  0.00    -0.022 A 
ATOM     12  C   UNL d   1       0.025   3.772   0.779  0.00  0.00     0.012 A 
ATOM     13  C   UNL d   1       0.043   5.168   0.780  0.00  0.00     0.001 A 
ATOM     14  C   UNL d   1      -0.809   5.873  -0.066  0.00  0.00     0.000 A 
ATOM     15  C   UNL d   1      -1.669   5.184  -0.920  0.00  0.00     0.001 A 
ATOM     16  C   UNL d   1      -1.677   3.786  -0.933  0.00  0.00     0.012 A 
ENDBRANCH   3  11
BRANCH   1  17
ATOM     17  C   UNL d   1      -3.398   1.227   0.264  0.00  0.00     0.424 C 
ATOM     18  F   UNL d   1      -3.556   2.431   0.870  0.00  0.00    -0.166 F 
ATOM     19  F   UNL d   1      -4.022   1.309  -0.941  0.00  0.00    -0.166 F 
ATOM     20  F   UNL d   1      -4.111   0.340   1.010  0.00  0.00    -0.166 F 
ENDBRANCH   1  17
BRANCH   7  21
ATOM     21  O   UNL d   1       0.716  -2.828   0.101  0.00  0.00    -0.349 OA
BRANCH  21  22
ATOM     22  C   UNL d   1       1.557  -3.951  -0.111  0.00  0.00     0.171 C 
ATOM     23  C   UNL d   1       0.698  -5.194   0.065  0.00  0.00     0.034 C 
ENDBRANCH  21  22
ENDBRANCH   7  21
BRANCH   6  24
ATOM     24  C   UNL d   1       3.696  -1.804  -0.240  0.00  0.00     0.297 C 
ATOM     25  O   UNL d   1       3.965  -2.706  -1.004  0.00  0.00    -0.259 OA
BRANCH  24  26
ATOM     26  O   UNL d   1       4.505  -1.272   0.711  0.00  0.00    -0.318 OA
BRANCH  26  27
ATOM     27  C   UNL d   1       5.819  -1.834   0.840  0.00  0.00     0.174 C 
ATOM     28  C   UNL d   1       6.117  -1.939   2.322  0.00  0.00     0.034 C 
ENDBRANCH  26  27
ENDBRANCH  24  26
ENDBRANCH   6  24
TORSDOF 7
