REMARK  8 active torsions:
REMARK  status: ('A' for Active; 'I' for Inactive)
REMARK    1  A    between atoms: C_2  and  N_1 
REMARK    2  A    between atoms: S_23  and  C_3 
REMARK    3  A    between atoms: C_21  and  C_8 
REMARK    4  A    between atoms: C_22  and  C_11 
REMARK    5  A    between atoms: O_28  and  C_15 
REMARK    6  A    between atoms: C_16  and  C_26 
REMARK    7  A    between atoms: O_30  and  C_19 
REMARK    8  A    between atoms: C_26  and  C_22 
ROOT
ATOM      1  N   UNL d   1      -0.325  -1.353  -0.005  0.00  0.00    -0.276 N 
ATOM      2  C   UNL d   1       0.852  -0.615  -0.149  0.00  0.00     0.164 C 
ATOM      3  N   UNL d   1       0.612   0.668  -0.038  0.00  0.00    -0.278 N 
ATOM      4  HN  UNL d   1       1.310   1.412  -0.040  1.00  0.00     0.189 HD
ATOM      5  N   UNL d   1      -0.729   0.832   0.080  0.00  0.00    -0.286 N 
ATOM      6  HN  UNL d   1      -1.210   1.724   0.191  1.00  0.00     0.188 HD
ATOM      7  C   UNL d   1      -1.312  -0.352   0.026  0.00  0.00     0.105 C 
ENDROOT
BRANCH   7   8
ATOM      8  C   UNL d   1      -2.804  -0.460   0.008  0.00  0.00     0.086 C 
BRANCH   8   9
ATOM      9  C   UNL d   1      -3.462  -1.114   1.213  0.00  0.00     0.094 C 
BRANCH   9  10
ATOM     10  C   UNL d   1      -3.130  -0.454   2.495  0.00  0.00     0.148 A 
ATOM     11  N   UNL d   1      -3.386   0.757   2.918  0.00  0.00    -0.323 N 
ATOM     12  C   UNL d   1      -2.822   0.757   4.180  0.00  0.00     0.137 A 
ATOM     13  HN  UNL d   1      -3.878   1.511   2.439  1.00  0.00     0.169 HD
ATOM     14  N   UNL d   1      -2.288  -0.427   4.532  0.00  0.00    -0.242 N 
ATOM     15  O   UNL d   1      -2.485  -1.226   3.413  0.00  0.00    -0.223 OA
ATOM     16  HN  UNL d   1      -1.844  -0.679   5.414  1.00  0.00     0.196 HD
BRANCH  12  17
ATOM     17  C   UNL d   1      -2.801   1.939   5.035  0.00  0.00     0.010 A 
ATOM     18  C   UNL d   1      -3.372   3.142   4.597  0.00  0.00     0.017 A 
ATOM     19  C   UNL d   1      -3.324   4.287   5.402  0.00  0.00     0.025 A 
ATOM     20  C   UNL d   1      -2.708   4.234   6.649  0.00  0.00     0.034 A 
ATOM     21  C   UNL d   1      -2.145   3.045   7.105  0.00  0.00     0.025 A 
ATOM     22 CL   UNL d   1      -2.635   5.644   7.631  0.00  0.00    -0.084 Cl
ATOM     23  C   UNL d   1      -2.194   1.902   6.301  0.00  0.00     0.017 A 
ENDBRANCH  12  17
ENDBRANCH   9  10
ENDBRANCH   8   9
ENDBRANCH   7   8
BRANCH   1  24
ATOM     24  C   UNL d   1      -0.484  -2.780   0.056  0.00  0.00     0.079 A 
ATOM     25  C   UNL d   1      -1.576  -3.394  -0.579  0.00  0.00     0.071 A 
ATOM     26  C   UNL d   1      -1.769  -4.792  -0.573  0.00  0.00     0.092 A 
ATOM     27  C   UNL d   1      -0.806  -5.592   0.046  0.00  0.00     0.070 A 
ATOM     28  C   UNL d   1       0.276  -4.989   0.705  0.00  0.00     0.065 A 
ATOM     29 CL   UNL d   1      -0.790  -7.320   0.060  0.00  0.00    -0.081 Cl
ATOM     30  C   UNL d   1       0.429  -3.598   0.749  0.00  0.00     0.097 A 
BRANCH  26  31
ATOM     31  O   UNL d   1      -2.921  -5.132  -1.226  0.00  0.00    -0.354 OA
ATOM     32  C   UNL d   1      -3.358  -6.481  -1.270  0.00  0.00     0.210 C 
ENDBRANCH  26  31
BRANCH  30  33
ATOM     33  O   UNL d   1       1.429  -2.982   1.448  0.00  0.00    -0.354 OA
ATOM     34  C   UNL d   1       2.199  -3.729   2.385  0.00  0.00     0.210 C 
ENDBRANCH  30  33
ENDBRANCH   1  24
BRANCH   2  35
ATOM     35  S   UNL d   1       2.389  -1.193  -0.726  0.00  0.00    -0.105 SA
ATOM     36  H   UNL d   1       2.392  -2.396  -0.144  0.00  0.00     0.110 HD
ENDBRANCH   2  35
TORSDOF 8
