REMARK  4 active torsions:
REMARK  status: ('A' for Active; 'I' for Inactive)
REMARK    1  A    between atoms: C_6  and  C_1 
REMARK    2  A    between atoms: C_15  and  C_5 
REMARK       I    between atoms: C_7  and  N_10 
REMARK    3  A    between atoms: C_16  and  C_7 
REMARK    4  A    between atoms: N_10  and  C_15 
ROOT
ATOM      1  C   UNL d   1       0.300  -1.158  -0.430  0.00  0.00     0.091 A 
ATOM      2  N   UNL d   1       1.509  -0.629  -0.305  0.00  0.00    -0.351 N 
ATOM      3  HN  UNL d   1       2.384  -1.148  -0.384  1.00  0.00     0.166 HD
ATOM      4  S   UNL d   1      -0.998  -0.036  -0.261  0.00  0.00    -0.081 SA
ATOM      5  C   UNL d   1       1.414   0.743  -0.051  0.00  0.00     0.034 A 
ATOM      6  C   UNL d   1       0.119   1.224  -0.001  0.00  0.00     0.078 A 
ENDROOT
BRANCH   5   7
ATOM      7  C   UNL d   1       2.628   1.601   0.134  0.00  0.00     0.180 C 
BRANCH   7   8
ATOM      8  N   UNL d   1       3.850   0.843   0.046  0.00  0.00    -0.355 N 
ATOM      9  C   UNL d   1       5.063   1.487   0.172  0.00  0.00     0.222 C 
ATOM     10  O   UNL d   1       5.141   2.679   0.454  0.00  0.00    -0.273 OA
ATOM     11  H   UNL d   1       3.780  -0.118  -0.268  0.00  0.00     0.162 HD
BRANCH   9  12
ATOM     12  C   UNL d   1       6.285   0.609  -0.104  0.00  0.00     0.078 C 
ATOM     13  C   UNL d   1       6.435  -0.509   0.936  0.00  0.00     0.014 C 
ATOM     14  C   UNL d   1       7.069  -0.033   2.241  0.00  0.00     0.001 C 
ATOM     15  C   UNL d   1       8.410   0.641   1.987  0.00  0.00     0.000 C 
ATOM     16  C   UNL d   1       8.246   1.830   1.051  0.00  0.00     0.001 C 
ATOM     17  C   UNL d   1       7.577   1.433  -0.266  0.00  0.00     0.014 C 
ENDBRANCH   9  12
ENDBRANCH   7   8
ENDBRANCH   5   7
BRANCH   1  18
ATOM     18  C   UNL d   1       0.094  -2.571  -0.684  0.00  0.00     0.038 A 
ATOM     19  S   UNL d   1      -1.460  -3.282  -0.900  0.00  0.00    -0.099 SA
ATOM     20  C   UNL d   1      -0.809  -4.844  -1.123  0.00  0.00     0.050 A 
ATOM     21  C   UNL d   1       0.564  -4.843  -1.039  0.00  0.00     0.008 A 
ATOM     22  C   UNL d   1       1.081  -3.537  -0.788  0.00  0.00     0.022 A 
ENDBRANCH   1  18
TORSDOF 4
