REMARK  7 active torsions:
REMARK  status: ('A' for Active; 'I' for Inactive)
REMARK    1  A    between atoms: O_11  and  C_2 
REMARK    2  A    between atoms: C_8  and  C_3 
REMARK    3  A    between atoms: C_16  and  C_6 
REMARK    4  A    between atoms: C_19  and  O_11 
REMARK    5  A    between atoms: C_13  and  C_19 
REMARK    6  A    between atoms: O_20  and  C_13 
REMARK    7  A    between atoms: C_23  and  O_20 
ROOT
ATOM      1  C   UNL d   1       0.596   0.052   0.094  0.00  0.00     0.108 A 
ATOM      2  C   UNL d   1      -0.202  -1.088   0.158  0.00  0.00     0.165 A 
ATOM      3  C   UNL d   1      -0.050   1.292   0.025  0.00  0.00     0.025 A 
ATOM      4  N   UNL d   1      -1.553  -1.078   0.108  0.00  0.00    -0.335 N 
ATOM      5  HN  UNL d   1      -2.085  -1.947   0.149  1.00  0.00     0.168 HD
ATOM      6  C   UNL d   1      -2.179   0.117   0.003  0.00  0.00     0.045 A 
ATOM      7  C   UNL d   1      -1.458   1.303  -0.015  0.00  0.00     0.046 A 
ATOM      8  C   UNL d   1       2.023  -0.087   0.089  0.00  0.00     0.105 C 
ATOM      9  N   UNL d   1       3.180  -0.171   0.080  0.00  0.00    -0.191 NA
ENDROOT
BRANCH   2  10
ATOM     10  O   UNL d   1       0.420  -2.316   0.211  0.00  0.00    -0.325 OA
BRANCH  10  11
ATOM     11  C   UNL d   1      -0.394  -3.335   0.783  0.00  0.00     0.288 C 
BRANCH  11  12
ATOM     12  C   UNL d   1      -0.595  -3.188   2.288  0.00  0.00     0.283 C 
ATOM     13  O   UNL d   1      -0.142  -2.286   2.981  0.00  0.00    -0.263 OA
BRANCH  12  14
ATOM     14  O   UNL d   1      -1.256  -4.286   2.761  0.00  0.00    -0.320 OA
BRANCH  14  15
ATOM     15  C   UNL d   1      -1.112  -4.521   4.170  0.00  0.00     0.174 C 
ATOM     16  C   UNL d   1       0.157  -5.327   4.384  0.00  0.00     0.034 C 
ENDBRANCH  14  15
ENDBRANCH  12  14
ENDBRANCH  11  12
ENDBRANCH  10  11
ENDBRANCH   2  10
BRANCH   3  17
ATOM     17  C   UNL d   1       0.653   2.574  -0.032  0.00  0.00     0.086 A 
ATOM     18  O   UNL d   1      -0.003   3.572  -0.699  0.00  0.00    -0.322 OA
ATOM     19  C   UNL d   1       0.775   4.682  -0.649  0.00  0.00     0.142 A 
ATOM     20  C   UNL d   1       1.930   4.423   0.044  0.00  0.00     0.027 A 
ATOM     21  C   UNL d   1       1.854   3.066   0.444  0.00  0.00     0.040 A 
ENDBRANCH   3  17
BRANCH   6  22
ATOM     22  C   UNL d   1      -3.649   0.072  -0.132  0.00  0.00    -0.009 A 
ATOM     23  C   UNL d   1      -4.348   1.033  -0.884  0.00  0.00     0.013 A 
ATOM     24  C   UNL d   1      -5.736   0.983  -1.023  0.00  0.00     0.001 A 
ATOM     25  C   UNL d   1      -6.460  -0.038  -0.418  0.00  0.00     0.000 A 
ATOM     26  C   UNL d   1      -5.795  -1.010   0.324  0.00  0.00     0.001 A 
ATOM     27  C   UNL d   1      -4.404  -0.957   0.463  0.00  0.00     0.013 A 
ENDBRANCH   6  22
TORSDOF 7
