REMARK  4 active torsions:
REMARK  status: ('A' for Active; 'I' for Inactive)
REMARK    1  A    between atoms: C_12  and  N_3 
REMARK    2  A    between atoms: C_14  and  N_10 
REMARK    3  A    between atoms: C_13  and  C_12 
REMARK    4  A    between atoms: C_17  and  C_14 
ROOT
ATOM      1  C   UNL d   1       0.199   0.668  -0.168  0.00  0.00     0.155 A 
ATOM      2  C   UNL d   1       0.258  -0.697  -0.013  0.00  0.00     0.160 A 
ATOM      3  N   UNL d   1       1.502   1.062  -0.040  0.00  0.00    -0.254 N 
ATOM      4  N   UNL d   1      -0.896   1.441  -0.353  0.00  0.00    -0.335 N 
ATOM      5  HN  UNL d   1      -0.860   2.451  -0.492  1.00  0.00     0.168 HD
ATOM      6  N   UNL d   1       1.546  -1.101   0.171  0.00  0.00    -0.276 N 
ATOM      7  HN  UNL d   1       1.866  -2.061   0.293  1.00  0.00     0.184 HD
ATOM      8  N   UNL d   1       2.311  -0.009   0.161  0.00  0.00    -0.018 NA
ATOM      9  C   UNL d   1      -0.971  -1.449   0.010  0.00  0.00     0.280 A 
ATOM     10  N   UNL d   1      -2.100  -0.625  -0.122  0.00  0.00    -0.301 N 
ATOM     11  C   UNL d   1      -2.000   0.750  -0.333  0.00  0.00     0.188 A 
ATOM     12  O   UNL d   1      -1.038  -2.667   0.176  0.00  0.00    -0.265 OA
ENDROOT
BRANCH   3  13
ATOM     13  C   UNL d   1       2.033   2.414   0.024  0.00  0.00     0.189 C 
BRANCH  13  14
ATOM     14  C   UNL d   1       2.309   2.975  -1.351  0.00  0.00    -0.017 A 
ATOM     15  C   UNL d   1       1.719   4.158  -1.822  0.00  0.00     0.042 A 
ATOM     16 CL   UNL d   1       0.699   5.141  -0.833  0.00  0.00    -0.084 Cl
ATOM     17  C   UNL d   1       1.954   4.598  -3.129  0.00  0.00     0.024 A 
ATOM     18  C   UNL d   1       2.792   3.877  -3.977  0.00  0.00     0.002 A 
ATOM     19  C   UNL d   1       3.427   2.731  -3.508  0.00  0.00     0.001 A 
ATOM     20  C   UNL d   1       3.197   2.291  -2.205  0.00  0.00     0.010 A 
ENDBRANCH  13  14
ENDBRANCH   3  13
BRANCH  10  21
ATOM     21  C   UNL d   1      -3.405  -1.243   0.048  0.00  0.00     0.211 C 
BRANCH  21  22
ATOM     22  C   UNL d   1      -3.893  -1.900  -1.236  0.00  0.00     0.141 C 
ATOM     23  O   UNL d   1      -3.609  -1.455  -2.347  0.00  0.00    -0.297 OA
ATOM     24  C   UNL d   1      -4.814  -3.086  -1.084  0.00  0.00     0.092 C 
ENDBRANCH  21  22
ENDBRANCH  10  21
TORSDOF 4
