REMARK  6 active torsions:
REMARK  status: ('A' for Active; 'I' for Inactive)
REMARK    1  A    between atoms: N_2  and  C_1 
REMARK    2  A    between atoms: N_3  and  C_1 
REMARK    3  A    between atoms: C_10  and  N_3 
REMARK    4  A    between atoms: N_5  and  C_8 
REMARK    5  A    between atoms: C_7  and  C_6 
REMARK    6  A    between atoms: C_8  and  C_7 
ROOT
ATOM      1  N   UNL d   1      -0.126  -1.086  -0.137  0.00  0.00    -0.353 N 
ATOM      2  C   UNL d   1      -0.880  -1.023  -1.421  0.00  0.00     0.088 C 
ATOM      3  C   UNL d   1       0.207  -2.457   0.261  0.00  0.00     0.125 C 
ATOM      4  C   UNL d   1      -2.215  -1.766  -1.228  0.00  0.00     0.025 C 
ATOM      5  C   UNL d   1      -1.067  -3.257   0.506  0.00  0.00     0.020 C 
ATOM      6  C   UNL d   1      -2.026  -3.186  -0.680  0.00  0.00     0.004 C 
ENDROOT
BRANCH   1   7
ATOM      7  C   UNL d   1       0.735  -0.064   0.224  0.00  0.00     0.174 C 
ATOM      8  S   UNL d   1       2.401  -0.114   0.024  0.00  0.00    -0.041 SA
BRANCH   7   9
ATOM      9  N   UNL d   1       0.191   1.092   0.723  0.00  0.00    -0.333 N 
ATOM     10  H   UNL d   1       0.850   1.864   0.722  0.00  0.00     0.168 HD
BRANCH   9  11
ATOM     11  C   UNL d   1      -1.054   1.353   1.335  0.00  0.00     0.034 A 
ATOM     12  C   UNL d   1      -1.935   0.356   1.760  0.00  0.00     0.032 A 
ATOM     13  C   UNL d   1      -3.151   0.684   2.370  0.00  0.00     0.044 A 
ATOM     14  C   UNL d   1      -3.476   2.016   2.571  0.00  0.00     0.116 A 
ATOM     15  C   UNL d   1      -2.607   3.025   2.178  0.00  0.00     0.044 A 
ATOM     16  F   UNL d   1      -4.636   2.330   3.163  0.00  0.00    -0.206 F 
ATOM     17  C   UNL d   1      -1.394   2.691   1.566  0.00  0.00     0.032 A 
ENDBRANCH   9  11
ENDBRANCH   7   9
ENDBRANCH   1   7
BRANCH   2  18
ATOM     18  C   UNL d   1      -1.069   0.398  -2.001  0.00  0.00     0.055 C 
BRANCH  18  19
ATOM     19  C   UNL d   1      -1.819   0.455  -3.339  0.00  0.00     0.274 C 
BRANCH  19  20
ATOM     20  N   UNL d   1      -1.726   1.777  -3.989  0.00  0.00     0.092 N 
ATOM     21  C   UNL d   1      -2.260   2.895  -3.180  0.00  0.00     0.298 C 
ATOM     22  C   UNL d   1      -3.792   2.897  -3.063  0.00  0.00     0.198 C 
ATOM     23  O   UNL d   1      -4.408   2.933  -4.358  0.00  0.00    -0.388 OA
ATOM     24  C   UNL d   1      -3.971   1.831  -5.163  0.00  0.00     0.198 C 
ATOM     25  C   UNL d   1      -2.437   1.789  -5.290  0.00  0.00     0.298 C 
ENDBRANCH  19  20
ENDBRANCH  18  19
ENDBRANCH   2  18
TORSDOF 6
