REMARK  6 active torsions:
REMARK  status: ('A' for Active; 'I' for Inactive)
REMARK    1  A    between atoms: C_6  and  C_1 
REMARK    2  A    between atoms: C_7  and  C_2 
REMARK    3  A    between atoms: C_14  and  C_4 
REMARK    4  A    between atoms: C_8  and  C_7 
REMARK    5  A    between atoms: N_13  and  N_9 
REMARK    6  A    between atoms: C_20  and  N_13 
ROOT
ATOM      1  C   UNL d   1      -1.499  -3.184  -0.107  0.00  0.00     0.180 C 
ATOM      2  N   UNL d   1      -0.373  -2.938   0.508  0.00  0.00    -0.287 N 
ATOM      3  HN  UNL d   1      -0.260  -2.071   1.033  1.00  0.00     0.188 HD
ATOM      4  C   UNL d   1      -1.636  -4.444  -0.808  0.00  0.00     0.123 C 
ATOM      5  N   UNL d   1      -1.653  -5.486  -1.340  0.00  0.00    -0.190 NA
ENDROOT
BRANCH   1   6
ATOM      6  C   UNL d   1      -2.649  -2.204  -0.063  0.00  0.00     0.227 C 
ATOM      7  O   UNL d   1      -3.771  -2.704  -0.092  0.00  0.00    -0.284 OA
BRANCH   6   8
ATOM      8  C   UNL d   1      -2.432  -0.759  -0.017  0.00  0.00     0.059 A 
ATOM      9  S   UNL d   1      -0.906  -0.017  -0.005  0.00  0.00    -0.081 SA
ATOM     10  C   UNL d   1      -1.539   1.583   0.061  0.00  0.00     0.100 A 
ATOM     11  C   UNL d   1      -2.934   1.569   0.039  0.00  0.00    -0.003 A 
ATOM     12  C   UNL d   1      -3.422   0.208   0.006  0.00  0.00     0.036 A 
BRANCH  10  13
ATOM     13  C   UNL d   1      -0.548   2.717   0.083  0.00  0.00     0.424 C 
ATOM     14  F   UNL d   1       0.746   2.305  -0.009  0.00  0.00    -0.166 F 
ATOM     15  F   UNL d   1      -0.745   3.580  -0.946  0.00  0.00    -0.166 F 
ATOM     16  F   UNL d   1      -0.606   3.442   1.232  0.00  0.00    -0.166 F 
ENDBRANCH  10  13
BRANCH  11  17
ATOM     17  C   UNL d   1      -3.794   2.770   0.021  0.00  0.00    -0.025 A 
ATOM     18  C   UNL d   1      -5.028   2.746  -0.651  0.00  0.00     0.012 A 
ATOM     19  C   UNL d   1      -5.868   3.868  -0.658  0.00  0.00     0.001 A 
ATOM     20  C   UNL d   1      -5.484   5.038  -0.009  0.00  0.00     0.000 A 
ATOM     21  C   UNL d   1      -4.271   5.079   0.661  0.00  0.00     0.001 A 
ATOM     22  C   UNL d   1      -3.451   3.948   0.695  0.00  0.00     0.012 A 
ENDBRANCH  11  17
ENDBRANCH   6   8
ENDBRANCH   1   6
BRANCH   2  23
ATOM     23  N   UNL d   1       0.652  -3.835   0.452  0.00  0.00    -0.300 N 
ATOM     24  H   UNL d   1       0.724  -4.550  -0.275  0.00  0.00     0.187 HD
BRANCH  23  25
ATOM     25  C   UNL d   1       1.887  -3.490   1.038  0.00  0.00     0.049 A 
ATOM     26  C   UNL d   1       2.060  -2.336   1.812  0.00  0.00     0.054 A 
ATOM     27  C   UNL d   1       3.272  -2.089   2.457  0.00  0.00     0.036 A 
ATOM     28 CL   UNL d   1       3.453  -0.674   3.420  0.00  0.00    -0.084 Cl
ATOM     29  C   UNL d   1       4.330  -2.987   2.344  0.00  0.00     0.024 A 
ATOM     30  C   UNL d   1       4.174  -4.142   1.582  0.00  0.00     0.004 A 
ATOM     31  C   UNL d   1       2.957  -4.394   0.943  0.00  0.00     0.031 A 
ENDBRANCH  23  25
ENDBRANCH   2  23
TORSDOF 6
