REMARK  1 active torsions:
REMARK  status: ('A' for Active; 'I' for Inactive)
REMARK    1  A    between atoms: C_11  and  C_3 
ROOT
ATOM      1  C   UNL d   1       1.639  -1.598   0.164  0.00  0.00     0.167 A 
ATOM      2  C   UNL d   1       2.638  -2.626   0.011  0.00  0.00     0.076 A 
ATOM      3  C   UNL d   1       2.834  -3.584  -1.039  0.00  0.00     0.084 A 
ATOM      4  N   UNL d   1       3.918  -4.334  -0.774  0.00  0.00    -0.259 N 
ATOM      5  HN  UNL d   1       4.295  -5.083  -1.355  1.00  0.00     0.195 HD
ATOM      6  N   UNL d   1       1.979  -0.473   0.700  0.00  0.00    -0.335 N 
ATOM      7  HN  UNL d   1       2.926  -0.312   1.044  1.00  0.00     0.168 HD
ATOM      8  O   UNL d   1       0.416  -1.931  -0.304  0.00  0.00    -0.256 OA
ATOM      9  C   UNL d   1      -0.590  -1.026  -0.245  0.00  0.00     0.302 A 
ATOM     10  C   UNL d   1      -0.293   0.284   0.343  0.00  0.00     0.066 A 
ATOM     11  O   UNL d   1       4.422  -3.899   0.428  0.00  0.00    -0.241 OA
ATOM     12  C   UNL d   1       0.998   0.512   0.789  0.00  0.00     0.050 A 
ATOM     13  C   UNL d   1       3.675  -2.868   0.888  0.00  0.00     0.089 A 
ATOM     14  O   UNL d   1      -1.708  -1.280  -0.677  0.00  0.00    -0.259 OA
ATOM     15  C   UNL d   1      -1.274   1.277   0.437  0.00  0.00     0.020 A 
ATOM     16  C   UNL d   1       1.323   1.757   1.328  0.00  0.00     0.030 A 
ATOM     17  C   UNL d   1       4.109  -2.263   2.164  0.00  0.00     0.080 C 
ATOM     18  C   UNL d   1      -0.947   2.517   0.986  0.00  0.00     0.001 A 
ATOM     19  C   UNL d   1       0.354   2.758   1.428  0.00  0.00     0.002 A 
ENDROOT
BRANCH   3  20
ATOM     20  C   UNL d   1       2.101  -3.741  -2.306  0.00  0.00     0.015 A 
ATOM     21  C   UNL d   1       1.816  -4.989  -2.891  0.00  0.00     0.046 A 
ATOM     22 CL   UNL d   1       2.229  -6.506  -2.167  0.00  0.00    -0.083 Cl
ATOM     23  C   UNL d   1       1.129  -5.059  -4.113  0.00  0.00     0.025 A 
ATOM     24  C   UNL d   1       0.695  -3.899  -4.754  0.00  0.00     0.002 A 
ATOM     25  C   UNL d   1       0.966  -2.660  -4.187  0.00  0.00     0.001 A 
ATOM     26  C   UNL d   1       1.682  -2.582  -2.990  0.00  0.00     0.015 A 
ENDBRANCH   3  20
TORSDOF 1
