REMARK  4 active torsions:
REMARK  status: ('A' for Active; 'I' for Inactive)
REMARK    1  A    between atoms: C_10  and  N_1 
REMARK    2  A    between atoms: C_16  and  C_9 
REMARK    3  A    between atoms: O_19  and  C_11 
REMARK    4  A    between atoms: O_20  and  C_17 
ROOT
ATOM      1  N   UNL d   1       2.166   0.661   0.175  0.00  0.00    -0.251 N 
ATOM      2  C   UNL d   1      -0.223   0.651   0.073  0.00  0.00     0.068 A 
ATOM      3  C   UNL d   1      -0.140  -0.707   0.122  0.00  0.00     0.092 A 
ATOM      4  C   UNL d   1       2.203  -0.745   0.388  0.00  0.00     0.186 C 
ATOM      5  C   UNL d   1       0.990   1.424   0.102  0.00  0.00     0.267 C 
ATOM      6  N   UNL d   1       1.007  -1.414   0.246  0.00  0.00    -0.326 N 
ATOM      7  C   UNL d   1      -1.585   1.060   0.011  0.00  0.00     0.039 A 
ATOM      8  S   UNL d   1      -1.592  -1.516   0.046  0.00  0.00    -0.071 SA
ATOM      9  C   UNL d   1      -2.460  -0.018   0.002  0.00  0.00     0.018 A 
ATOM     10  S   UNL d   1       3.538  -1.686   0.789  0.00  0.00    -0.040 SA
ATOM     11  O   UNL d   1       0.945   2.655   0.033  0.00  0.00    -0.267 OA
ATOM     12  H   UNL d   1       0.977  -2.427   0.324  0.00  0.00     0.169 HD
ENDROOT
BRANCH   1  13
ATOM     13  C   UNL d   1       3.380   1.394   0.066  0.00  0.00     0.078 A 
ATOM     14  C   UNL d   1       4.022   1.622  -1.163  0.00  0.00     0.098 A 
ATOM     15  C   UNL d   1       5.259   2.288  -1.161  0.00  0.00     0.075 A 
ATOM     16  C   UNL d   1       5.828   2.766   0.021  0.00  0.00     0.070 A 
ATOM     17  C   UNL d   1       5.154   2.578   1.224  0.00  0.00     0.039 A 
ATOM     18  C   UNL d   1       3.939   1.896   1.253  0.00  0.00     0.036 A 
BRANCH  14  19
ATOM     19  O   UNL d   1       3.656   1.210  -2.418  0.00  0.00    -0.354 OA
ATOM     20  C   UNL d   1       2.285   1.176  -2.788  0.00  0.00     0.210 C 
ENDBRANCH  14  19
BRANCH  16  21
ATOM     21  O   UNL d   1       7.017   3.430   0.136  0.00  0.00    -0.356 OA
ATOM     22  C   UNL d   1       7.750   3.653  -1.061  0.00  0.00     0.210 C 
ENDBRANCH  16  21
ENDBRANCH   1  13
BRANCH   9  23
ATOM     23  C   UNL d   1      -3.926  -0.017  -0.014  0.00  0.00    -0.019 A 
ATOM     24  C   UNL d   1      -4.647  -1.058  -0.614  0.00  0.00     0.013 A 
ATOM     25  C   UNL d   1      -6.045  -1.050  -0.621  0.00  0.00     0.001 A 
ATOM     26  C   UNL d   1      -6.731   0.004  -0.029  0.00  0.00     0.000 A 
ATOM     27  C   UNL d   1      -6.030   1.047   0.572  0.00  0.00     0.001 A 
ATOM     28  C   UNL d   1      -4.635   1.037   0.579  0.00  0.00     0.013 A 
ENDBRANCH   9  23
TORSDOF 4
