REMARK  2 active torsions:
REMARK  status: ('A' for Active; 'I' for Inactive)
REMARK    1  A    between atoms: C_12  and  C_5 
REMARK    2  A    between atoms: C_10  and  N_7 
ROOT
ATOM      1  C   UNL d   1       0.268  -1.168  -0.025  0.00  0.00     0.149 A 
ATOM      2  N   UNL d   1       1.419  -0.533  -0.028  0.00  0.00    -0.340 N 
ATOM      3  HN  UNL d   1       2.328  -0.993  -0.068  1.00  0.00     0.168 HD
ATOM      4  S   UNL d   1      -1.105  -0.125   0.103  0.00  0.00    -0.064 SA
ATOM      5  C   UNL d   1       1.243   0.836   0.032  0.00  0.00     0.017 A 
ATOM      6  C   UNL d   1      -0.074   1.242   0.089  0.00  0.00     0.078 A 
ATOM      7  N   UNL d   1       0.078  -2.503  -0.139  0.00  0.00    -0.335 N 
ATOM      8  H   UNL d   1      -0.882  -2.819  -0.171  0.00  0.00     0.168 HD
ENDROOT
BRANCH   7   9
ATOM      9  C   UNL d   1       1.024  -3.458  -0.554  0.00  0.00     0.049 A 
ATOM     10  C   UNL d   1       2.406  -3.260  -0.585  0.00  0.00     0.117 A 
ATOM     11  N   UNL d   1       3.315  -4.168  -1.035  0.00  0.00    -0.373 N 
ATOM     12  C   UNL d   1       2.828  -5.340  -1.482  0.00  0.00     0.088 A 
ATOM     13  HN  UNL d   1       4.316  -3.970  -1.034  1.00  0.00     0.164 HD
ATOM     14  C   UNL d   1       1.483  -5.658  -1.478  0.00  0.00     0.019 A 
ATOM     15  C   UNL d   1       0.578  -4.708  -1.001  0.00  0.00     0.032 A 
ENDBRANCH   7   9
BRANCH   5  16
ATOM     16  C   UNL d   1       2.458   1.702   0.014  0.00  0.00     0.053 C 
ATOM     17  C   UNL d   1       2.979   1.927  -1.396  0.00  0.00     0.011 C 
ENDBRANCH   5  16
TORSDOF 2
