REMARK  7 active torsions:
REMARK  status: ('A' for Active; 'I' for Inactive)
REMARK    1  A    between atoms: C_3  and  C_1 
REMARK    2  A    between atoms: C_7  and  C_1 
REMARK    3  A    between atoms: N_2  and  C_9 
REMARK    4  A    between atoms: C_4  and  C_8 
REMARK    5  A    between atoms: N_12  and  N_5 
REMARK    6  A    between atoms: C_8  and  C_7 
REMARK    7  A    between atoms: C_22  and  N_12 
ROOT
ATOM      1  C   UNL d   1       0.827   0.101  -0.664  0.00  0.00     0.116 C 
ATOM      2  N   UNL d   1       0.160  -1.022  -0.626  0.00  0.00    -0.299 N 
ATOM      3  HN  UNL d   1       0.604  -1.914  -0.413  1.00  0.00     0.186 HD
ENDROOT
BRANCH   2   4
ATOM      4  N   UNL d   1      -1.167  -0.914  -0.890  0.00  0.00    -0.301 N 
ATOM      5  H   UNL d   1      -1.747  -0.343  -0.269  0.00  0.00     0.187 HD
BRANCH   4   6
ATOM      6  C   UNL d   1      -1.858  -2.049  -1.367  0.00  0.00     0.048 A 
ATOM      7  C   UNL d   1      -1.196  -3.221  -1.761  0.00  0.00     0.033 A 
ATOM      8  C   UNL d   1      -1.893  -4.282  -2.348  0.00  0.00     0.038 A 
ATOM      9  C   UNL d   1      -3.268  -4.162  -2.572  0.00  0.00     0.103 A 
ATOM     10  C   UNL d   1      -3.947  -2.995  -2.203  0.00  0.00     0.038 A 
ATOM     11  C   UNL d   1      -3.237  -1.946  -1.610  0.00  0.00     0.033 A 
BRANCH   9  12
ATOM     12  N   UNL d   1      -4.002  -5.259  -3.215  0.00  0.00    -0.116 N 
ATOM     13  O   UNL d   1      -5.216  -5.106  -3.406  0.00  0.00    -0.532 OA
ATOM     14  O   UNL d   1      -3.362  -6.274  -3.531  0.00  0.00    -0.532 OA
ENDBRANCH   9  12
ENDBRANCH   4   6
ENDBRANCH   2   4
BRANCH   1  15
ATOM     15  C   UNL d   1       0.245   1.465  -0.994  0.00  0.00     0.430 C 
ATOM     16  F   UNL d   1       1.177   2.455  -0.969  0.00  0.00    -0.165 F 
ATOM     17  F   UNL d   1      -0.364   1.528  -2.205  0.00  0.00    -0.165 F 
ATOM     18  F   UNL d   1      -0.698   1.819  -0.071  0.00  0.00    -0.165 F 
ENDBRANCH   1  15
BRANCH   1  19
ATOM     19  C   UNL d   1       2.300   0.032  -0.347  0.00  0.00     0.151 C 
BRANCH  19  20
ATOM     20  C   UNL d   1       3.158  -0.174  -1.565  0.00  0.00     0.238 C 
ATOM     21  O   UNL d   1       2.781   0.240  -2.668  0.00  0.00    -0.288 OA
BRANCH  20  22
ATOM     22  C   UNL d   1       4.508  -0.835  -1.329  0.00  0.00     0.451 C 
ATOM     23  F   UNL d   1       4.671  -1.239  -0.037  0.00  0.00    -0.163 F 
ATOM     24  F   UNL d   1       4.694  -1.941  -2.097  0.00  0.00    -0.163 F 
ATOM     25  F   UNL d   1       5.547   0.004  -1.589  0.00  0.00    -0.163 F 
ENDBRANCH  20  22
ENDBRANCH  19  20
ENDBRANCH   1  19
TORSDOF 7
