REMARK  2 active torsions:
REMARK  status: ('A' for Active; 'I' for Inactive)
REMARK    1  A    between atoms: N_6  and  N_3 
REMARK    2  A    between atoms: C_5  and  N_6 
ROOT
ATOM      1  C   UNL d   1       0.747   1.182  -0.325  0.00  0.00     0.093 C 
ATOM      2  C   UNL d   1       1.495  -0.134  -0.132  0.00  0.00     0.265 C 
ATOM      3  N   UNL d   1       1.200   2.209  -0.979  0.00  0.00    -0.299 N 
ATOM      4  HN  UNL d   1       0.638   3.052  -1.094  1.00  0.00     0.186 HD
ATOM      5  N   UNL d   1       0.711  -1.262  -0.075  0.00  0.00    -0.356 N 
ATOM      6  O   UNL d   1       2.714  -0.169  -0.061  0.00  0.00    -0.266 OA
ATOM      7  C   UNL d   1      -0.643   1.236   0.246  0.00  0.00     0.066 C 
ATOM      8  C   UNL d   1      -0.707  -1.249   0.216  0.00  0.00     0.123 C 
ATOM      9  C   UNL d   1      -1.400   0.019  -0.260  0.00  0.00     0.026 C 
ATOM     10  H   UNL d   1       1.234  -2.116   0.082  0.00  0.00     0.162 HD
ENDROOT
BRANCH   3  11
ATOM     11  N   UNL d   1       2.450   2.121  -1.505  0.00  0.00    -0.297 N 
ATOM     12  H   UNL d   1       3.166   1.575  -1.005  0.00  0.00     0.187 HD
BRANCH  11  13
ATOM     13  C   UNL d   1       2.949   3.271  -2.150  0.00  0.00     0.089 A 
ATOM     14  C   UNL d   1       2.090   4.196  -2.760  0.00  0.00     0.076 A 
ATOM     15  C   UNL d   1       2.607   5.313  -3.408  0.00  0.00     0.118 A 
ATOM     16  F   UNL d   1       1.770   6.188  -3.980  0.00  0.00    -0.206 F 
ATOM     17  C   UNL d   1       3.978   5.535  -3.474  0.00  0.00     0.045 A 
ATOM     18  C   UNL d   1       4.849   4.613  -2.895  0.00  0.00     0.047 A 
ATOM     19  C   UNL d   1       4.330   3.488  -2.251  0.00  0.00     0.144 A 
ATOM     20  F   UNL d   1       5.182   2.611  -1.701  0.00  0.00    -0.204 F 
ENDBRANCH  11  13
ENDBRANCH   3  11
TORSDOF 2
