REMARK  2 active torsions:
REMARK  status: ('A' for Active; 'I' for Inactive)
REMARK       I    between atoms: C_5  and  N_12 
REMARK    1  A    between atoms: C_8  and  C_5 
REMARK    2  A    between atoms: N_12  and  C_11 
ROOT
ATOM      1  C   UNL d   1      -5.084  -0.456  -0.627  0.00  0.00     0.228 C 
ATOM      2  N   UNL d   1      -6.016  -1.328  -0.089  0.00  0.00    -0.327 N 
ATOM      3  O   UNL d   1      -4.545  -0.582  -1.726  0.00  0.00    -0.273 OA
ATOM      4  H   UNL d   1      -6.359  -1.112   0.844  0.00  0.00     0.169 HD
ENDROOT
BRANCH   2   5
ATOM      5  C   UNL d   1      -6.483  -2.539  -0.677  0.00  0.00     0.037 A 
ATOM      6  C   UNL d   1      -6.094  -2.960  -1.968  0.00  0.00     0.061 A 
ATOM      7  C   UNL d   1      -6.627  -4.185  -2.449  0.00  0.00     0.069 A 
ATOM      8  C   UNL d   1      -7.563  -5.002  -1.611  0.00  0.00     0.067 A 
ATOM      9  N   UNL d   1      -6.375  -4.739  -3.649  0.00  0.00    -0.310 N 
ATOM     10  N   UNL d   1      -7.975  -6.128  -2.211  0.00  0.00    -0.310 N 
ATOM     11  C   UNL d   1      -7.933  -4.561  -0.316  0.00  0.00     0.035 A 
ATOM     12  S   UNL d   1      -7.245  -6.152  -3.705  0.00  0.00     0.068 SA
ATOM     13  HN  UNL d   1      -8.609  -6.829  -1.827  1.00  0.00     0.176 HD
ATOM     14  C   UNL d   1      -7.374  -3.331   0.105  0.00  0.00     0.032 A 
ATOM     15  HN  UNL d   1      -5.770  -4.364  -4.379  1.00  0.00     0.176 HD
ENDBRANCH   2   5
BRANCH   1  16
ATOM     16  C   UNL d   1      -4.691   0.742   0.238  0.00  0.00     0.107 C 
ATOM     17  C   UNL d   1      -5.781   1.818   0.326  0.00  0.00     0.057 C 
ATOM     18  C   UNL d   1      -6.064   2.239   1.744  0.00  0.00    -0.024 A 
ATOM     19  C   UNL d   1      -6.597   3.499   2.046  0.00  0.00     0.010 A 
ATOM     20  C   UNL d   1      -5.822   1.344   2.790  0.00  0.00     0.075 A 
ATOM     21  C   UNL d   1      -6.878   3.844   3.372  0.00  0.00     0.001 A 
ATOM     22  C   UNL d   1      -6.661   2.924   4.399  0.00  0.00     0.003 A 
ATOM     23  C   UNL d   1      -6.141   1.664   4.106  0.00  0.00     0.037 A 
ATOM     24  O   UNL d   1      -5.243   0.125   2.542  0.00  0.00    -0.350 OA
ATOM     25  C   UNL d   1      -4.175   0.292   1.599  0.00  0.00     0.190 C 
ENDBRANCH   1  16
TORSDOF 2
