REMARK  4 active torsions:
REMARK  status: ('A' for Active; 'I' for Inactive)
REMARK    1  A    between atoms: C_7  and  C_2 
REMARK    2  A    between atoms: C_6  and  N_3 
REMARK    3  A    between atoms: N_10  and  C_6 
REMARK    4  A    between atoms: C_13  and  N_10 
ROOT
ATOM      1  C   UNL d   1       1.037  -0.777   0.197  0.00  0.00     0.049 A 
ATOM      2  C   UNL d   1       2.458  -1.290   0.225  0.00  0.00     0.244 C 
ATOM      3  N   UNL d   1       3.331  -0.158  -0.258  0.00  0.00    -0.339 N 
ATOM      4  C   UNL d   1       0.633   0.539   0.077  0.00  0.00    -0.019 A 
ATOM      5  N   UNL d   1      -0.084  -1.561   0.254  0.00  0.00    -0.356 N 
ATOM      6  C   UNL d   1      -0.788   0.557   0.055  0.00  0.00    -0.001 A 
ATOM      7  C   UNL d   1      -1.209  -0.771   0.167  0.00  0.00     0.043 A 
ATOM      8  C   UNL d   1       3.024   1.171   0.329  0.00  0.00     0.131 C 
ATOM      9  C   UNL d   1       1.612   1.653  -0.066  0.00  0.00     0.061 C 
ATOM     10  C   UNL d   1      -1.763   1.566  -0.062  0.00  0.00     0.014 A 
ATOM     11  C   UNL d   1      -2.563  -1.135   0.169  0.00  0.00     0.030 A 
ATOM     12  C   UNL d   1      -3.119   1.217  -0.062  0.00  0.00     0.001 A 
ATOM     13  C   UNL d   1      -3.510  -0.111   0.052  0.00  0.00     0.002 A 
ATOM     14  H   UNL d   1      -0.106  -2.567   0.345  0.00  0.00     0.166 HD
ENDROOT
BRANCH   3  15
ATOM     15  C   UNL d   1       4.590  -0.447  -0.740  0.00  0.00     0.175 C 
ATOM     16  S   UNL d   1       6.020   0.135  -0.083  0.00  0.00    -0.041 SA
BRANCH  15  17
ATOM     17  N   UNL d   1       4.716  -1.293  -1.806  0.00  0.00    -0.333 N 
ATOM     18  H   UNL d   1       5.680  -1.586  -1.945  0.00  0.00     0.168 HD
BRANCH  17  19
ATOM     19  C   UNL d   1       3.817  -1.662  -2.831  0.00  0.00     0.037 A 
ATOM     20  C   UNL d   1       2.558  -1.089  -3.019  0.00  0.00     0.053 A 
ATOM     21  C   UNL d   1       1.691  -1.589  -3.992  0.00  0.00     0.037 A 
ATOM     22 CL   UNL d   1       0.106  -0.935  -4.133  0.00  0.00    -0.084 Cl
ATOM     23  C   UNL d   1       2.087  -2.622  -4.832  0.00  0.00     0.048 A 
ATOM     24  C   UNL d   1       3.373  -3.136  -4.705  0.00  0.00     0.037 A 
ATOM     25  C   UNL d   1       4.238  -2.661  -3.716  0.00  0.00     0.053 A 
ATOM     26 CL   UNL d   1       3.898  -4.388  -5.762  0.00  0.00    -0.084 Cl
ENDBRANCH  17  19
ENDBRANCH  15  17
ENDBRANCH   3  15
BRANCH   2  27
ATOM     27  C   UNL d   1       2.874  -1.914   1.594  0.00  0.00     0.413 C 
ATOM     28  F   UNL d   1       1.830  -2.038   2.448  0.00  0.00    -0.168 F 
ATOM     29  F   UNL d   1       3.362  -3.168   1.404  0.00  0.00    -0.168 F 
ATOM     30  F   UNL d   1       3.829  -1.206   2.236  0.00  0.00    -0.168 F 
ENDBRANCH   2  27
TORSDOF 4
