REMARK  7 active torsions:
REMARK  status: ('A' for Active; 'I' for Inactive)
REMARK    1  A    between atoms: N_10  and  S_1 
REMARK    2  A    between atoms: C_16  and  S_1 
REMARK    3  A    between atoms: C_8  and  C_2 
REMARK    4  A    between atoms: C_5  and  C_11 
REMARK    5  A    between atoms: C_7  and  C_15 
REMARK    6  A    between atoms: C_15  and  N_10 
REMARK    7  A    between atoms: C_21  and  C_16 
ROOT
ATOM      1  S   UNL d   1       1.026   0.066   0.030  0.00  0.00     0.213 S 
ATOM      2  O   UNL d   1       0.521  -1.294   0.049  0.00  0.00    -0.211 OA
ATOM      3  O   UNL d   1       0.582   1.045   0.997  0.00  0.00    -0.211 OA
ENDROOT
BRANCH   1   4
ATOM      4  N   UNL d   1       0.650   0.692  -1.494  0.00  0.00    -0.214 NA
ATOM      5  H   UNL d   1       1.370   0.629  -2.215  0.00  0.00     0.140 HD
BRANCH   4   6
ATOM      6  C   UNL d   1      -0.654   0.237  -2.010  0.00  0.00     0.161 C 
BRANCH   6   7
ATOM      7  C   UNL d   1      -0.959   0.904  -3.321  0.00  0.00     0.030 A 
ATOM      8  N   UNL d   1       0.063   1.295  -4.195  0.00  0.00    -0.351 N 
ATOM      9  C   UNL d   1      -0.452   1.858  -5.278  0.00  0.00     0.091 A 
ATOM     10  HN  UNL d   1       1.060   1.165  -4.022  1.00  0.00     0.166 HD
ATOM     11  S   UNL d   1      -2.177   1.883  -5.325  0.00  0.00    -0.081 SA
ATOM     12  C   UNL d   1      -2.236   1.134  -3.797  0.00  0.00     0.078 A 
BRANCH   9  13
ATOM     13  C   UNL d   1       0.371   2.404  -6.339  0.00  0.00     0.038 A 
ATOM     14  S   UNL d   1      -0.276   3.221  -7.712  0.00  0.00    -0.099 SA
ATOM     15  C   UNL d   1       1.269   3.524  -8.368  0.00  0.00     0.050 A 
ATOM     16  C   UNL d   1       2.271   3.014  -7.576  0.00  0.00     0.008 A 
ATOM     17  C   UNL d   1       1.754   2.369  -6.412  0.00  0.00     0.022 A 
ENDBRANCH   9  13
ENDBRANCH   6   7
ENDBRANCH   4   6
ENDBRANCH   1   4
BRANCH   1  18
ATOM     18  C   UNL d   1       2.819   0.012  -0.016  0.00  0.00     0.195 C 
BRANCH  18  19
ATOM     19  C   UNL d   1       3.345  -0.583   1.268  0.00  0.00    -0.042 A 
ATOM     20  C   UNL d   1       3.530  -1.971   1.394  0.00  0.00     0.024 A 
ATOM     21  C   UNL d   1       4.049  -2.532   2.574  0.00  0.00     0.048 A 
ATOM     22  C   UNL d   1       4.380  -1.683   3.639  0.00  0.00     0.016 A 
ATOM     23  C   UNL d   1       4.183  -0.306   3.532  0.00  0.00     0.001 A 
ATOM     24  C   UNL d   1       3.666   0.240   2.356  0.00  0.00     0.008 A 
BRANCH  21  25
ATOM     25  C   UNL d   1       4.259  -4.022   2.705  0.00  0.00     0.417 C 
ATOM     26  F   UNL d   1       3.884  -4.726   1.601  0.00  0.00    -0.166 F 
ATOM     27  F   UNL d   1       5.566  -4.343   2.920  0.00  0.00    -0.166 F 
ATOM     28  F   UNL d   1       3.568  -4.561   3.747  0.00  0.00    -0.166 F 
ENDBRANCH  21  25
ENDBRANCH  18  19
ENDBRANCH   1  18
TORSDOF 7
