REMARK  5 active torsions:
REMARK  status: ('A' for Active; 'I' for Inactive)
REMARK    1  A    between atoms: C_8  and  C_3 
REMARK    2  A    between atoms: C_12  and  C_7 
REMARK    3  A    between atoms: N_11  and  C_10 
REMARK    4  A    between atoms: C_17  and  N_11 
REMARK    5  A    between atoms: C_18  and  N_11 
ROOT
ATOM      1  N   UNL d   1       1.625  -3.721  -1.268  0.00  0.00    -0.331 N 
ATOM      2  HN  UNL d   1       0.944  -4.468  -1.400  1.00  0.00     0.168 HD
ATOM      3  C   UNL d   1       2.860  -3.679  -1.648  0.00  0.00     0.162 A 
ATOM      4  C   UNL d   1       1.459  -2.515  -0.644  0.00  0.00     0.111 A 
ATOM      5  O   UNL d   1       3.578  -2.574  -1.338  0.00  0.00    -0.256 OA
ATOM      6  C   UNL d   1       2.729  -1.740  -0.669  0.00  0.00     0.316 A 
ATOM      7  C   UNL d   1       0.335  -2.049  -0.094  0.00  0.00     0.047 C 
ATOM      8  O   UNL d   1       2.974  -0.642  -0.217  0.00  0.00    -0.257 OA
ENDROOT
BRANCH   7   9
ATOM      9  C   UNL d   1      -0.898  -2.837  -0.066  0.00  0.00    -0.034 A 
ATOM     10  C   UNL d   1      -1.111  -3.771   0.946  0.00  0.00     0.013 A 
ATOM     11  C   UNL d   1      -2.290  -4.528   0.977  0.00  0.00     0.030 A 
ATOM     12  C   UNL d   1      -3.300  -4.364   0.018  0.00  0.00     0.030 A 
ATOM     13  C   UNL d   1      -3.044  -3.441  -1.009  0.00  0.00     0.030 A 
ATOM     14  C   UNL d   1      -1.862  -2.688  -1.059  0.00  0.00     0.013 A 
BRANCH  12  15
ATOM     15  N   UNL d   1      -4.504  -5.052   0.108  0.00  0.00    -0.382 N 
BRANCH  15  16
ATOM     16  C   UNL d   1      -4.534  -6.456   0.527  0.00  0.00     0.118 C 
ATOM     17  C   UNL d   1      -5.029  -6.609   1.957  0.00  0.00     0.026 C 
ENDBRANCH  15  16
BRANCH  15  18
ATOM     18  C   UNL d   1      -5.751  -4.455  -0.378  0.00  0.00     0.118 C 
ATOM     19  C   UNL d   1      -6.143  -3.244   0.461  0.00  0.00     0.026 C 
ENDBRANCH  15  18
ENDBRANCH  12  15
ENDBRANCH   7   9
BRANCH   3  20
ATOM     20  C   UNL d   1       3.560  -4.717  -2.418  0.00  0.00     0.015 A 
ATOM     21  C   UNL d   1       2.844  -5.862  -2.794  0.00  0.00     0.016 A 
ATOM     22  C   UNL d   1       3.455  -6.845  -3.573  0.00  0.00     0.001 A 
ATOM     23  C   UNL d   1       4.780  -6.688  -3.974  0.00  0.00     0.000 A 
ATOM     24  C   UNL d   1       5.501  -5.557  -3.588  0.00  0.00     0.001 A 
ATOM     25  C   UNL d   1       4.894  -4.570  -2.808  0.00  0.00     0.016 A 
ENDBRANCH   3  20
TORSDOF 5
