REMARK  6 active torsions:
REMARK  status: ('A' for Active; 'I' for Inactive)
REMARK    1  A    between atoms: N_2  and  C_1 
REMARK    2  A    between atoms: N_11  and  C_1 
REMARK    3  A    between atoms: C_4  and  N_3 
REMARK    4  A    between atoms: O_14  and  C_10 
REMARK    5  A    between atoms: C_15  and  N_11 
REMARK    6  A    between atoms: C_12  and  C_15 
ROOT
ATOM      1  N   UNL d   1       0.818  -1.426  -0.349  0.00  0.00    -0.355 N 
ATOM      2  N   UNL d   1      -0.671  -3.787   0.350  0.00  0.00    -0.376 N 
ATOM      3  C   UNL d   1       1.299  -2.358   0.687  0.00  0.00     0.145 C 
ATOM      4  C   UNL d   1      -0.639  -1.490  -0.544  0.00  0.00     0.145 C 
ATOM      5  C   UNL d   1       0.806  -3.797   0.454  0.00  0.00     0.143 C 
ATOM      6  C   UNL d   1      -1.153  -2.928  -0.748  0.00  0.00     0.143 C 
ENDROOT
BRANCH   2   7
ATOM      7  C   UNL d   1      -1.343  -4.965   0.680  0.00  0.00     0.064 A 
ATOM      8  C   UNL d   1      -1.192  -5.586   1.945  0.00  0.00     0.094 A 
ATOM      9  C   UNL d   1      -1.877  -6.759   2.284  0.00  0.00     0.039 A 
ATOM     10  C   UNL d   1      -2.773  -7.325   1.386  0.00  0.00     0.003 A 
ATOM     11  C   UNL d   1      -2.963  -6.731   0.143  0.00  0.00     0.002 A 
ATOM     12  C   UNL d   1      -2.256  -5.571  -0.201  0.00  0.00     0.032 A 
BRANCH   8  13
ATOM     13  O   UNL d   1      -0.343  -5.101   2.914  0.00  0.00    -0.354 OA
ATOM     14  C   UNL d   1      -0.847  -3.905   3.508  0.00  0.00     0.210 C 
ENDBRANCH   8  13
ENDBRANCH   2   7
BRANCH   1  15
ATOM     15  C   UNL d   1       1.388  -0.142  -0.325  0.00  0.00     0.170 C 
ATOM     16  S   UNL d   1       1.141   0.983   0.888  0.00  0.00    -0.041 SA
BRANCH  15  17
ATOM     17  N   UNL d   1       2.167   0.028  -1.448  0.00  0.00    -0.364 N 
ATOM     18  H   UNL d   1       2.226  -0.793  -2.034  0.00  0.00     0.162 HD
BRANCH  17  19
ATOM     19  C   UNL d   1       3.130   1.081  -1.692  0.00  0.00     0.148 C 
BRANCH  19  20
ATOM     20  C   UNL d   1       4.480   0.523  -1.360  0.00  0.00    -0.018 C 
ATOM     21  C   UNL d   1       5.201   0.872  -0.284  0.00  0.00     0.008 C 
ENDBRANCH  19  20
ENDBRANCH  17  19
ENDBRANCH  15  17
ENDBRANCH   1  15
TORSDOF 6
