REMARK  1 active torsions:
REMARK  status: ('A' for Active; 'I' for Inactive)
REMARK       I    between atoms: C_3  and  N_4 
REMARK    1  A    between atoms: N_4  and  C_5 
ROOT
ATOM      1  C   UNL d   1       0.295  -0.308   0.012  0.00  0.00     0.042 A 
ATOM      2  C   UNL d   1      -0.525  -1.443   0.011  0.00  0.00     0.053 A 
ATOM      3  C   UNL d   1      -1.915  -1.325   0.001  0.00  0.00     0.036 A 
ATOM      4  C   UNL d   1      -0.260   0.979   0.003  0.00  0.00    -0.040 A 
ATOM      5  C   UNL d   1      -1.659   1.095  -0.009  0.00  0.00     0.011 A 
ATOM      6 CL   UNL d   1       2.005  -0.572   0.026  0.00  0.00    -0.084 Cl
ATOM      7  C   UNL d   1      -2.476  -0.044  -0.010  0.00  0.00     0.030 A 
ATOM      8  C   UNL d   1       0.558   2.239   0.006  0.00  0.00     0.050 C 
ENDROOT
BRANCH   3   9
ATOM      9  N   UNL d   1      -2.797  -2.431   0.001  0.00  0.00    -0.327 N 
ATOM     10  C   UNL d   1      -2.449  -3.771   0.013  0.00  0.00     0.218 C 
ATOM     11  O   UNL d   1      -1.314  -4.234   0.023  0.00  0.00    -0.274 OA
ATOM     12  C   UNL d   1      -3.633  -4.705   0.013  0.00  0.00     0.117 C 
ATOM     13  H   UNL d   1      -3.784  -2.211  -0.006  0.00  0.00     0.169 HD
ENDBRANCH   3   9
TORSDOF 1
