REMARK  4 active torsions:
REMARK  status: ('A' for Active; 'I' for Inactive)
REMARK    1  A    between atoms: N_8  and  C_1 
REMARK    2  A    between atoms: C_3  and  C_7 
REMARK    3  A    between atoms: C_11  and  CA_4 
REMARK       I    between atoms: C_7  and  N_8 
REMARK    4  A    between atoms: OXT_19  and  C_11 
ROOT
ATOM      1  C   UNL d   1       2.086  -3.215   0.069  0.00  0.00     0.134 A 
ATOM      2  CA  UNL d   1       2.707  -2.048  -0.362  0.00  0.00     0.139 A 
ATOM      3  N   UNL d   1       2.815  -4.116   0.808  0.00  0.00    -0.358 N 
ATOM      4  HN  UNL d   1       2.394  -4.986   1.133  1.00  0.00     0.165 HD
ATOM      5  N   UNL d   1       4.017  -1.728  -0.045  0.00  0.00    -0.357 N 
ATOM      6  HN  UNL d   1       4.448  -0.852  -0.343  1.00  0.00     0.165 HD
ATOM      7  C   UNL d   1       4.102  -3.821   1.096  0.00  0.00     0.105 A 
ATOM      8  C   UNL d   1       4.689  -2.645   0.684  0.00  0.00     0.105 A 
ENDROOT
BRANCH   1   9
ATOM      9  C   UNL d   1       0.633  -3.623  -0.065  0.00  0.00     0.276 C 
ATOM     10  N   UNL d   1      -0.308  -2.651  -0.334  0.00  0.00    -0.305 N 
ATOM     11  H   UNL d   1      -0.054  -1.784  -0.801  0.00  0.00     0.170 HD
ATOM     12  O   UNL d   1       0.357  -4.806   0.130  0.00  0.00    -0.266 OA
BRANCH  10  13
ATOM     13  C   UNL d   1      -1.670  -2.778  -0.101  0.00  0.00     0.148 A 
ATOM     14  C   UNL d   1      -2.627  -1.786  -0.420  0.00  0.00     0.088 A 
ATOM     15  C   UNL d   1      -3.816  -2.243   0.077  0.00  0.00     0.093 A 
ATOM     16 BR   UNL d   1      -2.301  -0.156  -1.280  0.00  0.00    -0.044 Br
ATOM     17  C   UNL d   1      -5.183  -1.703   0.156  0.00  0.00     0.080 C 
ATOM     18  O   UNL d   1      -3.606  -3.468   0.627  0.00  0.00    -0.240 OA
ATOM     19  N   UNL d   1      -2.267  -3.799   0.524  0.00  0.00    -0.243 N 
ATOM     20  HN  UNL d   1      -1.822  -4.654   0.858  1.00  0.00     0.196 HD
ENDBRANCH  10  13
ENDBRANCH   1   9
BRANCH   2  21
ATOM     21  C   UNL d   1       2.080  -1.002  -1.211  0.00  0.00     0.196 C 
ATOM     22  O   UNL d   1       1.021  -1.104  -1.798  0.00  0.00    -0.645 OA
BRANCH  21  23
ATOM     23  OXT UNL d   1       2.828   0.128  -1.218  0.00  0.00    -0.772 OA
ATOM     24  HXT UNL d   1       3.666  -0.026  -0.720  0.00  0.00     0.167 HD
ENDBRANCH  21  23
ENDBRANCH   2  21
TORSDOF 4
