REMARK  5 active torsions:
REMARK  status: ('A' for Active; 'I' for Inactive)
REMARK    1  A    between atoms: C_9  and  N_1 
REMARK    2  A    between atoms: N_2  and  C_10 
REMARK    3  A    between atoms: C_11  and  C_3 
REMARK    4  A    between atoms: C_12  and  C_4 
REMARK    5  A    between atoms: C_10  and  C_9 
ROOT
ATOM      1  C   UNL d   1      -1.386  -2.252   0.178  0.00  0.00     0.147 C 
ENDROOT
BRANCH   1   2
ATOM      2  N   UNL d   1      -0.390  -1.222  -0.160  0.00  0.00    -0.332 N 
ATOM      3  C   UNL d   1      -0.211  -0.033   0.654  0.00  0.00     0.184 C 
ATOM      4  S   UNL d   1       0.827   1.102  -0.298  0.00  0.00    -0.129 SA
ATOM      5  C   UNL d   1       1.371  -0.179  -1.442  0.00  0.00     0.179 C 
ATOM      6  C   UNL d   1       0.415  -1.336  -1.286  0.00  0.00     0.230 C 
ATOM      7  O   UNL d   1       0.402  -2.282  -2.062  0.00  0.00    -0.273 OA
BRANCH   3   8
ATOM      8  C   UNL d   1      -1.491   0.614   1.114  0.00  0.00    -0.010 A 
ATOM      9  C   UNL d   1      -1.707   0.826   2.475  0.00  0.00     0.097 A 
ATOM     10  N   UNL d   1      -2.853   1.311   3.002  0.00  0.00    -0.375 N 
ATOM     11  C   UNL d   1      -3.835   1.625   2.131  0.00  0.00     0.087 A 
ATOM     12  HN  UNL d   1      -2.969   1.434   4.008  1.00  0.00     0.164 HD
ATOM     13  C   UNL d   1      -3.716   1.492   0.758  0.00  0.00     0.018 A 
ATOM     14  C   UNL d   1      -2.526   0.982   0.244  0.00  0.00     0.013 A 
ENDBRANCH   3   8
ENDBRANCH   1   2
BRANCH   1  15
ATOM     15  C   UNL d   1      -0.780  -3.659   0.340  0.00  0.00     0.147 C 
BRANCH  15  16
ATOM     16  N   UNL d   1      -1.705  -4.764   0.627  0.00  0.00    -0.332 N 
ATOM     17  C   UNL d   1      -1.276  -5.879   1.461  0.00  0.00     0.184 C 
ATOM     18  S   UNL d   1      -2.349  -7.283   1.090  0.00  0.00    -0.129 SA
ATOM     19  C   UNL d   1      -3.538  -6.280   0.185  0.00  0.00     0.179 C 
ATOM     20  C   UNL d   1      -2.872  -4.957  -0.102  0.00  0.00     0.230 C 
ATOM     21  O   UNL d   1      -3.349  -4.149  -0.889  0.00  0.00    -0.273 OA
BRANCH  17  22
ATOM     22  C   UNL d   1       0.185  -6.236   1.354  0.00  0.00    -0.010 A 
ATOM     23  C   UNL d   1       0.982  -6.247   2.496  0.00  0.00     0.097 A 
ATOM     24  N   UNL d   1       2.318  -6.448   2.496  0.00  0.00    -0.375 N 
ATOM     25  C   UNL d   1       2.898  -6.673   1.298  0.00  0.00     0.087 A 
ATOM     26  HN  UNL d   1       2.862  -6.431   3.359  1.00  0.00     0.164 HD
ATOM     27  C   UNL d   1       2.200  -6.718   0.104  0.00  0.00     0.018 A 
ATOM     28  C   UNL d   1       0.824  -6.505   0.134  0.00  0.00     0.013 A 
ENDBRANCH  17  22
ENDBRANCH  15  16
ENDBRANCH   1  15
TORSDOF 5
