REMARK  5 active torsions:
REMARK  status: ('A' for Active; 'I' for Inactive)
REMARK    1  A    between atoms: N_11  and  N_1 
REMARK    2  A    between atoms: C_18  and  C_2 
REMARK    3  A    between atoms: C_6  and  C_15 
REMARK    4  A    between atoms: C_19  and  N_7 
REMARK    5  A    between atoms: C_17  and  C_10 
ROOT
ATOM      1  N   UNL d   1       4.628  -5.144  -0.630  0.00  0.00    -0.292 N 
ATOM      2  HN  UNL d   1       5.086  -5.900  -1.139  1.00  0.00     0.187 HD
ATOM      3  C   UNL d   1       3.148  -3.530  -0.001  0.00  0.00     0.027 A 
ATOM      4  N   UNL d   1       5.144  -4.416   0.390  0.00  0.00    -0.266 N 
ATOM      5  C   UNL d   1       3.391  -4.666  -0.833  0.00  0.00     0.072 A 
ATOM      6  C   UNL d   1       4.275  -3.427   0.786  0.00  0.00     0.132 A 
ENDROOT
BRANCH   3   7
ATOM      7  C   UNL d   1       2.009  -2.643   0.082  0.00  0.00     0.123 C 
ATOM      8  N   UNL d   1       1.306  -2.478  -0.983  0.00  0.00    -0.300 N 
ATOM      9  HN  UNL d   1       1.611  -2.910  -1.856  1.00  0.00     0.186 HD
BRANCH   8  10
ATOM     10  N   UNL d   1       0.168  -1.741  -0.969  0.00  0.00    -0.211 N 
ATOM     11  C   UNL d   1      -0.371  -1.155  -2.091  0.00  0.00     0.154 A 
ATOM     12  N   UNL d   1      -1.497  -0.532  -1.870  0.00  0.00    -0.281 N 
ATOM     13  N   UNL d   1      -1.762  -0.750  -0.546  0.00  0.00    -0.273 N 
ATOM     14  HN  UNL d   1      -2.056   0.000  -2.538  1.00  0.00     0.188 HD
ATOM     15  C   UNL d   1      -0.780  -1.559   0.026  0.00  0.00     0.214 A 
ATOM     16  H   UNL d   1      -2.633  -0.462  -0.119  0.00  0.00     0.189 HD
ATOM     17  S   UNL d   1      -0.916  -2.157   1.570  0.00  0.00    -0.037 SA
BRANCH  11  18
ATOM     18  C   UNL d   1       0.263  -1.192  -3.431  0.00  0.00     0.014 A 
ATOM     19  C   UNL d   1       0.995  -2.285  -3.892  0.00  0.00     0.032 A 
ATOM     20  C   UNL d   1       1.527  -2.226  -5.168  0.00  0.00     0.088 A 
ATOM     21  N   UNL d   1       1.372  -1.178  -5.998  0.00  0.00    -0.375 N 
ATOM     22  C   UNL d   1       0.635  -0.141  -5.537  0.00  0.00     0.088 A 
ATOM     23  HN  UNL d   1       1.790  -1.166  -6.929  1.00  0.00     0.164 HD
ATOM     24  C   UNL d   1       0.061  -0.104  -4.279  0.00  0.00     0.032 A 
ENDBRANCH  11  18
ENDBRANCH   8  10
ENDBRANCH   3   7
BRANCH   5  25
ATOM     25  C   UNL d   1       2.482  -5.327  -1.781  0.00  0.00    -0.007 A 
ATOM     26  C   UNL d   1       1.099  -5.373  -1.538  0.00  0.00     0.015 A 
ATOM     27  C   UNL d   1       0.219  -5.932  -2.464  0.00  0.00     0.024 A 
ATOM     28  C   UNL d   1       0.724  -6.516  -3.622  0.00  0.00     0.034 A 
ATOM     29  C   UNL d   1       2.094  -6.531  -3.861  0.00  0.00     0.024 A 
ATOM     30 CL   UNL d   1      -0.359  -7.224  -4.754  0.00  0.00    -0.084 Cl
ATOM     31  C   UNL d   1       2.974  -5.931  -2.948  0.00  0.00     0.015 A 
ENDBRANCH   5  25
BRANCH   4  32
ATOM     32  C   UNL d   1       6.423  -4.722   0.940  0.00  0.00     0.056 A 
ATOM     33  C   UNL d   1       6.925  -4.016   2.043  0.00  0.00     0.031 A 
ATOM     34  C   UNL d   1       8.166  -4.356   2.587  0.00  0.00     0.002 A 
ATOM     35  C   UNL d   1       8.916  -5.392   2.033  0.00  0.00     0.000 A 
ATOM     36  C   UNL d   1       8.428  -6.092   0.931  0.00  0.00     0.002 A 
ATOM     37  C   UNL d   1       7.185  -5.761   0.385  0.00  0.00     0.031 A 
ENDBRANCH   4  32
TORSDOF 5
