REMARK  4 active torsions:
REMARK  status: ('A' for Active; 'I' for Inactive)
REMARK    1  A    between atoms: S_13  and  C_3 
REMARK    2  A    between atoms: C_14  and  C_9 
REMARK    3  A    between atoms: C_17  and  S_13 
REMARK    4  A    between atoms: C_16  and  C_17 
ROOT
ATOM      1  N   UNL d   1       0.274  -0.758  -0.002  0.00  0.00    -0.079 N 
ATOM      2  C   UNL d   1       0.227   0.643  -0.047  0.00  0.00     0.706 A 
ATOM      3  C   UNL d   1      -0.907  -1.513   0.005  0.00  0.00     0.113 A 
ATOM      4  N   UNL d   1      -0.953   1.324  -0.052  0.00  0.00    -0.189 N 
ATOM      5  HN  UNL d   1      -0.978   2.344  -0.081  1.00  0.00     0.184 HD
ATOM      6  C   UNL d   1      -2.092  -0.878  -0.029  0.00  0.00     0.070 A 
ATOM      7  N   UNL d   1       1.453   1.118  -0.066  0.00  0.00    -0.185 N 
ATOM      8  HN  UNL d   1       1.751   2.093  -0.104  1.00  0.00     0.185 HD
ATOM      9  C   UNL d   1      -2.048   0.620  -0.017  0.00  0.00     0.062 A 
ATOM     10  N   UNL d   1       1.579  -1.157   0.027  0.00  0.00    -0.274 N 
ATOM     11  HN  UNL d   1       1.959  -2.102   0.076  1.00  0.00     0.189 HD
ATOM     12  C   UNL d   1       2.227   0.005  -0.025  0.00  0.00     0.215 A 
ENDROOT
BRANCH   9  13
ATOM     13  C   UNL d   1      -3.360   1.335   0.024  0.00  0.00    -0.009 A 
ATOM     14  C   UNL d   1      -4.480   0.800   0.674  0.00  0.00     0.014 A 
ATOM     15  C   UNL d   1      -5.677   1.521   0.718  0.00  0.00     0.001 A 
ATOM     16  C   UNL d   1      -5.760   2.780   0.125  0.00  0.00     0.000 A 
ATOM     17  C   UNL d   1      -4.646   3.325  -0.511  0.00  0.00     0.001 A 
ATOM     18  C   UNL d   1      -3.449   2.607  -0.559  0.00  0.00     0.014 A 
ENDBRANCH   9  13
BRANCH   3  19
ATOM     19  S   UNL d   1      -0.864  -3.255   0.002  0.00  0.00    -0.102 SA
BRANCH  19  20
ATOM     20  C   UNL d   1       0.040  -3.618   1.536  0.00  0.00     0.158 C 
BRANCH  20  21
ATOM     21  C   UNL d   1      -0.672  -3.147   2.795  0.00  0.00     0.132 C 
ATOM     22  O   UNL d   1      -1.734  -2.525   2.801  0.00  0.00    -0.298 OA
ATOM     23  C   UNL d   1       0.019  -3.486   4.093  0.00  0.00     0.091 C 
ENDBRANCH  20  21
ENDBRANCH  19  20
ENDBRANCH   3  19
TORSDOF 4
