REMARK  3 active torsions:
REMARK  status: ('A' for Active; 'I' for Inactive)
REMARK    1  A    between atoms: C_3  and  C_1 
REMARK       I    between atoms: N_11  and  C_3 
REMARK    2  A    between atoms: C_10  and  C_14 
REMARK    3  A    between atoms: C_18  and  N_11 
ROOT
ATOM      1  C   UNL d   1      -1.381  -3.034   0.598  0.00  0.00     0.258 C 
ATOM      2  N   UNL d   1      -0.220  -3.604   0.106  0.00  0.00    -0.323 N 
ATOM      3  O   UNL d   1      -1.444  -2.045   1.328  0.00  0.00    -0.267 OA
ATOM      4  H   UNL d   1      -0.323  -4.395  -0.524  0.00  0.00     0.169 HD
ENDROOT
BRANCH   1   5
ATOM      5  C   UNL d   1      -2.674  -3.612   0.174  0.00  0.00     0.061 A 
ATOM      6  C   UNL d   1      -2.829  -4.816  -0.557  0.00  0.00     0.082 A 
ATOM      7  N   UNL d   1      -1.862  -5.649  -0.989  0.00  0.00    -0.310 N 
ATOM      8  C   UNL d   1      -4.216  -5.290  -0.947  0.00  0.00     0.068 A 
ATOM      9  S   UNL d   1      -2.624  -6.907  -1.765  0.00  0.00     0.068 SA
ATOM     10  HN  UNL d   1      -0.856  -5.530  -0.865  1.00  0.00     0.176 HD
ATOM     11  N   UNL d   1      -4.209  -6.445  -1.627  0.00  0.00    -0.310 N 
ATOM     12  HN  UNL d   1      -5.022  -6.944  -1.989  1.00  0.00     0.176 HD
ATOM     13  C   UNL d   1      -5.373  -4.548  -0.604  0.00  0.00     0.032 A 
ATOM     14  C   UNL d   1      -5.162  -3.366   0.118  0.00  0.00     0.003 A 
ATOM     15  C   UNL d   1      -3.876  -2.923   0.491  0.00  0.00     0.019 A 
ENDBRANCH   1   5
BRANCH   2  16
ATOM     16  C   UNL d   1       1.089  -3.081   0.266  0.00  0.00     0.035 A 
ATOM     17  C   UNL d   1       1.393  -2.035   1.143  0.00  0.00     0.042 A 
ATOM     18  C   UNL d   1       2.660  -1.425   1.171  0.00  0.00    -0.017 A 
ATOM     19  C   UNL d   1       3.656  -1.944   0.335  0.00  0.00     0.013 A 
ATOM     20  C   UNL d   1       3.387  -3.031  -0.501  0.00  0.00     0.003 A 
ATOM     21  C   UNL d   1       2.108  -3.596  -0.537  0.00  0.00     0.029 A 
BRANCH  18  22
ATOM     22  C   UNL d   1       2.861  -0.215   1.993  0.00  0.00     0.015 A 
ATOM     23  S   UNL d   1       4.393   0.180   2.664  0.00  0.00    -0.101 SA
ATOM     24  C   UNL d   1       3.812   1.645   3.326  0.00  0.00     0.050 A 
ATOM     25  C   UNL d   1       2.470   1.824   3.087  0.00  0.00     0.008 A 
ATOM     26  C   UNL d   1       1.921   0.747   2.334  0.00  0.00     0.020 A 
ENDBRANCH  18  22
ENDBRANCH   2  16
TORSDOF 3
