REMARK  2 active torsions:
REMARK  status: ('A' for Active; 'I' for Inactive)
REMARK    1  A    between atoms: N_4  and  C_2 
REMARK    2  A    between atoms: C_7  and  N_4 
ROOT
ATOM      1  N   UNL d   1      -2.938  -1.498  -0.557  0.00  0.00    -0.263 NA
ATOM      2  H   UNL d   1      -3.490  -2.349  -0.432  0.00  0.00     0.133 HD
ENDROOT
BRANCH   1   3
ATOM      3  C   UNL d   1      -1.568  -1.773  -0.565  0.00  0.00    -0.002 C 
ATOM      4  C   UNL d   1      -0.669  -0.893  -0.080  0.00  0.00     0.036 C 
ATOM      5  C   UNL d   1       0.813  -1.004  -0.087  0.00  0.00     0.290 C 
ATOM      6  C   UNL d   1      -0.959   0.442   0.517  0.00  0.00     0.073 C 
ATOM      7  O   UNL d   1       1.319   0.256   0.052  0.00  0.00    -0.317 OA
ATOM      8  O   UNL d   1       1.483  -2.015  -0.170  0.00  0.00    -0.260 OA
ATOM      9  C   UNL d   1       0.246   1.200   0.032  0.00  0.00     0.184 C 
ATOM     10  C   UNL d   1      -1.205  -3.128  -1.133  0.00  0.00     0.062 C 
ENDBRANCH   1   3
BRANCH   1  11
ATOM     11  C   UNL d   1      -3.581  -0.720  -1.562  0.00  0.00     0.012 A 
ATOM     12  C   UNL d   1      -2.901  -0.145  -2.647  0.00  0.00     0.027 A 
ATOM     13  C   UNL d   1      -3.588   0.619  -3.595  0.00  0.00     0.044 A 
ATOM     14  C   UNL d   1      -4.952   0.829  -3.450  0.00  0.00     0.116 A 
ATOM     15  C   UNL d   1      -5.643   0.294  -2.371  0.00  0.00     0.044 A 
ATOM     16  F   UNL d   1      -5.610   1.559  -4.359  0.00  0.00    -0.206 F 
ATOM     17  C   UNL d   1      -4.958  -0.476  -1.429  0.00  0.00     0.027 A 
ENDBRANCH   1  11
TORSDOF 2
