REMARK  3 active torsions:
REMARK  status: ('A' for Active; 'I' for Inactive)
REMARK    1  A    between atoms: C_7  and  C_11 
REMARK    2  A    between atoms: C_14  and  C_10 
REMARK    3  A    between atoms: C_19  and  N_12 
ROOT
ATOM      1  C   UNL d   1       1.999  -3.160   0.478  0.00  0.00     0.012 A 
ATOM      2  N   UNL d   1       3.972  -4.204   0.061  0.00  0.00    -0.292 N 
ATOM      3  HN  UNL d   1       4.691  -4.806  -0.340  1.00  0.00     0.187 HD
ATOM      4  C   UNL d   1       2.714  -4.033  -0.378  0.00  0.00     0.077 A 
ATOM      5  N   UNL d   1       4.081  -3.404   1.156  0.00  0.00    -0.266 N 
ATOM      6  C   UNL d   1       2.874  -2.825   1.480  0.00  0.00     0.130 A 
ENDROOT
BRANCH   1   7
ATOM      7  C   UNL d   1       0.693  -2.612   0.363  0.00  0.00     0.038 C 
ATOM      8  C   UNL d   1       0.385  -1.455  -0.260  0.00  0.00     0.101 C 
ATOM      9  C   UNL d   1       1.402  -0.612  -0.924  0.00  0.00     0.267 C 
ATOM     10  C   UNL d   1      -1.026  -1.020  -0.234  0.00  0.00     0.267 C 
ATOM     11  N   UNL d   1       1.038   0.709  -1.089  0.00  0.00    -0.270 N 
ATOM     12  O   UNL d   1       2.480  -1.053  -1.307  0.00  0.00    -0.267 OA
ATOM     13  C   UNL d   1       2.055   1.633  -1.563  0.00  0.00     0.164 C 
ATOM     14  C   UNL d   1      -0.253   1.189  -0.997  0.00  0.00     0.333 C 
ATOM     15  N   UNL d   1      -1.242   0.288  -0.627  0.00  0.00    -0.270 N 
ATOM     16  O   UNL d   1      -0.521   2.367  -1.249  0.00  0.00    -0.246 OA
ATOM     17  C   UNL d   1      -2.602   0.800  -0.595  0.00  0.00     0.164 C 
ATOM     18  O   UNL d   1      -1.921  -1.780   0.131  0.00  0.00    -0.267 OA
ENDBRANCH   1   7
BRANCH   4  19
ATOM     19  C   UNL d   1       2.218  -4.697  -1.639  0.00  0.00     0.033 A 
ATOM     20  S   UNL d   1       0.634  -4.548  -2.275  0.00  0.00    -0.100 SA
ATOM     21  C   UNL d   1       0.991  -5.548  -3.610  0.00  0.00     0.050 A 
ATOM     22  C   UNL d   1       2.289  -6.004  -3.575  0.00  0.00     0.008 A 
ATOM     23  C   UNL d   1       2.997  -5.512  -2.437  0.00  0.00     0.021 A 
ENDBRANCH   4  19
BRANCH   5  24
ATOM     24  C   UNL d   1       5.323  -3.235   1.835  0.00  0.00     0.056 A 
ATOM     25  C   UNL d   1       5.406  -2.482   3.017  0.00  0.00     0.031 A 
ATOM     26  C   UNL d   1       6.628  -2.346   3.681  0.00  0.00     0.002 A 
ATOM     27  C   UNL d   1       7.774  -2.945   3.165  0.00  0.00     0.000 A 
ATOM     28  C   UNL d   1       7.705  -3.676   1.980  0.00  0.00     0.002 A 
ATOM     29  C   UNL d   1       6.484  -3.824   1.315  0.00  0.00     0.031 A 
ENDBRANCH   5  24
TORSDOF 3
