REMARK  5 active torsions:
REMARK  status: ('A' for Active; 'I' for Inactive)
REMARK    1  A    between atoms: C_4  and  C_1 
REMARK    2  A    between atoms: C_8  and  C_1 
REMARK    3  A    between atoms: O_6  and  N_2 
REMARK    4  A    between atoms: C_5  and  O_6 
REMARK    5  A    between atoms: C_9  and  C_5 
ROOT
ATOM      1  C   UNL d   1       0.989  -0.001  -0.042  0.00  0.00     0.057 C 
ATOM      2  N   UNL d   1       0.231  -1.043   0.169  0.00  0.00    -0.259 N 
ATOM      3  HN  UNL d   1      -0.784  -0.957   0.214  1.00  0.00     0.194 HD
ENDROOT
BRANCH   2   4
ATOM      4  O   UNL d   1       0.859  -2.277   0.331  0.00  0.00    -0.195 OA
BRANCH   4   5
ATOM      5  C   UNL d   1       0.187  -3.023   1.258  0.00  0.00     0.315 C 
ATOM      6  O   UNL d   1      -0.596  -2.620   2.107  0.00  0.00    -0.257 OA
BRANCH   5   7
ATOM      7  C   UNL d   1       0.545  -4.466   1.124  0.00  0.00     0.041 A 
ATOM      8  C   UNL d   1      -0.031  -5.372   2.029  0.00  0.00     0.019 A 
ATOM      9  C   UNL d   1       0.220  -6.743   1.922  0.00  0.00     0.025 A 
ATOM     10  C   UNL d   1       1.050  -7.215   0.907  0.00  0.00     0.034 A 
ATOM     11  C   UNL d   1       1.637  -6.328   0.007  0.00  0.00     0.025 A 
ATOM     12 CL   UNL d   1       1.342  -8.903   0.758  0.00  0.00    -0.084 Cl
ATOM     13  C   UNL d   1       1.385  -4.954   0.111  0.00  0.00     0.019 A 
ENDBRANCH   5   7
ENDBRANCH   4   5
ENDBRANCH   2   4
BRANCH   1  14
ATOM     14  C   UNL d   1       0.238   1.253  -0.335  0.00  0.00     0.030 A 
ATOM     15  S   UNL d   1      -1.497   1.236  -0.252  0.00  0.00    -0.100 SA
ATOM     16  C   UNL d   1      -1.634   2.877  -0.693  0.00  0.00     0.050 A 
ATOM     17  C   UNL d   1      -0.408   3.453  -0.902  0.00  0.00     0.008 A 
ATOM     18  C   UNL d   1       0.659   2.526  -0.700  0.00  0.00     0.021 A 
ENDBRANCH   1  14
BRANCH   1  19
ATOM     19  C   UNL d   1       2.566   0.027  -0.017  0.00  0.00    -0.005 C 
ATOM     20  C   UNL d   1       3.266  -1.296   0.365  0.00  0.00     0.021 C 
ATOM     21  C   UNL d   1       3.105   0.387  -1.416  0.00  0.00     0.021 C 
ATOM     22  C   UNL d   1       3.042   1.039   1.049  0.00  0.00     0.021 C 
ENDBRANCH   1  19
TORSDOF 5
