REMARK  6 active torsions:
REMARK  status: ('A' for Active; 'I' for Inactive)
REMARK    1  A    between atoms: C_2  and  N_1 
REMARK    2  A    between atoms: C_4  and  C_3 
REMARK    3  A    between atoms: N_5  and  C_6 
REMARK    4  A    between atoms: O_12  and  C_11 
REMARK    5  A    between atoms: C_14  and  O_12 
REMARK    6  A    between atoms: C_15  and  C_14 
ROOT
ATOM      1  C   UNL d   1       3.484  -3.997  -3.279  0.00  0.00     0.113 A 
ATOM      2  C   UNL d   1       2.538  -2.963  -3.273  0.00  0.00     0.001 A 
ATOM      3  C   UNL d   1       3.641  -4.849  -4.380  0.00  0.00     0.039 A 
ATOM      4  C   UNL d   1       1.716  -2.823  -4.403  0.00  0.00     0.050 A 
ATOM      5  C   UNL d   1       1.819  -3.706  -5.487  0.00  0.00     0.070 A 
ATOM      6  C   UNL d   1       2.804  -4.697  -5.485  0.00  0.00     0.039 A 
ENDROOT
BRANCH   5   7
ATOM      7  O   UNL d   1       0.902  -3.519  -6.489  0.00  0.00    -0.347 OA
BRANCH   7   8
ATOM      8  C   UNL d   1       0.619  -4.675  -7.284  0.00  0.00     0.214 C 
BRANCH   8   9
ATOM      9  C   UNL d   1      -0.662  -4.471  -8.056  0.00  0.00    -0.034 A 
ATOM     10  C   UNL d   1      -0.774  -3.431  -8.989  0.00  0.00     0.009 A 
ATOM     11  C   UNL d   1      -1.943  -3.272  -9.736  0.00  0.00     0.001 A 
ATOM     12  C   UNL d   1      -3.010  -4.151  -9.559  0.00  0.00     0.000 A 
ATOM     13  C   UNL d   1      -2.913  -5.185  -8.632  0.00  0.00     0.001 A 
ATOM     14  C   UNL d   1      -1.745  -5.346  -7.884  0.00  0.00     0.009 A 
ENDBRANCH   8   9
ENDBRANCH   7   8
ENDBRANCH   5   7
BRANCH   2  15
ATOM     15  C   UNL d   1       2.296  -2.084  -2.127  0.00  0.00     0.031 C 
ATOM     16  C   UNL d   1       2.872  -0.919  -1.811  0.00  0.00     0.086 C 
BRANCH  16  17
ATOM     17  N   UNL d   1       3.857  -0.139  -2.375  0.00  0.00    -0.390 N 
ATOM     18  C   UNL d   1       4.581  -0.360  -3.619  0.00  0.00     0.122 C 
ATOM     19  C   UNL d   1       5.885   0.399  -3.408  0.00  0.00     0.021 C 
ATOM     20  C   UNL d   1       5.493   1.594  -2.555  0.00  0.00     0.021 C 
ATOM     21  C   UNL d   1       4.239   1.159  -1.805  0.00  0.00     0.122 C 
ENDBRANCH  16  17
ENDBRANCH   2  15
BRANCH   1  22
ATOM     22  N   UNL d   1       4.307  -4.260  -2.112  0.00  0.00    -0.115 N 
ATOM     23  O   UNL d   1       3.724  -4.572  -1.064  0.00  0.00    -0.532 OA
ATOM     24  O   UNL d   1       5.536  -4.244  -2.276  0.00  0.00    -0.532 OA
ENDBRANCH   1  22
TORSDOF 6
