REMARK  3 active torsions:
REMARK  status: ('A' for Active; 'I' for Inactive)
REMARK    1  A    between atoms: N_7  and  C_1 
REMARK    2  A    between atoms: O_14  and  C_2 
REMARK    3  A    between atoms: C_15  and  N_9 
ROOT
ATOM      1  N   UNL d   1      -0.486  -2.733   0.144  0.00  0.00    -0.294 N 
ATOM      2  HN  UNL d   1      -1.417  -3.088  -0.072  1.00  0.00     0.187 HD
ATOM      3  N   UNL d   1       0.467  -3.457   0.504  0.00  0.00    -0.300 N 
ATOM      4  HN  UNL d   1       1.392  -3.093   0.729  1.00  0.00     0.187 HD
ENDROOT
BRANCH   1   5
ATOM      5  C   UNL d   1      -0.132  -1.376   0.071  0.00  0.00     0.124 A 
ATOM      6  C   UNL d   1       1.126  -0.816   0.021  0.00  0.00     0.187 A 
ATOM      7  N   UNL d   1       0.914   0.535  -0.022  0.00  0.00    -0.274 N 
ATOM      8  C   UNL d   1       1.917   1.573  -0.034  0.00  0.00     0.180 C 
ATOM      9  N   UNL d   1      -0.392   0.882  -0.041  0.00  0.00    -0.299 N 
ATOM     10  C   UNL d   1      -1.038  -0.295   0.013  0.00  0.00     0.054 A 
ATOM     11  HN  UNL d   1      -0.794   1.819  -0.085  1.00  0.00     0.187 HD
ATOM     12  C   UNL d   1      -2.521  -0.335   0.010  0.00  0.00     0.072 C 
BRANCH   6  13
ATOM     13  O   UNL d   1       2.346  -1.349   0.016  0.00  0.00    -0.343 OA
ATOM     14  H   UNL d   1       2.207  -2.316   0.053  0.00  0.00     0.219 HD
ENDBRANCH   6  13
ENDBRANCH   1   5
BRANCH   3  15
ATOM     15  C   UNL d   1       0.137  -4.823   0.566  0.00  0.00     0.049 A 
ATOM     16  C   UNL d   1      -0.625  -5.478  -0.411  0.00  0.00     0.056 A 
ATOM     17  C   UNL d   1      -0.835  -6.861  -0.343  0.00  0.00     0.058 A 
ATOM     18 CL   UNL d   1      -1.776  -7.591  -1.595  0.00  0.00    -0.082 Cl
ATOM     19  C   UNL d   1      -0.277  -7.604   0.703  0.00  0.00     0.055 A 
ATOM     20  C   UNL d   1       0.482  -6.959   1.681  0.00  0.00     0.028 A 
ATOM     21 CL   UNL d   1      -0.469  -9.316   0.834  0.00  0.00    -0.083 Cl
ATOM     22  C   UNL d   1       0.687  -5.579   1.609  0.00  0.00     0.033 A 
ENDBRANCH   3  15
TORSDOF 3
