REMARK  5 active torsions:
REMARK  status: ('A' for Active; 'I' for Inactive)
REMARK    1  A    between atoms: C_3  and  C_1 
REMARK    2  A    between atoms: C_5  and  C_3 
REMARK    3  A    between atoms: C_6  and  C_3 
REMARK    4  A    between atoms: N_11  and  C_7 
REMARK    5  A    between atoms: N_12  and  C_8 
ROOT
ATOM      1  C   UNL d   1      -3.779   1.439   0.038  0.00  0.00     0.084 C 
ENDROOT
BRANCH   1   2
ATOM      2  C   UNL d   1      -2.470   0.644   0.004  0.00  0.00    -0.043 A 
ATOM      3  C   UNL d   1      -1.512   0.745   1.029  0.00  0.00     0.033 A 
ATOM      4  C   UNL d   1      -0.310   0.030   0.970  0.00  0.00     0.056 A 
ATOM      5 CL   UNL d   1       0.821   0.255   2.257  0.00  0.00    -0.083 Cl
ATOM      6  C   UNL d   1      -0.056  -0.815  -0.113  0.00  0.00     0.055 A 
ATOM      7  C   UNL d   1      -1.003  -0.937  -1.130  0.00  0.00     0.026 A 
ATOM      8 CL   UNL d   1       1.405  -1.725  -0.258  0.00  0.00    -0.083 Cl
ATOM      9  C   UNL d   1      -2.198  -0.213  -1.076  0.00  0.00     0.010 A 
ENDBRANCH   1   2
BRANCH   1  10
ATOM     10  C   UNL d   1      -4.642   1.073   1.256  0.00  0.00    -0.045 A 
ATOM     11  C   UNL d   1      -4.511   1.742   2.477  0.00  0.00     0.010 A 
ATOM     12  C   UNL d   1      -5.403   1.496   3.531  0.00  0.00     0.030 A 
ATOM     13  C   UNL d   1      -6.457   0.574   3.422  0.00  0.00     0.029 A 
ATOM     14  C   UNL d   1      -6.530  -0.131   2.210  0.00  0.00     0.030 A 
ATOM     15  C   UNL d   1      -5.638   0.099   1.149  0.00  0.00     0.010 A 
BRANCH  13  16
ATOM     16  N   UNL d   1      -7.435   0.434   4.407  0.00  0.00    -0.390 N 
ATOM     17  C   UNL d   1      -8.004  -0.883   4.687  0.00  0.00     0.149 C 
ATOM     18  C   UNL d   1      -7.458   1.355   5.542  0.00  0.00     0.149 C 
ENDBRANCH  13  16
ENDBRANCH   1  10
BRANCH   1  19
ATOM     19  C   UNL d   1      -3.668   2.961  -0.165  0.00  0.00    -0.045 A 
ATOM     20  C   UNL d   1      -2.462   3.657  -0.284  0.00  0.00     0.010 A 
ATOM     21  C   UNL d   1      -2.439   5.062  -0.377  0.00  0.00     0.030 A 
ATOM     22  C   UNL d   1      -3.611   5.832  -0.368  0.00  0.00     0.029 A 
ATOM     23  C   UNL d   1      -4.814   5.116  -0.321  0.00  0.00     0.030 A 
ATOM     24  C   UNL d   1      -4.848   3.718  -0.223  0.00  0.00     0.010 A 
BRANCH  22  25
ATOM     25  N   UNL d   1      -3.614   7.222  -0.465  0.00  0.00    -0.390 N 
ATOM     26  C   UNL d   1      -4.557   7.978   0.363  0.00  0.00     0.149 C 
ATOM     27  C   UNL d   1      -2.392   7.946  -0.800  0.00  0.00     0.149 C 
ENDBRANCH  22  25
ENDBRANCH   1  19
TORSDOF 5
