REMARK  4 active torsions:
REMARK  status: ('A' for Active; 'I' for Inactive)
REMARK    1  A    between atoms: C_16  and  C_12 
REMARK    2  A    between atoms: O_21  and  C_13 
REMARK    3  A    between atoms: O_22  and  C_14 
REMARK    4  A    between atoms: O_23  and  C_15 
ROOT
ATOM      1  N   UNL d   1      -4.963   1.860   1.040  0.00  0.00    -0.196 N 
ATOM      2  C   UNL d   1      -6.025   1.166   1.569  0.00  0.00     0.177 A 
ATOM      3  N   UNL d   1      -7.053   1.670   2.155  0.00  0.00    -0.300 N 
ATOM      4  HN  UNL d   1      -7.814   1.101   2.528  1.00  0.00     0.171 HD
ATOM      5  N   UNL d   1      -4.878   3.233   1.074  0.00  0.00    -0.288 N 
ATOM      6  HN  UNL d   1      -4.091   3.739   0.670  1.00  0.00     0.187 HD
ATOM      7  C   UNL d   1      -3.959   1.119   0.436  0.00  0.00     0.285 A 
ATOM      8  C   UNL d   1      -4.310  -0.328   0.530  0.00  0.00     0.079 A 
ATOM      9  S   UNL d   1      -5.819  -0.547   1.337  0.00  0.00    -0.046 SA
ATOM     10  C   UNL d   1      -7.039   3.044   2.238  0.00  0.00     0.271 A 
ATOM     11  C   UNL d   1      -5.870   3.841   1.655  0.00  0.00     0.090 A 
ATOM     12  C   UNL d   1      -3.507  -1.266   0.015  0.00  0.00     0.036 C 
ATOM     13  O   UNL d   1      -2.945   1.532  -0.110  0.00  0.00    -0.265 OA
ATOM     14  O   UNL d   1      -7.936   3.680   2.768  0.00  0.00    -0.266 OA
ATOM     15  C   UNL d   1      -5.879   5.336   1.746  0.00  0.00     0.076 C 
ENDROOT
BRANCH  12  16
ATOM     16  C   UNL d   1      -3.776  -2.700   0.016  0.00  0.00    -0.029 A 
ATOM     17  C   UNL d   1      -4.489  -3.272  -1.030  0.00  0.00     0.051 A 
ATOM     18  C   UNL d   1      -4.720  -4.655  -1.077  0.00  0.00     0.105 A 
ATOM     19  C   UNL d   1      -4.241  -5.493  -0.032  0.00  0.00     0.135 A 
ATOM     20  C   UNL d   1      -3.544  -4.892   1.044  0.00  0.00     0.105 A 
ATOM     21  C   UNL d   1      -3.323  -3.506   1.049  0.00  0.00     0.051 A 
BRANCH  18  22
ATOM     22  O   UNL d   1      -5.470  -5.186  -2.101  0.00  0.00    -0.353 OA
ATOM     23  C   UNL d   1      -5.393  -4.527  -3.365  0.00  0.00     0.210 C 
ENDBRANCH  18  22
BRANCH  19  24
ATOM     24  O   UNL d   1      -4.384  -6.858   0.025  0.00  0.00    -0.351 OA
ATOM     25  C   UNL d   1      -4.939  -7.549  -1.087  0.00  0.00     0.210 C 
ENDBRANCH  19  24
BRANCH  20  26
ATOM     26  O   UNL d   1      -2.986  -5.446   2.165  0.00  0.00    -0.353 OA
ATOM     27  C   UNL d   1      -3.085  -6.829   2.442  0.00  0.00     0.210 C 
ENDBRANCH  20  26
ENDBRANCH  12  16
TORSDOF 4
