REMARK  4 active torsions:
REMARK  status: ('A' for Active; 'I' for Inactive)
REMARK    1  A    between atoms: C_4  and  C_1 
REMARK       I    between atoms: C_2  and  N_3 
REMARK       I    between atoms: N_6  and  C_2 
REMARK    2  A    between atoms: N_3  and  C_9 
REMARK    3  A    between atoms: C_5  and  N_6 
REMARK    4  A    between atoms: O_23  and  C_12 
ROOT
ATOM      1  C   UNL d   1      -0.613  -5.302  -2.783  0.00  0.00     0.326 C 
ATOM      2  N   UNL d   1      -0.742  -4.003  -3.191  0.00  0.00    -0.294 N 
ATOM      3  N   UNL d   1       0.452  -5.585  -1.981  0.00  0.00    -0.306 N 
ATOM      4  O   UNL d   1      -1.429  -6.117  -3.211  0.00  0.00    -0.247 OA
ATOM      5  H   UNL d   1      -1.512  -3.878  -3.834  0.00  0.00     0.172 HD
ATOM      6  H   UNL d   1       1.093  -4.813  -1.827  0.00  0.00     0.171 HD
ENDROOT
BRANCH   2   7
ATOM      7  C   UNL d   1       0.001  -2.881  -2.821  0.00  0.00     0.108 A 
ATOM      8  C   UNL d   1      -0.320  -1.666  -3.413  0.00  0.00     0.049 A 
ATOM      9  C   UNL d   1       0.395  -0.527  -3.043  0.00  0.00     0.021 A 
ATOM     10  C   UNL d   1       1.403  -0.621  -2.080  0.00  0.00     0.063 A 
ATOM     11  C   UNL d   1       1.655  -1.873  -1.547  0.00  0.00     0.106 A 
ATOM     12  N   UNL d   1       0.989  -2.998  -1.908  0.00  0.00    -0.351 N 
ATOM     13  HN  UNL d   1       1.227  -3.903  -1.504  1.00  0.00     0.166 HD
BRANCH  10  14
ATOM     14  C   UNL d   1       2.194   0.575  -1.648  0.00  0.00     0.418 C 
ATOM     15  F   UNL d   1       3.058   0.319  -0.628  0.00  0.00    -0.166 F 
ATOM     16  F   UNL d   1       1.403   1.597  -1.220  0.00  0.00    -0.166 F 
ATOM     17  F   UNL d   1       2.950   1.086  -2.658  0.00  0.00    -0.166 F 
ENDBRANCH  10  14
ENDBRANCH   2   7
BRANCH   3  18
ATOM     18  C   UNL d   1       0.820  -6.834  -1.440  0.00  0.00     0.071 A 
ATOM     19  C   UNL d   1      -0.101  -7.867  -1.257  0.00  0.00     0.056 A 
ATOM     20  C   UNL d   1       0.295  -9.053  -0.632  0.00  0.00     0.036 A 
ATOM     21 CL   UNL d   1      -0.859 -10.300  -0.356  0.00  0.00    -0.084 Cl
ATOM     22  C   UNL d   1       1.609  -9.227  -0.202  0.00  0.00     0.026 A 
ATOM     23  C   UNL d   1       2.539  -8.206  -0.395  0.00  0.00     0.041 A 
ATOM     24  C   UNL d   1       2.149  -7.020  -1.024  0.00  0.00     0.095 A 
BRANCH  24  25
ATOM     25  O   UNL d   1       3.120  -6.060  -1.171  0.00  0.00    -0.354 OA
ATOM     26  C   UNL d   1       3.428  -5.799  -2.543  0.00  0.00     0.210 C 
ENDBRANCH  24  25
ENDBRANCH   3  18
TORSDOF 4
