REMARK  7 active torsions:
REMARK  status: ('A' for Active; 'I' for Inactive)
REMARK    1  A    between atoms: C_6  and  C_1 
REMARK    2  A    between atoms: O_16  and  C_2 
REMARK    3  A    between atoms: C_12  and  C_6 
REMARK    4  A    between atoms: C_9  and  C_23 
REMARK       I    between atoms: N_14  and  C_9 
REMARK    5  A    between atoms: O_25  and  C_12 
REMARK    6  A    between atoms: C_17  and  N_14 
REMARK    7  A    between atoms: C_23  and  O_16 
ROOT
ATOM      1  O   UNL d   1       1.697  -2.426  -0.850  0.00  0.00    -0.326 OA
ENDROOT
BRANCH   1   2
ATOM      2  C   UNL d   1       0.583  -1.711  -1.250  0.00  0.00     0.152 A 
ATOM      3  C   UNL d   1       0.724  -0.819  -2.308  0.00  0.00     0.024 A 
ATOM      4  C   UNL d   1      -0.460  -0.195  -2.700  0.00  0.00     0.017 A 
ATOM      5  N   UNL d   1      -1.636  -0.408  -2.063  0.00  0.00    -0.355 N 
ATOM      6  C   UNL d   1      -0.556   0.774  -3.843  0.00  0.00     0.069 C 
ATOM      7  C   UNL d   1      -1.628  -1.262  -1.035  0.00  0.00     0.182 A 
ATOM      8  HN  UNL d   1      -2.492   0.064  -2.355  1.00  0.00     0.166 HD
ATOM      9  N   UNL d   1      -0.568  -1.937  -0.590  0.00  0.00    -0.333 N 
ATOM     10  HN  UNL d   1      -0.625  -2.582   0.198  1.00  0.00     0.168 HD
BRANCH   3  11
ATOM     11  C   UNL d   1       2.042  -0.639  -3.016  0.00  0.00     0.156 C 
BRANCH  11  12
ATOM     12  C   UNL d   1       2.637   0.752  -2.971  0.00  0.00     0.262 C 
ATOM     13  O   UNL d   1       2.089   1.762  -2.553  0.00  0.00    -0.265 OA
BRANCH  12  14
ATOM     14  O   UNL d   1       3.887   0.711  -3.525  0.00  0.00    -0.326 OA
ATOM     15  C   UNL d   1       4.584   1.960  -3.587  0.00  0.00     0.213 C 
ENDBRANCH  12  14
ENDBRANCH  11  12
ENDBRANCH   3  11
ENDBRANCH   1   2
BRANCH   1  16
ATOM     16  C   UNL d   1       1.357  -3.609  -0.115  0.00  0.00     0.280 C 
BRANCH  16  17
ATOM     17  C   UNL d   1       2.594  -4.499  -0.052  0.00  0.00     0.246 C 
ATOM     18  N   UNL d   1       3.464  -4.445   1.008  0.00  0.00    -0.325 N 
ATOM     19  H   UNL d   1       4.378  -4.799   0.744  0.00  0.00     0.169 HD
ATOM     20  O   UNL d   1       2.905  -5.212  -1.010  0.00  0.00    -0.271 OA
BRANCH  18  21
ATOM     21  C   UNL d   1       3.380  -3.650   2.154  0.00  0.00     0.037 A 
ATOM     22  C   UNL d   1       2.260  -3.665   2.988  0.00  0.00     0.069 A 
ATOM     23  C   UNL d   1       2.203  -2.806   4.084  0.00  0.00     0.104 A 
ATOM     24  O   UNL d   1       1.057  -2.845   4.837  0.00  0.00    -0.346 OA
ATOM     25  C   UNL d   1       3.276  -1.959   4.371  0.00  0.00     0.102 A 
ATOM     26  C   UNL d   1       0.914  -1.646   5.606  0.00  0.00     0.202 C 
ATOM     27  C   UNL d   1       2.209  -1.312   6.330  0.00  0.00     0.202 C 
ATOM     28  O   UNL d   1       3.276  -1.065   5.408  0.00  0.00    -0.346 OA
ATOM     29  C   UNL d   1       4.417  -1.987   3.572  0.00  0.00     0.042 A 
ATOM     30  C   UNL d   1       4.481  -2.853   2.481  0.00  0.00     0.032 A 
ENDBRANCH  18  21
ENDBRANCH  16  17
ENDBRANCH   1  16
TORSDOF 7
