REMARK  3 active torsions:
REMARK  status: ('A' for Active; 'I' for Inactive)
REMARK       I    between atoms: C_4  and  N_1 
REMARK    1  A    between atoms: C_3  and  C_2 
REMARK       I    between atoms: N_6  and  C_3 
REMARK       I    between atoms: C_5  and  N_7 
REMARK    2  A    between atoms: C_8  and  C_5 
REMARK    3  A    between atoms: N_7  and  N_6 
ROOT
ATOM      1  C   UNL d   1       2.592   0.830  -3.104  0.00  0.00     0.270 C 
ATOM      2  N   UNL d   1       1.790   0.125  -2.228  0.00  0.00    -0.263 N 
ATOM      3  O   UNL d   1       2.483   0.747  -4.321  0.00  0.00    -0.266 OA
ATOM      4  H   UNL d   1       1.754   0.303  -1.226  0.00  0.00     0.190 HD
ENDROOT
BRANCH   2   5
ATOM      5  N   UNL d   1       0.736  -0.650  -2.739  0.00  0.00    -0.265 N 
ATOM      6  C   UNL d   1      -0.079  -1.300  -1.825  0.00  0.00     0.269 C 
ATOM      7  O   UNL d   1       0.133  -1.182  -0.615  0.00  0.00    -0.269 OA
ATOM      8  H   UNL d   1       0.763  -0.885  -3.730  0.00  0.00     0.190 HD
BRANCH   6   9
ATOM      9  C   UNL d   1      -1.180  -2.224  -2.427  0.00  0.00     0.243 C 
ATOM     10  N   UNL d   1      -1.660  -1.774  -3.733  0.00  0.00    -0.330 N 
ATOM     11  C   UNL d   1      -1.205  -2.397  -4.874  0.00  0.00     0.217 C 
ATOM     12  C   UNL d   1      -2.782  -0.837  -3.669  0.00  0.00     0.138 C 
ATOM     13  O   UNL d   1      -0.339  -3.270  -4.826  0.00  0.00    -0.274 OA
ATOM     14  C   UNL d   1      -1.779  -1.976  -6.206  0.00  0.00     0.117 C 
ATOM     15  C   UNL d   1      -3.276  -0.677  -2.234  0.00  0.00     0.096 C 
ATOM     16  S   UNL d   1      -2.680  -2.150  -1.387  0.00  0.00    -0.133 SA
ENDBRANCH   6   9
ENDBRANCH   2   5
BRANCH   1  17
ATOM     17  C   UNL d   1       3.586   1.758  -2.482  0.00  0.00     0.036 A 
ATOM     18  C   UNL d   1       4.020   2.861  -3.235  0.00  0.00     0.057 A 
ATOM     19  C   UNL d   1       4.899   3.743  -2.639  0.00  0.00     0.106 A 
ATOM     20  O   UNL d   1       5.398   4.875  -3.206  0.00  0.00    -0.323 OA
ATOM     21  C   UNL d   1       5.362   3.555  -1.358  0.00  0.00     0.105 A 
ATOM     22  C   UNL d   1       6.197   5.397  -2.123  0.00  0.00     0.352 A 
ATOM     23  O   UNL d   1       6.206   4.544  -0.960  0.00  0.00    -0.323 OA
ATOM     24  C   UNL d   1       4.982   2.467  -0.603  0.00  0.00     0.041 A 
ATOM     25  C   UNL d   1       4.084   1.557  -1.174  0.00  0.00     0.020 A 
ENDBRANCH   1  17
TORSDOF 3
