REMARK  6 active torsions:
REMARK  status: ('A' for Active; 'I' for Inactive)
REMARK    1  A    between atoms: N_2  and  C_1 
REMARK    2  A    between atoms: N_8  and  C_1 
REMARK    3  A    between atoms: C_4  and  N_2 
REMARK    4  A    between atoms: C_5  and  N_2 
REMARK    5  A    between atoms: C_9  and  C_4 
REMARK    6  A    between atoms: C_10  and  C_5 
ROOT
ATOM      1  N   UNL d   1       0.368  -0.458   0.997  0.00  0.00    -0.350 N 
ENDROOT
BRANCH   1   2
ATOM      2  C   UNL d   1       1.234  -0.152  -0.070  0.00  0.00     0.170 C 
ATOM      3  S   UNL d   1       0.779  -0.178  -1.688  0.00  0.00    -0.041 SA
BRANCH   2   4
ATOM      4  N   UNL d   1       2.516   0.167   0.342  0.00  0.00    -0.371 N 
ATOM      5  C   UNL d   1       3.622   0.602  -0.495  0.00  0.00     0.148 C 
ATOM      6  H   UNL d   1       2.586   0.493   1.295  0.00  0.00     0.161 HD
ENDBRANCH   2   4
ENDBRANCH   1   2
BRANCH   1   7
ATOM      7  C   UNL d   1      -1.097  -0.402   0.846  0.00  0.00     0.165 C 
BRANCH   7   8
ATOM      8  C   UNL d   1      -1.811  -1.674   0.467  0.00  0.00    -0.025 A 
ATOM      9  C   UNL d   1      -3.205  -1.646   0.397  0.00  0.00     0.096 A 
ATOM     10  N   UNL d   1      -3.980  -2.690   0.031  0.00  0.00    -0.375 N 
ATOM     11  C   UNL d   1      -3.339  -3.826  -0.305  0.00  0.00     0.087 A 
ATOM     12  HN  UNL d   1      -4.998  -2.621   0.011  1.00  0.00     0.164 HD
ATOM     13  C   UNL d   1      -1.961  -3.970  -0.261  0.00  0.00     0.018 A 
ATOM     14  C   UNL d   1      -1.189  -2.879   0.135  0.00  0.00     0.011 A 
ENDBRANCH   7   8
ENDBRANCH   1   7
BRANCH   1  15
ATOM     15  C   UNL d   1       0.858  -0.933   2.301  0.00  0.00     0.164 C 
BRANCH  15  16
ATOM     16  C   UNL d   1       1.200   0.150   3.307  0.00  0.00    -0.040 A 
ATOM     17  C   UNL d   1       0.547   1.393   3.343  0.00  0.00     0.010 A 
ATOM     18  C   UNL d   1       0.858   2.335   4.328  0.00  0.00     0.024 A 
ATOM     19  C   UNL d   1       1.822   2.051   5.288  0.00  0.00     0.034 A 
ATOM     20  C   UNL d   1       2.484   0.827   5.269  0.00  0.00     0.024 A 
ATOM     21 CL   UNL d   1       2.193   3.207   6.503  0.00  0.00    -0.084 Cl
ATOM     22  C   UNL d   1       2.170  -0.118   4.288  0.00  0.00     0.010 A 
ENDBRANCH  15  16
ENDBRANCH   1  15
TORSDOF 6
