REMARK  7 active torsions:
REMARK  status: ('A' for Active; 'I' for Inactive)
REMARK    1  A    between atoms: C_8  and  C_1 
REMARK    2  A    between atoms: N_15  and  C_4 
REMARK    3  A    between atoms: C_11  and  C_8 
REMARK    4  A    between atoms: S_17  and  C_9 
REMARK    5  A    between atoms: N_13  and  C_22 
REMARK    6  A    between atoms: C_21  and  S_17 
REMARK    7  A    between atoms: C_22  and  C_21 
ROOT
ATOM      1  C   UNL d   1      -1.022  -0.368  -2.184  0.00  0.00     0.087 A 
ATOM      2  C   UNL d   1       0.577   0.434  -0.624  0.00  0.00     0.051 A 
ATOM      3  C   UNL d   1       0.024  -0.713  -0.065  0.00  0.00     0.095 A 
ATOM      4  C   UNL d   1      -0.032   0.604  -1.904  0.00  0.00     0.062 A 
ATOM      5  S   UNL d   1      -1.169  -1.641  -0.946  0.00  0.00    -0.065 SA
ATOM      6  N   UNL d   1       0.380  -1.150   1.105  0.00  0.00    -0.319 N 
ATOM      7  HN  UNL d   1       0.022  -1.964   1.605  1.00  0.00     0.175 HD
ATOM      8  C   UNL d   1       1.526   0.968   0.192  0.00  0.00     0.073 A 
ATOM      9  S   UNL d   1       1.573  -0.063   1.611  0.00  0.00    -0.006 SA
ENDROOT
BRANCH   8  10
ATOM     10  S   UNL d   1       2.638   2.293   0.020  0.00  0.00    -0.118 SA
BRANCH  10  11
ATOM     11  C   UNL d   1       1.571   3.748  -0.157  0.00  0.00     0.110 C 
BRANCH  11  12
ATOM     12  C   UNL d   1       0.533   3.981   0.961  0.00  0.00     0.283 C 
BRANCH  12  13
ATOM     13  N   UNL d   1       0.014   5.357   0.885  0.00  0.00     0.093 N 
ATOM     14  C   UNL d   1      -0.844   5.631  -0.286  0.00  0.00     0.298 C 
ATOM     15  C   UNL d   1      -2.331   5.291  -0.098  0.00  0.00     0.198 C 
ATOM     16  O   UNL d   1      -2.862   5.929   1.066  0.00  0.00    -0.388 OA
ATOM     17  C   UNL d   1      -2.149   5.494   2.227  0.00  0.00     0.198 C 
ATOM     18  C   UNL d   1      -0.649   5.817   2.120  0.00  0.00     0.298 C 
ENDBRANCH  12  13
ENDBRANCH  11  12
ENDBRANCH  10  11
ENDBRANCH   8  10
BRANCH   4  19
ATOM     19  N   UNL d   1       0.297   1.593  -2.771  0.00  0.00    -0.397 N 
ATOM     20  H   UNL d   1       1.201   2.055  -2.700  0.00  0.00     0.156 HD
ATOM     21  H   UNL d   1      -0.001   1.515  -3.749  0.00  0.00     0.156 HD
ENDBRANCH   4  19
BRANCH   1  22
ATOM     22  C   UNL d   1      -1.812  -0.484  -3.417  0.00  0.00     0.225 C 
ATOM     23  O   UNL d   1      -1.371  -0.108  -4.501  0.00  0.00    -0.284 OA
BRANCH  22  24
ATOM     24  C   UNL d   1      -3.138  -1.071  -3.291  0.00  0.00     0.126 A 
ATOM     25  O   UNL d   1      -3.865  -0.903  -2.138  0.00  0.00    -0.319 OA
ATOM     26  C   UNL d   1      -5.038  -1.566  -2.292  0.00  0.00     0.142 A 
ATOM     27  C   UNL d   1      -5.108  -2.136  -3.539  0.00  0.00     0.027 A 
ATOM     28  C   UNL d   1      -3.898  -1.794  -4.196  0.00  0.00     0.043 A 
ENDBRANCH  22  24
ENDBRANCH   1  22
TORSDOF 7
