REMARK  3 active torsions:
REMARK  status: ('A' for Active; 'I' for Inactive)
REMARK    1  A    between atoms: N_2  and  S_1 
REMARK    2  A    between atoms: C_4  and  S_1 
REMARK    3  A    between atoms: C_3  and  N_2 
ROOT
ATOM      1  S   UNL d   1       1.038   0.001  -0.128  0.00  0.00     0.259 S 
ATOM      2  O   UNL d   1       0.359  -0.823  -1.114  0.00  0.00    -0.201 OA
ATOM      3  O   UNL d   1       2.477   0.067  -0.060  0.00  0.00    -0.201 OA
ENDROOT
BRANCH   1   4
ATOM      4  N   UNL d   1       0.473  -0.488   1.376  0.00  0.00    -0.302 N 
ATOM      5  H   UNL d   1      -0.005  -1.391   1.343  0.00  0.00     0.173 HD
BRANCH   4   6
ATOM      6  C   UNL d   1       1.324  -0.269   2.580  0.00  0.00     0.185 C 
ATOM      7  C   UNL d   1       0.578  -0.857   3.816  0.00  0.00     0.241 C 
ATOM      8  N   UNL d   1       1.184  -0.752   5.036  0.00  0.00    -0.359 N 
ATOM      9  O   UNL d   1      -0.516  -1.422   3.719  0.00  0.00    -0.271 OA
ATOM     10  C   UNL d   1       2.528  -0.303   5.316  0.00  0.00     0.122 C 
ATOM     11  H   UNL d   1       0.652  -1.181   5.788  0.00  0.00     0.162 HD
ATOM     12  C   UNL d   1       2.699   1.189   5.080  0.00  0.00     0.020 C 
ATOM     13  C   UNL d   1       2.849   1.531   3.610  0.00  0.00     0.004 C 
ATOM     14  C   UNL d   1       1.619   1.218   2.765  0.00  0.00     0.035 C 
ENDBRANCH   4   6
ENDBRANCH   1   4
BRANCH   1  15
ATOM     15  C   UNL d   1       0.387   1.648  -0.324  0.00  0.00     0.082 A 
ATOM     16  C   UNL d   1      -0.995   1.845  -0.293  0.00  0.00     0.065 A 
ATOM     17  C   UNL d   1      -1.522   3.098  -0.619  0.00  0.00     0.103 A 
ATOM     18  O   UNL d   1      -2.893   3.155  -0.660  0.00  0.00    -0.348 OA
ATOM     19  C   UNL d   1      -0.661   4.172  -0.900  0.00  0.00     0.102 A 
ATOM     20  C   UNL d   1      -3.386   3.937  -1.749  0.00  0.00     0.178 C 
ATOM     21  C   UNL d   1      -3.481   5.404  -1.369  0.00  0.00     0.053 C 
ATOM     22  C   UNL d   1      -2.258   5.869  -0.596  0.00  0.00     0.178 C 
ATOM     23  O   UNL d   1      -1.051   5.446  -1.228  0.00  0.00    -0.348 OA
ATOM     24  C   UNL d   1       0.722   3.970  -0.896  0.00  0.00     0.041 A 
ATOM     25  C   UNL d   1       1.252   2.711  -0.608  0.00  0.00     0.028 A 
ENDBRANCH   1  15
TORSDOF 3
