REMARK  7 active torsions:
REMARK  status: ('A' for Active; 'I' for Inactive)
REMARK    1  A    between atoms: O_6  and  C_1 
REMARK    2  A    between atoms: C_10  and  N_2 
REMARK    3  A    between atoms: S_11  and  C_3 
REMARK    4  A    between atoms: C_9  and  O_6 
REMARK       I    between atoms: N_17  and  C_9 
REMARK    5  A    between atoms: C_22  and  S_11 
REMARK    6  A    between atoms: C_15  and  C_18 
REMARK    7  A    between atoms: C_18  and  C_22 
ROOT
ATOM      1  C   UNL d   1       0.052  -1.249  -0.523  0.00  0.00     0.252 A 
ATOM      2  N   UNL d   1       1.274  -0.615  -0.336  0.00  0.00    -0.286 N 
ATOM      3  C   UNL d   1       0.973   0.742  -0.361  0.00  0.00     0.165 A 
ATOM      4  N   UNL d   1      -0.893  -0.320  -0.545  0.00  0.00    -0.262 N 
ATOM      5  HN  UNL d   1      -1.894  -0.503  -0.616  1.00  0.00     0.190 HD
ATOM      6  N   UNL d   1      -0.325   0.919  -0.457  0.00  0.00    -0.277 N 
ATOM      7  HN  UNL d   1      -0.816   1.813  -0.464  1.00  0.00     0.189 HD
ENDROOT
BRANCH   3   8
ATOM      8  S   UNL d   1       2.170   2.032  -0.371  0.00  0.00    -0.085 SA
BRANCH   8   9
ATOM      9  C   UNL d   1       1.108   3.457  -0.133  0.00  0.00     0.166 C 
BRANCH   9  10
ATOM     10  C   UNL d   1       1.786   4.819  -0.060  0.00  0.00     0.169 C 
ATOM     11  O   UNL d   1       3.001   5.005  -0.021  0.00  0.00    -0.291 OA
BRANCH  10  12
ATOM     12  C   UNL d   1       0.847   6.000  -0.038  0.00  0.00     0.013 A 
ATOM     13  C   UNL d   1      -0.537   5.777   0.032  0.00  0.00     0.054 A 
ATOM     14  C   UNL d   1      -1.433   6.832  -0.084  0.00  0.00     0.103 A 
ATOM     15  O   UNL d   1      -2.758   6.481  -0.108  0.00  0.00    -0.346 OA
ATOM     16  C   UNL d   1      -0.973   8.142  -0.186  0.00  0.00     0.102 A 
ATOM     17  C   UNL d   1      -3.551   7.540  -0.650  0.00  0.00     0.202 C 
ATOM     18  C   UNL d   1      -3.177   8.851   0.021  0.00  0.00     0.202 C 
ATOM     19  O   UNL d   1      -1.820   9.216  -0.287  0.00  0.00    -0.346 OA
ATOM     20  C   UNL d   1       0.403   8.387  -0.207  0.00  0.00     0.040 A 
ATOM     21  C   UNL d   1       1.312   7.318  -0.139  0.00  0.00     0.018 A 
ENDBRANCH  10  12
ENDBRANCH   9  10
ENDBRANCH   8   9
ENDBRANCH   3   8
BRANCH   2  22
ATOM     22  C   UNL d   1       2.653  -1.000  -0.123  0.00  0.00     0.096 A 
ATOM     23  C   UNL d   1       3.475  -1.296  -1.369  0.00  0.00     0.028 A 
ATOM     24  C   UNL d   1       3.591  -2.158  -0.154  0.00  0.00     0.028 A 
ENDBRANCH   2  22
BRANCH   1  25
ATOM     25  O   UNL d   1      -0.338  -2.495  -0.595  0.00  0.00    -0.226 OA
BRANCH  25  26
ATOM     26  C   UNL d   1       0.245  -3.668  -0.856  0.00  0.00     0.369 C 
ATOM     27  N   UNL d   1      -0.681  -4.709  -0.991  0.00  0.00    -0.336 N 
ATOM     28  C   UNL d   1      -2.102  -4.443  -1.147  0.00  0.00     0.154 C 
ATOM     29  C   UNL d   1      -0.196  -5.979  -1.506  0.00  0.00     0.154 C 
ATOM     30  O   UNL d   1       1.436  -3.830  -1.008  0.00  0.00    -0.238 OA
ENDBRANCH  25  26
ENDBRANCH   1  25
TORSDOF 7
