REMARK  3 active torsions:
REMARK  status: ('A' for Active; 'I' for Inactive)
REMARK    1  A    between atoms: N_6  and  C_1 
REMARK    2  A    between atoms: N_4  and  N_6 
REMARK    3  A    between atoms: C_9  and  C_8 
ROOT
ATOM      1  N   UNL d   1      -2.756   2.449  -0.386  0.00  0.00    -0.290 N 
ATOM      2  HN  UNL d   1      -3.355   1.624  -0.350  1.00  0.00     0.187 HD
ATOM      3  C   UNL d   1      -3.295   3.625  -0.533  0.00  0.00     0.032 C 
ATOM      4  C   UNL d   1      -2.538   4.935  -0.623  0.00  0.00     0.070 C 
ENDROOT
BRANCH   1   5
ATOM      5  N   UNL d   1      -1.406   2.299  -0.280  0.00  0.00    -0.132 N 
ATOM      6  H   UNL d   1      -0.757   3.070  -0.369  0.00  0.00     0.205 HD
BRANCH   5   7
ATOM      7  C   UNL d   1      -0.770   1.103  -0.060  0.00  0.00     0.688 C 
ATOM      8  N   UNL d   1       0.515   1.026   0.005  0.00  0.00    -0.225 N 
ATOM      9  C   UNL d   1       1.093  -0.314   0.198  0.00  0.00     0.139 C 
ATOM     10  HN  UNL d   1       1.104   1.856  -0.073  1.00  0.00     0.177 HD
ATOM     11  C   UNL d   1       0.142  -1.298   0.868  0.00  0.00     0.040 C 
ATOM     12  C   UNL d   1      -1.178  -1.291   0.120  0.00  0.00     0.139 C 
ATOM     13  N   UNL d   1      -1.639   0.065   0.085  0.00  0.00    -0.225 N 
ATOM     14  H   UNL d   1      -2.563   0.275  -0.277  0.00  0.00     0.177 HD
ENDBRANCH   5   7
ENDBRANCH   1   5
BRANCH   3  15
ATOM     15  C   UNL d   1      -4.800   3.687  -0.613  0.00  0.00    -0.013 A 
ATOM     16  C   UNL d   1      -5.538   2.499  -0.502  0.00  0.00     0.014 A 
ATOM     17  C   UNL d   1      -6.933   2.514  -0.561  0.00  0.00     0.007 A 
ATOM     18  C   UNL d   1      -7.622   3.718  -0.730  0.00  0.00    -0.062 A 
ATOM     19  C   UNL d   1      -6.891   4.906  -0.843  0.00  0.00     0.007 A 
ATOM     20  C   UNL d   1      -9.121   3.721  -0.783  0.00  0.00     0.048 C 
ATOM     21  C   UNL d   1      -5.492   4.892  -0.786  0.00  0.00     0.014 A 
ENDBRANCH   3  15
TORSDOF 3
