REMARK  4 active torsions:
REMARK  status: ('A' for Active; 'I' for Inactive)
REMARK    1  A    between atoms: N_6  and  C_1 
REMARK    2  A    between atoms: C_10  and  N_2 
REMARK       I    between atoms: C_8  and  N_6 
REMARK    3  A    between atoms: C_11  and  C_8 
REMARK    4  A    between atoms: N_9  and  C_11 
ROOT
ATOM      1  C   UNL d   1      -0.097  -1.036  -0.081  0.00  0.00     0.132 C 
ATOM      2  N   UNL d   1       0.838  -0.566  -1.000  0.00  0.00    -0.240 N 
ATOM      3  N   UNL d   1       1.555   0.468  -0.496  0.00  0.00    -0.297 N 
ATOM      4  HN  UNL d   1       2.427   0.860  -0.853  1.00  0.00     0.187 HD
ATOM      5  C   UNL d   1      -0.184  -0.052   0.880  0.00  0.00     0.076 C 
ATOM      6  C   UNL d   1       0.858   0.856   0.577  0.00  0.00     0.026 C 
ATOM      7  C   UNL d   1       1.214   2.107   1.288  0.00  0.00     0.070 C 
ENDROOT
BRANCH   1   8
ATOM      8  N   UNL d   1      -0.746  -2.256  -0.232  0.00  0.00    -0.310 N 
ATOM      9  C   UNL d   1      -1.919  -2.587   0.412  0.00  0.00     0.251 C 
ATOM     10  O   UNL d   1      -2.525  -1.864   1.202  0.00  0.00    -0.271 OA
ATOM     11  H   UNL d   1      -0.374  -2.905  -0.914  0.00  0.00     0.170 HD
BRANCH   9  12
ATOM     12  C   UNL d   1      -2.490  -3.946  -0.022  0.00  0.00     0.375 C 
BRANCH  12  13
ATOM     13  N   UNL d   1      -1.769  -5.131   0.470  0.00  0.00     0.101 N 
ATOM     14  C   UNL d   1      -1.321  -5.022   1.869  0.00  0.00     0.299 C 
ATOM     15  C   UNL d   1      -0.698  -6.341   2.359  0.00  0.00     0.198 C 
ATOM     16  O   UNL d   1       0.377  -6.755   1.505  0.00  0.00    -0.388 OA
ATOM     17  C   UNL d   1      -0.102  -6.937   0.166  0.00  0.00     0.198 C 
ATOM     18  C   UNL d   1      -0.689  -5.628  -0.391  0.00  0.00     0.299 C 
ENDBRANCH  12  13
ENDBRANCH   9  12
ENDBRANCH   1   8
BRANCH   2  19
ATOM     19  C   UNL d   1       0.982  -0.947  -2.364  0.00  0.00     0.058 A 
ATOM     20  C   UNL d   1      -0.108  -1.479  -3.069  0.00  0.00     0.031 A 
ATOM     21  C   UNL d   1       0.020  -1.805  -4.419  0.00  0.00     0.002 A 
ATOM     22  C   UNL d   1       1.232  -1.596  -5.069  0.00  0.00     0.000 A 
ATOM     23  C   UNL d   1       2.314  -1.050  -4.376  0.00  0.00     0.002 A 
ATOM     24  C   UNL d   1       2.192  -0.711  -3.029  0.00  0.00     0.031 A 
ENDBRANCH   2  19
TORSDOF 4
