REMARK  7 active torsions:
REMARK  status: ('A' for Active; 'I' for Inactive)
REMARK    1  A    between atoms: N_5  and  S_1 
REMARK    2  A    between atoms: C_6  and  S_1 
REMARK    3  A    between atoms: N_2  and  C_3 
REMARK    4  A    between atoms: C_4  and  O_7 
REMARK    5  A    between atoms: O_7  and  C_22 
REMARK    6  A    between atoms: C_11  and  C_16 
REMARK    7  A    between atoms: O_27  and  C_17 
ROOT
ATOM      1  C   UNL d   1      -0.549  -0.534   1.303  0.00  0.00     0.074 A 
ATOM      2  C   UNL d   1      -1.481  -1.530   0.977  0.00  0.00     0.027 A 
ATOM      3  C   UNL d   1      -0.458  -0.073   2.618  0.00  0.00     0.027 A 
ATOM      4  C   UNL d   1      -2.360  -1.461   3.229  0.00  0.00     0.076 A 
ATOM      5  C   UNL d   1      -1.372  -0.531   3.575  0.00  0.00     0.039 A 
ATOM      6  C   UNL d   1      -2.369  -2.012   1.946  0.00  0.00     0.039 A 
ENDROOT
BRANCH   1   7
ATOM      7  S   UNL d   1       0.654  -0.035   0.081  0.00  0.00     0.243 S 
ATOM      8  O   UNL d   1       1.906   0.202   0.761  0.00  0.00    -0.206 OA
ATOM      9  O   UNL d   1       0.576  -1.004  -0.998  0.00  0.00    -0.206 OA
BRANCH   7  10
ATOM     10  N   UNL d   1       0.085   1.492  -0.545  0.00  0.00    -0.206 NA
ATOM     11  C   UNL d   1       0.291   2.634   0.393  0.00  0.00     0.108 C 
ATOM     12  C   UNL d   1       0.336   4.037  -0.221  0.00  0.00     0.025 C 
ATOM     13  C   UNL d   1       0.863   4.183  -1.655  0.00  0.00     0.024 C 
ATOM     14  C   UNL d   1       0.258   3.065  -2.502  0.00  0.00     0.025 C 
ATOM     15  C   UNL d   1       0.566   1.686  -1.947  0.00  0.00     0.108 C 
BRANCH  13  16
ATOM     16  C   UNL d   1       2.378   4.328  -1.842  0.00  0.00    -0.021 A 
ATOM     17  C   UNL d   1       2.922   5.242  -2.780  0.00  0.00     0.074 A 
ATOM     18  C   UNL d   1       4.309   5.287  -3.003  0.00  0.00     0.037 A 
ATOM     19  C   UNL d   1       5.174   4.479  -2.273  0.00  0.00     0.003 A 
ATOM     20  C   UNL d   1       4.658   3.610  -1.321  0.00  0.00     0.001 A 
ATOM     21  C   UNL d   1       3.279   3.531  -1.115  0.00  0.00     0.010 A 
BRANCH  17  22
ATOM     22  O   UNL d   1       2.045   6.049  -3.465  0.00  0.00    -0.355 OA
ATOM     23  C   UNL d   1       2.596   7.262  -3.985  0.00  0.00     0.210 C 
ENDBRANCH  17  22
ENDBRANCH  13  16
ENDBRANCH   7  10
ENDBRANCH   1   7
BRANCH   4  24
ATOM     24  O   UNL d   1      -3.257  -1.784   4.222  0.00  0.00    -0.307 OA
BRANCH  24  25
ATOM     25  C   UNL d   1      -4.569  -2.081   3.919  0.00  0.00     0.130 A 
ATOM     26  C   UNL d   1      -5.186  -3.106   4.655  0.00  0.00     0.138 A 
ATOM     27  C   UNL d   1      -6.516  -3.502   4.436  0.00  0.00     0.039 A 
ATOM     28  C   UNL d   1      -7.263  -2.856   3.460  0.00  0.00     0.004 A 
ATOM     29  C   UNL d   1      -6.694  -1.799   2.750  0.00  0.00     0.027 A 
ATOM     30  C   UNL d   1      -5.374  -1.385   3.000  0.00  0.00     0.070 A 
ATOM     31 CL   UNL d   1      -4.879   0.060   2.184  0.00  0.00    -0.081 Cl
BRANCH  26  32
ATOM     32  N   UNL d   1      -4.469  -3.775   5.726  0.00  0.00    -0.113 N 
ATOM     33  O   UNL d   1      -4.032  -3.073   6.646  0.00  0.00    -0.532 OA
ATOM     34  O   UNL d   1      -4.411  -5.011   5.670  0.00  0.00    -0.532 OA
ENDBRANCH  26  32
ENDBRANCH  24  25
ENDBRANCH   4  24
TORSDOF 7
