REMARK  1 active torsions:
REMARK  status: ('A' for Active; 'I' for Inactive)
REMARK    1  A    between atoms: O_14  and  C_3 
ROOT
ATOM      1  C   UNL d   1      -0.013  -0.735  -0.000  0.00  0.00     0.044 A 
ATOM      2  C   UNL d   1       0.029   0.669  -0.001  0.00  0.00     0.065 A 
ATOM      3  C   UNL d   1       1.246  -1.353  -0.001  0.00  0.00     0.153 A 
ATOM      4  C   UNL d   1      -1.196   1.356  -0.000  0.00  0.00     0.040 A 
ATOM      5  N   UNL d   1       2.414  -0.702  -0.002  0.00  0.00    -0.332 N 
ATOM      6  HN  UNL d   1       3.309  -1.191  -0.002  1.00  0.00     0.168 HD
ATOM      7  C   UNL d   1      -2.430   0.697   0.001  0.00  0.00     0.040 A 
ATOM      8  N   UNL d   1       1.198   1.337  -0.002  0.00  0.00    -0.350 N 
ATOM      9  HN  UNL d   1       1.220   2.357  -0.002  1.00  0.00     0.166 HD
ATOM     10  C   UNL d   1      -1.265  -1.407   0.001  0.00  0.00     0.037 A 
ATOM     11  C   UNL d   1       2.330   0.625  -0.002  0.00  0.00     0.183 A 
ATOM     12  C   UNL d   1      -2.456  -0.687   0.001  0.00  0.00     0.013 A 
ATOM     13 BR   UNL d   1      -1.240   3.263  -0.001  0.00  0.00    -0.049 Br
ATOM     14 BR   UNL d   1      -4.109  -1.601   0.002  0.00  0.00    -0.051 Br
ENDROOT
BRANCH   3  15
ATOM     15  O   UNL d   1       1.413  -2.708  -0.001  0.00  0.00    -0.345 OA
ATOM     16  H   UNL d   1       0.559  -3.154  -0.000  0.00  0.00     0.219 HD
ENDBRANCH   3  15
TORSDOF 1
