REMARK  4 active torsions:
REMARK  status: ('A' for Active; 'I' for Inactive)
REMARK    1  A    between atoms: C_7  and  C_3 
REMARK    2  A    between atoms: C_15  and  C_4 
REMARK    3  A    between atoms: C_24  and  C_12 
REMARK    4  A    between atoms: C_16  and  C_17 
ROOT
ATOM      1  N   UNL d   1       0.026   1.099   0.360  0.00  0.00    -0.349 N 
ATOM      2  HN  UNL d   1      -0.208   2.008   0.758  1.00  0.00     0.166 HD
ATOM      3  C   UNL d   1       1.285   0.739  -0.097  0.00  0.00     0.050 A 
ATOM      4  C   UNL d   1      -0.827   0.102   0.209  0.00  0.00     0.084 A 
ATOM      5  S   UNL d   1      -0.178  -1.277  -0.601  0.00  0.00    -0.081 SA
ATOM      6  C   UNL d   1       1.356  -0.534  -0.631  0.00  0.00     0.082 A 
ENDROOT
BRANCH   3   7
ATOM      7  C   UNL d   1       2.434   1.646  -0.049  0.00  0.00    -0.002 A 
ATOM      8  C   UNL d   1       3.362   1.599  -1.106  0.00  0.00     0.022 A 
ATOM      9  C   UNL d   1       4.513   2.412  -1.168  0.00  0.00    -0.042 A 
ATOM     10  C   UNL d   1       5.508   2.195  -2.313  0.00  0.00    -0.020 C 
ATOM     11  C   UNL d   1       4.679   3.401  -0.184  0.00  0.00    -0.043 A 
ATOM     12  C   UNL d   1       6.823   2.969  -2.072  0.00  0.00     0.015 C 
ATOM     13  C   UNL d   1       4.857   2.644  -3.638  0.00  0.00     0.020 C 
ATOM     14  C   UNL d   1       5.900   0.702  -2.442  0.00  0.00     0.020 C 
ATOM     15  C   UNL d   1       6.566   4.388  -1.596  0.00  0.00     0.015 C 
ATOM     16  C   UNL d   1       5.824   4.423  -0.238  0.00  0.00    -0.020 C 
ATOM     17  C   UNL d   1       6.819   4.135   0.907  0.00  0.00     0.020 C 
ATOM     18  C   UNL d   1       5.287   5.865  -0.074  0.00  0.00     0.020 C 
ATOM     19  C   UNL d   1       3.767   3.429   0.896  0.00  0.00     0.016 A 
ATOM     20  C   UNL d   1       2.668   2.548   0.999  0.00  0.00    -0.045 A 
BRANCH  20  21
ATOM     21  C   UNL d   1       1.827   2.609   2.256  0.00  0.00     0.035 C 
ATOM     22  C   UNL d   1       0.758   3.690   2.213  0.00  0.00     0.010 C 
ENDBRANCH  20  21
ENDBRANCH   3   7
BRANCH   4  23
ATOM     23  C   UNL d   1      -2.225   0.113   0.672  0.00  0.00    -0.002 A 
ATOM     24  C   UNL d   1      -2.914   1.321   0.814  0.00  0.00     0.015 A 
ATOM     25  C   UNL d   1      -4.230   1.349   1.301  0.00  0.00     0.009 A 
ATOM     26  C   UNL d   1      -4.899   0.169   1.679  0.00  0.00    -0.051 A 
ATOM     27  C   UNL d   1      -4.203  -1.037   1.519  0.00  0.00     0.009 A 
ATOM     28  C   UNL d   1      -2.894  -1.065   1.030  0.00  0.00     0.015 A 
BRANCH  26  29
ATOM     29  C   UNL d   1      -6.317   0.221   2.272  0.00  0.00    -0.024 C 
ATOM     30  C   UNL d   1      -6.874  -1.167   2.668  0.00  0.00     0.019 C 
ATOM     31  C   UNL d   1      -6.306   1.086   3.551  0.00  0.00     0.019 C 
ATOM     32  C   UNL d   1      -7.296   0.831   1.249  0.00  0.00     0.019 C 
ENDBRANCH  26  29
ENDBRANCH   4  23
TORSDOF 4
