REMARK  8 active torsions:
REMARK  status: ('A' for Active; 'I' for Inactive)
REMARK    1  A    between atoms: N_6  and  C_1 
REMARK    2  A    between atoms: C_7  and  C_2 
REMARK    3  A    between atoms: C_11  and  C_5 
REMARK       I    between atoms: C_9  and  N_6 
REMARK    4  A    between atoms: O_20  and  C_7 
REMARK    5  A    between atoms: C_15  and  N_8 
REMARK    6  A    between atoms: C_12  and  C_9 
REMARK    7  A    between atoms: N_10  and  C_12 
REMARK    8  A    between atoms: C_25  and  O_20 
ROOT
ATOM      1  N   UNL d   1      -0.260   2.385   0.698  0.00  0.00    -0.319 N 
ATOM      2  C   UNL d   1      -0.007   3.257  -0.330  0.00  0.00     0.251 C 
ATOM      3  O   UNL d   1      -0.850   4.019  -0.803  0.00  0.00    -0.271 OA
ATOM      4  H   UNL d   1       0.536   2.167   1.289  0.00  0.00     0.169 HD
ENDROOT
BRANCH   1   5
ATOM      5  C   UNL d   1      -1.500   2.461   1.319  0.00  0.00     0.093 C 
ATOM      6  C   UNL d   1      -2.809   2.652   0.898  0.00  0.00     0.074 C 
ATOM      7  C   UNL d   1      -3.640   2.924   2.054  0.00  0.00     0.040 C 
ATOM      8  C   UNL d   1      -2.961   2.969   3.257  0.00  0.00     0.018 C 
ATOM      9  S   UNL d   1      -1.351   2.429   3.021  0.00  0.00    -0.071 SA
BRANCH   6  10
ATOM     10  C   UNL d   1      -3.396   2.668  -0.451  0.00  0.00     0.296 C 
ATOM     11  O   UNL d   1      -4.536   3.104  -0.643  0.00  0.00    -0.259 OA
BRANCH  10  12
ATOM     12  O   UNL d   1      -2.649   2.098  -1.439  0.00  0.00    -0.318 OA
BRANCH  12  13
ATOM     13  C   UNL d   1      -3.245   2.122  -2.748  0.00  0.00     0.174 C 
ATOM     14  C   UNL d   1      -3.057   3.463  -3.444  0.00  0.00     0.034 C 
ENDBRANCH  12  13
ENDBRANCH  10  12
ENDBRANCH   6  10
BRANCH   8  15
ATOM     15  C   UNL d   1      -3.466   3.423   4.569  0.00  0.00    -0.019 A 
ATOM     16  C   UNL d   1      -4.522   4.353   4.621  0.00  0.00     0.013 A 
ATOM     17  C   UNL d   1      -5.025   4.818   5.840  0.00  0.00     0.001 A 
ATOM     18  C   UNL d   1      -4.476   4.363   7.033  0.00  0.00     0.000 A 
ATOM     19  C   UNL d   1      -3.425   3.451   7.007  0.00  0.00     0.001 A 
ATOM     20  C   UNL d   1      -2.924   2.984   5.785  0.00  0.00     0.013 A 
ENDBRANCH   8  15
ENDBRANCH   1   5
BRANCH   2  21
ATOM     21  C   UNL d   1       1.386   3.346  -0.921  0.00  0.00     0.375 C 
BRANCH  21  22
ATOM     22  N   UNL d   1       2.585   2.736  -0.292  0.00  0.00     0.100 NA
ATOM     23  C   UNL d   1       2.732   1.259  -0.419  0.00  0.00     0.292 C 
ATOM     24  C   UNL d   1       2.919   0.653  -1.843  0.00  0.00     0.153 C 
ATOM     25  N   UNL d   1       3.891   1.413  -2.654  0.00  0.00    -0.378 N 
ATOM     26  C   UNL d   1       3.823   2.874  -2.537  0.00  0.00     0.153 C 
ATOM     27  C   UNL d   1       3.759   3.308  -1.048  0.00  0.00     0.292 C 
BRANCH  25  28
ATOM     28  C   UNL d   1       5.116   0.840  -2.976  0.00  0.00     0.030 A 
ATOM     29  C   UNL d   1       6.337   1.419  -2.592  0.00  0.00     0.029 A 
ATOM     30  C   UNL d   1       7.563   0.919  -3.035  0.00  0.00     0.002 A 
ATOM     31  C   UNL d   1       7.596  -0.185  -3.876  0.00  0.00     0.000 A 
ATOM     32  C   UNL d   1       6.403  -0.799  -4.249  0.00  0.00     0.002 A 
ATOM     33  C   UNL d   1       5.177  -0.298  -3.792  0.00  0.00     0.029 A 
ENDBRANCH  25  28
ENDBRANCH  21  22
ENDBRANCH   2  21
TORSDOF 8
