REMARK  6 active torsions:
REMARK  status: ('A' for Active; 'I' for Inactive)
REMARK    1  A    between atoms: C_2  and  N_1 
REMARK    2  A    between atoms: O_7  and  C_3 
REMARK    3  A    between atoms: C_4  and  C_12 
REMARK    4  A    between atoms: C_5  and  C_4 
REMARK    5  A    between atoms: O_14  and  C_5 
REMARK    6  A    between atoms: C_12  and  O_7 
ROOT
ATOM      1  C   UNL d   1       0.145  -0.711   1.089  0.00  0.00     0.136 A 
ATOM      2  C   UNL d   1      -0.889  -1.383   0.425  0.00  0.00     0.102 A 
ATOM      3  C   UNL d   1       0.626  -1.114   2.344  0.00  0.00     0.045 A 
ATOM      4  C   UNL d   1      -1.448  -2.491   1.064  0.00  0.00     0.040 A 
ATOM      5  C   UNL d   1       0.073  -2.239   2.957  0.00  0.00    -0.059 A 
ATOM      6  C   UNL d   1      -0.975  -2.910   2.316  0.00  0.00     0.009 A 
ATOM      7  C   UNL d   1       0.565  -2.719   4.290  0.00  0.00     0.048 C 
ENDROOT
BRANCH   2   8
ATOM      8  O   UNL d   1      -1.270  -0.915  -0.801  0.00  0.00    -0.343 OA
BRANCH   8   9
ATOM      9  C   UNL d   1      -2.536  -1.312  -1.356  0.00  0.00     0.135 C 
ATOM     10  C   UNL d   1      -2.430  -1.093  -2.868  0.00  0.00     0.040 C 
BRANCH   9  11
ATOM     11  C   UNL d   1      -3.623  -0.433  -0.735  0.00  0.00     0.142 C 
BRANCH  11  12
ATOM     12  C   UNL d   1      -5.003  -0.825  -1.186  0.00  0.00     0.141 C 
ATOM     13  O   UNL d   1      -5.322  -1.945  -1.550  0.00  0.00    -0.650 OA
BRANCH  12  14
ATOM     14  O   UNL d   1      -5.890   0.191  -1.097  0.00  0.00    -0.776 OA
ATOM     15  H   UNL d   1      -5.516   1.033  -0.767  0.00  0.00     0.167 HD
ENDBRANCH  12  14
ENDBRANCH  11  12
ENDBRANCH   9  11
ENDBRANCH   8   9
ENDBRANCH   2   8
BRANCH   1  16
ATOM     16  N   UNL d   1       0.720   0.487   0.507  0.00  0.00    -0.113 N 
ATOM     17  O   UNL d   1       1.369   0.365  -0.540  0.00  0.00    -0.532 OA
ATOM     18  O   UNL d   1       0.553   1.544   1.135  0.00  0.00    -0.532 OA
ENDBRANCH   1  16
TORSDOF 6
