REMARK  3 active torsions:
REMARK  status: ('A' for Active; 'I' for Inactive)
REMARK    1  A    between atoms: S_2  and  C_1 
REMARK    2  A    between atoms: C_7  and  C_4 
REMARK    3  A    between atoms: O_12  and  C_7 
ROOT
ATOM      1  C   UNL d   1       0.227   1.270  -0.008  0.00  0.00     0.100 A 
ATOM      2  S   UNL d   1      -0.992   0.072  -0.048  0.00  0.00    -0.072 SA
ATOM      3  C   UNL d   1       0.146  -1.207  -0.020  0.00  0.00     0.079 A 
ATOM      4  C   UNL d   1       1.488   0.708   0.006  0.00  0.00     0.032 A 
ATOM      5  C   UNL d   1       1.440  -0.718   0.004  0.00  0.00     0.028 A 
ENDROOT
BRANCH   1   6
ATOM      6  S   UNL d   1      -0.335   2.959  -0.005  0.00  0.00     0.178 S 
ATOM      7  O   UNL d   1       0.870   3.750   0.139  0.00  0.00    -0.222 OA
ATOM      8  O   UNL d   1      -1.208   3.082  -1.155  0.00  0.00    -0.222 OA
ATOM      9  C   UNL d   1      -1.292   3.096   1.483  0.00  0.00     0.167 C 
ENDBRANCH   1   6
BRANCH   3  10
ATOM     10  C   UNL d   1      -0.266  -2.600  -0.020  0.00  0.00     0.183 C 
ATOM     11  O   UNL d   1       0.495  -3.557   0.006  0.00  0.00    -0.646 OA
BRANCH  10  12
ATOM     12  O   UNL d   1      -1.614  -2.760  -0.039  0.00  0.00    -0.772 OA
ATOM     13  H   UNL d   1      -2.084  -1.905  -0.075  0.00  0.00     0.167 HD
ENDBRANCH  10  12
ENDBRANCH   3  10
TORSDOF 3
