REMARK  5 active torsions:
REMARK  status: ('A' for Active; 'I' for Inactive)
REMARK    1  A    between atoms: C_4  and  C_1 
REMARK    2  A    between atoms: N_5  and  N_2 
REMARK    3  A    between atoms: O_8  and  C_4 
REMARK    4  A    between atoms: C_7  and  N_5 
REMARK    5  A    between atoms: C_16  and  O_8 
ROOT
ATOM      1  C   UNL d   1       0.943   0.034  -0.067  0.00  0.00     0.097 C 
ATOM      2  N   UNL d   1       0.270  -0.592  -0.990  0.00  0.00    -0.299 N 
ATOM      3  HN  UNL d   1      -0.750  -0.595  -0.981  1.00  0.00     0.186 HD
ATOM      4  C   UNL d   1       2.438   0.127   0.067  0.00  0.00     0.076 C 
ENDROOT
BRANCH   2   5
ATOM      5  N   UNL d   1       0.959  -1.240  -1.966  0.00  0.00    -0.301 N 
ATOM      6  H   UNL d   1       1.817  -1.728  -1.714  0.00  0.00     0.187 HD
BRANCH   5   7
ATOM      7  C   UNL d   1       0.212  -1.984  -2.912  0.00  0.00     0.048 A 
ATOM      8  C   UNL d   1      -1.182  -1.877  -3.029  0.00  0.00     0.034 A 
ATOM      9  C   UNL d   1      -1.876  -2.590  -4.011  0.00  0.00     0.044 A 
ATOM     10  C   UNL d   1      -1.171  -3.386  -4.904  0.00  0.00     0.116 A 
ATOM     11  C   UNL d   1       0.213  -3.477  -4.837  0.00  0.00     0.044 A 
ATOM     12  F   UNL d   1      -1.832  -4.067  -5.849  0.00  0.00    -0.206 F 
ATOM     13  C   UNL d   1       0.902  -2.769  -3.849  0.00  0.00     0.034 A 
ENDBRANCH   5   7
ENDBRANCH   2   5
BRANCH   1  14
ATOM     14  C   UNL d   1       0.159   0.702   1.054  0.00  0.00     0.306 C 
ATOM     15  O   UNL d   1       0.593   0.736   2.196  0.00  0.00    -0.258 OA
BRANCH  14  16
ATOM     16  O   UNL d   1      -1.036   1.141   0.617  0.00  0.00    -0.317 OA
BRANCH  16  17
ATOM     17  C   UNL d   1      -2.002   1.391   1.645  0.00  0.00     0.175 C 
ATOM     18  C   UNL d   1      -2.718   0.088   1.952  0.00  0.00     0.034 C 
ENDBRANCH  16  17
ENDBRANCH  14  16
ENDBRANCH   1  14
TORSDOF 5
