REMARK  5 active torsions:
REMARK  status: ('A' for Active; 'I' for Inactive)
REMARK    1  A    between atoms: C_11  and  C_2 
REMARK    2  A    between atoms: N_16  and  C_3 
REMARK    3  A    between atoms: C_14  and  C_9 
REMARK    4  A    between atoms: O_21  and  C_11 
REMARK    5  A    between atoms: C_27  and  O_21 
ROOT
ATOM      1  C   UNL d   1      -2.715  -0.751   0.073  0.00  0.00     0.056 A 
ATOM      2  C   UNL d   1      -4.429   0.738   0.070  0.00  0.00     0.179 A 
ATOM      3  C   UNL d   1      -4.130  -0.615   0.163  0.00  0.00     0.082 A 
ATOM      4  C   UNL d   1      -2.233   0.554   0.004  0.00  0.00     0.162 A 
ATOM      5  O   UNL d   1      -3.265   1.446  -0.010  0.00  0.00    -0.284 OA
ATOM      6  C   UNL d   1      -0.042  -0.054  -0.025  0.00  0.00     0.052 A 
ATOM      7  N   UNL d   1      -0.954   0.947  -0.047  0.00  0.00    -0.335 N 
ATOM      8  HN  UNL d   1      -0.686   1.929  -0.100  1.00  0.00     0.168 HD
ATOM      9  C   UNL d   1      -1.760  -1.803   0.037  0.00  0.00     0.001 A 
ATOM     10  C   UNL d   1      -0.384  -1.419   0.004  0.00  0.00    -0.018 A 
ATOM     11  C   UNL d   1       1.377   0.383  -0.021  0.00  0.00    -0.003 A 
ATOM     12  C   UNL d   1       0.711  -2.459   0.078  0.00  0.00     0.046 C 
ATOM     13  C   UNL d   1       2.425  -0.557  -0.070  0.00  0.00    -0.045 A 
ATOM     14  C   UNL d   1       2.139  -2.024  -0.243  0.00  0.00     0.044 C 
ATOM     15  C   UNL d   1       1.740   1.745   0.030  0.00  0.00     0.014 A 
ATOM     16  C   UNL d   1       3.769  -0.142  -0.061  0.00  0.00     0.008 A 
ATOM     17  C   UNL d   1       3.076   2.154   0.037  0.00  0.00     0.001 A 
ATOM     18  C   UNL d   1       4.093   1.209  -0.000  0.00  0.00     0.001 A 
ENDROOT
BRANCH   9  19
ATOM     19  C   UNL d   1      -2.221  -3.205  -0.013  0.00  0.00    -0.009 A 
ATOM     20  C   UNL d   1      -3.111  -3.647  -0.995  0.00  0.00     0.100 A 
ATOM     21  N   UNL d   1      -3.572  -4.915  -1.122  0.00  0.00    -0.374 N 
ATOM     22  C   UNL d   1      -3.091  -5.824  -0.253  0.00  0.00     0.087 A 
ATOM     23  HN  UNL d   1      -4.249  -5.169  -1.841  1.00  0.00     0.164 HD
ATOM     24  C   UNL d   1      -2.195  -5.513   0.752  0.00  0.00     0.018 A 
ATOM     25  C   UNL d   1      -1.780  -4.187   0.886  0.00  0.00     0.015 A 
ENDBRANCH   9  19
BRANCH   3  26
ATOM     26  N   UNL d   1      -5.051  -1.584   0.311  0.00  0.00    -0.396 N 
ATOM     27  H   UNL d   1      -6.044  -1.367   0.411  0.00  0.00     0.156 HD
ATOM     28  H   UNL d   1      -4.829  -2.535   0.593  0.00  0.00     0.156 HD
ENDBRANCH   3  26
BRANCH   2  29
ATOM     29  C   UNL d   1      -5.723   1.396   0.055  0.00  0.00     0.319 C 
ATOM     30  O   UNL d   1      -6.796   0.811   0.082  0.00  0.00    -0.257 OA
BRANCH  29  31
ATOM     31  O   UNL d   1      -5.582   2.752   0.028  0.00  0.00    -0.316 OA
BRANCH  31  32
ATOM     32  C   UNL d   1      -6.820   3.482  -0.013  0.00  0.00     0.175 C 
ATOM     33  C   UNL d   1      -7.432   3.605   1.371  0.00  0.00     0.034 C 
ENDBRANCH  31  32
ENDBRANCH  29  31
ENDBRANCH   2  29
TORSDOF 5
