REMARK  4 active torsions:
REMARK  status: ('A' for Active; 'I' for Inactive)
REMARK    1  A    between atoms: C_3  and  O_13 
REMARK    2  A    between atoms: C_4  and  O_12 
REMARK    3  A    between atoms: C_7  and  O_14 
REMARK    4  A    between atoms: C_11  and  C_8 
ROOT
ATOM      1  C   UNL d   1      -0.025   0.731  -0.235  0.00  0.00     0.187 C 
ATOM      2  O   UNL d   1      -1.146   1.366   0.372  0.00  0.00    -0.346 OA
ATOM      3  C   UNL d   1       1.271   1.483   0.090  0.00  0.00     0.183 C 
ATOM      4  C   UNL d   1       2.492   0.660  -0.354  0.00  0.00     0.204 C 
ATOM      5  C   UNL d   1       0.059  -0.700   0.287  0.00  0.00     0.180 C 
ATOM      6  O   UNL d   1       1.199  -1.390  -0.224  0.00  0.00    -0.349 OA
ATOM      7  C   UNL d   1       2.422  -0.771   0.220  0.00  0.00     0.290 C 
ATOM      8  C   UNL d   1      -2.367   0.696   0.050  0.00  0.00     0.295 C 
ATOM      9  O   UNL d   1      -2.348  -0.681   0.446  0.00  0.00    -0.354 OA
ATOM     10  C   UNL d   1      -1.242  -1.387  -0.108  0.00  0.00     0.206 C 
ENDROOT
BRANCH   8  11
ATOM     11  C   UNL d   1      -3.466   1.450   0.773  0.00  0.00    -0.004 A 
ATOM     12  C   UNL d   1      -3.635   2.823   0.520  0.00  0.00     0.012 A 
ATOM     13  C   UNL d   1      -4.607   3.564   1.192  0.00  0.00     0.001 A 
ATOM     14  C   UNL d   1      -5.432   2.942   2.126  0.00  0.00     0.000 A 
ATOM     15  C   UNL d   1      -5.284   1.580   2.385  0.00  0.00     0.001 A 
ATOM     16  C   UNL d   1      -4.310   0.839   1.714  0.00  0.00     0.012 A 
ENDBRANCH   8  11
BRANCH   3  17
ATOM     17  O   UNL d   1       1.284   2.749  -0.594  0.00  0.00    -0.390 OA
ATOM     18  H   UNL d   1       1.608   2.563  -1.498  0.00  0.00     0.210 HD
ENDBRANCH   3  17
BRANCH   4  19
ATOM     19  O   UNL d   1       2.514   0.634  -1.800  0.00  0.00    -0.388 OA
ATOM     20  H   UNL d   1       2.082  -0.195  -2.082  0.00  0.00     0.210 HD
ENDBRANCH   4  19
BRANCH   7  21
ATOM     21  O   UNL d   1       2.530  -0.732   1.639  0.00  0.00    -0.363 OA
ATOM     22  C   UNL d   1       2.638  -2.028   2.213  0.00  0.00     0.204 C 
ENDBRANCH   7  21
TORSDOF 4
