REMARK  2 active torsions:
REMARK  status: ('A' for Active; 'I' for Inactive)
REMARK    1  A    between atoms: C_2  and  N_1 
REMARK    2  A    between atoms: O_12  and  C_10 
ROOT
ATOM      1  C   UNL d   1       0.059   2.300  -0.017  0.00  0.00     0.048 A 
ATOM      2  C   UNL d   1      -0.650   3.000   0.976  0.00  0.00     0.066 A 
ATOM      3  C   UNL d   1      -0.583   4.395   1.072  0.00  0.00     0.070 A 
ATOM      4  C   UNL d   1       0.807   3.048  -0.939  0.00  0.00     0.030 A 
ATOM      5  C   UNL d   1       0.849   4.443  -0.871  0.00  0.00     0.005 A 
ATOM      6  C   UNL d   1       0.161   5.111   0.137  0.00  0.00     0.037 A 
ENDROOT
BRANCH   1   7
ATOM      7  N   UNL d   1       0.041   0.877  -0.065  0.00  0.00    -0.245 N 
ATOM      8  C   UNL d   1       0.988   0.095  -0.672  0.00  0.00     0.255 A 
ATOM      9  C   UNL d   1       0.618  -1.306  -0.441  0.00  0.00     0.080 A 
ATOM     10  O   UNL d   1       2.011   0.385  -1.268  0.00  0.00    -0.268 OA
ATOM     11  C   UNL d   1      -0.504  -1.322   0.272  0.00  0.00     0.080 A 
ATOM     12  C   UNL d   1      -0.894   0.071   0.524  0.00  0.00     0.255 A 
ATOM     13  O   UNL d   1      -1.917   0.335   1.138  0.00  0.00    -0.268 OA
ENDBRANCH   1   7
BRANCH   3  14
ATOM     14  O   UNL d   1      -1.184   5.161   2.034  0.00  0.00    -0.356 OA
ATOM     15  C   UNL d   1      -1.863   4.471   3.076  0.00  0.00     0.210 C 
ENDBRANCH   3  14
TORSDOF 2
