REMARK  8 active torsions:
REMARK  status: ('A' for Active; 'I' for Inactive)
REMARK    1  A    between atoms: S_9  and  C_3 
REMARK    2  A    between atoms: S_10  and  C_4 
REMARK    3  A    between atoms: C_15  and  S_9 
REMARK    4  A    between atoms: C_16  and  S_10 
REMARK    5  A    between atoms: C_11  and  C_15 
REMARK    6  A    between atoms: C_13  and  C_11 
REMARK    7  A    between atoms: C_12  and  C_16 
REMARK    8  A    between atoms: C_14  and  C_12 
ROOT
ATOM      1  N   UNL d   1      -2.244   0.685   0.042  0.00  0.00    -0.331 N 
ATOM      2  HN  UNL d   1      -3.125   1.200   0.019  1.00  0.00     0.168 HD
ATOM      3  C   UNL d   1      -1.059   1.313  -0.089  0.00  0.00     0.084 A 
ATOM      4  C   UNL d   1      -2.217  -0.638   0.203  0.00  0.00     0.146 A 
ATOM      5  N   UNL d   1      -1.111  -1.386   0.185  0.00  0.00    -0.336 N 
ATOM      6  HN  UNL d   1      -1.159  -2.402   0.263  1.00  0.00     0.168 HD
ATOM      7  C   UNL d   1       0.175   0.636  -0.052  0.00  0.00     0.024 A 
ATOM      8  C   UNL d   1       0.063  -0.757   0.060  0.00  0.00     0.047 A 
ATOM      9  C   UNL d   1       1.474   1.218  -0.099  0.00  0.00     0.016 A 
ATOM     10  C   UNL d   1       1.222  -1.527   0.064  0.00  0.00     0.030 A 
ATOM     11  C   UNL d   1       2.622   0.424  -0.054  0.00  0.00     0.001 A 
ATOM     12  C   UNL d   1       2.495  -0.956   0.010  0.00  0.00     0.002 A 
ENDROOT
BRANCH   3  13
ATOM     13  S   UNL d   1      -1.190   3.090  -0.364  0.00  0.00    -0.103 SA
BRANCH  13  14
ATOM     14  C   UNL d   1      -2.844   3.402   0.348  0.00  0.00     0.164 C 
BRANCH  14  15
ATOM     15  C   UNL d   1      -3.352   4.821   0.149  0.00  0.00     0.169 C 
ATOM     16  O   UNL d   1      -2.780   5.674  -0.519  0.00  0.00    -0.291 OA
BRANCH  15  17
ATOM     17  C   UNL d   1      -4.655   5.184   0.818  0.00  0.00     0.011 A 
ATOM     18  C   UNL d   1      -5.409   4.247   1.545  0.00  0.00     0.016 A 
ATOM     19  C   UNL d   1      -6.577   4.636   2.211  0.00  0.00     0.020 A 
ATOM     20  C   UNL d   1      -7.005   5.960   2.149  0.00  0.00     0.011 A 
ATOM     21  C   UNL d   1      -6.291   6.894   1.403  0.00  0.00     0.020 A 
ATOM     22 BR   UNL d   1      -8.552   6.489   3.098  0.00  0.00    -0.051 Br
ATOM     23  C   UNL d   1      -5.123   6.506   0.735  0.00  0.00     0.016 A 
ENDBRANCH  15  17
ENDBRANCH  14  15
ENDBRANCH  13  14
ENDBRANCH   3  13
BRANCH   4  24
ATOM     24  S   UNL d   1      -3.747  -1.463   0.572  0.00  0.00    -0.086 SA
BRANCH  24  25
ATOM     25  C   UNL d   1      -4.907  -0.348  -0.270  0.00  0.00     0.166 C 
BRANCH  25  26
ATOM     26  C   UNL d   1      -6.345  -0.750  -0.006  0.00  0.00     0.169 C 
ATOM     27  O   UNL d   1      -6.994  -0.252   0.910  0.00  0.00    -0.291 OA
BRANCH  26  28
ATOM     28  C   UNL d   1      -7.006  -1.735  -0.921  0.00  0.00     0.011 A 
ATOM     29  C   UNL d   1      -6.277  -2.687  -1.639  0.00  0.00     0.016 A 
ATOM     30  C   UNL d   1      -6.937  -3.634  -2.428  0.00  0.00     0.020 A 
ATOM     31  C   UNL d   1      -8.328  -3.621  -2.511  0.00  0.00     0.011 A 
ATOM     32  C   UNL d   1      -9.065  -2.656  -1.829  0.00  0.00     0.020 A 
ATOM     33 BR   UNL d   1      -9.213  -4.939  -3.536  0.00  0.00    -0.051 Br
ATOM     34  C   UNL d   1      -8.405  -1.715  -1.030  0.00  0.00     0.016 A 
ENDBRANCH  26  28
ENDBRANCH  25  26
ENDBRANCH  24  25
ENDBRANCH   4  24
TORSDOF 8
