REMARK  6 active torsions:
REMARK  status: ('A' for Active; 'I' for Inactive)
REMARK    1  A    between atoms: C_17  and  N_1 
REMARK    2  A    between atoms: S_16  and  C_2 
REMARK    3  A    between atoms: C_15  and  C_3 
REMARK    4  A    between atoms: C_8  and  O_13 
REMARK    5  A    between atoms: O_13  and  C_15 
REMARK    6  A    between atoms: C_18  and  C_17 
ROOT
ATOM      1  C   UNL d   1      -2.770  -0.250  -0.622  0.00  0.00     0.253 C 
ENDROOT
BRANCH   1   2
ATOM      2  O   UNL d   1      -3.248  -1.569  -0.370  0.00  0.00    -0.342 OA
BRANCH   2   3
ATOM      3  C   UNL d   1      -4.606  -1.734  -0.281  0.00  0.00     0.093 A 
ATOM      4  C   UNL d   1      -5.009  -2.678   0.670  0.00  0.00    -0.017 A 
ATOM      5  C   UNL d   1      -6.358  -3.020   0.855  0.00  0.00    -0.043 A 
ATOM      6  C   UNL d   1      -4.125  -3.505   1.556  0.00  0.00     0.042 C 
ATOM      7  C   UNL d   1      -6.514  -4.120   1.859  0.00  0.00     0.040 C 
ATOM      8  C   UNL d   1      -7.362  -2.426   0.104  0.00  0.00    -0.054 A 
ATOM      9  C   UNL d   1      -5.117  -4.223   2.481  0.00  0.00     0.009 C 
ATOM     10  C   UNL d   1      -6.972  -1.493  -0.862  0.00  0.00     0.029 A 
ATOM     11  C   UNL d   1      -8.803  -2.804   0.267  0.00  0.00     0.049 C 
ATOM     12  C   UNL d   1      -5.615  -1.162  -1.074  0.00  0.00     0.045 A 
ATOM     13 BR   UNL d   1      -5.335  -0.032  -2.580  0.00  0.00    -0.048 Br
ENDBRANCH   2   3
ENDBRANCH   1   2
BRANCH   1  14
ATOM     14  C   UNL d   1      -1.297  -0.176  -0.371  0.00  0.00     0.125 A 
ATOM     15  N   UNL d   1      -0.343  -1.089  -0.773  0.00  0.00    -0.310 N 
ATOM     16  C   UNL d   1       0.863  -0.469  -0.569  0.00  0.00     0.160 A 
ATOM     17  N   UNL d   1       0.672   0.706  -0.022  0.00  0.00    -0.278 N 
ATOM     18  N   UNL d   1      -0.681   0.886   0.116  0.00  0.00    -0.285 N 
ATOM     19  HN  UNL d   1       1.398   1.368   0.253  1.00  0.00     0.189 HD
ATOM     20  HN  UNL d   1      -1.135   1.703   0.525  1.00  0.00     0.188 HD
BRANCH  15  21
ATOM     21  C   UNL d   1      -0.568  -2.410  -1.329  0.00  0.00     0.159 C 
BRANCH  21  22
ATOM     22  C   UNL d   1      -0.502  -3.534  -0.321  0.00  0.00    -0.017 C 
ATOM     23  C   UNL d   1      -0.253  -3.449   0.995  0.00  0.00     0.008 C 
ENDBRANCH  21  22
ENDBRANCH  15  21
BRANCH  16  24
ATOM     24  S   UNL d   1       2.410  -1.120  -0.984  0.00  0.00    -0.105 SA
ATOM     25  H   UNL d   1       2.159  -2.419  -0.780  0.00  0.00     0.110 HD
ENDBRANCH  16  24
ENDBRANCH   1  14
TORSDOF 6
