REMARK  0 active torsions:
REMARK  status: ('A' for Active; 'I' for Inactive)
ROOT
ATOM      1  C   UNL d   1      -2.418  -0.744  -0.054  0.00  0.00     0.076 A 
ATOM      2  C   UNL d   1      -1.226  -1.654  -0.072  0.00  0.00     0.198 A 
ATOM      3  C   UNL d   1      -1.892   0.664  -0.061  0.00  0.00     0.198 A 
ATOM      4  C   UNL d   1      -0.425   0.548  -0.049  0.00  0.00     0.029 A 
ATOM      5  C   UNL d   1      -0.052  -0.787  -0.051  0.00  0.00     0.029 A 
ATOM      6  C   UNL d   1      -3.704  -1.155   0.026  0.00  0.00    -0.015 C 
ATOM      7  N   UNL d   1      -6.289  -2.026   0.621  0.00  0.00    -0.375 N 
ATOM      8  O   UNL d   1      -1.154  -2.861  -0.089  0.00  0.00    -0.286 OA
ATOM      9  O   UNL d   1      -2.497   1.717  -0.074  0.00  0.00    -0.286 OA
ATOM     10  C   UNL d   1      -4.837  -0.204   0.108  0.00  0.00     0.029 C 
ATOM     11  C   UNL d   1      -4.053  -2.596   0.056  0.00  0.00     0.029 C 
ATOM     12  C   UNL d   1      -5.308  -2.955   0.374  0.00  0.00     0.088 C 
ATOM     13  C   UNL d   1      -6.057  -0.685   0.418  0.00  0.00     0.088 C 
ATOM     14  C   UNL d   1       1.272  -1.190  -0.026  0.00  0.00     0.016 A 
ATOM     15  C   UNL d   1       0.531   1.550  -0.026  0.00  0.00     0.016 A 
ATOM     16  C   UNL d   1       1.879   1.165  -0.005  0.00  0.00     0.001 A 
ATOM     17  C   UNL d   1       2.247  -0.194  -0.003  0.00  0.00     0.001 A 
ATOM     18  H   UNL d   1      -7.234  -2.346   0.802  0.00  0.00     0.164 HD
ENDROOT
TORSDOF 0
