REMARK  5 active torsions:
REMARK  status: ('A' for Active; 'I' for Inactive)
REMARK    1  A    between atoms: O_10  and  C_3 
REMARK    2  A    between atoms: S_9  and  C_4 
REMARK    3  A    between atoms: C_11  and  C_5 
REMARK    4  A    between atoms: C_13  and  C_11 
REMARK    5  A    between atoms: C_14  and  C_13 
ROOT
ATOM      1  N   UNL d   1      -0.592   1.271   0.021  0.00  0.00    -0.317 N 
ATOM      2  HN  UNL d   1      -1.065   2.174   0.034  1.00  0.00     0.170 HD
ATOM      3  C   UNL d   1      -1.257   0.111   0.018  0.00  0.00     0.150 A 
ATOM      4  C   UNL d   1       0.738   1.158   0.007  0.00  0.00     0.143 A 
ATOM      5  C   UNL d   1      -0.700  -1.153  -0.025  0.00  0.00     0.015 A 
ATOM      6  N   UNL d   1       1.414   0.001  -0.002  0.00  0.00    -0.340 N 
ATOM      7  HN  UNL d   1       2.434  -0.017  -0.003  1.00  0.00     0.167 HD
ATOM      8  C   UNL d   1       0.691  -1.141  -0.011  0.00  0.00     0.018 A 
ATOM      9  C   UNL d   1       1.504  -2.407   0.005  0.00  0.00     0.069 C 
ENDROOT
BRANCH   5  10
ATOM     10  C   UNL d   1      -1.486  -2.440  -0.004  0.00  0.00     0.045 C 
BRANCH  10  11
ATOM     11  C   UNL d   1      -2.866  -2.477  -0.674  0.00  0.00     0.004 C 
BRANCH  11  12
ATOM     12  C   UNL d   1      -2.835  -2.123  -2.162  0.00  0.00    -0.004 C 
ATOM     13  C   UNL d   1      -4.238  -2.148  -2.746  0.00  0.00     0.005 C 
ENDBRANCH  11  12
ENDBRANCH  10  11
ENDBRANCH   5  10
BRANCH   3  14
ATOM     14  O   UNL d   1      -2.597   0.307   0.062  0.00  0.00    -0.346 OA
ATOM     15  H   UNL d   1      -2.641   1.279   0.030  0.00  0.00     0.219 HD
ENDBRANCH   3  14
BRANCH   4  16
ATOM     16  S   UNL d   1       1.663   2.661   0.006  0.00  0.00    -0.107 SA
ATOM     17  H   UNL d   1       0.570   3.432   0.008  0.00  0.00     0.110 HD
ENDBRANCH   4  16
TORSDOF 5
