REMARK  4 active torsions:
REMARK  status: ('A' for Active; 'I' for Inactive)
REMARK    1  A    between atoms: C_7  and  C_1 
REMARK    2  A    between atoms: C_11  and  C_5 
REMARK    3  A    between atoms: C_14  and  N_9 
REMARK    4  A    between atoms: C_12  and  C_13 
ROOT
ATOM      1  C   UNL d   1       1.888   1.000  -0.034  0.00  0.00     0.080 A 
ATOM      2  N   UNL d   1       1.257  -1.187   0.293  0.00  0.00    -0.334 N 
ATOM      3  HN  UNL d   1       1.268  -2.176   0.545  1.00  0.00     0.168 HD
ATOM      4  C   UNL d   1       0.313  -0.521  -0.306  0.00  0.00     0.147 A 
ATOM      5  C   UNL d   1       2.245  -0.236   0.511  0.00  0.00     0.073 A 
ATOM      6  N   UNL d   1       0.626   0.782  -0.492  0.00  0.00    -0.324 N 
ATOM      7  S   UNL d   1      -1.202  -0.956  -0.984  0.00  0.00    -0.092 SA
ATOM      8  C   UNL d   1      -0.346   1.612  -1.167  0.00  0.00     0.142 C 
ATOM      9  C   UNL d   1      -1.334   0.661  -1.851  0.00  0.00     0.102 C 
ENDROOT
BRANCH   1  10
ATOM     10  C   UNL d   1       2.637   2.216  -0.140  0.00  0.00     0.120 C 
ATOM     11  N   UNL d   1       2.051   3.366  -0.095  0.00  0.00    -0.364 N 
ATOM     12  HN  UNL d   1       1.035   3.433  -0.027  1.00  0.00     0.165 HD
BRANCH  11  13
ATOM     13  C   UNL d   1       2.849   4.528  -0.142  0.00  0.00     0.032 A 
ATOM     14  C   UNL d   1       2.297   5.682  -0.694  0.00  0.00     0.030 A 
ATOM     15  C   UNL d   1       3.041   6.867  -0.784  0.00  0.00     0.010 A 
ATOM     16  C   UNL d   1       4.370   6.938  -0.325  0.00  0.00    -0.051 A 
ATOM     17  C   UNL d   1       4.898   5.784   0.269  0.00  0.00     0.010 A 
ATOM     18  C   UNL d   1       4.145   4.608   0.374  0.00  0.00     0.030 A 
BRANCH  16  19
ATOM     19  C   UNL d   1       5.186   8.232  -0.480  0.00  0.00    -0.024 C 
ATOM     20  C   UNL d   1       6.633   8.120   0.053  0.00  0.00     0.019 C 
ATOM     21  C   UNL d   1       5.281   8.609  -1.974  0.00  0.00     0.019 C 
ATOM     22  C   UNL d   1       4.503   9.380   0.292  0.00  0.00     0.019 C 
ENDBRANCH  16  19
ENDBRANCH  11  13
ENDBRANCH   1  10
BRANCH   5  23
ATOM     23  C   UNL d   1       3.485  -0.551   1.212  0.00  0.00    -0.007 A 
ATOM     24  C   UNL d   1       4.030  -1.836   1.104  0.00  0.00     0.014 A 
ATOM     25  C   UNL d   1       5.226  -2.161   1.754  0.00  0.00     0.001 A 
ATOM     26  C   UNL d   1       5.886  -1.203   2.520  0.00  0.00     0.000 A 
ATOM     27  C   UNL d   1       5.343   0.071   2.659  0.00  0.00     0.001 A 
ATOM     28  C   UNL d   1       4.141   0.391   2.021  0.00  0.00     0.014 A 
ENDBRANCH   5  23
TORSDOF 4
