REMARK  4 active torsions:
REMARK  status: ('A' for Active; 'I' for Inactive)
REMARK    1  A    between atoms: C_3  and  C_1 
REMARK    2  A    between atoms: C_12  and  C_2 
REMARK    3  A    between atoms: C_14  and  N_4 
REMARK    4  A    between atoms: C_15  and  N_5 
ROOT
ATOM      1  C   UNL d   1      -0.221   1.259   0.040  0.00  0.00     0.061 A 
ATOM      2  C   UNL d   1       1.101   0.866  -0.084  0.00  0.00     0.155 A 
ATOM      3  N   UNL d   1       1.096  -0.522  -0.029  0.00  0.00    -0.251 N 
ATOM      4  N   UNL d   1      -0.167  -0.990   0.198  0.00  0.00    -0.304 N 
ATOM      5  HN  UNL d   1      -0.446  -1.959   0.352  1.00  0.00     0.186 HD
ATOM      6  C   UNL d   1      -0.952   0.076   0.176  0.00  0.00     0.125 A 
ENDROOT
BRANCH   1   7
ATOM      7  C   UNL d   1      -0.767   2.641   0.051  0.00  0.00     0.152 C 
ATOM      8  N   UNL d   1      -1.919   3.087   0.683  0.00  0.00    -0.224 N 
ATOM      9  N   UNL d   1      -2.265   4.270   0.126  0.00  0.00     0.001 NA
ATOM     10  N   UNL d   1      -1.235   4.622  -0.631  0.00  0.00    -0.007 NA
ATOM     11  N   UNL d   1      -0.287   3.631  -0.672  0.00  0.00    -0.269 N 
ATOM     12  HN  UNL d   1       0.607   3.657  -1.163  1.00  0.00     0.185 HD
BRANCH   8  13
ATOM     13  C   UNL d   1      -2.616   2.547   1.791  0.00  0.00     0.056 A 
ATOM     14  C   UNL d   1      -1.952   1.741   2.729  0.00  0.00     0.031 A 
ATOM     15  C   UNL d   1      -2.651   1.198   3.808  0.00  0.00     0.002 A 
ATOM     16  C   UNL d   1      -4.009   1.463   3.959  0.00  0.00     0.000 A 
ATOM     17  C   UNL d   1      -4.667   2.288   3.048  0.00  0.00     0.002 A 
ATOM     18  C   UNL d   1      -3.971   2.848   1.972  0.00  0.00     0.031 A 
ENDBRANCH   8  13
ENDBRANCH   1   7
BRANCH   2  19
ATOM     19  C   UNL d   1       2.325   1.680  -0.092  0.00  0.00     0.435 C 
ATOM     20  F   UNL d   1       2.120   2.934   0.382  0.00  0.00    -0.165 F 
ATOM     21  F   UNL d   1       3.295   1.158   0.700  0.00  0.00    -0.165 F 
ATOM     22  F   UNL d   1       2.845   1.809  -1.336  0.00  0.00    -0.165 F 
ENDBRANCH   2  19
BRANCH   3  23
ATOM     23  C   UNL d   1       2.144  -1.492  -0.127  0.00  0.00     0.057 A 
ATOM     24  C   UNL d   1       1.910  -2.775   0.407  0.00  0.00     0.031 A 
ATOM     25  C   UNL d   1       2.902  -3.757   0.372  0.00  0.00     0.002 A 
ATOM     26  C   UNL d   1       4.131  -3.477  -0.216  0.00  0.00     0.000 A 
ATOM     27  C   UNL d   1       4.360  -2.224  -0.777  0.00  0.00     0.002 A 
ATOM     28  C   UNL d   1       3.370  -1.234  -0.741  0.00  0.00     0.031 A 
ENDBRANCH   3  23
TORSDOF 4
