REMARK  4 active torsions:
REMARK  status: ('A' for Active; 'I' for Inactive)
REMARK    1  A    between atoms: C_7  and  C_1 
REMARK    2  A    between atoms: C_9  and  C_7 
REMARK    3  A    between atoms: C_13  and  N_8 
REMARK    4  A    between atoms: O_18  and  C_14 
ROOT
ATOM      1  C   UNL d   1      -0.120  -1.138  -0.019  0.00  0.00     0.081 A 
ATOM      2  C   UNL d   1       0.656   1.179   0.103  0.00  0.00     0.150 A 
ATOM      3  N   UNL d   1      -0.654   1.125   0.061  0.00  0.00    -0.339 N 
ATOM      4  HN  UNL d   1      -1.260   1.945   0.059  1.00  0.00     0.168 HD
ATOM      5  S   UNL d   1       1.412  -0.373   0.102  0.00  0.00    -0.048 SA
ATOM      6  C   UNL d   1      -1.113  -0.176   0.019  0.00  0.00     0.028 A 
ATOM      7  N   UNL d   1       1.412   2.302   0.115  0.00  0.00    -0.337 N 
ATOM      8  C   UNL d   1      -2.584  -0.393  -0.010  0.00  0.00     0.070 C 
ATOM      9  H   UNL d   1       2.412   2.207   0.002  0.00  0.00     0.168 HD
ENDROOT
BRANCH   1  10
ATOM     10  C   UNL d   1      -0.293  -2.578  -0.056  0.00  0.00     0.201 C 
ATOM     11  O   UNL d   1      -1.265  -3.133   0.457  0.00  0.00    -0.286 OA
BRANCH  10  12
ATOM     12  C   UNL d   1       0.680  -3.459  -0.762  0.00  0.00     0.016 A 
ATOM     13  C   UNL d   1       1.346  -3.055  -1.926  0.00  0.00     0.018 A 
ATOM     14  C   UNL d   1       2.228  -3.927  -2.575  0.00  0.00     0.037 A 
ATOM     15  C   UNL d   1       2.426  -5.218  -2.083  0.00  0.00     0.068 A 
ATOM     16  C   UNL d   1       1.754  -5.626  -0.929  0.00  0.00     0.037 A 
ATOM     17  C   UNL d   1       0.876  -4.758  -0.277  0.00  0.00     0.018 A 
BRANCH  15  18
ATOM     18  O   UNL d   1       3.268  -6.148  -2.627  0.00  0.00    -0.356 OA
ATOM     19  C   UNL d   1       3.494  -6.031  -4.027  0.00  0.00     0.210 C 
ENDBRANCH  15  18
ENDBRANCH  10  12
ENDBRANCH   1  10
BRANCH   7  20
ATOM     20  C   UNL d   1       0.943   3.628   0.182  0.00  0.00     0.034 A 
ATOM     21  C   UNL d   1      -0.304   3.972   0.724  0.00  0.00     0.029 A 
ATOM     22  C   UNL d   1      -0.774   5.287   0.697  0.00  0.00     0.002 A 
ATOM     23  C   UNL d   1      -0.003   6.287   0.113  0.00  0.00     0.000 A 
ATOM     24  C   UNL d   1       1.237   5.971  -0.432  0.00  0.00     0.002 A 
ATOM     25  C   UNL d   1       1.707   4.653  -0.396  0.00  0.00     0.029 A 
ENDBRANCH   7  20
TORSDOF 4
