REMARK  2 active torsions:
REMARK  status: ('A' for Active; 'I' for Inactive)
REMARK    1  A    between atoms: O_19  and  C_13 
REMARK    2  A    between atoms: O_20  and  C_16 
ROOT
ATOM      1  C   UNL d   1       0.129   2.619   0.086  0.00  0.00     0.028 C 
ATOM      2  C   UNL d   1       1.364   2.621   1.065  0.00  0.00     0.021 C 
ATOM      3  C   UNL d   1      -0.064   3.712   2.942  0.00  0.00    -0.014 C 
ATOM      4  C   UNL d   1       1.192   3.791   2.041  0.00  0.00     0.004 C 
ATOM      5  C   UNL d   1      -0.439   1.250  -0.274  0.00  0.00    -0.037 C 
ATOM      6  C   UNL d   1      -0.135   0.138   0.534  0.00  0.00    -0.027 C 
ATOM      7  C   UNL d   1       1.656   1.307   1.729  0.00  0.00    -0.020 C 
ATOM      8  C   UNL d   1      -1.341   1.087  -1.356  0.00  0.00    -0.052 C 
ATOM      9  C   UNL d   1       0.959   0.187   1.504  0.00  0.00     0.008 C 
ATOM     10  C   UNL d   1      -1.318   3.482   2.079  0.00  0.00     0.013 C 
ATOM     11  C   UNL d   1      -1.033   3.551   0.574  0.00  0.00     0.011 C 
ATOM     12  C   UNL d   1       2.287   4.232   2.999  0.00  0.00     0.009 C 
ATOM     13  C   UNL d   1       0.046   5.115   3.587  0.00  0.00     0.126 C 
ATOM     14  C   UNL d   1      -0.867  -1.048   0.394  0.00  0.00     0.048 C 
ATOM     15  C   UNL d   1      -2.079  -0.102  -1.458  0.00  0.00     0.044 C 
ATOM     16  C   UNL d   1      -1.890  -1.135  -0.546  0.00  0.00     0.069 C 
ATOM     17  C   UNL d   1       1.562   5.306   3.840  0.00  0.00     0.033 C 
ATOM     18  C   UNL d   1      -0.050   2.644   4.064  0.00  0.00     0.018 C 
ATOM     19  C   UNL d   1      -1.602   2.157  -2.384  0.00  0.00     0.049 C 
ENDROOT
BRANCH  13  20
ATOM     20  O   UNL d   1      -0.682   5.257   4.793  0.00  0.00    -0.395 OA
ATOM     21  H   UNL d   1      -1.601   4.995   4.616  0.00  0.00     0.210 HD
ENDBRANCH  13  20
BRANCH  16  22
ATOM     22  O   UNL d   1      -2.647  -2.272  -0.535  0.00  0.00    -0.356 OA
ATOM     23  C   UNL d   1      -4.045  -2.004  -0.672  0.00  0.00     0.210 C 
ENDBRANCH  16  22
TORSDOF 2
