REMARK  2 active torsions:
REMARK  status: ('A' for Active; 'I' for Inactive)
REMARK    1  A    between atoms: C_7  and  C_1 
REMARK    2  A    between atoms: C_5  and  C_2 
ROOT
ATOM      1  C   UNL d   1       0.907   0.093   0.055  0.00  0.00     0.072 C 
ATOM      2  C   UNL d   1       0.272  -1.096   0.116  0.00  0.00     0.043 C 
ATOM      3  C   UNL d   1       0.129   1.290   0.040  0.00  0.00     0.102 C 
ATOM      4  N   UNL d   1      -0.524   2.250  -0.002  0.00  0.00    -0.191 NA
ENDROOT
BRANCH   1   5
ATOM      5  C   UNL d   1       2.362   0.265  -0.039  0.00  0.00     0.052 A 
ATOM      6  N   UNL d   1       3.008   0.475   1.133  0.00  0.00    -0.365 N 
ATOM      7  C   UNL d   1       4.348   0.635   1.079  0.00  0.00     0.088 A 
ATOM      8  HN  UNL d   1       2.504   0.510   2.020  1.00  0.00     0.165 HD
ATOM      9  C   UNL d   1       5.080   0.604  -0.096  0.00  0.00     0.017 A 
ATOM     10  C   UNL d   1       4.399   0.392  -1.289  0.00  0.00     0.004 A 
ATOM     11  C   UNL d   1       3.018   0.214  -1.266  0.00  0.00     0.031 A 
ENDBRANCH   1   5
BRANCH   2  12
ATOM     12  C   UNL d   1       0.902  -2.377   0.137  0.00  0.00     0.006 A 
ATOM     13  S   UNL d   1       0.082  -3.716  -0.586  0.00  0.00    -0.102 SA
ATOM     14  C   UNL d   1       1.348  -4.800  -0.218  0.00  0.00     0.050 A 
ATOM     15  C   UNL d   1       2.368  -4.185   0.466  0.00  0.00     0.008 A 
ATOM     16  C   UNL d   1       2.099  -2.804   0.690  0.00  0.00     0.019 A 
ENDBRANCH   2  12
TORSDOF 2
