REMARK  1 active torsions:
REMARK  status: ('A' for Active; 'I' for Inactive)
REMARK    1  A    between atoms: C_8  and  C_4 
ROOT
ATOM      1  C   UNL d   1      -0.191   0.094  -0.097  0.00  0.00     0.053 A 
ATOM      2  C   UNL d   1       0.311  -1.146  -0.266  0.00  0.00    -0.015 A 
ATOM      3  C   UNL d   1       2.605  -0.309  -0.095  0.00  0.00     0.126 A 
ATOM      4  C   UNL d   1       1.769  -1.358  -0.282  0.00  0.00     0.033 A 
ATOM      5  N   UNL d   1       0.664   1.150   0.069  0.00  0.00    -0.321 N 
ATOM      6  C   UNL d   1       2.028   1.051   0.086  0.00  0.00     0.267 A 
ATOM      7  C   UNL d   1      -1.656   0.313  -0.071  0.00  0.00    -0.003 A 
ATOM      8  C   UNL d   1       4.025  -0.418  -0.054  0.00  0.00     0.106 C 
ATOM      9  C   UNL d   1      -0.624  -2.332  -0.397  0.00  0.00     0.046 C 
ATOM     10  N   UNL d   1       5.180  -0.533  -0.032  0.00  0.00    -0.191 NA
ATOM     11  O   UNL d   1       2.723   2.051   0.240  0.00  0.00    -0.266 OA
ATOM     12  C   UNL d   1      -2.501  -0.783   0.203  0.00  0.00    -0.045 A 
ATOM     13  C   UNL d   1      -1.891  -2.141   0.445  0.00  0.00     0.044 C 
ATOM     14  C   UNL d   1      -2.240   1.568  -0.304  0.00  0.00     0.014 A 
ATOM     15  C   UNL d   1      -3.887  -0.603   0.295  0.00  0.00     0.008 A 
ATOM     16  C   UNL d   1      -3.625   1.735  -0.233  0.00  0.00     0.001 A 
ATOM     17  C   UNL d   1      -4.446   0.654   0.075  0.00  0.00     0.001 A 
ATOM     18  H   UNL d   1       0.304   2.081   0.236  0.00  0.00     0.169 HD
ENDROOT
BRANCH   4  19
ATOM     19  C   UNL d   1       2.357  -2.651  -0.461  0.00  0.00     0.087 A 
ATOM     20  O   UNL d   1       2.595  -3.512   0.586  0.00  0.00    -0.322 OA
ATOM     21  C   UNL d   1       3.155  -4.642   0.086  0.00  0.00     0.142 A 
ATOM     22  C   UNL d   1       3.280  -4.553  -1.276  0.00  0.00     0.027 A 
ATOM     23  C   UNL d   1       2.769  -3.281  -1.629  0.00  0.00     0.040 A 
ENDBRANCH   4  19
TORSDOF 1
