REMARK  7 active torsions:
REMARK  status: ('A' for Active; 'I' for Inactive)
REMARK    1  A    between atoms: C_17  and  N_1 
REMARK    2  A    between atoms: C_21  and  C_2 
REMARK    3  A    between atoms: S_18  and  C_7 
REMARK    4  A    between atoms: C_8  and  N_15 
REMARK       I    between atoms: N_15  and  C_19 
REMARK    5  A    between atoms: C_29  and  C_17 
REMARK    6  A    between atoms: C_28  and  S_18 
REMARK    7  A    between atoms: C_19  and  C_28 
ROOT
ATOM      1  N   UNL d   1      -0.235  -1.354   0.161  0.00  0.00    -0.306 N 
ATOM      2  C   UNL d   1       0.951  -0.669  -0.072  0.00  0.00     0.135 C 
ATOM      3  N   UNL d   1       0.639   0.621  -0.139  0.00  0.00    -0.283 N 
ATOM      4  HN  UNL d   1       1.288   1.370  -0.379  1.00  0.00     0.188 HD
ATOM      5  C   UNL d   1      -1.190  -0.393   0.391  0.00  0.00     0.163 C 
ATOM      6  N   UNL d   1      -0.684   0.792   0.163  0.00  0.00    -0.278 N 
ATOM      7  HN  UNL d   1      -1.184   1.680   0.204  1.00  0.00     0.189 HD
ENDROOT
BRANCH   5   8
ATOM      8  S   UNL d   1      -2.796  -0.713   0.973  0.00  0.00    -0.083 SA
BRANCH   8   9
ATOM      9  C   UNL d   1      -3.473   0.973   0.963  0.00  0.00     0.185 C 
BRANCH   9  10
ATOM     10  C   UNL d   1      -4.876   1.118   1.537  0.00  0.00     0.233 C 
ATOM     11  N   UNL d   1      -5.362   0.065   2.278  0.00  0.00    -0.305 N 
ATOM     12  H   UNL d   1      -4.803  -0.764   2.422  0.00  0.00     0.171 HD
ATOM     13  O   UNL d   1      -5.478   2.175   1.345  0.00  0.00    -0.272 OA
BRANCH  11  14
ATOM     14  C   UNL d   1      -6.629   0.091   2.807  0.00  0.00     0.168 A 
ATOM     15  S   UNL d   1      -7.096  -1.299   3.686  0.00  0.00    -0.031 SA
ATOM     16  C   UNL d   1      -8.622  -0.537   3.924  0.00  0.00     0.126 A 
ATOM     17  C   UNL d   1      -9.711  -1.136   4.643  0.00  0.00     0.110 A 
ATOM     18  N   UNL d   1      -8.713   0.657   3.375  0.00  0.00    -0.289 N 
ATOM     19  O   UNL d   1      -9.648  -2.365   5.255  0.00  0.00    -0.320 OA
ATOM     20  C   UNL d   1     -10.981  -0.614   4.850  0.00  0.00     0.042 A 
ATOM     21  C   UNL d   1     -10.854  -2.605   5.833  0.00  0.00     0.142 A 
ATOM     22  C   UNL d   1     -11.713  -1.556   5.611  0.00  0.00     0.027 A 
ATOM     23  N   UNL d   1      -7.549   1.022   2.726  0.00  0.00    -0.279 N 
ATOM     24  HN  UNL d   1      -9.545   1.244   3.424  1.00  0.00     0.188 HD
ATOM     25  HN  UNL d   1      -7.420   1.910   2.242  1.00  0.00     0.189 HD
ENDBRANCH  11  14
ENDBRANCH   9  10
ENDBRANCH   8   9
ENDBRANCH   5   8
BRANCH   1  26
ATOM     26  C   UNL d   1      -0.480  -2.781   0.115  0.00  0.00     0.171 C 
BRANCH  26  27
ATOM     27  C   UNL d   1      -0.233  -3.506   1.420  0.00  0.00    -0.040 A 
ATOM     28  C   UNL d   1       0.215  -2.875   2.593  0.00  0.00     0.009 A 
ATOM     29  C   UNL d   1       0.484  -3.617   3.744  0.00  0.00     0.001 A 
ATOM     30  C   UNL d   1       0.303  -4.996   3.744  0.00  0.00     0.000 A 
ATOM     31  C   UNL d   1      -0.156  -5.637   2.596  0.00  0.00     0.001 A 
ATOM     32  C   UNL d   1      -0.422  -4.897   1.442  0.00  0.00     0.009 A 
ENDBRANCH  26  27
ENDBRANCH   1  26
BRANCH   2  33
ATOM     33  C   UNL d   1       2.346  -1.158  -0.166  0.00  0.00     0.012 A 
ATOM     34  C   UNL d   1       2.762  -2.473   0.048  0.00  0.00     0.032 A 
ATOM     35  C   UNL d   1       4.118  -2.778   0.019  0.00  0.00     0.088 A 
ATOM     36  N   UNL d   1       5.088  -1.876  -0.213  0.00  0.00    -0.375 N 
ATOM     37  C   UNL d   1       4.685  -0.609  -0.423  0.00  0.00     0.088 A 
ATOM     38  HN  UNL d   1       6.074  -2.137  -0.228  1.00  0.00     0.164 HD
ATOM     39  C   UNL d   1       3.356  -0.215  -0.414  0.00  0.00     0.032 A 
ENDBRANCH   2  33
TORSDOF 7
