REMARK  1 active torsions:
REMARK  status: ('A' for Active; 'I' for Inactive)
REMARK    1  A    between atoms: O_15  and  N_10 
ROOT
ATOM      1  S   UNL d   1      -1.281   1.722   0.152  0.00  0.00     0.180 S 
ATOM      2  C   UNL d   1       0.158   0.709   0.087  0.00  0.00     0.071 A 
ATOM      3  C   UNL d   1       0.068  -0.681  -0.013  0.00  0.00     0.011 A 
ATOM      4  C   UNL d   1      -1.237  -1.415  -0.055  0.00  0.00     0.045 C 
ATOM      5  C   UNL d   1      -2.601   0.648  -0.372  0.00  0.00     0.115 C 
ATOM      6  C   UNL d   1      -2.490  -0.668   0.377  0.00  0.00     0.080 C 
ATOM      7  O   UNL d   1      -1.113   2.748  -0.858  0.00  0.00    -0.222 OA
ATOM      8  O   UNL d   1      -1.468   2.056   1.549  0.00  0.00    -0.222 OA
ATOM      9  C   UNL d   1       1.401   1.358   0.106  0.00  0.00     0.026 A 
ATOM     10  N   UNL d   1      -1.229  -2.658  -0.443  0.00  0.00    -0.273 N 
ATOM     11  HN  UNL d   1      -0.387  -3.157  -0.727  1.00  0.00     0.194 HD
ATOM     12  C   UNL d   1       1.260  -1.422  -0.083  0.00  0.00     0.038 A 
ATOM     13  C   UNL d   1       2.499  -0.777  -0.053  0.00  0.00     0.035 A 
ATOM     14  C   UNL d   1       2.574   0.610   0.038  0.00  0.00     0.025 A 
ATOM     15 CL   UNL d   1       3.947  -1.703  -0.129  0.00  0.00    -0.084 Cl
ATOM     16  C   UNL d   1      -3.950   1.321  -0.146  0.00  0.00     0.027 C 
ENDROOT
BRANCH  10  17
ATOM     17  O   UNL d   1      -2.502  -3.232  -0.426  0.00  0.00    -0.290 OA
ATOM     18  H   UNL d   1      -2.328  -4.145  -0.724  0.00  0.00     0.244 HD
ENDBRANCH  10  17
TORSDOF 1
