REMARK  5 active torsions:
REMARK  status: ('A' for Active; 'I' for Inactive)
REMARK    1  A    between atoms: C_13  and  C_3 
REMARK    2  A    between atoms: C_7  and  C_5 
REMARK    3  A    between atoms: C_6  and  C_14 
REMARK    4  A    between atoms: C_9  and  C_7 
REMARK       I    between atoms: N_15  and  C_9 
REMARK    5  A    between atoms: N_10  and  N_15 
ROOT
ATOM      1  C   UNL d   1       3.731   0.736  -0.110  0.00  0.00     0.241 C 
ATOM      2  N   UNL d   1       3.872  -0.642  -0.125  0.00  0.00    -0.270 N 
ATOM      3  O   UNL d   1       4.684   1.520  -0.172  0.00  0.00    -0.271 OA
ATOM      4  H   UNL d   1       3.023  -1.195  -0.260  0.00  0.00     0.190 HD
ENDROOT
BRANCH   1   5
ATOM      5  C   UNL d   1       2.336   1.284   0.124  0.00  0.00     0.162 C 
BRANCH   5   6
ATOM      6  C   UNL d   1       1.163   0.516  -0.413  0.00  0.00     0.025 A 
ATOM      7  N   UNL d   1       1.338  -0.669  -1.112  0.00  0.00    -0.352 N 
ATOM      8  C   UNL d   1       0.191  -1.084  -1.628  0.00  0.00     0.084 A 
ATOM      9  HN  UNL d   1       2.229  -1.155  -1.214  1.00  0.00     0.166 HD
ATOM     10  S   UNL d   1      -1.179  -0.165  -1.131  0.00  0.00    -0.081 SA
ATOM     11  C   UNL d   1      -0.150   0.921  -0.302  0.00  0.00     0.077 A 
BRANCH   8  12
ATOM     12  C   UNL d   1       0.086  -2.208  -2.584  0.00  0.00    -0.002 A 
ATOM     13  C   UNL d   1       1.246  -2.947  -2.878  0.00  0.00     0.014 A 
ATOM     14  C   UNL d   1       1.234  -3.968  -3.832  0.00  0.00     0.001 A 
ATOM     15  C   UNL d   1       0.059  -4.266  -4.513  0.00  0.00     0.000 A 
ATOM     16  C   UNL d   1      -1.106  -3.558  -4.230  0.00  0.00     0.001 A 
ATOM     17  C   UNL d   1      -1.094  -2.540  -3.270  0.00  0.00     0.014 A 
ENDBRANCH   8  12
ENDBRANCH   5   6
ENDBRANCH   1   5
BRANCH   2  18
ATOM     18  N   UNL d   1       5.026  -1.146  -0.658  0.00  0.00    -0.308 N 
ATOM     19  C   UNL d   1       5.241  -2.411  -0.496  0.00  0.00     0.120 C 
ATOM     20  HN  UNL d   1       5.686  -0.552  -1.160  1.00  0.00     0.186 HD
BRANCH  19  21
ATOM     21  C   UNL d   1       6.340  -3.114  -1.216  0.00  0.00     0.008 A 
ATOM     22  C   UNL d   1       6.215  -4.504  -1.410  0.00  0.00     0.046 A 
ATOM     23 CL   UNL d   1       5.024  -5.475  -0.608  0.00  0.00    -0.083 Cl
ATOM     24  C   UNL d   1       7.063  -5.182  -2.294  0.00  0.00     0.025 A 
ATOM     25  C   UNL d   1       8.049  -4.490  -2.988  0.00  0.00     0.002 A 
ATOM     26  C   UNL d   1       8.238  -3.135  -2.739  0.00  0.00     0.007 A 
ATOM     27  C   UNL d   1       7.415  -2.430  -1.835  0.00  0.00    -0.049 A 
ATOM     28  C   UNL d   1       7.845  -1.016  -1.534  0.00  0.00     0.049 C 
ENDBRANCH  19  21
ENDBRANCH   2  18
TORSDOF 5
