REMARK  7 active torsions:
REMARK  status: ('A' for Active; 'I' for Inactive)
REMARK    1  A    between atoms: C_3  and  C_1 
REMARK    2  A    between atoms: C_2  and  C_4 
REMARK    3  A    between atoms: C_6  and  C_5 
REMARK    4  A    between atoms: O_22  and  C_6 
REMARK    5  A    between atoms: C_11  and  C_10 
REMARK    6  A    between atoms: C_13  and  C_11 
REMARK    7  A    between atoms: C_12  and  O_22 
ROOT
ATOM      1  C   UNL d   1       0.401   1.371  -0.029  0.00  0.00     0.049 A 
ATOM      2  C   UNL d   1      -0.893   2.851   1.425  0.00  0.00     0.049 A 
ATOM      3  C   UNL d   1       0.854   3.773  -0.009  0.00  0.00     0.041 A 
ATOM      4  C   UNL d   1      -0.606   1.568   0.929  0.00  0.00     0.032 A 
ATOM      5  C   UNL d   1       1.121   2.484  -0.494  0.00  0.00     0.034 A 
ATOM      6  C   UNL d   1      -0.158   3.951   0.945  0.00  0.00     0.034 A 
ENDROOT
BRANCH   3   7
ATOM      7  C   UNL d   1       1.687   4.897  -0.529  0.00  0.00     0.297 C 
ATOM      8  O   UNL d   1       2.507   4.745  -1.421  0.00  0.00    -0.259 OA
BRANCH   7   9
ATOM      9  O   UNL d   1       1.405   6.050   0.147  0.00  0.00    -0.287 OA
BRANCH   9  10
ATOM     10  C   UNL d   1       2.194   7.159  -0.181  0.00  0.00     0.150 C 
ATOM     11  C   UNL d   1       1.948   8.364   0.340  0.00  0.00     0.080 C 
BRANCH  11  12
ATOM     12  C   UNL d   1       2.825   9.511  -0.008  0.00  0.00     0.183 C 
ATOM     13  O   UNL d   1       3.950   9.355  -0.471  0.00  0.00    -0.288 OA
BRANCH  12  14
ATOM     14  C   UNL d   1       2.310  10.877   0.272  0.00  0.00     0.014 A 
ATOM     15  C   UNL d   1       3.226  11.887   0.595  0.00  0.00     0.017 A 
ATOM     16  C   UNL d   1       2.778  13.185   0.858  0.00  0.00     0.025 A 
ATOM     17  C   UNL d   1       1.417  13.476   0.784  0.00  0.00     0.034 A 
ATOM     18  C   UNL d   1       0.500  12.483   0.443  0.00  0.00     0.025 A 
ATOM     19 CL   UNL d   1       0.861  15.071   1.109  0.00  0.00    -0.084 Cl
ATOM     20  C   UNL d   1       0.944  11.183   0.182  0.00  0.00     0.017 A 
ENDBRANCH  12  14
ENDBRANCH  11  12
ENDBRANCH   9  10
ENDBRANCH   7   9
ENDBRANCH   3   7
BRANCH   1  21
ATOM     21  C   UNL d   1       0.733  -0.009  -0.551  0.00  0.00     0.417 C 
ATOM     22  F   UNL d   1      -0.018  -0.994   0.015  0.00  0.00    -0.166 F 
ATOM     23  F   UNL d   1       2.030  -0.350  -0.322  0.00  0.00    -0.166 F 
ATOM     24  F   UNL d   1       0.542  -0.116  -1.893  0.00  0.00    -0.166 F 
ENDBRANCH   1  21
BRANCH   2  25
ATOM     25  C   UNL d   1      -1.967   3.061   2.470  0.00  0.00     0.417 C 
ATOM     26  F   UNL d   1      -2.566   1.907   2.873  0.00  0.00    -0.166 F 
ATOM     27  F   UNL d   1      -1.480   3.647   3.597  0.00  0.00    -0.166 F 
ATOM     28  F   UNL d   1      -2.967   3.870   2.027  0.00  0.00    -0.166 F 
ENDBRANCH   2  25
TORSDOF 7
