REMARK  6 active torsions:
REMARK  status: ('A' for Active; 'I' for Inactive)
REMARK    1  A    between atoms: C_9  and  C_1 
REMARK    2  A    between atoms: N_18  and  C_3 
REMARK    3  A    between atoms: C_12  and  C_6 
REMARK       I    between atoms: N_17  and  C_9 
REMARK    4  A    between atoms: C_16  and  C_10 
REMARK    5  A    between atoms: N_13  and  N_17 
REMARK    6  A    between atoms: C_29  and  C_25 
ROOT
ATOM      1  C   UNL d   1       2.408   0.065   0.030  0.00  0.00     0.174 A 
ATOM      2  C   UNL d   1       0.286   0.865   0.035  0.00  0.00     0.058 A 
ATOM      3  C   UNL d   1       1.658   1.222   0.086  0.00  0.00     0.081 A 
ATOM      4  C   UNL d   1       0.283  -0.532  -0.018  0.00  0.00     0.162 A 
ATOM      5  O   UNL d   1       1.568  -1.017  -0.025  0.00  0.00    -0.285 OA
ATOM      6  C   UNL d   1      -0.969   1.508   0.049  0.00  0.00     0.017 A 
ATOM      7  N   UNL d   1      -0.793  -1.344  -0.057  0.00  0.00    -0.335 N 
ATOM      8  HN  UNL d   1      -0.717  -2.361  -0.089  1.00  0.00     0.168 HD
ATOM      9  C   UNL d   1      -1.986  -0.698  -0.051  0.00  0.00     0.045 A 
ATOM     10  C   UNL d   1      -2.105   0.692   0.016  0.00  0.00     0.045 A 
ENDROOT
BRANCH   1  11
ATOM     11  C   UNL d   1       3.850  -0.074   0.007  0.00  0.00     0.296 C 
ATOM     12  N   UNL d   1       4.343  -1.373  -0.016  0.00  0.00    -0.264 N 
ATOM     13  H   UNL d   1       3.711  -2.166  -0.036  0.00  0.00     0.190 HD
ATOM     14  O   UNL d   1       4.595   0.913  -0.003  0.00  0.00    -0.264 OA
BRANCH  12  15
ATOM     15  N   UNL d   1       5.697  -1.538  -0.089  0.00  0.00    -0.308 N 
ATOM     16  C   UNL d   1       6.165  -2.739  -0.146  0.00  0.00     0.118 C 
ATOM     17  HN  UNL d   1       6.322  -0.733  -0.098  1.00  0.00     0.186 HD
BRANCH  16  18
ATOM     18  C   UNL d   1       7.624  -2.963  -0.264  0.00  0.00    -0.019 A 
ATOM     19  C   UNL d   1       8.514  -1.881  -0.259  0.00  0.00     0.013 A 
ATOM     20  C   UNL d   1       9.883  -2.101  -0.415  0.00  0.00     0.001 A 
ATOM     21  C   UNL d   1      10.365  -3.399  -0.576  0.00  0.00     0.000 A 
ATOM     22  C   UNL d   1       9.480  -4.479  -0.570  0.00  0.00     0.001 A 
ATOM     23  C   UNL d   1       8.107  -4.265  -0.412  0.00  0.00     0.013 A 
ENDBRANCH  16  18
ENDBRANCH  12  15
ENDBRANCH   1  11
BRANCH   3  24
ATOM     24  N   UNL d   1       2.178   2.463   0.171  0.00  0.00    -0.396 N 
ATOM     25  H   UNL d   1       1.609   3.273  -0.070  0.00  0.00     0.156 HD
ATOM     26  H   UNL d   1       3.179   2.607   0.018  0.00  0.00     0.156 HD
ENDBRANCH   3  24
BRANCH   6  27
ATOM     27  C   UNL d   1      -1.099   2.955   0.129  0.00  0.00     0.086 A 
ATOM     28  O   UNL d   1      -0.139   3.709  -0.486  0.00  0.00    -0.322 OA
ATOM     29  C   UNL d   1      -0.447   5.015  -0.280  0.00  0.00     0.142 A 
ATOM     30  C   UNL d   1      -1.618   5.123   0.428  0.00  0.00     0.027 A 
ATOM     31  C   UNL d   1      -2.050   3.797   0.676  0.00  0.00     0.040 A 
ENDBRANCH   6  27
BRANCH   9  32
ATOM     32  C   UNL d   1      -3.197  -1.555  -0.121  0.00  0.00    -0.009 A 
ATOM     33  C   UNL d   1      -3.254  -2.796   0.534  0.00  0.00     0.014 A 
ATOM     34  C   UNL d   1      -4.402  -3.599   0.479  0.00  0.00     0.007 A 
ATOM     35  C   UNL d   1      -5.526  -3.190  -0.245  0.00  0.00    -0.062 A 
ATOM     36  C   UNL d   1      -5.491  -1.956  -0.895  0.00  0.00     0.007 A 
ATOM     37  C   UNL d   1      -6.744  -4.063  -0.314  0.00  0.00     0.048 C 
ATOM     38  C   UNL d   1      -4.343  -1.157  -0.838  0.00  0.00     0.014 A 
ENDBRANCH   9  32
TORSDOF 6
