REMARK  9 active torsions:
REMARK  status: ('A' for Active; 'I' for Inactive)
REMARK    1  A    between atoms: C_3  and  C_6 
REMARK       I    between atoms: N_9  and  C_3 
REMARK    2  A    between atoms: C_4  and  C_16 
REMARK    3  A    between atoms: C_5  and  C_17 
REMARK    4  A    between atoms: O_14  and  C_7 
REMARK    5  A    between atoms: O_15  and  C_8 
REMARK    6  A    between atoms: N_12  and  N_9 
REMARK    7  A    between atoms: C_24  and  N_12 
REMARK    8  A    between atoms: C_16  and  O_14 
REMARK    9  A    between atoms: C_17  and  O_15 
ROOT
ATOM      1  N   UNL d   1      -1.376   0.060  -0.037  0.00  0.00    -0.318 N 
ATOM      2  HN  UNL d   1      -2.395   0.089  -0.065  1.00  0.00     0.170 HD
ATOM      3  C   UNL d   1       1.411  -0.045   0.018  0.00  0.00     0.041 A 
ATOM      4  C   UNL d   1      -0.646   1.190   0.007  0.00  0.00     0.145 A 
ATOM      5  C   UNL d   1      -0.712  -1.109  -0.043  0.00  0.00     0.145 A 
ATOM      6  C   UNL d   1       0.739   1.185   0.035  0.00  0.00     0.073 A 
ATOM      7  C   UNL d   1       0.666  -1.222  -0.007  0.00  0.00     0.073 A 
ENDROOT
BRANCH   3   8
ATOM      8  C   UNL d   1       2.904  -0.022  -0.060  0.00  0.00     0.266 C 
ATOM      9  N   UNL d   1       3.576  -1.235  -0.008  0.00  0.00    -0.283 N 
ATOM     10  H   UNL d   1       3.168  -2.047   0.441  0.00  0.00     0.184 HD
ATOM     11  O   UNL d   1       3.496   1.055  -0.170  0.00  0.00    -0.266 OA
BRANCH   9  12
ATOM     12  N   UNL d   1       4.986  -1.169   0.070  0.00  0.00    -0.203 NA
ATOM     13  H   UNL d   1       5.305  -0.200  -0.075  0.00  0.00     0.153 HD
BRANCH  12  14
ATOM     14  C   UNL d   1       5.673  -2.061  -0.794  0.00  0.00     0.027 A 
ATOM     15  C   UNL d   1       7.006  -1.772  -1.140  0.00  0.00     0.028 A 
ATOM     16  C   UNL d   1       7.757  -2.650  -1.932  0.00  0.00     0.044 A 
ATOM     17  C   UNL d   1       7.189  -3.841  -2.356  0.00  0.00     0.116 A 
ATOM     18  C   UNL d   1       5.896  -4.181  -1.983  0.00  0.00     0.044 A 
ATOM     19  F   UNL d   1       7.898  -4.681  -3.122  0.00  0.00    -0.206 F 
ATOM     20  C   UNL d   1       5.148  -3.302  -1.190  0.00  0.00     0.028 A 
ENDBRANCH  12  14
ENDBRANCH   9  12
ENDBRANCH   3   8
BRANCH   5  21
ATOM     21  O   UNL d   1      -1.431  -2.284  -0.098  0.00  0.00    -0.327 OA
BRANCH  21  22
ATOM     22  C   UNL d   1      -2.757  -2.104  -0.626  0.00  0.00     0.294 C 
BRANCH  22  23
ATOM     23  C   UNL d   1      -3.812  -1.695   0.399  0.00  0.00     0.408 C 
ATOM     24  F   UNL d   1      -3.317  -1.524   1.643  0.00  0.00    -0.169 F 
ATOM     25  F   UNL d   1      -4.448  -0.559   0.037  0.00  0.00    -0.169 F 
ATOM     26  F   UNL d   1      -4.765  -2.661   0.488  0.00  0.00    -0.169 F 
ENDBRANCH  22  23
ENDBRANCH  21  22
ENDBRANCH   5  21
BRANCH   4  27
ATOM     27  O   UNL d   1      -1.409   2.316  -0.099  0.00  0.00    -0.327 OA
BRANCH  27  28
ATOM     28  C   UNL d   1      -0.944   3.468   0.610  0.00  0.00     0.294 C 
BRANCH  28  29
ATOM     29  C   UNL d   1      -1.963   4.605   0.535  0.00  0.00     0.408 C 
ATOM     30  F   UNL d   1      -3.121   4.243  -0.056  0.00  0.00    -0.169 F 
ATOM     31  F   UNL d   1      -2.264   5.063   1.773  0.00  0.00    -0.169 F 
ATOM     32  F   UNL d   1      -1.461   5.650  -0.165  0.00  0.00    -0.169 F 
ENDBRANCH  28  29
ENDBRANCH  27  28
ENDBRANCH   4  27
TORSDOF 9
