REMARK  2 active torsions:
REMARK  status: ('A' for Active; 'I' for Inactive)
REMARK    1  A    between atoms: S_2  and  C_1 
REMARK    2  A    between atoms: N_10  and  S_2 
ROOT
ATOM      1  C   UNL d   1      -1.366  -0.782  -0.007  0.00  0.00     0.160 A 
ATOM      2  N   UNL d   1      -1.435   0.605  -0.000  0.00  0.00    -0.341 N 
ATOM      3  HN  UNL d   1      -2.273   1.186   0.006  1.00  0.00     0.167 HD
ATOM      4  C   UNL d   1      -0.052  -1.205  -0.013  0.00  0.00     0.134 A 
ATOM      5  C   UNL d   1      -0.180   1.002  -0.003  0.00  0.00     0.183 A 
ATOM      6  N   UNL d   1       0.684  -0.057  -0.013  0.00  0.00    -0.354 N 
ATOM      7  C   UNL d   1       2.123   0.035  -0.027  0.00  0.00     0.156 C 
ENDROOT
BRANCH   1   8
ATOM      8  S   UNL d   1      -2.781  -1.798  -0.012  0.00  0.00     0.256 S 
ATOM      9  O   UNL d   1      -2.733  -2.478  -1.285  0.00  0.00    -0.205 OA
ATOM     10  O   UNL d   1      -2.742  -2.478   1.262  0.00  0.00    -0.205 OA
BRANCH   8  11
ATOM     11  N   UNL d   1      -4.122  -0.775  -0.017  0.00  0.00    -0.224 NA
ATOM     12  H   UNL d   1      -4.105  -0.201  -0.860  0.00  0.00     0.136 HD
ATOM     13  H   UNL d   1      -4.112  -0.203   0.828  0.00  0.00     0.136 HD
ENDBRANCH   8  11
ENDBRANCH   1   8
TORSDOF 2
