REMARK  4 active torsions:
REMARK  status: ('A' for Active; 'I' for Inactive)
REMARK    1  A    between atoms: C_2  and  S_1 
REMARK    2  A    between atoms: N_4  and  S_1 
REMARK    3  A    between atoms: C_6  and  C_12 
REMARK    4  A    between atoms: C_14  and  N_13 
ROOT
ATOM      1  N   UNL d   1       0.184  -0.859   1.368  0.00  0.00    -0.305 N 
ATOM      2  N   UNL d   1      -1.662  -1.819   3.535  0.00  0.00    -0.366 N 
ATOM      3  C   UNL d   1      -0.962  -0.077   1.921  0.00  0.00     0.155 C 
ATOM      4  C   UNL d   1      -1.270  -0.417   3.384  0.00  0.00     0.145 C 
ATOM      5  C   UNL d   1       0.273  -3.063   2.611  0.00  0.00     0.040 C 
ATOM      6  C   UNL d   1      -0.036  -2.332   1.305  0.00  0.00     0.137 C 
ATOM      7  C   UNL d   1      -0.585  -2.749   3.840  0.00  0.00     0.126 C 
ENDROOT
BRANCH   1   8
ATOM      8  S   UNL d   1       0.983  -0.152   0.033  0.00  0.00     0.263 S 
ATOM      9  O   UNL d   1       0.852   1.287   0.092  0.00  0.00    -0.200 OA
ATOM     10  O   UNL d   1       2.303  -0.761   0.000  0.00  0.00    -0.200 OA
BRANCH   8  11
ATOM     11  C   UNL d   1       0.169  -0.689  -1.435  0.00  0.00     0.110 A 
ATOM     12  C   UNL d   1      -1.196  -0.533  -1.724  0.00  0.00     0.108 A 
ATOM     13  C   UNL d   1      -1.772  -1.026  -2.981  0.00  0.00     0.086 A 
ATOM     14  N   UNL d   1      -2.194   0.030  -1.030  0.00  0.00    -0.238 N 
ATOM     15  N   UNL d   1      -3.083  -0.768  -2.980  0.00  0.00    -0.239 N 
ATOM     16  C   UNL d   1      -1.007  -1.658  -3.977  0.00  0.00     0.034 A 
ATOM     17  O   UNL d   1      -3.338  -0.116  -1.790  0.00  0.00    -0.156 OA
ATOM     18  HN  UNL d   1      -3.757  -1.004  -3.708  1.00  0.00     0.197 HD
ATOM     19  C   UNL d   1       0.361  -1.770  -3.684  0.00  0.00     0.004 A 
ATOM     20  C   UNL d   1       0.923  -1.307  -2.467  0.00  0.00     0.028 A 
ATOM     21  HN  UNL d   1      -2.123   0.480  -0.118  1.00  0.00     0.197 HD
ENDBRANCH   8  11
ENDBRANCH   1   8
BRANCH   2  22
ATOM     22  C   UNL d   1      -2.980  -2.215   3.616  0.00  0.00     0.102 A 
ATOM     23  N   UNL d   1      -3.279  -3.358   4.271  0.00  0.00    -0.352 N 
ATOM     24  C   UNL d   1      -4.575  -3.740   4.387  0.00  0.00     0.106 A 
ATOM     25  HN  UNL d   1      -2.536  -3.928   4.675  1.00  0.00     0.166 HD
ATOM     26  C   UNL d   1      -5.640  -3.050   3.841  0.00  0.00     0.063 A 
ATOM     27  C   UNL d   1      -5.336  -1.893   3.131  0.00  0.00     0.021 A 
ATOM     28  C   UNL d   1      -4.008  -1.476   3.028  0.00  0.00     0.049 A 
BRANCH  26  29
ATOM     29  C   UNL d   1      -7.047  -3.526   4.005  0.00  0.00     0.418 C 
ATOM     30  F   UNL d   1      -7.160  -4.659   4.752  0.00  0.00    -0.166 F 
ATOM     31  F   UNL d   1      -7.842  -2.601   4.610  0.00  0.00    -0.166 F 
ATOM     32  F   UNL d   1      -7.644  -3.805   2.813  0.00  0.00    -0.166 F 
ENDBRANCH  26  29
ENDBRANCH   2  22
TORSDOF 4
