REMARK  6 active torsions:
REMARK  status: ('A' for Active; 'I' for Inactive)
REMARK    1  A    between atoms: N_3  and  C_17 
REMARK    2  A    between atoms: C_19  and  C_6 
REMARK    3  A    between atoms: S_25  and  C_7 
REMARK    4  A    between atoms: C_15  and  C_30 
REMARK       I    between atoms: C_18  and  N_16 
REMARK    5  A    between atoms: C_21  and  C_18 
REMARK    6  A    between atoms: C_30  and  S_25 
ROOT
ATOM      1  N   UNL d   1       3.181  -6.524   0.270  0.00  0.00    -0.277 N 
ATOM      2  HN  UNL d   1       3.949  -7.161   0.483  1.00  0.00     0.189 HD
ATOM      3  C   UNL d   1       2.030  -6.838  -0.289  0.00  0.00     0.174 A 
ATOM      4  O   UNL d   1       1.214  -5.745  -0.460  0.00  0.00    -0.277 OA
ATOM      5  N   UNL d   1       3.144  -5.168   0.510  0.00  0.00    -0.281 N 
ATOM      6  HN  UNL d   1       3.883  -4.603   0.930  1.00  0.00     0.189 HD
ATOM      7  C   UNL d   1       1.969  -4.742   0.091  0.00  0.00     0.150 A 
ENDROOT
BRANCH   7   8
ATOM      8  C   UNL d   1       1.435  -3.353   0.112  0.00  0.00     0.167 C 
BRANCH   8   9
ATOM      9  S   UNL d   1      -0.373  -3.165   0.029  0.00  0.00    -0.095 SA
BRANCH   9  10
ATOM     10  C   UNL d   1      -0.899  -4.062   1.429  0.00  0.00     0.130 A 
ATOM     11  S   UNL d   1      -2.504  -4.653   1.625  0.00  0.00    -0.026 SA
ATOM     12  C   UNL d   1      -1.939  -5.514   2.972  0.00  0.00     0.168 A 
ATOM     13  N   UNL d   1      -0.696  -5.230   3.305  0.00  0.00    -0.278 N 
ATOM     14  N   UNL d   1      -2.643  -6.447   3.665  0.00  0.00    -0.302 N 
ATOM     15  N   UNL d   1      -0.084  -4.391   2.408  0.00  0.00    -0.286 N 
ATOM     16  HN  UNL d   1      -0.238  -5.596   4.140  1.00  0.00     0.189 HD
ATOM     17  HN  UNL d   1       0.879  -4.064   2.490  1.00  0.00     0.188 HD
ATOM     18  C   UNL d   1      -3.847  -7.053   3.592  0.00  0.00     0.247 C 
ATOM     19  H   UNL d   1      -2.096  -6.844   4.418  0.00  0.00     0.171 HD
ATOM     20  O   UNL d   1      -4.027  -7.952   4.422  0.00  0.00    -0.268 OA
BRANCH  18  21
ATOM     21  C   UNL d   1      -4.903  -6.767   2.581  0.00  0.00     0.076 C 
ATOM     22  C   UNL d   1      -6.200  -7.059   2.844  0.00  0.00    -0.082 C 
ATOM     23  C   UNL d   1      -6.713  -7.425   4.218  0.00  0.00     0.043 C 
ATOM     24  C   UNL d   1      -7.258  -7.104   1.775  0.00  0.00     0.043 C 
ENDBRANCH  18  21
ENDBRANCH   9  10
ENDBRANCH   8   9
ENDBRANCH   7   8
BRANCH   3  25
ATOM     25  C   UNL d   1       1.513  -8.130  -0.716  0.00  0.00     0.017 A 
ATOM     26  C   UNL d   1       0.261  -8.254  -1.347  0.00  0.00     0.025 A 
ATOM     27  C   UNL d   1      -0.268  -9.501  -1.737  0.00  0.00    -0.028 A 
ATOM     28  C   UNL d   1      -1.624  -9.496  -2.394  0.00  0.00     0.050 C 
ATOM     29  C   UNL d   1       0.495 -10.661  -1.485  0.00  0.00     0.108 A 
ATOM     30  C   UNL d   1       1.757 -10.548  -0.867  0.00  0.00     0.037 A 
ATOM     31  C   UNL d   1       2.256  -9.296  -0.490  0.00  0.00     0.018 A 
BRANCH  29  32
ATOM     32  N   UNL d   1       0.033 -12.022  -1.834  0.00  0.00    -0.115 N 
ATOM     33  O   UNL d   1      -1.079 -12.158  -2.365  0.00  0.00    -0.532 OA
ATOM     34  O   UNL d   1       0.793 -12.969  -1.586  0.00  0.00    -0.532 OA
ENDBRANCH  29  32
ENDBRANCH   3  25
TORSDOF 6
