REMARK  3 active torsions:
REMARK  status: ('A' for Active; 'I' for Inactive)
REMARK    1  A    between atoms: C_8  and  N_1 
REMARK    2  A    between atoms: O_21  and  C_18 
REMARK    3  A    between atoms: C_22  and  O_21 
ROOT
ATOM      1  N   UNL d   1       2.436  -0.668  -0.003  0.00  0.00    -0.254 N 
ATOM      2  C   UNL d   1       1.201  -1.335   0.001  0.00  0.00     0.186 A 
ATOM      3  C   UNL d   1       2.557   0.736  -0.009  0.00  0.00     0.267 A 
ATOM      4  C   UNL d   1       1.302   1.518  -0.068  0.00  0.00     0.062 A 
ATOM      5  N   UNL d   1       0.080  -0.548  -0.049  0.00  0.00    -0.331 N 
ATOM      6  C   UNL d   1       0.086   0.846  -0.076  0.00  0.00     0.067 A 
ATOM      7  C   UNL d   1      -1.112   1.573  -0.104  0.00  0.00     0.040 A 
ATOM      8  S   UNL d   1       0.900  -2.985   0.133  0.00  0.00    -0.040 SA
ATOM      9  C   UNL d   1       1.331   2.919  -0.115  0.00  0.00     0.038 A 
ATOM     10  C   UNL d   1      -1.090   2.967  -0.142  0.00  0.00     0.040 A 
ATOM     11  O   UNL d   1       3.614   1.368  -0.009  0.00  0.00    -0.267 OA
ATOM     12  C   UNL d   1       0.134   3.632  -0.153  0.00  0.00     0.013 A 
ATOM     13 BR   UNL d   1      -2.797   0.698  -0.087  0.00  0.00    -0.049 Br
ATOM     14 BR   UNL d   1       0.170   5.521  -0.217  0.00  0.00    -0.051 Br
ATOM     15  H   UNL d   1      -0.813  -1.033  -0.033  0.00  0.00     0.168 HD
ENDROOT
BRANCH   1  16
ATOM     16  C   UNL d   1       3.667  -1.407   0.001  0.00  0.00     0.045 A 
ATOM     17  C   UNL d   1       4.600  -1.214   1.029  0.00  0.00     0.033 A 
ATOM     18  C   UNL d   1       5.814  -1.912   1.030  0.00  0.00     0.039 A 
ATOM     19  C   UNL d   1       6.117  -2.792  -0.008  0.00  0.00     0.068 A 
ATOM     20  C   UNL d   1       5.184  -2.997  -1.025  0.00  0.00     0.039 A 
ATOM     21  C   UNL d   1       3.969  -2.305  -1.027  0.00  0.00     0.033 A 
BRANCH  19  22
ATOM     22  O   UNL d   1       7.261  -3.536  -0.106  0.00  0.00    -0.352 OA
BRANCH  22  23
ATOM     23  C   UNL d   1       8.434  -2.951   0.461  0.00  0.00     0.171 C 
ATOM     24  C   UNL d   1       9.598  -3.895   0.215  0.00  0.00     0.034 C 
ENDBRANCH  22  23
ENDBRANCH  19  22
ENDBRANCH   1  16
TORSDOF 3
