REMARK  13 active torsions:
REMARK  status: ('A' for Active; 'I' for Inactive)
REMARK    1  A    between atoms: C_6  and  C_1 
REMARK       I    between atoms: N_13  and  C_1 
REMARK       I    between atoms: C_2  and  N_14 
REMARK    2  A    between atoms: C_5  and  C_2 
REMARK    3  A    between atoms: C_3  and  C_8 
REMARK    4  A    between atoms: O_15  and  C_3 
REMARK    5  A    between atoms: C_4  and  C_7 
REMARK    6  A    between atoms: O_16  and  C_4 
REMARK    7  A    between atoms: C_17  and  N_13 
REMARK    8  A    between atoms: N_14  and  C_18 
REMARK    9  A    between atoms: C_20  and  C_17 
REMARK   10  A    between atoms: C_18  and  C_19 
REMARK   11  A    between atoms: C_19  and  C_22 
REMARK   12  A    between atoms: C_21  and  C_20 
REMARK   13  A    between atoms: C_22  and  C_21 
ROOT
ATOM      1  C   UNL d   1       5.490   2.074  -0.998  0.00  0.00     0.002 C 
ENDROOT
BRANCH   1   2
ATOM      2  C   UNL d   1       4.748   0.847  -0.438  0.00  0.00     0.020 C 
BRANCH   2   3
ATOM      3  C   UNL d   1       3.236   1.064  -0.522  0.00  0.00     0.123 C 
BRANCH   3   4
ATOM      4  N   UNL d   1       2.456  -0.060  -0.035  0.00  0.00    -0.358 N 
ATOM      5  C   UNL d   1       1.964  -0.109   1.245  0.00  0.00     0.241 C 
ATOM      6  O   UNL d   1       2.233   0.698   2.125  0.00  0.00    -0.269 OA
ATOM      7  H   UNL d   1       2.163  -0.754  -0.711  0.00  0.00     0.162 HD
BRANCH   5   8
ATOM      8  C   UNL d   1       1.029  -1.235   1.474  0.00  0.00     0.080 C 
ATOM      9  C   UNL d   1       0.464  -1.390   2.684  0.00  0.00     0.086 C 
BRANCH   9  10
ATOM     10  C   UNL d   1      -0.470  -2.506   2.895  0.00  0.00     0.165 C 
ATOM     11  O   UNL d   1      -0.791  -3.306   2.032  0.00  0.00    -0.647 OA
BRANCH  10  12
ATOM     12  O   UNL d   1      -0.937  -2.551   4.157  0.00  0.00    -0.773 OA
ATOM     13  H   UNL d   1      -0.606  -1.859   4.759  0.00  0.00     0.167 HD
ENDBRANCH  10  12
ENDBRANCH   9  10
ENDBRANCH   5   8
ENDBRANCH   3   4
ENDBRANCH   2   3
ENDBRANCH   1   2
BRANCH   1  14
ATOM     14  C   UNL d   1       7.010   1.918  -0.940  0.00  0.00     0.002 C 
BRANCH  14  15
ATOM     15  C   UNL d   1       7.751   3.145  -1.498  0.00  0.00     0.020 C 
BRANCH  15  16
ATOM     16  C   UNL d   1       9.265   2.926  -1.419  0.00  0.00     0.123 C 
BRANCH  16  17
ATOM     17  N   UNL d   1      10.042   4.052  -1.903  0.00  0.00    -0.358 N 
ATOM     18  C   UNL d   1      10.530   4.106  -3.186  0.00  0.00     0.241 C 
ATOM     19  O   UNL d   1      10.264   3.301  -4.069  0.00  0.00    -0.269 OA
ATOM     20  H   UNL d   1      10.336   4.744  -1.226  0.00  0.00     0.162 HD
BRANCH  18  21
ATOM     21  C   UNL d   1      11.465   5.238  -3.414  0.00  0.00     0.080 C 
ATOM     22  C   UNL d   1      12.025   5.400  -4.621  0.00  0.00     0.086 C 
BRANCH  22  23
ATOM     23  C   UNL d   1      12.960   6.518  -4.827  0.00  0.00     0.165 C 
ATOM     24  O   UNL d   1      13.280   7.316  -3.961  0.00  0.00    -0.647 OA
BRANCH  23  25
ATOM     25  O   UNL d   1      13.429   6.569  -6.086  0.00  0.00    -0.773 OA
ATOM     26  H   UNL d   1      13.101   5.877  -6.690  0.00  0.00     0.167 HD
ENDBRANCH  23  25
ENDBRANCH  22  23
ENDBRANCH  18  21
ENDBRANCH  16  17
ENDBRANCH  15  16
ENDBRANCH  14  15
ENDBRANCH   1  14
TORSDOF 13
