REMARK  4 active torsions:
REMARK  status: ('A' for Active; 'I' for Inactive)
REMARK    1  A    between atoms: N_10  and  C_1 
REMARK    2  A    between atoms: C_6  and  S_17 
REMARK       I    between atoms: C_15  and  N_10 
REMARK    3  A    between atoms: C_20  and  C_15 
REMARK    4  A    between atoms: S_17  and  C_20 
ROOT
ATOM      1  C   UNL d   1       2.531  -0.984   0.102  0.00  0.00     0.098 C 
ATOM      2  C   UNL d   1       2.041   0.291  -0.141  0.00  0.00     0.085 C 
ATOM      3  C   UNL d   1       0.606   0.353   0.009  0.00  0.00    -0.021 C 
ATOM      4  C   UNL d   1       0.096  -0.869   0.398  0.00  0.00    -0.007 C 
ATOM      5  S   UNL d   1       1.300  -2.018   0.671  0.00  0.00    -0.075 SA
ATOM      6  C   UNL d   1       2.853   1.400  -0.554  0.00  0.00     0.103 C 
ATOM      7  N   UNL d   1       3.483   2.318  -0.873  0.00  0.00    -0.191 NA
ATOM      8  C   UNL d   1      -0.296   1.523  -0.274  0.00  0.00     0.042 C 
ATOM      9  C   UNL d   1      -1.348  -1.202   0.598  0.00  0.00     0.051 C 
ATOM     10  C   UNL d   1      -1.747   1.265   0.185  0.00  0.00     0.009 C 
ATOM     11  C   UNL d   1      -2.247  -0.168  -0.107  0.00  0.00    -0.014 C 
ATOM     12  C   UNL d   1      -2.353  -0.445  -1.611  0.00  0.00     0.010 C 
ENDROOT
BRANCH   1  13
ATOM     13  N   UNL d   1       3.833  -1.460  -0.014  0.00  0.00    -0.319 N 
ATOM     14  C   UNL d   1       4.182  -2.807  -0.056  0.00  0.00     0.232 C 
ATOM     15  O   UNL d   1       3.423  -3.775  -0.042  0.00  0.00    -0.272 OA
ATOM     16  H   UNL d   1       4.559  -0.794  -0.295  0.00  0.00     0.169 HD
BRANCH  14  17
ATOM     17  C   UNL d   1       5.673  -3.045  -0.151  0.00  0.00     0.185 C 
BRANCH  17  18
ATOM     18  S   UNL d   1       6.208  -2.868  -1.877  0.00  0.00    -0.085 SA
BRANCH  18  19
ATOM     19  C   UNL d   1       6.703  -1.223  -1.857  0.00  0.00     0.145 C 
ATOM     20  N   UNL d   1       6.214  -0.251  -1.125  0.00  0.00    -0.335 N 
ATOM     21  C   UNL d   1       7.117   0.781  -1.296  0.00  0.00     0.061 A 
ATOM     22  HN  UNL d   1       5.365  -0.256  -0.560  1.00  0.00     0.168 HD
ATOM     23  C   UNL d   1       7.157   2.054  -0.710  0.00  0.00     0.032 A 
ATOM     24  C   UNL d   1       8.148   0.405  -2.156  0.00  0.00     0.061 A 
ATOM     25  C   UNL d   1       8.277   2.865  -0.943  0.00  0.00     0.002 A 
ATOM     26  C   UNL d   1       9.317   2.436  -1.773  0.00  0.00     0.002 A 
ATOM     27  C   UNL d   1       9.260   1.203  -2.428  0.00  0.00     0.032 A 
ATOM     28  N   UNL d   1       7.793  -0.847  -2.577  0.00  0.00    -0.335 N 
ATOM     29  H   UNL d   1       8.309  -1.444  -3.208  0.00  0.00     0.168 HD
ENDBRANCH  18  19
ENDBRANCH  17  18
ENDBRANCH  14  17
ENDBRANCH   1  13
TORSDOF 4
