REMARK  6 active torsions:
REMARK  status: ('A' for Active; 'I' for Inactive)
REMARK    1  A    between atoms: C_2  and  C_1 
REMARK       I    between atoms: N_12  and  C_2 
REMARK    2  A    between atoms: S_18  and  C_5 
REMARK    3  A    between atoms: S_25  and  C_6 
REMARK    4  A    between atoms: C_8  and  C_10 
REMARK    5  A    between atoms: C_9  and  C_11 
REMARK    6  A    between atoms: C_13  and  N_12 
ROOT
ATOM      1  C   UNL d   1      -4.042   2.642   0.974  0.00  0.00     0.050 A 
ATOM      2  C   UNL d   1      -5.850   1.971  -0.519  0.00  0.00     0.050 A 
ATOM      3  C   UNL d   1      -4.265   0.307   0.300  0.00  0.00     0.036 A 
ATOM      4  C   UNL d   1      -5.161   2.965   0.193  0.00  0.00     0.032 A 
ATOM      5  C   UNL d   1      -5.415   0.637  -0.423  0.00  0.00     0.045 A 
ATOM      6  C   UNL d   1      -3.586   1.313   0.995  0.00  0.00     0.045 A 
ENDROOT
BRANCH   3   7
ATOM      7  N   UNL d   1      -3.857  -1.042   0.320  0.00  0.00    -0.323 N 
ATOM      8  C   UNL d   1      -2.567  -1.486   0.562  0.00  0.00     0.260 C 
ATOM      9  O   UNL d   1      -1.577  -0.766   0.641  0.00  0.00    -0.267 OA
ATOM     10  H   UNL d   1      -4.542  -1.736   0.048  0.00  0.00     0.169 HD
BRANCH   8  11
ATOM     11  C   UNL d   1      -2.449  -2.930   0.640  0.00  0.00     0.091 A 
ATOM     12  C   UNL d   1      -1.745  -3.711  -0.262  0.00  0.00     0.076 A 
ATOM     13  S   UNL d   1      -1.786  -5.340   0.271  0.00  0.00    -0.006 SA
ATOM     14  N   UNL d   1      -2.723  -5.067   1.602  0.00  0.00    -0.319 N 
ATOM     15  C   UNL d   1      -2.969  -3.764   1.689  0.00  0.00     0.093 A 
ATOM     16  HN  UNL d   1      -3.058  -5.780   2.251  1.00  0.00     0.175 HD
BRANCH  12  17
ATOM     17  S   UNL d   1      -0.896  -3.269  -1.734  0.00  0.00    -0.125 SA
ATOM     18  C   UNL d   1      -2.258  -2.694  -2.770  0.00  0.00     0.096 C 
ENDBRANCH  12  17
BRANCH  15  19
ATOM     19  S   UNL d   1      -3.928  -3.150   3.038  0.00  0.00    -0.115 SA
ATOM     20  C   UNL d   1      -3.750  -4.478   4.253  0.00  0.00     0.097 C 
ENDBRANCH  15  19
ENDBRANCH   8  11
ENDBRANCH   3   7
BRANCH   2  21
ATOM     21  C   UNL d   1      -7.026   2.316  -1.401  0.00  0.00     0.417 C 
ATOM     22  F   UNL d   1      -7.332   3.642  -1.410  0.00  0.00    -0.166 F 
ATOM     23  F   UNL d   1      -6.808   1.974  -2.701  0.00  0.00    -0.166 F 
ATOM     24  F   UNL d   1      -8.163   1.668  -1.029  0.00  0.00    -0.166 F 
ENDBRANCH   2  21
BRANCH   1  25
ATOM     25  C   UNL d   1      -3.326   3.696   1.788  0.00  0.00     0.417 C 
ATOM     26  F   UNL d   1      -3.995   4.882   1.833  0.00  0.00    -0.166 F 
ATOM     27  F   UNL d   1      -3.150   3.323   3.086  0.00  0.00    -0.166 F 
ATOM     28  F   UNL d   1      -2.089   3.983   1.304  0.00  0.00    -0.166 F 
ENDBRANCH   1  25
TORSDOF 6
