REMARK  4 active torsions:
REMARK  status: ('A' for Active; 'I' for Inactive)
REMARK    1  A    between atoms: N_12  and  C_3 
REMARK    2  A    between atoms: C_14  and  N_12 
REMARK    3  A    between atoms: O_13  and  C_15 
REMARK    4  A    between atoms: C_15  and  C_14 
ROOT
ATOM      1  C   UNL d   1       0.137   0.953  -0.057  0.00  0.00     0.036 A 
ATOM      2  C   UNL d   1      -0.032  -0.409   0.138  0.00  0.00     0.088 A 
ATOM      3  C   UNL d   1       1.454   1.393  -0.304  0.00  0.00     0.094 A 
ATOM      4  N   UNL d   1       0.934  -1.342   0.129  0.00  0.00    -0.346 N 
ATOM      5  HN  UNL d   1       0.768  -2.336   0.290  1.00  0.00     0.167 HD
ATOM      6  N   UNL d   1       2.442   0.473  -0.335  0.00  0.00    -0.342 N 
ATOM      7  HN  UNL d   1       3.405   0.752  -0.523  1.00  0.00     0.167 HD
ATOM      8  S   UNL d   1      -1.661  -0.842   0.393  0.00  0.00    -0.083 SA
ATOM      9  C   UNL d   1       2.136  -0.817  -0.116  0.00  0.00     0.182 A 
ATOM     10  C   UNL d   1      -2.182   0.780   0.239  0.00  0.00     0.053 A 
ATOM     11  C   UNL d   1      -1.127   1.636   0.009  0.00  0.00     0.025 A 
ENDROOT
BRANCH   3  12
ATOM     12  N   UNL d   1       1.727   2.734  -0.561  0.00  0.00    -0.276 NA
ATOM     13  H   UNL d   1       1.167   3.366   0.004  0.00  0.00     0.129 HD
BRANCH  12  14
ATOM     14  C   UNL d   1       3.129   3.130  -0.628  0.00  0.00     0.119 C 
BRANCH  14  15
ATOM     15  C   UNL d   1       3.203   4.598  -1.064  0.00  0.00     0.178 C 
BRANCH  15  16
ATOM     16  O   UNL d   1       2.615   5.437  -0.067  0.00  0.00    -0.400 OA
ATOM     17  H   UNL d   1       2.664   6.348  -0.407  0.00  0.00     0.209 HD
ENDBRANCH  15  16
ENDBRANCH  14  15
ENDBRANCH  12  14
ENDBRANCH   3  12
TORSDOF 4
