REMARK  5 active torsions:
REMARK  status: ('A' for Active; 'I' for Inactive)
REMARK    1  A    between atoms: C_12  and  C_1 
REMARK    2  A    between atoms: C_13  and  C_4 
REMARK    3  A    between atoms: S_11  and  C_7 
REMARK    4  A    between atoms: C_10  and  C_15 
REMARK       I    between atoms: N_16  and  C_10 
REMARK    5  A    between atoms: C_15  and  S_11 
ROOT
ATOM      1  C   UNL d   1      -0.256  -1.359   0.182  0.00  0.00     0.086 A 
ATOM      2  N   UNL d   1      -1.232  -0.441   0.368  0.00  0.00    -0.296 N 
ATOM      3  HN  UNL d   1      -2.185  -0.744   0.567  1.00  0.00     0.187 HD
ATOM      4  C   UNL d   1       1.033  -0.906  -0.123  0.00  0.00     0.073 A 
ATOM      5  N   UNL d   1       1.328   0.429  -0.192  0.00  0.00    -0.333 N 
ATOM      6  HN  UNL d   1       2.272   0.758  -0.396  1.00  0.00     0.168 HD
ATOM      7  C   UNL d   1       0.314   1.284   0.023  0.00  0.00     0.160 A 
ATOM      8  N   UNL d   1      -0.943   0.891   0.291  0.00  0.00    -0.279 N 
ATOM      9  HN  UNL d   1      -1.677   1.584   0.437  1.00  0.00     0.189 HD
ENDROOT
BRANCH   7  10
ATOM     10  S   UNL d   1       0.617   3.032   0.038  0.00  0.00    -0.083 SA
BRANCH  10  11
ATOM     11  C   UNL d   1       2.188   3.129  -0.860  0.00  0.00     0.184 C 
BRANCH  11  12
ATOM     12  C   UNL d   1       2.018   2.711  -2.307  0.00  0.00     0.225 C 
ATOM     13  O   UNL d   1       1.469   3.397  -3.160  0.00  0.00    -0.273 OA
ATOM     14  N   UNL d   1       2.538   1.485  -2.628  0.00  0.00    -0.369 N 
ATOM     15  H   UNL d   1       2.607   0.782  -1.899  0.00  0.00     0.159 HD
ATOM     16  H   UNL d   1       2.325   1.153  -3.559  0.00  0.00     0.159 HD
ENDBRANCH  11  12
ENDBRANCH  10  11
ENDBRANCH   7  10
BRANCH   4  17
ATOM     17  C   UNL d   1       2.204  -1.770  -0.412  0.00  0.00    -0.007 A 
ATOM     18  C   UNL d   1       2.121  -2.921  -1.218  0.00  0.00     0.014 A 
ATOM     19  C   UNL d   1       3.227  -3.754  -1.415  0.00  0.00     0.001 A 
ATOM     20  C   UNL d   1       4.456  -3.430  -0.850  0.00  0.00     0.000 A 
ATOM     21  C   UNL d   1       4.582  -2.268  -0.096  0.00  0.00     0.001 A 
ATOM     22  C   UNL d   1       3.469  -1.451   0.121  0.00  0.00     0.014 A 
ENDBRANCH   4  17
BRANCH   1  23
ATOM     23  C   UNL d   1      -0.707  -2.755   0.340  0.00  0.00    -0.006 A 
ATOM     24  C   UNL d   1      -1.928  -3.172  -0.227  0.00  0.00     0.014 A 
ATOM     25  C   UNL d   1      -2.369  -4.493  -0.119  0.00  0.00     0.001 A 
ATOM     26  C   UNL d   1      -1.597  -5.431   0.559  0.00  0.00     0.000 A 
ATOM     27  C   UNL d   1      -0.400  -5.040   1.152  0.00  0.00     0.001 A 
ATOM     28  C   UNL d   1       0.030  -3.712   1.059  0.00  0.00     0.014 A 
ENDBRANCH   1  23
TORSDOF 5
