REMARK  7 active torsions:
REMARK  status: ('A' for Active; 'I' for Inactive)
REMARK    1  A    between atoms: C_8  and  N_1 
REMARK    2  A    between atoms: C_7  and  C_2 
REMARK    3  A    between atoms: O_19  and  C_7 
REMARK    4  A    between atoms: N_9  and  C_17 
REMARK    5  A    between atoms: C_12  and  C_11 
REMARK    6  A    between atoms: O_23  and  C_14 
REMARK    7  A    between atoms: C_26  and  O_19 
ROOT
ATOM      1  C   UNL d   1      -3.681  -8.671  -3.414  0.00  0.00     0.056 A 
ATOM      2  C   UNL d   1      -3.473  -9.390  -2.222  0.00  0.00     0.034 A 
ATOM      3  C   UNL d   1      -3.127  -7.393  -3.510  0.00  0.00     0.034 A 
ATOM      4  C   UNL d   1      -2.178  -7.562  -1.268  0.00  0.00     0.032 A 
ATOM      5  C   UNL d   1      -2.350  -6.868  -2.466  0.00  0.00     0.032 A 
ATOM      6  C   UNL d   1      -2.734  -8.837  -1.167  0.00  0.00     0.032 A 
ENDROOT
BRANCH   1   7
ATOM      7  N   UNL d   1      -4.447  -9.286  -4.463  0.00  0.00    -0.260 N 
ATOM      8  N   UNL d   1      -4.976 -10.513  -4.219  0.00  0.00    -0.297 N 
ATOM      9  C   UNL d   1      -5.698 -10.828  -5.291  0.00  0.00     0.041 A 
ATOM     10  HN  UNL d   1      -4.846 -11.080  -3.381  1.00  0.00     0.187 HD
ATOM     11  C   UNL d   1      -6.450 -12.111  -5.298  0.00  0.00     0.071 C 
ATOM     12  C   UNL d   1      -5.634  -9.822  -6.285  0.00  0.00     0.087 A 
ATOM     13  C   UNL d   1      -4.780  -8.855  -5.750  0.00  0.00     0.049 A 
ATOM     14  C   UNL d   1      -4.301  -7.597  -6.384  0.00  0.00     0.071 C 
BRANCH  12  15
ATOM     15  C   UNL d   1      -6.332  -9.773  -7.566  0.00  0.00     0.297 C 
ATOM     16  O   UNL d   1      -6.325  -8.804  -8.314  0.00  0.00    -0.259 OA
BRANCH  15  17
ATOM     17  O   UNL d   1      -7.072 -10.896  -7.790  0.00  0.00    -0.318 OA
BRANCH  17  18
ATOM     18  C   UNL d   1      -8.110 -10.776  -8.770  0.00  0.00     0.174 C 
ATOM     19  C   UNL d   1      -9.342 -10.204  -8.092  0.00  0.00     0.034 C 
ENDBRANCH  17  18
ENDBRANCH  15  17
ENDBRANCH  12  15
ENDBRANCH   1   7
BRANCH   4  20
ATOM     20  N   UNL d   1      -1.416  -7.091  -0.192  0.00  0.00    -0.365 N 
ATOM     21  C   UNL d   1      -1.443  -5.881   0.276  0.00  0.00     0.102 C 
ATOM     22  HN  UNL d   1      -0.786  -7.754   0.261  1.00  0.00     0.165 HD
BRANCH  21  23
ATOM     23  C   UNL d   1      -2.246  -4.703  -0.112  0.00  0.00     0.012 A 
ATOM     24  C   UNL d   1      -1.649  -3.434  -0.153  0.00  0.00     0.077 A 
ATOM     25  C   UNL d   1      -2.409  -2.313  -0.490  0.00  0.00     0.037 A 
ATOM     26  C   UNL d   1      -3.763  -2.451  -0.795  0.00  0.00     0.003 A 
ATOM     27  C   UNL d   1      -4.364  -3.708  -0.745  0.00  0.00     0.001 A 
ATOM     28  C   UNL d   1      -3.612  -4.830  -0.385  0.00  0.00     0.015 A 
BRANCH  24  29
ATOM     29  O   UNL d   1      -0.327  -3.193   0.098  0.00  0.00    -0.360 OA
ATOM     30  H   UNL d   1       0.180  -4.021   0.094  0.00  0.00     0.217 HD
ENDBRANCH  24  29
ENDBRANCH  21  23
ENDBRANCH   4  20
TORSDOF 7
