REMARK  3 active torsions:
REMARK  status: ('A' for Active; 'I' for Inactive)
REMARK    1  A    between atoms: C_2  and  C_1 
REMARK       I    between atoms: N_4  and  C_2 
REMARK    2  A    between atoms: C_12  and  C_6 
REMARK    3  A    between atoms: O_22  and  C_6 
ROOT
ATOM      1  C   UNL d   1       0.060   2.911  -0.108  0.00  0.00     0.256 C 
ATOM      2  N   UNL d   1      -1.079   3.660   0.200  0.00  0.00    -0.348 N 
ATOM      3  C   UNL d   1      -2.933   5.786   1.019  0.00  0.00     0.088 C 
ATOM      4  C   UNL d   1      -1.957   5.945  -0.165  0.00  0.00     0.063 C 
ATOM      5  C   UNL d   1      -2.367   4.747   2.001  0.00  0.00     0.063 C 
ATOM      6  C   UNL d   1      -1.585   4.602  -0.796  0.00  0.00     0.129 C 
ATOM      7  C   UNL d   1      -1.974   3.442   1.330  0.00  0.00     0.129 C 
ATOM      8  O   UNL d   1       0.757   3.142  -1.098  0.00  0.00    -0.267 OA
ENDROOT
BRANCH   1   9
ATOM      9  C   UNL d   1       0.557   1.847   0.806  0.00  0.00     0.069 A 
ATOM     10  C   UNL d   1      -0.234   0.796   1.296  0.00  0.00     0.096 A 
ATOM     11  C   UNL d   1       0.301  -0.111   2.223  0.00  0.00     0.003 A 
ATOM     12  O   UNL d   1      -1.527   0.685   0.863  0.00  0.00    -0.325 OA
ATOM     13  C   UNL d   1      -0.598  -1.136   2.835  0.00  0.00     0.212 C 
ATOM     14  C   UNL d   1       1.655  -0.043   2.559  0.00  0.00     0.054 A 
ATOM     15  O   UNL d   1      -1.925  -0.625   2.838  0.00  0.00    -0.362 OA
ATOM     16  C   UNL d   1      -2.314  -0.318   1.506  0.00  0.00     0.345 C 
ATOM     17  C   UNL d   1       2.455   0.954   2.005  0.00  0.00     0.118 A 
ATOM     18  C   UNL d   1       1.917   1.903   1.148  0.00  0.00     0.062 A 
ATOM     19  F   UNL d   1       3.753   1.005   2.322  0.00  0.00    -0.206 F 
ENDBRANCH   1   9
BRANCH   3  20
ATOM     20  C   UNL d   1      -3.243   7.134   1.690  0.00  0.00    -0.024 A 
ATOM     21  C   UNL d   1      -3.046   7.362   3.064  0.00  0.00     0.012 A 
ATOM     22  C   UNL d   1      -3.355   8.595   3.649  0.00  0.00     0.024 A 
ATOM     23  C   UNL d   1      -3.872   9.620   2.869  0.00  0.00     0.034 A 
ATOM     24  C   UNL d   1      -4.090   9.421   1.510  0.00  0.00     0.024 A 
ATOM     25 CL   UNL d   1      -4.252  11.133   3.591  0.00  0.00    -0.084 Cl
ATOM     26  C   UNL d   1      -3.783   8.187   0.927  0.00  0.00     0.012 A 
ENDBRANCH   3  20
BRANCH   3  27
ATOM     27  O   UNL d   1      -4.172   5.265   0.513  0.00  0.00    -0.385 OA
ATOM     28  H   UNL d   1      -4.889   5.603   1.078  0.00  0.00     0.211 HD
ENDBRANCH   3  27
TORSDOF 3
