REMARK  7 active torsions:
REMARK  status: ('A' for Active; 'I' for Inactive)
REMARK    1  A    between atoms: C_7  and  C_1 
REMARK    2  A    between atoms: C_13  and  N_3 
REMARK    3  A    between atoms: C_6  and  O_11 
REMARK    4  A    between atoms: C_8  and  C_6 
REMARK    5  A    between atoms: O_22  and  C_7 
REMARK    6  A    between atoms: O_11  and  C_14 
REMARK    7  A    between atoms: C_25  and  O_22 
ROOT
ATOM      1  C   UNL d   1       1.696  -1.145  -0.053  0.00  0.00     0.074 A 
ATOM      2  C   UNL d   1       2.528  -0.024   0.008  0.00  0.00     0.030 A 
ATOM      3  N   UNL d   1       1.732   1.120   0.114  0.00  0.00    -0.314 N 
ATOM      4  C   UNL d   1       0.346  -0.673   0.060  0.00  0.00     0.012 A 
ATOM      5  C   UNL d   1       0.391   0.719   0.202  0.00  0.00     0.051 A 
ATOM      6  C   UNL d   1      -0.806   1.463   0.322  0.00  0.00     0.034 A 
ATOM      7  C   UNL d   1      -0.926  -1.305   0.038  0.00  0.00     0.052 A 
ATOM      8  C   UNL d   1      -2.099  -0.557   0.192  0.00  0.00     0.080 A 
ATOM      9  C   UNL d   1      -2.040   0.811   0.361  0.00  0.00     0.040 A 
ATOM     10  C   UNL d   1       4.027   0.011   0.050  0.00  0.00     0.070 C 
ENDROOT
BRANCH   8  11
ATOM     11  O   UNL d   1      -3.303  -1.304   0.119  0.00  0.00    -0.275 OA
BRANCH  11  12
ATOM     12  C   UNL d   1      -4.614  -0.807   0.151  0.00  0.00     0.305 C 
ATOM     13  O   UNL d   1      -4.923   0.366   0.324  0.00  0.00    -0.258 OA
BRANCH  12  14
ATOM     14  C   UNL d   1      -5.582  -1.879  -0.037  0.00  0.00     0.080 A 
ATOM     15  S   UNL d   1      -5.118  -3.489  -0.403  0.00  0.00    -0.096 SA
ATOM     16  C   UNL d   1      -6.739  -4.028  -0.419  0.00  0.00     0.050 A 
ATOM     17  C   UNL d   1      -7.626  -3.007  -0.175  0.00  0.00     0.009 A 
ATOM     18  C   UNL d   1      -6.960  -1.765   0.033  0.00  0.00     0.025 A 
ENDBRANCH  12  14
ENDBRANCH  11  12
ENDBRANCH   8  11
BRANCH   1  19
ATOM     19  C   UNL d   1       2.148  -2.532  -0.223  0.00  0.00     0.296 C 
ATOM     20  O   UNL d   1       3.320  -2.856  -0.408  0.00  0.00    -0.259 OA
BRANCH  19  21
ATOM     21  O   UNL d   1       1.116  -3.419  -0.246  0.00  0.00    -0.318 OA
BRANCH  21  22
ATOM     22  C   UNL d   1       1.387  -4.670  -0.889  0.00  0.00     0.174 C 
ATOM     23  C   UNL d   1       1.236  -4.472  -2.388  0.00  0.00     0.034 C 
ENDBRANCH  21  22
ENDBRANCH  19  21
ENDBRANCH   1  19
BRANCH   3  24
ATOM     24  C   UNL d   1       2.195   2.480   0.140  0.00  0.00     0.039 A 
ATOM     25  C   UNL d   1       3.268   2.894  -0.663  0.00  0.00     0.030 A 
ATOM     26  C   UNL d   1       3.720   4.218  -0.617  0.00  0.00     0.002 A 
ATOM     27  C   UNL d   1       3.081   5.149   0.197  0.00  0.00     0.000 A 
ATOM     28  C   UNL d   1       2.000   4.754   0.980  0.00  0.00     0.002 A 
ATOM     29  C   UNL d   1       1.575   3.424   0.969  0.00  0.00     0.030 A 
ENDBRANCH   3  24
TORSDOF 7
