REMARK  6 active torsions:
REMARK  status: ('A' for Active; 'I' for Inactive)
REMARK    1  A    between atoms: N_21  and  C_8 
REMARK    2  A    between atoms: S_19  and  C_11 
REMARK       I    between atoms: C_12  and  N_13 
REMARK       I    between atoms: N_18  and  C_12 
REMARK       I    between atoms: N_13  and  C_16 
REMARK    3  A    between atoms: C_16  and  C_24 
REMARK    4  A    between atoms: C_25  and  N_18 
REMARK    5  A    between atoms: C_24  and  S_19 
REMARK    6  A    between atoms: C_27  and  N_21 
ROOT
ATOM      1  C   UNL d   1       0.876  -1.418   0.521  0.00  0.00     0.091 A 
ATOM      2  C   UNL d   1       0.534  -0.102   0.256  0.00  0.00     0.049 A 
ATOM      3  C   UNL d   1      -1.515  -1.222   0.081  0.00  0.00     0.020 A 
ATOM      4  N   UNL d   1       2.076  -1.872   0.917  0.00  0.00    -0.330 N 
ATOM      5  HN  UNL d   1       2.278  -2.855   1.095  1.00  0.00     0.168 HD
ATOM      6  N   UNL d   1       2.801   0.409   0.747  0.00  0.00    -0.322 N 
ATOM      7  HN  UNL d   1       3.578   1.065   0.828  1.00  0.00     0.169 HD
ATOM      8  C   UNL d   1       1.585   0.839   0.330  0.00  0.00     0.116 A 
ATOM      9  C   UNL d   1      -0.885   0.006  -0.003  0.00  0.00    -0.025 A 
ATOM     10  S   UNL d   1      -0.431  -2.497   0.347  0.00  0.00    -0.074 SA
ATOM     11  C   UNL d   1       2.975  -0.892   1.052  0.00  0.00     0.147 A 
ATOM     12  N   UNL d   1      -3.731  -0.190   0.387  0.00  0.00     0.089 N 
ATOM     13  C   UNL d   1      -3.000  -1.422   0.002  0.00  0.00     0.318 C 
ATOM     14  C   UNL d   1      -1.700   1.260  -0.182  0.00  0.00     0.071 C 
ATOM     15  C   UNL d   1      -3.207   0.967  -0.369  0.00  0.00     0.277 C 
ATOM     16  C   UNL d   1      -3.682   0.032   1.835  0.00  0.00     0.310 C 
ENDROOT
BRANCH  11  17
ATOM     17  S   UNL d   1       4.483  -1.332   1.904  0.00  0.00    -0.085 SA
BRANCH  17  18
ATOM     18  C   UNL d   1       4.706  -3.065   1.389  0.00  0.00     0.185 C 
BRANCH  18  19
ATOM     19  C   UNL d   1       4.138  -4.085   2.375  0.00  0.00     0.235 C 
ATOM     20  N   UNL d   1       2.758  -4.099   2.467  0.00  0.00    -0.278 N 
ATOM     21  C   UNL d   1       1.906  -5.062   2.962  0.00  0.00     0.327 C 
ATOM     22  H   UNL d   1       2.250  -3.357   1.996  0.00  0.00     0.173 HD
ATOM     23  N   UNL d   1       2.494  -6.184   3.485  0.00  0.00    -0.309 N 
ATOM     24  O   UNL d   1       0.698  -4.851   2.857  0.00  0.00    -0.247 OA
ATOM     25  H   UNL d   1       3.505  -6.139   3.595  0.00  0.00     0.170 HD
ATOM     26  O   UNL d   1       4.852  -4.871   2.992  0.00  0.00    -0.272 OA
BRANCH  23  27
ATOM     27  C   UNL d   1       1.847  -7.371   3.910  0.00  0.00     0.036 A 
ATOM     28  C   UNL d   1       0.472  -7.592   3.783  0.00  0.00     0.029 A 
ATOM     29  C   UNL d   1      -0.106  -8.797   4.197  0.00  0.00     0.002 A 
ATOM     30  C   UNL d   1       0.685  -9.800   4.746  0.00  0.00     0.000 A 
ATOM     31  C   UNL d   1       2.055  -9.597   4.880  0.00  0.00     0.002 A 
ATOM     32  C   UNL d   1       2.634  -8.388   4.464  0.00  0.00     0.029 A 
ENDBRANCH  23  27
ENDBRANCH  18  19
ENDBRANCH  17  18
ENDBRANCH  11  17
BRANCH   8  33
ATOM     33  N   UNL d   1       1.349   2.165   0.006  0.00  0.00    -0.376 N 
ATOM     34  H   UNL d   1       0.409   2.462   0.224  0.00  0.00     0.161 HD
BRANCH  33  35
ATOM     35  C   UNL d   1       2.350   3.196   0.167  0.00  0.00     0.116 C 
ATOM     36  C   UNL d   1       1.688   4.536  -0.157  0.00  0.00     0.026 C 
ENDBRANCH  33  35
ENDBRANCH   8  33
TORSDOF 6
