REMARK  3 active torsions:
REMARK  status: ('A' for Active; 'I' for Inactive)
REMARK    1  A    between atoms: C_14  and  C_11 
REMARK    2  A    between atoms: C_15  and  C_14 
REMARK    3  A    between atoms: C_16  and  C_15 
ROOT
ATOM      1  C   UNL d   1       0.027  -0.710   0.003  0.00  0.00     0.051 A 
ATOM      2  C   UNL d   1       0.024   0.705   0.009  0.00  0.00    -0.002 A 
ATOM      3  N   UNL d   1       1.264  -1.376  -0.000  0.00  0.00    -0.322 N 
ATOM      4  C   UNL d   1       1.316   1.435   0.012  0.00  0.00    -0.044 A 
ATOM      5  C   UNL d   1       2.474  -0.750   0.001  0.00  0.00     0.246 A 
ATOM      6  C   UNL d   1       2.458   0.725   0.006  0.00  0.00     0.082 A 
ATOM      7  C   UNL d   1      -1.176  -1.442   0.000  0.00  0.00    -0.034 A 
ATOM      8  C   UNL d   1      -1.214   1.364   0.011  0.00  0.00     0.021 A 
ATOM      9  C   UNL d   1      -2.393  -0.737  -0.004  0.00  0.00     0.016 A 
ATOM     10  O   UNL d   1       3.533  -1.367  -0.004  0.00  0.00    -0.268 OA
ATOM     11  C   UNL d   1      -2.425   0.660  -0.008  0.00  0.00    -0.057 A 
ATOM     12  C   UNL d   1       1.410   2.934   0.017  0.00  0.00     0.049 C 
ATOM     13  C   UNL d   1      -1.268  -2.944   0.001  0.00  0.00     0.050 C 
ATOM     14  H   UNL d   1       1.318  -2.382  -0.005  0.00  0.00     0.169 HD
ENDROOT
BRANCH  11  15
ATOM     15  C   UNL d   1      -3.742   1.398  -0.018  0.00  0.00     0.038 C 
BRANCH  15  16
ATOM     16  C   UNL d   1      -3.928   2.349  -1.208  0.00  0.00     0.004 C 
BRANCH  16  17
ATOM     17  C   UNL d   1      -3.920   1.637  -2.562  0.00  0.00    -0.004 C 
ATOM     18  C   UNL d   1      -4.123   2.628  -3.699  0.00  0.00     0.005 C 
ENDBRANCH  16  17
ENDBRANCH  15  16
ENDBRANCH  11  15
TORSDOF 3
