REMARK  6 active torsions:
REMARK  status: ('A' for Active; 'I' for Inactive)
REMARK    1  A    between atoms: N_14  and  N_1 
REMARK    2  A    between atoms: C_18  and  N_2 
REMARK    3  A    between atoms: C_16  and  C_6 
REMARK    4  A    between atoms: C_10  and  S_17 
REMARK       I    between atoms: C_15  and  N_14 
REMARK    5  A    between atoms: C_22  and  C_15 
REMARK    6  A    between atoms: S_17  and  C_22 
ROOT
ATOM      1  N   UNL d   1       1.490   2.285   0.641  0.00  0.00    -0.264 N 
ATOM      2  C   UNL d   1       2.696   2.231   1.320  0.00  0.00     0.245 C 
ATOM      3  O   UNL d   1       3.191   1.185   1.744  0.00  0.00    -0.271 OA
ATOM      4  H   UNL d   1       1.192   3.110   0.121  0.00  0.00     0.190 HD
ENDROOT
BRANCH   2   5
ATOM      5  C   UNL d   1       3.386   3.564   1.522  0.00  0.00     0.187 C 
BRANCH   5   6
ATOM      6  S   UNL d   1       2.291   4.828   2.211  0.00  0.00    -0.075 SA
BRANCH   6   7
ATOM      7  C   UNL d   1       1.731   4.095   3.686  0.00  0.00     0.204 A 
ATOM      8  O   UNL d   1       2.138   2.876   4.163  0.00  0.00    -0.267 OA
ATOM      9  C   UNL d   1       1.356   2.731   5.282  0.00  0.00     0.175 A 
ATOM     10  N   UNL d   1       0.565   3.766   5.479  0.00  0.00    -0.277 N 
ATOM     11  N   UNL d   1       0.809   4.646   4.447  0.00  0.00    -0.272 N 
ATOM     12  HN  UNL d   1      -0.098   3.892   6.243  1.00  0.00     0.189 HD
ATOM     13  HN  UNL d   1       0.362   5.551   4.301  1.00  0.00     0.189 HD
BRANCH   9  14
ATOM     14  C   UNL d   1       1.460   1.489   6.039  0.00  0.00     0.017 A 
ATOM     15  C   UNL d   1       2.368   0.476   5.696  0.00  0.00     0.017 A 
ATOM     16  C   UNL d   1       2.420  -0.715   6.431  0.00  0.00     0.025 A 
ATOM     17  C   UNL d   1       1.565  -0.903   7.516  0.00  0.00     0.034 A 
ATOM     18  C   UNL d   1       0.660   0.090   7.875  0.00  0.00     0.025 A 
ATOM     19 CL   UNL d   1       1.626  -2.369   8.412  0.00  0.00    -0.084 Cl
ATOM     20  C   UNL d   1       0.610   1.281   7.142  0.00  0.00     0.017 A 
ENDBRANCH   9  14
ENDBRANCH   6   7
ENDBRANCH   5   6
ENDBRANCH   2   5
BRANCH   1  21
ATOM     21  N   UNL d   1       0.799   1.085   0.385  0.00  0.00    -0.248 N 
ATOM     22  C   UNL d   1       0.216   0.913  -0.870  0.00  0.00     0.257 C 
ATOM     23  C   UNL d   1      -0.707  -0.312  -0.933  0.00  0.00     0.236 C 
ATOM     24  O   UNL d   1       0.320   1.731  -1.780  0.00  0.00    -0.270 OA
ATOM     25  N   UNL d   1      -0.297  -1.346   0.025  0.00  0.00    -0.308 N 
ATOM     26  C   UNL d   1      -0.028  -0.973   1.351  0.00  0.00     0.244 C 
ATOM     27  C   UNL d   1       0.136   0.526   1.551  0.00  0.00     0.255 C 
ATOM     28  O   UNL d   1      -0.065  -1.735   2.320  0.00  0.00    -0.271 OA
BRANCH  25  29
ATOM     29  C   UNL d   1      -0.482  -2.717  -0.309  0.00  0.00     0.037 A 
ATOM     30  C   UNL d   1      -1.556  -3.137  -1.102  0.00  0.00     0.030 A 
ATOM     31  C   UNL d   1      -1.702  -4.485  -1.441  0.00  0.00     0.002 A 
ATOM     32  C   UNL d   1      -0.757  -5.419  -1.021  0.00  0.00     0.000 A 
ATOM     33  C   UNL d   1       0.319  -5.011  -0.237  0.00  0.00     0.002 A 
ATOM     34  C   UNL d   1       0.445  -3.671   0.134  0.00  0.00     0.030 A 
ENDBRANCH  25  29
ENDBRANCH   1  21
TORSDOF 6
