REMARK  5 active torsions:
REMARK  status: ('A' for Active; 'I' for Inactive)
REMARK    1  A    between atoms: S_2  and  C_1 
REMARK    2  A    between atoms: N_13  and  S_2 
REMARK    3  A    between atoms: C_18  and  N_3 
REMARK    4  A    between atoms: C_8  and  C_15 
REMARK    5  A    between atoms: C_15  and  N_13 
ROOT
ATOM      1  N   UNL d   1      -1.163  -4.213  -5.879  0.00  0.00    -0.197 N 
ATOM      2  N   UNL d   1      -1.195  -3.197  -4.978  0.00  0.00    -0.280 N 
ATOM      3  HN  UNL d   1      -1.080  -2.198  -5.145  1.00  0.00     0.189 HD
ATOM      4  N   UNL d   1      -1.339  -5.457  -5.368  0.00  0.00    -0.282 N 
ATOM      5  HN  UNL d   1      -1.371  -6.350  -5.862  1.00  0.00     0.189 HD
ATOM      6  C   UNL d   1      -1.413  -3.828  -3.816  0.00  0.00     0.065 A 
ATOM      7  C   UNL d   1      -1.460  -5.223  -4.055  0.00  0.00     0.049 A 
ATOM      8  C   UNL d   1      -1.637  -6.347  -3.108  0.00  0.00     0.072 C 
ENDROOT
BRANCH   6   9
ATOM      9  C   UNL d   1      -1.651  -3.012  -2.586  0.00  0.00     0.165 C 
BRANCH   9  10
ATOM     10  N   UNL d   1      -1.378  -3.758  -1.353  0.00  0.00    -0.210 NA
ATOM     11  H   UNL d   1      -1.849  -4.650  -1.256  0.00  0.00     0.140 HD
BRANCH  10  12
ATOM     12  S   UNL d   1      -1.592  -2.882   0.069  0.00  0.00     0.242 S 
ATOM     13  O   UNL d   1      -0.713  -1.738   0.043  0.00  0.00    -0.206 OA
ATOM     14  O   UNL d   1      -1.613  -3.837   1.147  0.00  0.00    -0.206 OA
BRANCH  12  15
ATOM     15  C   UNL d   1      -3.205  -2.227   0.040  0.00  0.00     0.088 A 
ATOM     16  C   UNL d   1      -4.378  -2.959  -0.062  0.00  0.00     0.002 A 
ATOM     17  S   UNL d   1      -5.746  -1.919  -0.138  0.00  0.00    -0.099 SA
ATOM     18  C   UNL d   1      -4.623  -4.431  -0.124  0.00  0.00     0.058 C 
ATOM     19  C   UNL d   1      -4.785  -0.513  -0.050  0.00  0.00    -0.019 A 
ATOM     20  C   UNL d   1      -3.446  -0.818   0.048  0.00  0.00     0.039 A 
ATOM     21  C   UNL d   1      -5.419   0.834  -0.086  0.00  0.00     0.056 C 
ENDBRANCH  12  15
ENDBRANCH  10  12
ENDBRANCH   9  10
ENDBRANCH   6   9
BRANCH   1  22
ATOM     22  C   UNL d   1      -1.005  -3.965  -7.267  0.00  0.00     0.074 A 
ATOM     23  C   UNL d   1      -0.699  -2.668  -7.709  0.00  0.00     0.033 A 
ATOM     24  C   UNL d   1      -0.557  -2.410  -9.072  0.00  0.00     0.002 A 
ATOM     25  C   UNL d   1      -0.735  -3.437  -9.998  0.00  0.00     0.000 A 
ATOM     26  C   UNL d   1      -1.042  -4.727  -9.563  0.00  0.00     0.002 A 
ATOM     27  C   UNL d   1      -1.169  -4.999  -8.198  0.00  0.00     0.033 A 
ENDBRANCH   1  22
TORSDOF 5
