REMARK  4 active torsions:
REMARK  status: ('A' for Active; 'I' for Inactive)
REMARK    1  A    between atoms: C_11  and  C_1 
REMARK    2  A    between atoms: O_8  and  C_3 
REMARK    3  A    between atoms: C_15  and  O_8 
REMARK    4  A    between atoms: C_16  and  C_15 
ROOT
ATOM      1  C   UNL d   1      -1.349   2.531   0.004  0.00  0.00     0.077 A 
ATOM      2  C   UNL d   1       0.157   2.457   0.042  0.00  0.00     0.262 A 
ATOM      3  C   UNL d   1      -2.078   1.393  -0.097  0.00  0.00     0.098 A 
ATOM      4  N   UNL d   1       0.767   1.216  -0.016  0.00  0.00    -0.312 N 
ATOM      5  C   UNL d   1      -1.375   0.081  -0.077  0.00  0.00     0.026 A 
ATOM      6  C   UNL d   1       0.029   0.016  -0.040  0.00  0.00     0.057 A 
ATOM      7  C   UNL d   1       0.684  -1.223  -0.009  0.00  0.00    -0.030 A 
ATOM      8  C   UNL d   1      -2.104  -1.132  -0.077  0.00  0.00     0.023 A 
ATOM      9  O   UNL d   1       0.816   3.497   0.124  0.00  0.00    -0.267 OA
ATOM     10  C   UNL d   1      -0.070  -2.409  -0.008  0.00  0.00     0.016 A 
ATOM     11  C   UNL d   1      -1.466  -2.374  -0.041  0.00  0.00    -0.060 A 
ATOM     12  C   UNL d   1       2.214   1.221   0.052  0.00  0.00     0.133 C 
ATOM     13  C   UNL d   1       2.168  -1.355   0.092  0.00  0.00     0.042 C 
ATOM     14  C   UNL d   1       2.964  -0.085  -0.117  0.00  0.00     0.025 C 
ATOM     15  C   UNL d   1      -2.241  -3.658  -0.027  0.00  0.00     0.048 C 
ENDROOT
BRANCH   3  16
ATOM     16  O   UNL d   1      -3.449   1.247  -0.169  0.00  0.00    -0.345 OA
BRANCH  16  17
ATOM     17  C   UNL d   1      -4.316   2.216  -0.745  0.00  0.00     0.214 C 
BRANCH  17  18
ATOM     18  C   UNL d   1      -5.035   1.645  -1.945  0.00  0.00    -0.034 A 
ATOM     19  C   UNL d   1      -5.995   0.637  -1.801  0.00  0.00     0.010 A 
ATOM     20  C   UNL d   1      -6.691   0.160  -2.915  0.00  0.00     0.007 A 
ATOM     21  C   UNL d   1      -6.435   0.675  -4.192  0.00  0.00    -0.062 A 
ATOM     22  C   UNL d   1      -5.469   1.675  -4.339  0.00  0.00     0.007 A 
ATOM     23  C   UNL d   1      -7.207   0.175  -5.377  0.00  0.00     0.048 C 
ATOM     24  C   UNL d   1      -4.773   2.152  -3.227  0.00  0.00     0.010 A 
ENDBRANCH  17  18
ENDBRANCH  16  17
ENDBRANCH   3  16
BRANCH   1  25
ATOM     25  C   UNL d   1      -1.897   3.901   0.119  0.00  0.00    -0.018 A 
ATOM     26  C   UNL d   1      -2.287   4.421   1.361  0.00  0.00     0.012 A 
ATOM     27  C   UNL d   1      -2.724   5.744   1.460  0.00  0.00     0.001 A 
ATOM     28  C   UNL d   1      -2.792   6.549   0.321  0.00  0.00     0.000 A 
ATOM     29  C   UNL d   1      -2.409   6.040  -0.918  0.00  0.00     0.001 A 
ATOM     30  C   UNL d   1      -1.944   4.728  -1.015  0.00  0.00     0.012 A 
ENDBRANCH   1  25
TORSDOF 4
