REMARK  9 active torsions:
REMARK  status: ('A' for Active; 'I' for Inactive)
REMARK    1  A    between atoms: C_2  and  O_7 
REMARK    2  A    between atoms: C_5  and  C_12 
REMARK    3  A    between atoms: C_10  and  O_7 
REMARK    4  A    between atoms: C_15  and  C_10 
REMARK    5  A    between atoms: C_11  and  O_13 
REMARK    6  A    between atoms: C_18  and  C_11 
REMARK    7  A    between atoms: C_17  and  C_12 
REMARK    8  A    between atoms: O_19  and  C_12 
REMARK    9  A    between atoms: O_13  and  C_17 
ROOT
ATOM      1  C   UNL d   1       0.485   0.868   0.760  0.00  0.00     0.212 C 
ATOM      2  C   UNL d   1       1.766   1.337   0.089  0.00  0.00     0.197 C 
ATOM      3  C   UNL d   1       0.583  -0.648   0.746  0.00  0.00     0.295 C 
ATOM      4  O   UNL d   1       1.790  -1.020   0.086  0.00  0.00    -0.348 OA
ATOM      5  C   UNL d   1       2.182   0.102  -0.719  0.00  0.00     0.187 C 
ATOM      6  O   UNL d   1      -0.540  -1.121   0.009  0.00  0.00    -0.323 OA
ATOM      7  O   UNL d   1      -0.671   1.197  -0.013  0.00  0.00    -0.343 OA
ATOM      8  C   UNL d   1      -1.423  -0.011  -0.111  0.00  0.00     0.160 C 
ATOM      9  C   UNL d   1      -2.103  -0.038  -1.470  0.00  0.00     0.078 C 
ATOM     10  C   UNL d   1      -2.451  -0.081   1.018  0.00  0.00     0.078 C 
ENDROOT
BRANCH   5  11
ATOM     11  C   UNL d   1       3.675   0.033  -1.083  0.00  0.00     0.174 C 
BRANCH  11  12
ATOM     12  C   UNL d   1       4.030  -1.227  -1.896  0.00  0.00     0.213 C 
BRANCH  12  13
ATOM     13  O   UNL d   1       3.747  -2.453  -1.210  0.00  0.00    -0.315 OA
BRANCH  13  14
ATOM     14  C   UNL d   1       4.644  -2.812  -0.262  0.00  0.00     0.293 C 
ATOM     15  O   UNL d   1       5.668  -2.213   0.028  0.00  0.00    -0.259 OA
BRANCH  14  16
ATOM     16  C   UNL d   1       4.263  -4.112   0.330  0.00  0.00     0.039 A 
ATOM     17  C   UNL d   1       2.925  -4.467   0.541  0.00  0.00     0.017 A 
ATOM     18  C   UNL d   1       2.616  -5.714   1.091  0.00  0.00     0.001 A 
ATOM     19  C   UNL d   1       3.639  -6.605   1.422  0.00  0.00     0.000 A 
ATOM     20  C   UNL d   1       4.973  -6.247   1.227  0.00  0.00     0.001 A 
ATOM     21  C   UNL d   1       5.287  -4.997   0.691  0.00  0.00     0.017 A 
ENDBRANCH  14  16
ENDBRANCH  13  14
ENDBRANCH  12  13
ENDBRANCH  11  12
BRANCH  11  22
ATOM     22  O   UNL d   1       4.051   1.202  -1.822  0.00  0.00    -0.391 OA
ATOM     23  H   UNL d   1       3.602   1.183  -2.685  0.00  0.00     0.210 HD
ENDBRANCH  11  22
ENDBRANCH   5  11
BRANCH   2  24
ATOM     24  O   UNL d   1       2.751   1.621   1.101  0.00  0.00    -0.306 OA
BRANCH  24  25
ATOM     25  C   UNL d   1       2.678   2.864   1.646  0.00  0.00     0.293 C 
ATOM     26  O   UNL d   1       1.853   3.716   1.366  0.00  0.00    -0.259 OA
BRANCH  25  27
ATOM     27  C   UNL d   1       3.714   3.022   2.701  0.00  0.00     0.039 A 
ATOM     28  C   UNL d   1       3.727   4.211   3.444  0.00  0.00     0.017 A 
ATOM     29  C   UNL d   1       4.651   4.383   4.477  0.00  0.00     0.001 A 
ATOM     30  C   UNL d   1       5.565   3.372   4.771  0.00  0.00     0.000 A 
ATOM     31  C   UNL d   1       5.569   2.194   4.025  0.00  0.00     0.001 A 
ATOM     32  C   UNL d   1       4.649   2.018   2.989  0.00  0.00     0.017 A 
ENDBRANCH  25  27
ENDBRANCH  24  25
ENDBRANCH   2  24
TORSDOF 9
