REMARK  0 active torsions:
REMARK  status: ('A' for Active; 'I' for Inactive)
ROOT
ATOM      1  C   UNL d   1      -0.689  -0.464   0.101  0.00  0.00    -0.023 A 
ATOM      2  C   UNL d   1      -1.100   0.852   0.113  0.00  0.00     0.017 A 
ATOM      3  N   UNL d   1       0.008   1.650   0.116  0.00  0.00    -0.358 N 
ATOM      4  C   UNL d   1       0.732  -0.466   0.063  0.00  0.00    -0.001 A 
ATOM      5  C   UNL d   1       1.145   0.870   0.064  0.00  0.00     0.043 A 
ATOM      6  C   UNL d   1      -1.636  -1.613   0.047  0.00  0.00     0.045 C 
ATOM      7  C   UNL d   1      -2.508   1.320   0.096  0.00  0.00     0.058 C 
ATOM      8  C   UNL d   1      -3.118  -1.168   0.159  0.00  0.00    -0.014 C 
ATOM      9  C   UNL d   1      -3.387   0.206  -0.505  0.00  0.00     0.010 C 
ATOM     10  C   UNL d   1       1.708  -1.479   0.002  0.00  0.00     0.014 A 
ATOM     11  C   UNL d   1       2.494   1.238   0.007  0.00  0.00     0.030 A 
ATOM     12  C   UNL d   1      -4.025  -2.241  -0.444  0.00  0.00     0.010 C 
ATOM     13  C   UNL d   1       3.060  -1.126  -0.058  0.00  0.00     0.001 A 
ATOM     14  C   UNL d   1       3.444   0.213  -0.056  0.00  0.00     0.002 A 
ATOM     15  H   UNL d   1       0.007   2.662   0.118  0.00  0.00     0.166 HD
ENDROOT
TORSDOF 0
