REMARK  8 active torsions:
REMARK  status: ('A' for Active; 'I' for Inactive)
REMARK    1  A    between atoms: N_5  and  C_1 
REMARK    2  A    between atoms: C_2  and  C_6 
REMARK    3  A    between atoms: N_4  and  C_3 
REMARK       I    between atoms: C_8  and  N_5 
REMARK    4  A    between atoms: C_19  and  C_8 
REMARK    5  A    between atoms: C_10  and  C_20 
REMARK    6  A    between atoms: O_18  and  C_10 
REMARK    7  A    between atoms: S_17  and  C_19 
REMARK    8  A    between atoms: C_20  and  S_17 
ROOT
ATOM      1  C   UNL d   1       1.411  -0.427   0.387  0.00  0.00     0.062 A 
ATOM      2  C   UNL d   1       0.543  -1.482   0.006  0.00  0.00     0.057 A 
ATOM      3  C   UNL d   1      -0.405   1.199   0.334  0.00  0.00     0.050 A 
ATOM      4  C   UNL d   1       0.941   0.887   0.544  0.00  0.00     0.048 A 
ATOM      5  C   UNL d   1      -0.815  -1.151  -0.138  0.00  0.00     0.032 A 
ATOM      6  C   UNL d   1      -1.285   0.160   0.026  0.00  0.00     0.018 A 
ENDROOT
BRANCH   1   7
ATOM      7  N   UNL d   1       2.796  -0.686   0.480  0.00  0.00    -0.325 N 
ATOM      8  C   UNL d   1       3.639  -0.108   1.417  0.00  0.00     0.231 C 
ATOM      9  O   UNL d   1       3.293   0.713   2.262  0.00  0.00    -0.272 OA
ATOM     10  H   UNL d   1       3.077  -1.539   0.009  0.00  0.00     0.169 HD
BRANCH   8  11
ATOM     11  C   UNL d   1       5.071  -0.616   1.315  0.00  0.00     0.177 C 
BRANCH  11  12
ATOM     12  S   UNL d   1       5.875  -0.842   2.945  0.00  0.00    -0.149 SA
BRANCH  12  13
ATOM     13  C   UNL d   1       4.786  -2.120   3.679  0.00  0.00     0.184 C 
BRANCH  13  14
ATOM     14  C   UNL d   1       4.920  -3.449   2.977  0.00  0.00     0.149 C 
ATOM     15  O   UNL d   1       4.026  -4.283   2.915  0.00  0.00    -0.649 OA
BRANCH  14  16
ATOM     16  O   UNL d   1       6.144  -3.676   2.433  0.00  0.00    -0.776 OA
ATOM     17  H   UNL d   1       6.739  -2.906   2.584  0.00  0.00     0.167 HD
ENDBRANCH  14  16
ENDBRANCH  13  14
ENDBRANCH  12  13
ENDBRANCH  11  12
ENDBRANCH   8  11
ENDBRANCH   1   7
BRANCH   2  18
ATOM     18  N   UNL d   1       1.014  -2.760  -0.257  0.00  0.00    -0.379 N 
ATOM     19  C   UNL d   1       1.747  -3.562   0.727  0.00  0.00     0.123 C 
ATOM     20  C   UNL d   1       2.251  -4.701  -0.152  0.00  0.00     0.021 C 
ATOM     21  C   UNL d   1       1.030  -5.018  -1.003  0.00  0.00     0.021 C 
ATOM     22  C   UNL d   1       0.321  -3.669  -1.180  0.00  0.00     0.123 C 
ENDBRANCH   2  18
BRANCH   3  23
ATOM     23  C   UNL d   1      -0.895   2.623   0.402  0.00  0.00     0.417 C 
ATOM     24  F   UNL d   1       0.096   3.542   0.571  0.00  0.00    -0.166 F 
ATOM     25  F   UNL d   1      -1.550   2.996  -0.735  0.00  0.00    -0.166 F 
ATOM     26  F   UNL d   1      -1.776   2.827   1.420  0.00  0.00    -0.166 F 
ENDBRANCH   3  23
TORSDOF 8
