REMARK  5 active torsions:
REMARK  status: ('A' for Active; 'I' for Inactive)
REMARK    1  A    between atoms: C_7  and  C_1 
REMARK    2  A    between atoms: C_10  and  C_2 
REMARK    3  A    between atoms: N_8  and  C_5 
REMARK    4  A    between atoms: C_15  and  C_11 
REMARK    5  A    between atoms: O_22  and  C_17 
ROOT
ATOM      1  C   UNL d   1       1.310   0.675  -0.062  0.00  0.00     0.147 A 
ATOM      2  C   UNL d   1       1.394  -0.757  -0.052  0.00  0.00     0.053 A 
ATOM      3  N   UNL d   1       0.023   1.074  -0.055  0.00  0.00    -0.292 N 
ATOM      4  HN  UNL d   1      -0.333   2.028  -0.120  1.00  0.00     0.187 HD
ATOM      5  C   UNL d   1       0.078  -1.207   0.107  0.00  0.00     0.135 A 
ATOM      6  N   UNL d   1      -0.688  -0.059   0.059  0.00  0.00    -0.280 N 
ATOM      7  C   UNL d   1      -2.126   0.060   0.103  0.00  0.00     0.179 C 
ENDROOT
BRANCH   5   8
ATOM      8  N   UNL d   1      -0.398  -2.457   0.376  0.00  0.00    -0.350 N 
ATOM      9  C   UNL d   1      -1.353  -2.957  -0.337  0.00  0.00     0.101 C 
ATOM     10  HN  UNL d   1       0.001  -2.999   1.142  1.00  0.00     0.166 HD
BRANCH   9  11
ATOM     11  C   UNL d   1      -1.841  -4.335  -0.105  0.00  0.00    -0.021 A 
ATOM     12  C   UNL d   1      -1.073  -5.258   0.617  0.00  0.00     0.015 A 
ATOM     13  C   UNL d   1      -1.524  -6.575   0.775  0.00  0.00     0.037 A 
ATOM     14  C   UNL d   1      -2.737  -6.977   0.220  0.00  0.00     0.068 A 
ATOM     15  C   UNL d   1      -3.509  -6.040  -0.481  0.00  0.00     0.037 A 
ATOM     16  C   UNL d   1      -3.063  -4.727  -0.650  0.00  0.00     0.015 A 
BRANCH  14  17
ATOM     17  O   UNL d   1      -3.281  -8.229   0.279  0.00  0.00    -0.356 OA
ATOM     18  C   UNL d   1      -2.526  -9.234   0.947  0.00  0.00     0.210 C 
ENDBRANCH  14  17
ENDBRANCH   9  11
ENDBRANCH   5   8
BRANCH   2  19
ATOM     19  C   UNL d   1       2.557  -1.645  -0.147  0.00  0.00    -0.020 A 
ATOM     20  C   UNL d   1       2.643  -2.829   0.600  0.00  0.00     0.012 A 
ATOM     21  C   UNL d   1       3.732  -3.696   0.457  0.00  0.00     0.001 A 
ATOM     22  C   UNL d   1       4.769  -3.375  -0.414  0.00  0.00     0.000 A 
ATOM     23  C   UNL d   1       4.712  -2.196  -1.149  0.00  0.00     0.001 A 
ATOM     24  C   UNL d   1       3.605  -1.347  -1.030  0.00  0.00     0.012 A 
ENDBRANCH   2  19
BRANCH   1  25
ATOM     25  C   UNL d   1       2.412   1.705  -0.063  0.00  0.00     0.434 C 
ATOM     26  F   UNL d   1       3.656   1.188   0.123  0.00  0.00    -0.165 F 
ATOM     27  F   UNL d   1       2.462   2.394  -1.237  0.00  0.00    -0.165 F 
ATOM     28  F   UNL d   1       2.250   2.633   0.922  0.00  0.00    -0.165 F 
ENDBRANCH   1  25
TORSDOF 5
