REMARK  4 active torsions:
REMARK  status: ('A' for Active; 'I' for Inactive)
REMARK    1  A    between atoms: N_2  and  C_1 
REMARK    2  A    between atoms: N_8  and  C_1 
REMARK    3  A    between atoms: C_6  and  N_2 
REMARK    4  A    between atoms: N_11  and  N_8 
ROOT
ATOM      1  N   UNL d   1       0.472   1.174   0.600  0.00  0.00    -0.332 N 
ATOM      2  H   UNL d   1      -0.516   1.110   0.824  0.00  0.00     0.168 HD
ENDROOT
BRANCH   1   3
ATOM      3  C   UNL d   1       0.960   0.101  -0.086  0.00  0.00     0.186 C 
ATOM      4  S   UNL d   1      -0.092  -0.928  -0.874  0.00  0.00    -0.040 SA
BRANCH   3   5
ATOM      5  N   UNL d   1       2.299  -0.201  -0.046  0.00  0.00    -0.300 N 
ATOM      6  H   UNL d   1       2.527  -1.075  -0.523  0.00  0.00     0.183 HD
BRANCH   5   7
ATOM      7  N   UNL d   1       3.087   0.087   1.104  0.00  0.00    -0.248 NA
ATOM      8  H   UNL d   1       2.473   0.468   1.828  0.00  0.00     0.143 HD
ATOM      9  H   UNL d   1       3.720   0.855   0.868  0.00  0.00     0.143 HD
ENDBRANCH   5   7
ENDBRANCH   3   5
ENDBRANCH   1   3
BRANCH   1  10
ATOM     10  C   UNL d   1       1.084   2.417   0.857  0.00  0.00     0.034 A 
ATOM     11  C   UNL d   1       2.147   2.908   0.094  0.00  0.00     0.037 A 
ATOM     12  C   UNL d   1       2.766   4.131   0.409  0.00  0.00    -0.043 A 
ATOM     13  C   UNL d   1       3.914   4.607  -0.436  0.00  0.00     0.049 C 
ATOM     14  C   UNL d   1       2.295   4.850   1.516  0.00  0.00     0.017 A 
ATOM     15  C   UNL d   1       1.196   4.387   2.249  0.00  0.00     0.022 A 
ATOM     16 BR   UNL d   1       3.113   6.465   2.088  0.00  0.00    -0.051 Br
ATOM     17  C   UNL d   1       0.577   3.185   1.905  0.00  0.00     0.031 A 
ENDBRANCH   1  10
TORSDOF 4
