REMARK  1 active torsions:
REMARK  status: ('A' for Active; 'I' for Inactive)
REMARK    1  A    between atoms: C_8  and  C_3 
ROOT
ATOM      1  N   UNL d   1       2.035  -0.162  -0.607  0.00  0.00    -0.335 N 
ATOM      2  C   UNL d   1       1.132   0.852  -0.496  0.00  0.00     0.255 C 
ATOM      3  C   UNL d   1       1.780  -1.569  -0.498  0.00  0.00     0.189 C 
ATOM      4  N   UNL d   1       0.432  -1.832  -0.041  0.00  0.00    -0.367 N 
ATOM      5  C   UNL d   1      -0.259   0.481  -0.242  0.00  0.00     0.058 A 
ATOM      6  C   UNL d   1      -0.561  -0.872  -0.085  0.00  0.00     0.045 A 
ATOM      7  O   UNL d   1       1.486   2.023  -0.616  0.00  0.00    -0.268 OA
ATOM      8  C   UNL d   1      -1.247   1.473  -0.172  0.00  0.00     0.019 A 
ATOM      9  C   UNL d   1      -1.900  -1.221   0.113  0.00  0.00     0.030 A 
ATOM     10  C   UNL d   1      -2.574   1.105   0.024  0.00  0.00     0.001 A 
ATOM     11  C   UNL d   1      -2.902  -0.243   0.152  0.00  0.00     0.002 A 
ATOM     12  H   UNL d   1       2.964   0.149  -0.844  0.00  0.00     0.164 HD
ATOM     13  H   UNL d   1       0.147  -2.803   0.003  0.00  0.00     0.161 HD
ENDROOT
BRANCH   3  14
ATOM     14  C   UNL d   1       2.782  -2.318   0.427  0.00  0.00     0.032 C 
ATOM     15  C   UNL d   1       4.243  -2.196  -0.054  0.00  0.00     0.035 C 
ATOM     16  C   UNL d   1       4.930  -0.938   0.399  0.00  0.00    -0.030 C 
ATOM     17  C   UNL d   1       4.463  -0.172   1.397  0.00  0.00    -0.031 C 
ATOM     18  C   UNL d   1       3.237  -0.510   2.199  0.00  0.00     0.027 C 
ATOM     19  C   UNL d   1       2.699  -1.914   1.914  0.00  0.00     0.012 C 
ENDBRANCH   3  14
TORSDOF 1
