REMARK  1 active torsions:
REMARK  status: ('A' for Active; 'I' for Inactive)
REMARK    1  A    between atoms: C_8  and  C_4 
ROOT
ATOM      1  C   UNL d   1      -0.191   0.082  -0.103  0.00  0.00     0.053 A 
ATOM      2  C   UNL d   1       0.314  -1.161  -0.261  0.00  0.00    -0.017 A 
ATOM      3  C   UNL d   1       2.605  -0.311  -0.109  0.00  0.00     0.124 A 
ATOM      4  C   UNL d   1       1.776  -1.372  -0.278  0.00  0.00     0.016 A 
ATOM      5  N   UNL d   1       0.661   1.141   0.056  0.00  0.00    -0.321 N 
ATOM      6  C   UNL d   1       2.026   1.048   0.070  0.00  0.00     0.267 A 
ATOM      7  C   UNL d   1      -1.656   0.307  -0.076  0.00  0.00    -0.003 A 
ATOM      8  C   UNL d   1       4.026  -0.405  -0.067  0.00  0.00     0.106 C 
ATOM      9  C   UNL d   1      -0.629  -2.342  -0.387  0.00  0.00     0.046 C 
ATOM     10  N   UNL d   1       5.182  -0.511  -0.021  0.00  0.00    -0.191 NA
ATOM     11  O   UNL d   1       2.716   2.048   0.232  0.00  0.00    -0.266 OA
ATOM     12  C   UNL d   1      -2.504  -0.784   0.204  0.00  0.00    -0.045 A 
ATOM     13  C   UNL d   1      -1.898  -2.142   0.452  0.00  0.00     0.044 C 
ATOM     14  C   UNL d   1      -2.238   1.563  -0.311  0.00  0.00     0.014 A 
ATOM     15  C   UNL d   1      -3.891  -0.600   0.295  0.00  0.00     0.008 A 
ATOM     16  C   UNL d   1      -3.623   1.736  -0.237  0.00  0.00     0.001 A 
ATOM     17  C   UNL d   1      -4.446   0.659   0.074  0.00  0.00     0.001 A 
ATOM     18  H   UNL d   1       0.300   2.071   0.219  0.00  0.00     0.169 HD
ENDROOT
BRANCH   4  19
ATOM     19  C   UNL d   1       2.377  -2.671  -0.431  0.00  0.00     0.017 A 
ATOM     20  S   UNL d   1       2.760  -3.281  -1.997  0.00  0.00    -0.101 SA
ATOM     21  C   UNL d   1       3.393  -4.734  -1.356  0.00  0.00     0.050 A 
ATOM     22  C   UNL d   1       3.319  -4.770   0.017  0.00  0.00     0.008 A 
ATOM     23  C   UNL d   1       2.729  -3.586   0.549  0.00  0.00     0.020 A 
ENDBRANCH   4  19
TORSDOF 1
