REMARK  1 active torsions:
REMARK  status: ('A' for Active; 'I' for Inactive)
REMARK    1  A    between atoms: C_10  and  C_5 
ROOT
ATOM      1  C   UNL d   1       1.164  -0.897   0.022  0.00  0.00     0.088 A 
ATOM      2  C   UNL d   1       0.736   0.489   0.014  0.00  0.00     0.009 A 
ATOM      3  O   UNL d   1       2.503  -1.210   0.041  0.00  0.00    -0.309 OA
ATOM      4  C   UNL d   1       0.103  -1.718   0.009  0.00  0.00     0.050 A 
ATOM      5  C   UNL d   1       3.421  -0.148   0.048  0.00  0.00     0.086 A 
ATOM      6  C   UNL d   1       1.621   1.489   0.017  0.00  0.00     0.018 A 
ATOM      7  C   UNL d   1      -0.718   0.500   0.002  0.00  0.00    -0.013 A 
ATOM      8  C   UNL d   1      -1.093  -0.861  -0.001  0.00  0.00    -0.022 A 
ATOM      9  C   UNL d   1       3.026   1.145   0.022  0.00  0.00     0.039 A 
ATOM     10  C   UNL d   1      -1.652   1.518  -0.004  0.00  0.00     0.013 A 
ATOM     11  C   UNL d   1      -2.429  -1.218  -0.005  0.00  0.00     0.012 A 
ATOM     12  C   UNL d   1      -3.002   1.158  -0.008  0.00  0.00     0.001 A 
ATOM     13  C   UNL d   1      -3.386  -0.196  -0.009  0.00  0.00     0.001 A 
ENDROOT
BRANCH   5  14
ATOM     14  C   UNL d   1       4.850  -0.530   0.026  0.00  0.00    -0.002 A 
ATOM     15  C   UNL d   1       5.826   0.273   0.641  0.00  0.00     0.014 A 
ATOM     16  C   UNL d   1       7.184  -0.039   0.545  0.00  0.00     0.001 A 
ATOM     17  C   UNL d   1       7.588  -1.177  -0.146  0.00  0.00     0.000 A 
ATOM     18  C   UNL d   1       6.633  -2.012  -0.722  0.00  0.00     0.001 A 
ATOM     19  C   UNL d   1       5.273  -1.694  -0.632  0.00  0.00     0.014 A 
ENDBRANCH   5  14
TORSDOF 1
