REMARK  3 active torsions:
REMARK  status: ('A' for Active; 'I' for Inactive)
REMARK    1  A    between atoms: C_2  and  C_1 
REMARK    2  A    between atoms: C_5  and  C_3 
REMARK    3  A    between atoms: C_6  and  C_4 
ROOT
ATOM      1  C   UNL d   1       0.945  -0.098   0.171  0.00  0.00     0.001 C 
ATOM      2  C   UNL d   1       2.285  -0.108   0.084  0.00  0.00     0.011 C 
ENDROOT
BRANCH   1   3
ATOM      3  C   UNL d   1       0.224   0.697   1.140  0.00  0.00     0.001 C 
ATOM      4  C   UNL d   1      -1.118   0.741   1.177  0.00  0.00     0.011 C 
BRANCH   4   5
ATOM      5  C   UNL d   1      -1.914   1.569   2.097  0.00  0.00    -0.036 A 
ATOM      6  C   UNL d   1      -1.461   2.799   2.590  0.00  0.00     0.011 A 
ATOM      7  C   UNL d   1      -2.278   3.585   3.408  0.00  0.00     0.001 A 
ATOM      8  C   UNL d   1      -3.562   3.155   3.733  0.00  0.00     0.000 A 
ATOM      9  C   UNL d   1      -4.030   1.939   3.242  0.00  0.00     0.001 A 
ATOM     10  C   UNL d   1      -3.212   1.152   2.426  0.00  0.00     0.011 A 
ENDBRANCH   4   5
ENDBRANCH   1   3
BRANCH   2  11
ATOM     11  C   UNL d   1       3.043  -0.875  -0.919  0.00  0.00    -0.036 A 
ATOM     12  C   UNL d   1       2.556  -1.105  -2.213  0.00  0.00     0.011 A 
ATOM     13  C   UNL d   1       3.319  -1.809  -3.148  0.00  0.00     0.001 A 
ATOM     14  C   UNL d   1       4.585  -2.279  -2.805  0.00  0.00     0.000 A 
ATOM     15  C   UNL d   1       5.090  -2.039  -1.529  0.00  0.00     0.001 A 
ATOM     16  C   UNL d   1       4.325  -1.336  -0.593  0.00  0.00     0.011 A 
ENDBRANCH   2  11
TORSDOF 3
