REMARK  7 active torsions:
REMARK  status: ('A' for Active; 'I' for Inactive)
REMARK    1  A    between atoms: C_14  and  N_1 
REMARK    2  A    between atoms: C_4  and  C_14 
REMARK    3  A    between atoms: S_15  and  C_5 
REMARK    4  A    between atoms: C_18  and  S_15 
REMARK    5  A    between atoms: C_16  and  C_18 
REMARK    6  A    between atoms: O_19  and  C_16 
REMARK    7  A    between atoms: C_24  and  O_19 
ROOT
ATOM      1  N   UNL d   1       2.220  -1.580   3.360  0.00  0.00    -0.323 N 
ATOM      2  HN  UNL d   1       1.873  -0.742   3.827  1.00  0.00     0.169 HD
ATOM      3  C   UNL d   1       1.570  -2.391   2.446  0.00  0.00     0.116 A 
ATOM      4  C   UNL d   1       3.390  -2.155   3.478  0.00  0.00     0.160 A 
ATOM      5  N   UNL d   1       2.269  -3.480   2.079  0.00  0.00    -0.286 N 
ATOM      6  HN  UNL d   1       1.996  -4.242   1.458  1.00  0.00     0.188 HD
ATOM      7  N   UNL d   1       3.422  -3.297   2.746  0.00  0.00    -0.278 N 
ATOM      8  H   UNL d   1       4.180  -3.967   2.650  0.00  0.00     0.189 HD
ENDROOT
BRANCH   3   9
ATOM      9  C   UNL d   1       0.204  -2.062   1.888  0.00  0.00     0.207 C 
BRANCH   9  10
ATOM     10  N   UNL d   1       0.139  -1.308   0.601  0.00  0.00    -0.338 N 
ATOM     11  C   UNL d   1      -0.506  -1.993  -0.459  0.00  0.00     0.052 A 
ATOM     12  C   UNL d   1      -1.590  -1.425  -1.159  0.00  0.00     0.032 A 
ATOM     13  C   UNL d   1       0.008  -3.219  -0.917  0.00  0.00     0.031 A 
ATOM     14  C   UNL d   1      -2.127  -2.069  -2.283  0.00  0.00     0.021 A 
ATOM     15  S   UNL d   1      -2.339   0.111  -0.644  0.00  0.00    -0.086 SA
ATOM     16  C   UNL d   1      -1.584  -3.270  -2.734  0.00  0.00     0.002 A 
ATOM     17  C   UNL d   1      -0.520  -3.848  -2.048  0.00  0.00     0.002 A 
ATOM     18  C   UNL d   1      -0.967   0.867   0.210  0.00  0.00     0.032 A 
ATOM     19  C   UNL d   1       0.083   0.103   0.753  0.00  0.00     0.052 A 
ATOM     20  C   UNL d   1      -0.964   2.264   0.333  0.00  0.00     0.021 A 
ATOM     21  C   UNL d   1       1.142   0.786   1.372  0.00  0.00     0.031 A 
ATOM     22  C   UNL d   1       1.151   2.179   1.476  0.00  0.00     0.002 A 
ATOM     23  C   UNL d   1       0.094   2.918   0.962  0.00  0.00     0.002 A 
ENDBRANCH   9  10
ENDBRANCH   3   9
BRANCH   4  24
ATOM     24  S   UNL d   1       4.775  -1.619   4.353  0.00  0.00    -0.083 SA
BRANCH  24  25
ATOM     25  C   UNL d   1       3.985  -0.766   5.751  0.00  0.00     0.193 C 
BRANCH  25  26
ATOM     26  C   UNL d   1       3.115  -1.714   6.547  0.00  0.00     0.268 C 
ATOM     27  O   UNL d   1       3.281  -2.923   6.650  0.00  0.00    -0.264 OA
BRANCH  26  28
ATOM     28  O   UNL d   1       2.099  -1.014   7.130  0.00  0.00    -0.321 OA
BRANCH  28  29
ATOM     29  C   UNL d   1       1.000  -1.810   7.592  0.00  0.00     0.174 C 
ATOM     30  C   UNL d   1       0.037  -2.006   6.434  0.00  0.00     0.034 C 
ENDBRANCH  28  29
ENDBRANCH  26  28
ENDBRANCH  25  26
ENDBRANCH  24  25
ENDBRANCH   4  24
TORSDOF 7
