REMARK  3 active torsions:
REMARK  status: ('A' for Active; 'I' for Inactive)
REMARK       I    between atoms: N_2  and  C_1 
REMARK       I    between atoms: N_5  and  C_1 
REMARK    1  A    between atoms: C_3  and  N_4 
REMARK    2  A    between atoms: C_6  and  N_5 
REMARK    3  A    between atoms: O_17  and  C_16 
ROOT
ATOM      1  C   UNL d   1       1.117   0.818   0.035  0.00  0.00     0.323 C 
ATOM      2  N   UNL d   1       0.270   1.183  -1.009  0.00  0.00    -0.331 N 
ATOM      3  N   UNL d   1      -0.027   3.481  -2.688  0.00  0.00    -0.214 N 
ATOM      4  N   UNL d   1       0.447   0.611   1.219  0.00  0.00    -0.306 N 
ATOM      5  O   UNL d   1       2.314   0.613  -0.134  0.00  0.00    -0.247 OA
ATOM      6  C   UNL d   1       0.795   1.163  -2.382  0.00  0.00     0.148 C 
ATOM      7  C   UNL d   1      -0.890   2.078  -0.834  0.00  0.00     0.148 C 
ATOM      8  C   UNL d   1       1.118   2.579  -2.894  0.00  0.00     0.161 C 
ATOM      9  C   UNL d   1      -0.555   3.505  -1.319  0.00  0.00     0.161 C 
ATOM     10  H   UNL d   1      -0.540   0.420   1.117  0.00  0.00     0.171 HD
ENDROOT
BRANCH   4  11
ATOM     11  C   UNL d   1       1.002   0.154   2.432  0.00  0.00     0.069 A 
ATOM     12  C   UNL d   1       0.183  -0.604   3.288  0.00  0.00     0.095 A 
ATOM     13  C   UNL d   1       0.642  -1.012   4.542  0.00  0.00     0.039 A 
ATOM     14  C   UNL d   1       1.941  -0.697   4.937  0.00  0.00     0.003 A 
ATOM     15  C   UNL d   1       2.771   0.029   4.082  0.00  0.00     0.002 A 
ATOM     16  C   UNL d   1       2.306   0.454   2.832  0.00  0.00     0.032 A 
BRANCH  12  17
ATOM     17  O   UNL d   1      -1.096  -0.961   2.938  0.00  0.00    -0.354 OA
ATOM     18  C   UNL d   1      -1.102  -1.959   1.910  0.00  0.00     0.210 C 
ENDBRANCH  12  17
ENDBRANCH   4  11
BRANCH   3  19
ATOM     19  C   UNL d   1      -0.910   3.678  -3.737  0.00  0.00     0.679 A 
ATOM     20  N   UNL d   1      -2.126   4.188  -3.472  0.00  0.00    -0.202 N 
ATOM     21  C   UNL d   1      -2.924   4.495  -4.514  0.00  0.00     0.107 A 
ATOM     22  HN  UNL d   1      -2.435   4.338  -2.512  1.00  0.00     0.183 HD
ATOM     23  C   UNL d   1      -2.569   4.307  -5.822  0.00  0.00     0.035 A 
ATOM     24  C   UNL d   1      -1.329   3.751  -6.002  0.00  0.00     0.107 A 
ATOM     25  N   UNL d   1      -0.499   3.428  -4.989  0.00  0.00    -0.202 N 
ATOM     26  HN  UNL d   1       0.411   3.005  -5.169  1.00  0.00     0.183 HD
ENDBRANCH   3  19
TORSDOF 3
