REMARK  1 active torsions:
REMARK  status: ('A' for Active; 'I' for Inactive)
REMARK    1  A    between atoms: N_12  and  C_6 
ROOT
ATOM      1  C   UNL d   1       0.902  -0.780   0.004  0.00  0.00     0.089 A 
ATOM      2  C   UNL d   1       0.426   0.532   0.001  0.00  0.00     0.043 A 
ATOM      3  S   UNL d   1      -0.356  -1.957  -0.024  0.00  0.00    -0.075 SA
ATOM      4  C   UNL d   1      -0.993   0.519  -0.045  0.00  0.00    -0.029 A 
ATOM      5  C   UNL d   1      -1.509  -0.747  -0.048  0.00  0.00    -0.008 A 
ATOM      6  C   UNL d   1       1.402   1.538   0.046  0.00  0.00     0.092 A 
ATOM      7  N   UNL d   1       2.190  -1.160   0.028  0.00  0.00    -0.346 N 
ATOM      8  HN  UNL d   1       2.499  -2.132   0.026  1.00  0.00     0.167 HD
ATOM      9  N   UNL d   1       2.703   1.195   0.061  0.00  0.00    -0.343 N 
ATOM     10  HN  UNL d   1       3.432   1.909   0.077  1.00  0.00     0.167 HD
ATOM     11  C   UNL d   1       3.020  -0.112   0.055  0.00  0.00     0.182 A 
ATOM     12  C   UNL d   1      -2.077   1.532  -0.084  0.00  0.00     0.041 C 
ATOM     13  C   UNL d   1      -2.990  -0.799  -0.070  0.00  0.00     0.047 C 
ATOM     14  C   UNL d   1      -3.336   0.683   0.275  0.00  0.00     0.010 C 
ENDROOT
BRANCH   6  15
ATOM     15  N   UNL d   1       1.109   2.894   0.070  0.00  0.00    -0.288 NA
ATOM     16  H   UNL d   1       0.235   3.159  -0.359  0.00  0.00     0.125 HD
ATOM     17  H   UNL d   1       1.923   3.444  -0.178  0.00  0.00     0.125 HD
ENDBRANCH   6  15
TORSDOF 1
