REMARK  4 active torsions:
REMARK  status: ('A' for Active; 'I' for Inactive)
REMARK    1  A    between atoms: C_4  and  N_1 
REMARK    2  A    between atoms: S_9  and  C_5 
REMARK    3  A    between atoms: C_10  and  S_9 
REMARK    4  A    between atoms: C_20  and  C_11 
ROOT
ATOM      1  N   UNL d   1       0.011   0.802  -0.055  0.00  0.00    -0.250 N 
ATOM      2  C   UNL d   1       1.150   0.038  -0.022  0.00  0.00     0.232 C 
ATOM      3  C   UNL d   1      -1.141   0.046  -0.011  0.00  0.00     0.245 C 
ATOM      4  C   UNL d   1      -0.742  -1.401   0.198  0.00  0.00     0.154 C 
ATOM      5  C   UNL d   1       0.762  -1.409  -0.013  0.00  0.00     0.129 C 
ATOM      6  O   UNL d   1       2.317   0.411  -0.023  0.00  0.00    -0.273 OA
ATOM      7  O   UNL d   1      -2.296   0.421  -0.137  0.00  0.00    -0.271 OA
ENDROOT
BRANCH   1   8
ATOM      8  C   UNL d   1       0.011   2.214  -0.124  0.00  0.00     0.057 A 
ATOM      9  C   UNL d   1       0.638   2.886  -1.197  0.00  0.00    -0.034 A 
ATOM     10  C   UNL d   1       0.628   4.298  -1.231  0.00  0.00     0.017 A 
ATOM     11  C   UNL d   1       1.292   2.189  -2.362  0.00  0.00     0.050 C 
ATOM     12  C   UNL d   1      -0.001   5.073  -0.245  0.00  0.00    -0.049 A 
ATOM     13  C   UNL d   1      -0.622   4.377   0.800  0.00  0.00     0.017 A 
ATOM     14  C   UNL d   1      -0.619   2.970   0.885  0.00  0.00    -0.034 A 
ATOM     15  C   UNL d   1      -1.263   2.387   2.119  0.00  0.00     0.050 C 
BRANCH  12  16
ATOM     16  C   UNL d   1       0.003   6.610  -0.318  0.00  0.00    -0.024 C 
ATOM     17  C   UNL d   1      -0.746   7.275   0.860  0.00  0.00     0.019 C 
ATOM     18  C   UNL d   1       1.455   7.135  -0.297  0.00  0.00     0.019 C 
ATOM     19  C   UNL d   1      -0.678   7.092  -1.617  0.00  0.00     0.019 C 
ENDBRANCH  12  16
ENDBRANCH   1   8
BRANCH   4  20
ATOM     20  S   UNL d   1      -1.232  -1.901   1.892  0.00  0.00    -0.115 SA
BRANCH  20  21
ATOM     21  C   UNL d   1      -0.696  -3.608   1.897  0.00  0.00     0.007 A 
ATOM     22  C   UNL d   1      -1.303  -4.498   0.993  0.00  0.00     0.027 A 
ATOM     23  C   UNL d   1      -0.960  -5.859   0.954  0.00  0.00    -0.039 A 
ATOM     24  C   UNL d   1      -1.699  -6.781   0.026  0.00  0.00     0.050 C 
ATOM     25  C   UNL d   1       0.037  -6.319   1.820  0.00  0.00     0.040 A 
ATOM     26  C   UNL d   1       0.644  -5.446   2.725  0.00  0.00     0.032 A 
ATOM     27 CL   UNL d   1       0.540  -7.971   1.826  0.00  0.00    -0.084 Cl
ATOM     28  C   UNL d   1       0.269  -4.091   2.798  0.00  0.00    -0.043 A 
ATOM     29  C   UNL d   1       0.947  -3.250   3.847  0.00  0.00     0.049 C 
ENDBRANCH  20  21
ENDBRANCH   4  20
TORSDOF 4
