REMARK  0 active torsions:
REMARK  status: ('A' for Active; 'I' for Inactive)
ROOT
ATOM      1  N   UNL d   1       0.150   0.558   0.234  0.00  0.00    -0.147 NA
ATOM      2  N   UNL d   1       0.291  -0.803   0.731  0.00  0.00    -0.147 NA
ATOM      3  C   UNL d   1       1.439   1.001  -0.092  0.00  0.00     0.321 C 
ATOM      4  C   UNL d   1       1.658  -1.115   0.647  0.00  0.00     0.321 C 
ATOM      5  N   UNL d   1       2.333   0.069   0.404  0.00  0.00    -0.263 N 
ATOM      6  C   UNL d   1      -0.933   0.488  -0.766  0.00  0.00     0.110 C 
ATOM      7  C   UNL d   1      -0.740  -1.579   0.013  0.00  0.00     0.110 C 
ATOM      8  C   UNL d   1      -0.723  -0.909  -1.367  0.00  0.00     0.051 C 
ATOM      9  C   UNL d   1      -2.188   0.209   0.034  0.00  0.00    -0.008 C 
ATOM     10  C   UNL d   1      -2.069  -1.044   0.513  0.00  0.00    -0.008 C 
ATOM     11  O   UNL d   1       1.701   1.946  -0.822  0.00  0.00    -0.252 OA
ATOM     12  O   UNL d   1       2.132  -2.240   0.622  0.00  0.00    -0.252 OA
ATOM     13  C   UNL d   1       3.742   0.116   0.118  0.00  0.00     0.165 C 
ENDROOT
TORSDOF 0
