REMARK  4 active torsions:
REMARK  status: ('A' for Active; 'I' for Inactive)
REMARK    1  A    between atoms: C_13  and  N_1 
REMARK    2  A    between atoms: C_14  and  C_2 
REMARK    3  A    between atoms: S_16  and  C_5 
REMARK    4  A    between atoms: N_8  and  C_15 
ROOT
ATOM      1  N   UNL d   1      -0.281  -1.140  -0.452  0.00  0.00    -0.275 N 
ATOM      2  C   UNL d   1       0.951  -0.627  -0.011  0.00  0.00     0.139 A 
ATOM      3  N   UNL d   1       0.760   0.597   0.453  0.00  0.00    -0.282 N 
ATOM      4  HN  UNL d   1       1.471   1.183   0.889  1.00  0.00     0.188 HD
ATOM      5  C   UNL d   1      -1.157  -0.073  -0.291  0.00  0.00     0.165 A 
ATOM      6  N   UNL d   1      -0.540   0.949   0.253  0.00  0.00    -0.278 N 
ATOM      7  HN  UNL d   1      -0.961   1.849   0.485  1.00  0.00     0.189 HD
ENDROOT
BRANCH   2   8
ATOM      8  C   UNL d   1       2.282  -1.247  -0.080  0.00  0.00     0.010 A 
ATOM      9  C   UNL d   1       2.666  -2.099  -1.121  0.00  0.00     0.017 A 
ATOM     10  C   UNL d   1       3.910  -2.739  -1.105  0.00  0.00     0.031 A 
ATOM     11  C   UNL d   1       4.848  -2.455  -0.110  0.00  0.00     0.039 A 
ATOM     12  C   UNL d   1       4.508  -1.532   0.886  0.00  0.00     0.031 A 
ATOM     13  C   UNL d   1       3.232  -0.952   0.910  0.00  0.00     0.017 A 
BRANCH  11  14
ATOM     14  N   UNL d   1       6.130  -3.088  -0.117  0.00  0.00    -0.320 N 
ATOM     15  C   UNL d   1       6.854  -3.518   0.998  0.00  0.00     0.013 A 
ATOM     16  C   UNL d   1       8.040  -4.081   0.555  0.00  0.00     0.027 A 
ATOM     17  C   UNL d   1       6.413  -3.484   2.422  0.00  0.00     0.068 C 
ATOM     18  C   UNL d   1       8.050  -4.028  -0.845  0.00  0.00     0.027 A 
ATOM     19  C   UNL d   1       6.883  -3.404  -1.256  0.00  0.00     0.013 A 
ATOM     20  C   UNL d   1       6.554  -3.060  -2.671  0.00  0.00     0.068 C 
ENDBRANCH  11  14
ENDBRANCH   2   8
BRANCH   1  21
ATOM     21  C   UNL d   1      -0.560  -2.460  -0.927  0.00  0.00     0.043 A 
ATOM     22  C   UNL d   1       0.079  -3.569  -0.352  0.00  0.00     0.030 A 
ATOM     23  C   UNL d   1      -0.152  -4.857  -0.846  0.00  0.00     0.009 A 
ATOM     24  C   UNL d   1      -1.062  -5.066  -1.886  0.00  0.00    -0.062 A 
ATOM     25  C   UNL d   1      -1.707  -3.963  -2.452  0.00  0.00     0.009 A 
ATOM     26  C   UNL d   1      -1.330  -6.457  -2.381  0.00  0.00     0.048 C 
ATOM     27  C   UNL d   1      -1.444  -2.668  -1.992  0.00  0.00     0.030 A 
ENDBRANCH   1  21
BRANCH   5  28
ATOM     28  S   UNL d   1      -2.873  -0.057  -0.558  0.00  0.00    -0.105 SA
ATOM     29  H   UNL d   1      -3.118  -1.372  -0.593  0.00  0.00     0.110 HD
ENDBRANCH   5  28
TORSDOF 4
