REMARK  2 active torsions:
REMARK  status: ('A' for Active; 'I' for Inactive)
REMARK    1  A    between atoms: C_2  and  C_1 
REMARK    2  A    between atoms: O_9  and  C_2 
ROOT
ATOM      1  C   UNL d   1       2.358   1.326  -0.014  0.00  0.00     0.056 A 
ATOM      2  N   UNL d   1       2.398  -1.100  -0.008  0.00  0.00    -0.373 N 
ATOM      3  HN  UNL d   1       2.920  -1.976  -0.002  1.00  0.00     0.164 HD
ATOM      4  C   UNL d   1       0.960   1.313  -0.019  0.00  0.00     0.039 A 
ATOM      5  C   UNL d   1       3.024   0.104  -0.006  0.00  0.00     0.105 A 
ATOM      6  C   UNL d   1       0.296   0.090  -0.021  0.00  0.00     0.027 A 
ATOM      7 BR   UNL d   1      -1.589   0.022  -0.032  0.00  0.00    -0.050 Br
ATOM      8  C   UNL d   1       1.044  -1.079  -0.017  0.00  0.00     0.106 A 
ENDROOT
BRANCH   1   9
ATOM      9  C   UNL d   1       3.171   2.560  -0.021  0.00  0.00     0.294 C 
ATOM     10  O   UNL d   1       4.391   2.559  -0.006  0.00  0.00    -0.259 OA
BRANCH   9  11
ATOM     11  O   UNL d   1       2.377   3.659  -0.054  0.00  0.00    -0.322 OA
ATOM     12  C   UNL d   1       3.101   4.891  -0.082  0.00  0.00     0.213 C 
ENDBRANCH   9  11
ENDBRANCH   1   9
TORSDOF 2
