REMARK  4 active torsions:
REMARK  status: ('A' for Active; 'I' for Inactive)
REMARK    1  A    between atoms: C_2  and  C_1 
REMARK    2  A    between atoms: C_15  and  C_7 
REMARK    3  A    between atoms: S_14  and  C_15 
REMARK    4  A    between atoms: C_16  and  S_14 
ROOT
ATOM      1  C   UNL d   1       0.511  -1.005  -0.010  0.00  0.00     0.186 A 
ATOM      2  N   UNL d   1       1.166   0.057   0.404  0.00  0.00    -0.322 N 
ATOM      3  HN  UNL d   1       2.047   0.099   0.916  1.00  0.00     0.169 HD
ATOM      4  C   UNL d   1       0.373   1.096  -0.022  0.00  0.00     0.113 A 
ATOM      5  N   UNL d   1      -0.788   0.713  -0.569  0.00  0.00    -0.246 N 
ATOM      6  HN  UNL d   1      -1.554   1.298  -0.904  1.00  0.00     0.196 HD
ATOM      7  O   UNL d   1      -0.699  -0.680  -0.570  0.00  0.00    -0.217 OA
ENDROOT
BRANCH   1   8
ATOM      8  C   UNL d   1       1.050  -2.378   0.071  0.00  0.00     0.073 A 
ATOM      9  C   UNL d   1       0.468  -3.512  -0.436  0.00  0.00     0.089 A 
ATOM     10  O   UNL d   1       1.292  -4.571  -0.198  0.00  0.00    -0.242 OA
ATOM     11  C   UNL d   1      -0.780  -3.806  -1.164  0.00  0.00     0.080 C 
ATOM     12  N   UNL d   1       2.421  -4.139   0.475  0.00  0.00    -0.265 N 
ATOM     13  C   UNL d   1       2.269  -2.817   0.636  0.00  0.00     0.045 A 
ATOM     14  HN  UNL d   1       3.207  -4.710   0.785  1.00  0.00     0.194 HD
ATOM     15  C   UNL d   1       3.310  -2.028   1.336  0.00  0.00     0.071 C 
ENDBRANCH   1   8
BRANCH   4  16
ATOM     16  C   UNL d   1       0.772   2.529   0.076  0.00  0.00     0.158 C 
BRANCH  16  17
ATOM     17  S   UNL d   1       2.586   2.735  -0.105  0.00  0.00    -0.122 SA
BRANCH  17  18
ATOM     18  C   UNL d   1       2.708   4.507  -0.156  0.00  0.00     0.001 A 
ATOM     19  C   UNL d   1       2.352   5.298   0.940  0.00  0.00     0.018 A 
ATOM     20  C   UNL d   1       2.510   6.685   0.885  0.00  0.00     0.001 A 
ATOM     21  C   UNL d   1       3.028   7.286  -0.262  0.00  0.00     0.000 A 
ATOM     22  C   UNL d   1       3.392   6.501  -1.354  0.00  0.00     0.001 A 
ATOM     23  C   UNL d   1       3.237   5.115  -1.301  0.00  0.00     0.018 A 
ENDBRANCH  17  18
ENDBRANCH  16  17
ENDBRANCH   4  16
TORSDOF 4
