REMARK  4 active torsions:
REMARK  status: ('A' for Active; 'I' for Inactive)
REMARK    1  A    between atoms: C_9  and  C_1 
REMARK    2  A    between atoms: C_4  and  C_2 
REMARK    3  A    between atoms: O_15  and  C_9 
REMARK    4  A    between atoms: C_18  and  O_15 
ROOT
ATOM      1  C   UNL d   1       1.446   1.057   0.046  0.00  0.00     0.068 C 
ATOM      2  C   UNL d   1       0.223   1.936  -0.029  0.00  0.00     0.185 C 
ATOM      3  C   UNL d   1       1.351  -0.289  -0.010  0.00  0.00     0.024 C 
ATOM      4  C   UNL d   1      -1.085  -0.178  -0.049  0.00  0.00     0.321 C 
ATOM      5  N   UNL d   1       0.096  -0.851  -0.107  0.00  0.00    -0.312 N 
ATOM      6  N   UNL d   1      -1.000   1.164   0.106  0.00  0.00    -0.328 N 
ATOM      7  O   UNL d   1      -2.164  -0.754  -0.102  0.00  0.00    -0.247 OA
ATOM      8  C   UNL d   1       2.466  -1.299  -0.003  0.00  0.00     0.069 C 
ATOM      9  H   UNL d   1      -0.003  -1.857  -0.168  0.00  0.00     0.170 HD
ATOM     10  H   UNL d   1      -1.885   1.651   0.105  0.00  0.00     0.165 HD
ENDROOT
BRANCH   2  11
ATOM     11  C   UNL d   1       0.125   3.033   0.986  0.00  0.00     0.081 A 
ATOM     12  O   UNL d   1       0.015   4.303   0.497  0.00  0.00    -0.317 OA
ATOM     13  C   UNL d   1      -0.008   5.145   1.566  0.00  0.00     0.049 A 
ATOM     14  C   UNL d   1      -0.087   6.589   1.268  0.00  0.00     0.076 C 
ATOM     15  C   UNL d   1       0.065   4.425   2.738  0.00  0.00     0.035 A 
ATOM     16  C   UNL d   1       0.146   3.062   2.365  0.00  0.00     0.038 A 
ENDBRANCH   2  11
BRANCH   1  17
ATOM     17  C   UNL d   1       2.759   1.738   0.184  0.00  0.00     0.293 C 
ATOM     18  O   UNL d   1       3.735   1.248   0.733  0.00  0.00    -0.259 OA
BRANCH  17  19
ATOM     19  O   UNL d   1       2.720   2.979  -0.359  0.00  0.00    -0.318 OA
BRANCH  19  20
ATOM     20  C   UNL d   1       3.917   3.762  -0.224  0.00  0.00     0.174 C 
ATOM     21  C   UNL d   1       4.122   4.253   1.201  0.00  0.00     0.034 C 
ENDBRANCH  19  20
ENDBRANCH  17  19
ENDBRANCH   1  17
TORSDOF 4
