REMARK  5 active torsions:
REMARK  status: ('A' for Active; 'I' for Inactive)
REMARK    1  A    between atoms: C_10  and  N_1 
REMARK    2  A    between atoms: C_11  and  C_6 
REMARK    3  A    between atoms: C_9  and  N_15 
REMARK    4  A    between atoms: C_18  and  C_11 
REMARK    5  A    between atoms: N_15  and  N_13 
ROOT
ATOM      1  N   UNL d   1      -0.602  -0.549   0.005  0.00  0.00    -0.227 N 
ATOM      2  N   UNL d   1       1.167  -1.776   0.006  0.00  0.00    -0.226 N 
ATOM      3  HN  UNL d   1       2.146  -2.063   0.014  1.00  0.00     0.210 HD
ATOM      4  N   UNL d   1       0.755  -0.524  -0.072  0.00  0.00    -0.220 N 
ATOM      5  HN  UNL d   1       1.343   0.303  -0.173  1.00  0.00     0.210 HD
ATOM      6  C   UNL d   1      -0.981  -1.889   0.036  0.00  0.00     0.125 A 
ATOM      7  N   UNL d   1       0.111  -2.630   0.076  0.00  0.00    -0.271 N 
ATOM      8  HN  UNL d   1       0.155  -3.647   0.146  1.00  0.00     0.190 HD
ENDROOT
BRANCH   6   9
ATOM      9  C   UNL d   1      -2.341  -2.462  -0.068  0.00  0.00     0.126 C 
BRANCH   9  10
ATOM     10  C   UNL d   1      -2.965  -2.602   1.296  0.00  0.00     0.087 C 
ATOM     11  N   UNL d   1      -4.158  -3.050   1.554  0.00  0.00    -0.313 N 
ATOM     12  HN  UNL d   1      -4.511  -3.082   2.511  1.00  0.00     0.185 HD
BRANCH  11  13
ATOM     13  N   UNL d   1      -4.927  -3.477   0.508  0.00  0.00    -0.277 N 
ATOM     14  H   UNL d   1      -4.573  -3.509  -0.441  0.00  0.00     0.189 HD
BRANCH  13  15
ATOM     15  C   UNL d   1      -6.170  -4.013   0.712  0.00  0.00     0.184 C 
ATOM     16  S   UNL d   1      -7.079  -4.621  -0.533  0.00  0.00    -0.040 SA
ATOM     17  N   UNL d   1      -6.611  -4.011   1.991  0.00  0.00    -0.375 N 
ATOM     18  H   UNL d   1      -5.946  -3.743   2.708  0.00  0.00     0.158 HD
ATOM     19  H   UNL d   1      -7.473  -4.468   2.245  0.00  0.00     0.158 HD
ENDBRANCH  13  15
ENDBRANCH  11  13
ENDBRANCH   9  10
ENDBRANCH   6   9
BRANCH   1  20
ATOM     20  C   UNL d   1      -1.329   0.673   0.077  0.00  0.00     0.059 A 
ATOM     21  C   UNL d   1      -0.635   1.881  -0.118  0.00  0.00     0.032 A 
ATOM     22  C   UNL d   1      -1.285   3.112   0.010  0.00  0.00     0.009 A 
ATOM     23  C   UNL d   1      -2.640   3.165   0.344  0.00  0.00    -0.062 A 
ATOM     24  C   UNL d   1      -3.337   1.967   0.518  0.00  0.00     0.009 A 
ATOM     25  C   UNL d   1      -3.322   4.489   0.519  0.00  0.00     0.048 C 
ATOM     26  C   UNL d   1      -2.692   0.731   0.385  0.00  0.00     0.032 A 
ENDBRANCH   1  20
TORSDOF 5
