REMARK  5 active torsions:
REMARK  status: ('A' for Active; 'I' for Inactive)
REMARK       I    between atoms: N_2  and  C_1 
REMARK    1  A    between atoms: C_7  and  C_1 
REMARK    2  A    between atoms: C_6  and  N_2 
REMARK    3  A    between atoms: O_3  and  C_7 
REMARK    4  A    between atoms: C_4  and  O_3 
REMARK    5  A    between atoms: O_16  and  C_10 
ROOT
ATOM      1  C   UNL d   1       1.103  -0.009   0.117  0.00  0.00     0.251 C 
ATOM      2  N   UNL d   1       0.317  -0.002  -1.030  0.00  0.00    -0.323 N 
ATOM      3  O   UNL d   1       2.299  -0.289   0.145  0.00  0.00    -0.270 OA
ATOM      4  H   UNL d   1      -0.486   0.613  -0.990  0.00  0.00     0.169 HD
ENDROOT
BRANCH   1   5
ATOM      5  C   UNL d   1       0.379   0.440   1.405  0.00  0.00     0.217 C 
ATOM      6  C   UNL d   1       0.512  -0.679   2.436  0.00  0.00     0.050 C 
BRANCH   5   7
ATOM      7  O   UNL d   1      -1.008   0.737   1.262  0.00  0.00    -0.335 OA
BRANCH   7   8
ATOM      8  C   UNL d   1      -1.359   2.049   1.060  0.00  0.00     0.091 A 
ATOM      9  C   UNL d   1      -2.643   2.455   1.468  0.00  0.00     0.069 A 
ATOM     10  C   UNL d   1      -3.097   3.750   1.212  0.00  0.00     0.050 A 
ATOM     11 CL   UNL d   1      -3.698   1.377   2.314  0.00  0.00    -0.081 Cl
ATOM     12  C   UNL d   1      -2.269   4.646   0.541  0.00  0.00     0.035 A 
ATOM     13  C   UNL d   1      -0.992   4.262   0.139  0.00  0.00     0.026 A 
ATOM     14 CL   UNL d   1      -2.824   6.237   0.195  0.00  0.00    -0.084 Cl
ATOM     15  C   UNL d   1      -0.538   2.968   0.397  0.00  0.00     0.040 A 
ENDBRANCH   7   8
ENDBRANCH   5   7
ENDBRANCH   1   5
BRANCH   2  16
ATOM     16  C   UNL d   1       0.888  -0.231  -2.306  0.00  0.00     0.068 A 
ATOM     17  C   UNL d   1       1.651  -1.361  -2.635  0.00  0.00     0.095 A 
ATOM     18  C   UNL d   1       2.317  -1.402  -3.867  0.00  0.00     0.039 A 
ATOM     19  C   UNL d   1       2.201  -0.354  -4.780  0.00  0.00     0.003 A 
ATOM     20  C   UNL d   1       1.393   0.737  -4.479  0.00  0.00     0.002 A 
ATOM     21  C   UNL d   1       0.721   0.792  -3.256  0.00  0.00     0.032 A 
BRANCH  17  22
ATOM     22  O   UNL d   1       1.841  -2.486  -1.875  0.00  0.00    -0.354 OA
ATOM     23  C   UNL d   1       0.715  -2.955  -1.144  0.00  0.00     0.210 C 
ENDBRANCH  17  22
ENDBRANCH   2  16
TORSDOF 5
