REMARK  5 active torsions:
REMARK  status: ('A' for Active; 'I' for Inactive)
REMARK    1  A    between atoms: C_3  and  N_1 
REMARK    2  A    between atoms: C_4  and  C_2 
REMARK    3  A    between atoms: O_11  and  C_4 
REMARK    4  A    between atoms: N_10  and  C_5 
REMARK    5  A    between atoms: C_7  and  N_10 
ROOT
ATOM      1  C   UNL d   1       2.139  -4.968   1.481  0.00  0.00     0.064 A 
ATOM      2  C   UNL d   1       1.026  -4.858   0.615  0.00  0.00     0.049 A 
ATOM      3  C   UNL d   1       2.801  -6.196   1.651  0.00  0.00     0.020 A 
ATOM      4  C   UNL d   1       0.598  -6.028  -0.039  0.00  0.00     0.030 A 
ATOM      5  C   UNL d   1       2.356  -7.335   0.985  0.00  0.00     0.001 A 
ATOM      6  C   UNL d   1       1.257  -7.249   0.138  0.00  0.00     0.002 A 
ENDROOT
BRANCH   2   7
ATOM      7  N   UNL d   1       0.314  -3.638   0.486  0.00  0.00    -0.364 N 
ATOM      8  H   UNL d   1       0.903  -2.802   0.503  0.00  0.00     0.165 HD
BRANCH   7   9
ATOM      9  C   UNL d   1      -0.969  -3.475   0.004  0.00  0.00     0.112 C 
ATOM     10  C   UNL d   1      -1.576  -2.333  -0.336  0.00  0.00     0.184 C 
BRANCH  10  11
ATOM     11  N   UNL d   1      -2.939  -2.368  -0.817  0.00  0.00    -0.126 N 
ATOM     12  O   UNL d   1      -3.454  -1.267  -1.044  0.00  0.00    -0.532 OA
ATOM     13  O   UNL d   1      -3.495  -3.463  -0.973  0.00  0.00    -0.532 OA
ENDBRANCH  10  11
ENDBRANCH   7   9
ENDBRANCH   2   7
BRANCH   1  14
ATOM     14  C   UNL d   1       2.677  -3.821   2.257  0.00  0.00     0.178 C 
ATOM     15  O   UNL d   1       3.864  -3.666   2.483  0.00  0.00    -0.646 OA
BRANCH  14  16
ATOM     16  O   UNL d   1       1.720  -2.984   2.714  0.00  0.00    -0.773 OA
ATOM     17  H   UNL d   1       0.812  -3.332   2.574  0.00  0.00     0.167 HD
ENDBRANCH  14  16
ENDBRANCH   1  14
TORSDOF 5
