REMARK  2 active torsions:
REMARK  status: ('A' for Active; 'I' for Inactive)
REMARK       I    between atoms: N_6  and  C_1 
REMARK       I    between atoms: N_7  and  C_1 
REMARK    1  A    between atoms: C_9  and  N_6 
REMARK    2  A    between atoms: C_8  and  N_7 
ROOT
ATOM      1  C   UNL d   1       1.303  -0.316   0.371  0.00  0.00     0.683 C 
ATOM      2  N   UNL d   1       0.712  -0.477  -0.780  0.00  0.00    -0.126 N 
ATOM      3  HN  UNL d   1      -0.290  -0.658  -0.829  1.00  0.00     0.197 HD
ATOM      4  C   UNL d   1       1.436  -0.400  -1.884  0.00  0.00     0.196 C 
ATOM      5  N   UNL d   1       2.097  -0.318  -2.824  0.00  0.00    -0.171 NA
ATOM      6  N   UNL d   1       0.567  -0.375   1.527  0.00  0.00    -0.221 N 
ATOM      7  N   UNL d   1       2.646  -0.066   0.551  0.00  0.00    -0.221 N 
ATOM      8  H   UNL d   1       0.663   0.429   2.132  0.00  0.00     0.178 HD
ATOM      9  H   UNL d   1       3.164   0.104  -0.306  0.00  0.00     0.178 HD
ENDROOT
BRANCH   6  10
ATOM     10  C   UNL d   1      -0.715  -1.095   1.605  0.00  0.00     0.099 C 
ATOM     11  C   UNL d   1      -1.930  -0.333   1.049  0.00  0.00     0.026 C 
ATOM     12  C   UNL d   1      -2.700   0.565   2.022  0.00  0.00     0.002 C 
ATOM     13  C   UNL d   1      -2.845  -0.012   3.424  0.00  0.00     0.000 C 
ATOM     14  C   UNL d   1      -1.513  -0.515   3.957  0.00  0.00     0.002 C 
ATOM     15  C   UNL d   1      -0.941  -1.588   3.038  0.00  0.00     0.026 C 
ENDBRANCH   6  10
BRANCH   7  16
ATOM     16  C   UNL d   1       3.513  -0.597   1.613  0.00  0.00     0.099 C 
ATOM     17  C   UNL d   1       4.988  -0.221   1.345  0.00  0.00     0.026 C 
ATOM     18  C   UNL d   1       5.792  -1.181   0.462  0.00  0.00     0.002 C 
ATOM     19  C   UNL d   1       5.610  -2.650   0.806  0.00  0.00     0.000 C 
ATOM     20  C   UNL d   1       4.152  -3.045   0.975  0.00  0.00     0.002 C 
ATOM     21  C   UNL d   1       3.347  -2.103   1.867  0.00  0.00     0.026 C 
ENDBRANCH   7  16
TORSDOF 2
