REMARK  3 active torsions:
REMARK  status: ('A' for Active; 'I' for Inactive)
REMARK    1  A    between atoms: N_2  and  C_1 
REMARK    2  A    between atoms: C_8  and  C_3 
REMARK       I    between atoms: C_9  and  N_11 
REMARK    3  A    between atoms: N_11  and  C_17 
ROOT
ATOM      1  C   UNL d   1       2.063   0.028  -0.169  0.00  0.00     0.183 C 
ATOM      2  C   UNL d   1       1.105   1.222  -0.070  0.00  0.00     0.146 C 
ATOM      3  N   UNL d   1      -0.299   0.886  -0.239  0.00  0.00    -0.350 N 
ATOM      4  C   UNL d   1      -0.863  -0.337  -0.038  0.00  0.00     0.218 C 
ATOM      5  C   UNL d   1       1.475  -1.204   0.518  0.00  0.00     0.043 C 
ATOM      6  O   UNL d   1      -2.085  -0.452  -0.023  0.00  0.00    -0.274 OA
ATOM      7  C   UNL d   1       0.056  -1.534   0.062  0.00  0.00     0.105 C 
ATOM      8  H   UNL d   1      -0.973   1.644  -0.264  0.00  0.00     0.163 HD
ENDROOT
BRANCH   2   9
ATOM      9  C   UNL d   1       1.484   2.431  -0.906  0.00  0.00    -0.033 A 
ATOM     10  C   UNL d   1       0.996   2.589  -2.210  0.00  0.00     0.011 A 
ATOM     11  C   UNL d   1       1.399   3.666  -3.005  0.00  0.00     0.030 A 
ATOM     12  C   UNL d   1       2.299   4.614  -2.513  0.00  0.00     0.034 A 
ATOM     13  C   UNL d   1       2.758   4.487  -1.200  0.00  0.00     0.030 A 
ATOM     14  C   UNL d   1       2.361   3.402  -0.406  0.00  0.00     0.011 A 
BRANCH  12  15
ATOM     15  N   UNL d   1       2.704   5.632  -3.401  0.00  0.00    -0.328 N 
ATOM     16  C   UNL d   1       3.623   6.636  -3.163  0.00  0.00     0.218 C 
ATOM     17  O   UNL d   1       4.209   6.861  -2.108  0.00  0.00    -0.274 OA
ATOM     18  C   UNL d   1       3.894   7.491  -4.377  0.00  0.00     0.117 C 
ATOM     19  H   UNL d   1       2.304   5.586  -4.329  0.00  0.00     0.169 HD
ENDBRANCH  12  15
ENDBRANCH   2   9
BRANCH   1  20
ATOM     20  N   UNL d   1       2.407  -0.307  -1.600  0.00  0.00    -0.148 N 
ATOM     21  O   UNL d   1       1.489  -0.559  -2.388  0.00  0.00    -0.536 OA
ATOM     22  O   UNL d   1       3.614  -0.352  -1.878  0.00  0.00    -0.536 OA
ENDBRANCH   1  20
TORSDOF 3
