REMARK  0 active torsions:
REMARK  status: ('A' for Active; 'I' for Inactive)
ROOT
ATOM      1  C   UNL d   1      -0.255  -1.146   0.081  0.00  0.00     0.137 A 
ATOM      2  N   UNL d   1      -0.417   0.241   0.028  0.00  0.00    -0.260 N 
ATOM      3  C   UNL d   1       0.982  -1.679   0.052  0.00  0.00     0.096 A 
ATOM      4  C   UNL d   1       0.601   1.163  -0.026  0.00  0.00     0.261 A 
ATOM      5  N   UNL d   1      -1.502  -1.755   0.148  0.00  0.00    -0.339 N 
ATOM      6  C   UNL d   1       2.146  -0.779   0.003  0.00  0.00    -0.022 A 
ATOM      7  C   UNL d   1       1.977   0.563  -0.013  0.00  0.00     0.018 A 
ATOM      8  C   UNL d   1      -1.802   0.514   0.004  0.00  0.00     0.071 A 
ATOM      9  C   UNL d   1      -2.459  -0.736   0.023  0.00  0.00     0.061 A 
ATOM     10  C   UNL d   1       1.146  -3.095   0.099  0.00  0.00     0.104 C 
ATOM     11  N   UNL d   1       1.274  -4.249   0.129  0.00  0.00    -0.191 NA
ATOM     12  O   UNL d   1       0.465   2.382  -0.089  0.00  0.00    -0.267 OA
ATOM     13  C   UNL d   1       3.535  -1.386  -0.019  0.00  0.00     0.041 C 
ATOM     14  C   UNL d   1       3.107   1.557  -0.006  0.00  0.00     0.045 C 
ATOM     15  C   UNL d   1      -2.489   1.708  -0.040  0.00  0.00     0.032 A 
ATOM     16  C   UNL d   1      -3.833  -0.810   0.044  0.00  0.00     0.032 A 
ATOM     17  C   UNL d   1       4.452   0.930   0.352  0.00  0.00     0.005 C 
ATOM     18  C   UNL d   1       4.639  -0.387  -0.386  0.00  0.00     0.005 C 
ATOM     19  C   UNL d   1      -3.884   1.638  -0.041  0.00  0.00     0.002 A 
ATOM     20  C   UNL d   1      -4.548   0.395   0.001  0.00  0.00     0.002 A 
ATOM     21  H   UNL d   1      -1.664  -2.714  -0.117  0.00  0.00     0.167 HD
ENDROOT
TORSDOF 0
