REMARK  1 active torsions:
REMARK  status: ('A' for Active; 'I' for Inactive)
REMARK    1  A    between atoms: N_13  and  C_6 
ROOT
ATOM      1  C   UNL d   1       1.052  -0.916   0.001  0.00  0.00     0.136 A 
ATOM      2  N   UNL d   1       0.708   0.445  -0.000  0.00  0.00    -0.280 N 
ATOM      3  C   UNL d   1       2.434  -1.280   0.002  0.00  0.00     0.095 A 
ATOM      4  N   UNL d   1      -0.007  -1.695   0.000  0.00  0.00    -0.339 N 
ATOM      5  HN  UNL d   1      -0.021  -2.715   0.000  1.00  0.00     0.167 HD
ATOM      6  C   UNL d   1       1.694   1.474  -0.002  0.00  0.00     0.107 A 
ATOM      7  C   UNL d   1       3.381  -0.313   0.002  0.00  0.00    -0.034 A 
ATOM      8  C   UNL d   1       2.991   1.096   0.000  0.00  0.00     0.057 A 
ATOM      9  C   UNL d   1      -0.691   0.484  -0.001  0.00  0.00     0.069 A 
ATOM     10  C   UNL d   1      -1.080  -0.857  -0.000  0.00  0.00     0.061 A 
ATOM     11  C   UNL d   1       2.778  -2.668   0.000  0.00  0.00     0.104 C 
ATOM     12  N   UNL d   1       3.118  -3.778  -0.000  0.00  0.00    -0.191 NA
ATOM     13  C   UNL d   1       4.868  -0.564   0.001  0.00  0.00     0.050 C 
ATOM     14  C   UNL d   1      -1.659   1.506  -0.001  0.00  0.00     0.032 A 
ATOM     15  C   UNL d   1      -2.441  -1.205  -0.000  0.00  0.00     0.032 A 
ATOM     16  C   UNL d   1      -3.013   1.139  -0.000  0.00  0.00     0.002 A 
ATOM     17  C   UNL d   1      -3.402  -0.196  -0.000  0.00  0.00     0.002 A 
ENDROOT
BRANCH   6  18
ATOM     18  N   UNL d   1       1.363   2.803  -0.012  0.00  0.00    -0.385 N 
ATOM     19  H   UNL d   1       0.406   3.113   0.010  0.00  0.00     0.157 HD
ATOM     20  H   UNL d   1       2.090   3.510   0.005  0.00  0.00     0.157 HD
ENDBRANCH   6  18
TORSDOF 1
