REMARK  4 active torsions:
REMARK  status: ('A' for Active; 'I' for Inactive)
REMARK       I    between atoms: N_2  and  C_1 
REMARK       I    between atoms: N_4  and  C_1 
REMARK    1  A    between atoms: C_6  and  C_3 
REMARK    2  A    between atoms: C_11  and  N_4 
REMARK    3  A    between atoms: C_7  and  C_6 
REMARK       I    between atoms: N_9  and  C_7 
REMARK    4  A    between atoms: C_8  and  N_9 
ROOT
ATOM      1  C   UNL d   1       1.021   0.019   0.216  0.00  0.00     0.323 C 
ATOM      2  N   UNL d   1       0.322   0.918  -0.588  0.00  0.00    -0.318 N 
ATOM      3  C   UNL d   1       0.892   1.478  -1.843  0.00  0.00     0.189 C 
ATOM      4  N   UNL d   1       0.234  -0.583   1.173  0.00  0.00    -0.308 N 
ATOM      5  C   UNL d   1       1.249   2.975  -1.699  0.00  0.00     0.241 C 
ATOM      6  N   UNL d   1       0.381   3.732  -0.943  0.00  0.00    -0.358 N 
ATOM      7  O   UNL d   1       2.188  -0.289   0.012  0.00  0.00    -0.247 OA
ATOM      8  O   UNL d   1       2.109   3.547  -2.364  0.00  0.00    -0.271 OA
ATOM      9  C   UNL d   1      -0.808   1.714  -0.079  0.00  0.00     0.148 C 
ATOM     10  C   UNL d   1      -0.378   3.167   0.156  0.00  0.00     0.142 C 
ATOM     11  H   UNL d   1      -0.727  -0.686   0.890  0.00  0.00     0.170 HD
ATOM     12  H   UNL d   1       0.641   4.712  -0.904  0.00  0.00     0.162 HD
ENDROOT
BRANCH   3  13
ATOM     13  C   UNL d   1       2.009   0.718  -2.557  0.00  0.00     0.138 C 
BRANCH  13  14
ATOM     14  C   UNL d   1       1.467  -0.532  -3.208  0.00  0.00     0.224 C 
ATOM     15  N   UNL d   1       2.054  -1.694  -2.759  0.00  0.00    -0.326 N 
ATOM     16  H   UNL d   1       2.545  -1.648  -1.863  0.00  0.00     0.169 HD
ATOM     17  O   UNL d   1       0.595  -0.453  -4.071  0.00  0.00    -0.273 OA
BRANCH  15  18
ATOM     18  C   UNL d   1       1.973  -2.976  -3.363  0.00  0.00     0.058 A 
ATOM     19  C   UNL d   1       1.421  -3.176  -4.635  0.00  0.00     0.055 A 
ATOM     20  C   UNL d   1       1.418  -4.446  -5.216  0.00  0.00     0.036 A 
ATOM     21 CL   UNL d   1       0.746  -4.668  -6.786  0.00  0.00    -0.084 Cl
ATOM     22  C   UNL d   1       1.966  -5.537  -4.546  0.00  0.00     0.026 A 
ATOM     23  C   UNL d   1       2.515  -5.356  -3.277  0.00  0.00     0.028 A 
ATOM     24  C   UNL d   1       2.518  -4.086  -2.690  0.00  0.00     0.060 A 
ATOM     25 CL   UNL d   1       3.212  -3.924  -1.112  0.00  0.00    -0.082 Cl
ENDBRANCH  15  18
ENDBRANCH  13  14
ENDBRANCH   3  13
BRANCH   4  26
ATOM     26  C   UNL d   1       0.701  -1.498   2.145  0.00  0.00     0.042 A 
ATOM     27  C   UNL d   1      -0.101  -2.590   2.530  0.00  0.00    -0.035 A 
ATOM     28  C   UNL d   1      -1.389  -2.968   1.847  0.00  0.00     0.050 C 
ATOM     29  C   UNL d   1       0.331  -3.417   3.583  0.00  0.00     0.009 A 
ATOM     30  C   UNL d   1       1.547  -3.189   4.225  0.00  0.00     0.001 A 
ATOM     31  C   UNL d   1       2.353  -2.131   3.817  0.00  0.00     0.002 A 
ATOM     32  C   UNL d   1       1.934  -1.292   2.786  0.00  0.00     0.030 A 
ENDBRANCH   4  26
TORSDOF 4
