REMARK  3 active torsions:
REMARK  status: ('A' for Active; 'I' for Inactive)
REMARK    1  A    between atoms: C_4  and  C_1 
REMARK    2  A    between atoms: O_17  and  C_3 
REMARK    3  A    between atoms: C_10  and  N_5 
ROOT
ATOM      1  C   UNL d   1      -0.233   3.465   0.321  0.00  0.00     0.102 C 
ATOM      2  N   UNL d   1       0.727   4.294   0.051  0.00  0.00    -0.365 N 
ATOM      3  HN  UNL d   1       1.664   3.947  -0.158  1.00  0.00     0.165 HD
ENDROOT
BRANCH   1   4
ATOM      4  C   UNL d   1      -0.009   2.007   0.359  0.00  0.00     0.016 A 
ATOM      5  C   UNL d   1      -1.050   1.145   0.722  0.00  0.00     0.099 A 
ATOM      6  C   UNL d   1      -0.827  -0.236   0.747  0.00  0.00     0.069 A 
ATOM      7 CL   UNL d   1      -2.100  -1.314   1.191  0.00  0.00    -0.081 Cl
ATOM      8  C   UNL d   1       0.421  -0.758   0.413  0.00  0.00     0.050 A 
ATOM      9  C   UNL d   1       1.452   0.109   0.058  0.00  0.00     0.036 A 
ATOM     10  C   UNL d   1       1.248   1.486   0.030  0.00  0.00     0.039 A 
ATOM     11 CL   UNL d   1       2.994  -0.532  -0.355  0.00  0.00    -0.084 Cl
BRANCH   5  12
ATOM     12  O   UNL d   1      -2.277   1.659   1.054  0.00  0.00    -0.358 OA
ATOM     13  H   UNL d   1      -2.866   0.910   1.272  0.00  0.00     0.217 HD
ENDBRANCH   5  12
ENDBRANCH   1   4
BRANCH   2  14
ATOM     14  C   UNL d   1       0.465   5.677   0.049  0.00  0.00     0.032 A 
ATOM     15  C   UNL d   1      -0.456   6.291   0.908  0.00  0.00     0.036 A 
ATOM     16  C   UNL d   1      -0.664   7.674   0.887  0.00  0.00    -0.059 A 
ATOM     17  C   UNL d   1      -1.679   8.303   1.794  0.00  0.00     0.048 C 
ATOM     18  C   UNL d   1       0.093   8.464   0.013  0.00  0.00     0.013 A 
ATOM     19  C   UNL d   1       1.041   7.879  -0.836  0.00  0.00    -0.059 A 
ATOM     20  C   UNL d   1       1.215   6.489  -0.811  0.00  0.00     0.036 A 
ATOM     21  C   UNL d   1       1.864   8.746  -1.744  0.00  0.00     0.048 C 
ENDBRANCH   2  14
TORSDOF 3
