REMARK  5 active torsions:
REMARK  status: ('A' for Active; 'I' for Inactive)
REMARK    1  A    between atoms: C_8  and  N_1 
REMARK    2  A    between atoms: C_9  and  C_2 
REMARK    3  A    between atoms: C_11  and  C_7 
REMARK    4  A    between atoms: C_12  and  C_8 
REMARK    5  A    between atoms: O_24  and  C_14 
ROOT
ATOM      1  N   UNL d   1       0.106  -1.445   0.031  0.00  0.00    -0.293 N 
ATOM      2  C   UNL d   1       1.378  -0.963  -0.130  0.00  0.00     0.121 A 
ATOM      3  N   UNL d   1       1.472   0.338  -0.131  0.00  0.00    -0.337 N 
ATOM      4  HN  UNL d   1       2.321   0.898  -0.217  1.00  0.00     0.167 HD
ATOM      5  C   UNL d   1       0.179   0.793   0.011  0.00  0.00     0.103 A 
ATOM      6  C   UNL d   1      -0.739  -0.373   0.130  0.00  0.00     0.276 A 
ATOM      7  C   UNL d   1      -0.170   2.088   0.036  0.00  0.00     0.046 C 
ATOM      8  O   UNL d   1      -1.946  -0.379   0.303  0.00  0.00    -0.265 OA
ENDROOT
BRANCH   7   9
ATOM      9  C   UNL d   1      -1.547   2.570   0.157  0.00  0.00    -0.034 A 
ATOM     10  C   UNL d   1      -2.106   2.809   1.417  0.00  0.00     0.014 A 
ATOM     11  C   UNL d   1      -3.447   3.193   1.536  0.00  0.00     0.037 A 
ATOM     12  C   UNL d   1      -4.237   3.340   0.395  0.00  0.00     0.068 A 
ATOM     13  C   UNL d   1      -3.668   3.144  -0.865  0.00  0.00     0.037 A 
ATOM     14  C   UNL d   1      -2.331   2.752  -0.986  0.00  0.00     0.014 A 
BRANCH  12  15
ATOM     15  O   UNL d   1      -5.554   3.708   0.395  0.00  0.00    -0.356 OA
ATOM     16  C   UNL d   1      -6.305   3.277   1.526  0.00  0.00     0.210 C 
ENDBRANCH  12  15
ENDBRANCH   7   9
BRANCH   1  17
ATOM     17  C   UNL d   1      -0.412  -2.796   0.193  0.00  0.00     0.172 C 
BRANCH  17  18
ATOM     18  C   UNL d   1       0.155  -3.532   1.387  0.00  0.00    -0.040 A 
ATOM     19  C   UNL d   1       0.387  -2.875   2.607  0.00  0.00     0.012 A 
ATOM     20  C   UNL d   1       0.924  -3.567   3.691  0.00  0.00     0.043 A 
ATOM     21  C   UNL d   1       1.206  -4.921   3.569  0.00  0.00     0.116 A 
ATOM     22  C   UNL d   1       0.951  -5.600   2.383  0.00  0.00     0.043 A 
ATOM     23  F   UNL d   1       1.724  -5.585   4.610  0.00  0.00    -0.206 F 
ATOM     24  C   UNL d   1       0.421  -4.908   1.294  0.00  0.00     0.012 A 
ENDBRANCH  17  18
ENDBRANCH   1  17
BRANCH   2  25
ATOM     25  C   UNL d   1       2.580  -1.829  -0.248  0.00  0.00     0.008 A 
ATOM     26  C   UNL d   1       2.571  -3.051  -0.927  0.00  0.00     0.015 A 
ATOM     27  C   UNL d   1       3.720  -3.845  -0.976  0.00  0.00     0.001 A 
ATOM     28  C   UNL d   1       4.903  -3.399  -0.394  0.00  0.00     0.000 A 
ATOM     29  C   UNL d   1       4.941  -2.157   0.234  0.00  0.00     0.001 A 
ATOM     30  C   UNL d   1       3.783  -1.375   0.312  0.00  0.00     0.015 A 
ENDBRANCH   2  25
TORSDOF 5
