REMARK  2 active torsions:
REMARK  status: ('A' for Active; 'I' for Inactive)
REMARK    1  A    between atoms: C_14  and  C_5 
REMARK    2  A    between atoms: N_15  and  C_6 
ROOT
ATOM      1  C   UNL d   1      -0.321   0.939  -0.174  0.00  0.00     0.066 A 
ATOM      2  C   UNL d   1       0.127  -0.321  -0.087  0.00  0.00     0.103 A 
ATOM      3  C   UNL d   1      -2.656  -0.029  -0.078  0.00  0.00     0.081 A 
ATOM      4  C   UNL d   1       0.638   2.069  -0.237  0.00  0.00     0.298 C 
ATOM      5  C   UNL d   1      -1.810   1.233  -0.217  0.00  0.00     0.108 A 
ATOM      6  C   UNL d   1      -2.088  -1.253   0.012  0.00  0.00     0.138 A 
ATOM      7  O   UNL d   1      -0.711  -1.417  -0.039  0.00  0.00    -0.296 OA
ATOM      8  C   UNL d   1       1.555  -0.615  -0.030  0.00  0.00     0.033 A 
ATOM      9  O   UNL d   1       1.980   1.776  -0.029  0.00  0.00    -0.274 OA
ATOM     10  C   UNL d   1       2.444   0.453   0.016  0.00  0.00     0.092 A 
ATOM     11  C   UNL d   1      -4.078   0.104  -0.050  0.00  0.00     0.100 C 
ATOM     12  N   UNL d   1      -5.232   0.176  -0.048  0.00  0.00    -0.191 NA
ATOM     13  O   UNL d   1       0.291   3.219  -0.474  0.00  0.00    -0.259 OA
ATOM     14  C   UNL d   1       2.080  -1.912  -0.009  0.00  0.00     0.017 A 
ATOM     15  C   UNL d   1       3.823   0.269   0.083  0.00  0.00     0.038 A 
ATOM     16  C   UNL d   1       3.463  -2.115   0.051  0.00  0.00     0.001 A 
ATOM     17  C   UNL d   1       4.333  -1.026   0.097  0.00  0.00     0.003 A 
ENDROOT
BRANCH   5  18
ATOM     18  C   UNL d   1      -2.188   2.296   0.816  0.00  0.00    -0.044 A 
ATOM     19  C   UNL d   1      -2.086   2.041   2.192  0.00  0.00     0.008 A 
ATOM     20  C   UNL d   1      -2.228   3.082   3.110  0.00  0.00     0.001 A 
ATOM     21  C   UNL d   1      -2.474   4.380   2.666  0.00  0.00     0.000 A 
ATOM     22  C   UNL d   1      -2.628   4.635   1.306  0.00  0.00     0.001 A 
ATOM     23  C   UNL d   1      -2.505   3.596   0.386  0.00  0.00     0.008 A 
ENDBRANCH   5  18
BRANCH   6  24
ATOM     24  N   UNL d   1      -2.751  -2.449   0.156  0.00  0.00    -0.282 NA
ATOM     25  H   UNL d   1      -3.728  -2.466  -0.127  0.00  0.00     0.126 HD
ATOM     26  H   UNL d   1      -2.213  -3.243  -0.181  0.00  0.00     0.126 HD
ENDBRANCH   6  24
TORSDOF 2
