REMARK  6 active torsions:
REMARK  status: ('A' for Active; 'I' for Inactive)
REMARK    1  A    between atoms: N_2  and  S_1 
REMARK    2  A    between atoms: C_6  and  S_1 
REMARK    3  A    between atoms: C_17  and  C_4 
REMARK    4  A    between atoms: C_5  and  C_10 
REMARK    5  A    between atoms: C_8  and  O_19 
REMARK    6  A    between atoms: O_19  and  C_28 
ROOT
ATOM      1  N   UNL d   1       0.665  -0.815   1.318  0.00  0.00    -0.293 N 
ATOM      2  C   UNL d   1       0.854  -2.991   2.482  0.00  0.00    -0.017 A 
ATOM      3  C   UNL d   1       1.150  -2.225   1.214  0.00  0.00     0.163 C 
ATOM      4  C   UNL d   1       0.547  -2.373   3.677  0.00  0.00    -0.007 A 
ATOM      5  C   UNL d   1       0.857  -0.118   2.631  0.00  0.00     0.142 C 
ATOM      6  S   UNL d   1       0.352  -3.469   4.965  0.00  0.00    -0.106 SA
ATOM      7  C   UNL d   1       0.358  -0.908   3.848  0.00  0.00     0.067 C 
ATOM      8  C   UNL d   1       0.828  -4.421   2.632  0.00  0.00     0.018 A 
ATOM      9  C   UNL d   1       0.604  -4.809   3.933  0.00  0.00     0.051 A 
ENDROOT
BRANCH   1  10
ATOM     10  S   UNL d   1       0.957   0.190  -0.025  0.00  0.00     0.261 S 
ATOM     11  O   UNL d   1       2.380   0.366  -0.176  0.00  0.00    -0.200 OA
ATOM     12  O   UNL d   1       0.086   1.343   0.091  0.00  0.00    -0.200 OA
BRANCH  10  13
ATOM     13  C   UNL d   1       0.356  -0.772  -1.395  0.00  0.00     0.080 A 
ATOM     14  C   UNL d   1       1.245  -1.260  -2.359  0.00  0.00     0.041 A 
ATOM     15  C   UNL d   1       0.763  -2.070  -3.400  0.00  0.00     0.049 A 
ATOM     16  C   UNL d   1      -0.611  -2.365  -3.452  0.00  0.00     0.016 A 
ATOM     17  C   UNL d   1      -1.492  -1.855  -2.495  0.00  0.00     0.002 A 
ATOM     18  C   UNL d   1      -1.010  -1.052  -1.465  0.00  0.00     0.025 A 
BRANCH  15  19
ATOM     19  C   UNL d   1       1.688  -2.641  -4.449  0.00  0.00     0.417 C 
ATOM     20  F   UNL d   1       2.986  -2.259  -4.302  0.00  0.00    -0.166 F 
ATOM     21  F   UNL d   1       1.697  -4.004  -4.434  0.00  0.00    -0.166 F 
ATOM     22  F   UNL d   1       1.330  -2.283  -5.712  0.00  0.00    -0.166 F 
ENDBRANCH  15  19
ENDBRANCH  10  13
ENDBRANCH   1  10
BRANCH   3  23
ATOM     23  C   UNL d   1       2.622  -2.510   0.958  0.00  0.00    -0.030 A 
ATOM     24  C   UNL d   1       2.986  -3.589   0.128  0.00  0.00     0.012 A 
ATOM     25  C   UNL d   1       4.329  -3.952  -0.052  0.00  0.00     0.037 A 
ATOM     26  C   UNL d   1       5.338  -3.209   0.550  0.00  0.00     0.078 A 
ATOM     27  C   UNL d   1       4.989  -2.146   1.378  0.00  0.00     0.037 A 
ATOM     28  C   UNL d   1       3.654  -1.805   1.586  0.00  0.00     0.012 A 
BRANCH  26  29
ATOM     29  O   UNL d   1       6.679  -3.406   0.458  0.00  0.00    -0.255 OA
BRANCH  29  30
ATOM     30  C   UNL d   1       7.213  -4.150  -0.621  0.00  0.00     0.530 C 
ATOM     31  F   UNL d   1       6.415  -4.178  -1.708  0.00  0.00    -0.144 F 
ATOM     32  F   UNL d   1       8.385  -3.581  -0.986  0.00  0.00    -0.144 F 
ATOM     33  F   UNL d   1       7.465  -5.415  -0.223  0.00  0.00    -0.144 F 
ENDBRANCH  29  30
ENDBRANCH  26  29
ENDBRANCH   3  23
TORSDOF 6
