REMARK  1 active torsions:
REMARK  status: ('A' for Active; 'I' for Inactive)
REMARK    1  A    between atoms: C_7  and  N_1 
ROOT
ATOM      1  N   UNL d   1       2.428   0.700   0.159  0.00  0.00    -0.339 N 
ATOM      2  N   UNL d   1       1.229  -1.366  -0.080  0.00  0.00    -0.352 N 
ATOM      3  HN  UNL d   1       1.263  -2.381  -0.178  1.00  0.00     0.166 HD
ATOM      4  C   UNL d   1      -0.045   0.721   0.018  0.00  0.00    -0.011 A 
ATOM      5  C   UNL d   1       2.311  -0.661   0.017  0.00  0.00     0.184 C 
ATOM      6  C   UNL d   1       0.013  -0.675  -0.044  0.00  0.00     0.042 A 
ATOM      7  C   UNL d   1       1.225   1.529   0.049  0.00  0.00     0.171 C 
ATOM      8  C   UNL d   1      -1.175  -1.413  -0.064  0.00  0.00     0.055 A 
ATOM      9  C   UNL d   1      -2.415  -0.769  -0.029  0.00  0.00     0.058 A 
ATOM     10  C   UNL d   1      -1.290   1.369   0.039  0.00  0.00     0.036 A 
ATOM     11  C   UNL d   1      -2.474   0.626   0.018  0.00  0.00     0.056 A 
ATOM     12 CL   UNL d   1      -3.836  -1.752  -0.044  0.00  0.00    -0.082 Cl
ATOM     13 CL   UNL d   1      -3.965   1.497   0.053  0.00  0.00    -0.083 Cl
ENDROOT
BRANCH   1  14
ATOM     14  C   UNL d   1       3.652   1.401   0.073  0.00  0.00     0.037 A 
ATOM     15  C   UNL d   1       3.870   2.573   0.818  0.00  0.00     0.055 A 
ATOM     16  C   UNL d   1       5.065   3.298   0.716  0.00  0.00     0.058 A 
ATOM     17 CL   UNL d   1       5.216   4.729   1.674  0.00  0.00    -0.082 Cl
ATOM     18  C   UNL d   1       6.076   2.857  -0.138  0.00  0.00     0.055 A 
ATOM     19  C   UNL d   1       5.891   1.684  -0.870  0.00  0.00     0.028 A 
ATOM     20 CL   UNL d   1       7.562   3.712  -0.338  0.00  0.00    -0.083 Cl
ATOM     21  C   UNL d   1       4.695   0.962  -0.759  0.00  0.00     0.031 A 
ENDBRANCH   1  14
TORSDOF 1
