REMARK  5 active torsions:
REMARK  status: ('A' for Active; 'I' for Inactive)
REMARK    1  A    between atoms: C_6  and  C_1 
REMARK    2  A    between atoms: C_9  and  C_2 
REMARK    3  A    between atoms: C_10  and  C_5 
REMARK       I    between atoms: N_16  and  C_6 
REMARK    4  A    between atoms: O_23  and  C_17 
REMARK    5  A    between atoms: O_24  and  C_18 
ROOT
ATOM      1  C   UNL d   1       2.092   0.059   0.056  0.00  0.00     0.085 A 
ATOM      2  C   UNL d   1       1.714  -1.284   0.085  0.00  0.00     0.010 A 
ATOM      3  S   UNL d   1       0.726   1.095   0.006  0.00  0.00    -0.072 SA
ATOM      4  C   UNL d   1      -0.376  -0.199  -0.045  0.00  0.00     0.098 A 
ATOM      5  C   UNL d   1       0.251  -1.437   0.010  0.00  0.00     0.014 A 
ATOM      6  C   UNL d   1      -1.778   0.067  -0.153  0.00  0.00     0.108 C 
ATOM      7  N   UNL d   1      -2.915   0.302  -0.213  0.00  0.00    -0.191 NA
ENDROOT
BRANCH   5   8
ATOM      8  C   UNL d   1      -0.519  -2.696  -0.082  0.00  0.00    -0.023 A 
ATOM      9  C   UNL d   1      -1.679  -2.917   0.678  0.00  0.00     0.015 A 
ATOM     10  C   UNL d   1      -2.399  -4.116   0.570  0.00  0.00     0.037 A 
ATOM     11  C   UNL d   1      -1.938  -5.139  -0.255  0.00  0.00     0.068 A 
ATOM     12  C   UNL d   1      -0.780  -4.936  -1.002  0.00  0.00     0.037 A 
ATOM     13  C   UNL d   1      -0.092  -3.721  -0.937  0.00  0.00     0.015 A 
BRANCH  11  14
ATOM     14  O   UNL d   1      -2.534  -6.356  -0.435  0.00  0.00    -0.356 OA
ATOM     15  C   UNL d   1      -3.467  -6.758   0.559  0.00  0.00     0.210 C 
ENDBRANCH  11  14
ENDBRANCH   5   8
BRANCH   1  16
ATOM     16  C   UNL d   1       3.413   0.678   0.094  0.00  0.00     0.257 C 
ATOM     17  O   UNL d   1       4.403   0.207   0.647  0.00  0.00    -0.267 OA
ATOM     18  N   UNL d   1       3.538   1.863  -0.581  0.00  0.00    -0.365 N 
ATOM     19  H   UNL d   1       2.767   2.297  -1.063  0.00  0.00     0.159 HD
ATOM     20  H   UNL d   1       4.448   2.306  -0.597  0.00  0.00     0.159 HD
ENDBRANCH   1  16
BRANCH   2  21
ATOM     21  C   UNL d   1       2.697  -2.388   0.095  0.00  0.00    -0.023 A 
ATOM     22  C   UNL d   1       2.477  -3.523   0.889  0.00  0.00     0.015 A 
ATOM     23  C   UNL d   1       3.273  -4.669   0.756  0.00  0.00     0.037 A 
ATOM     24  C   UNL d   1       4.355  -4.674  -0.121  0.00  0.00     0.068 A 
ATOM     25  C   UNL d   1       4.631  -3.522  -0.857  0.00  0.00     0.037 A 
ATOM     26  C   UNL d   1       3.799  -2.400  -0.772  0.00  0.00     0.015 A 
BRANCH  24  27
ATOM     27  O   UNL d   1       5.205  -5.719  -0.348  0.00  0.00    -0.356 OA
ATOM     28  C   UNL d   1       4.875  -6.960   0.262  0.00  0.00     0.210 C 
ENDBRANCH  24  27
ENDBRANCH   2  21
TORSDOF 5
