REMARK  6 active torsions:
REMARK  status: ('A' for Active; 'I' for Inactive)
REMARK    1  A    between atoms: C_9  and  N_1 
REMARK    2  A    between atoms: C_15  and  C_2 
REMARK    3  A    between atoms: C_8  and  C_7 
REMARK    4  A    between atoms: C_14  and  C_9 
REMARK    5  A    between atoms: O_18  and  C_14 
REMARK    6  A    between atoms: C_22  and  O_18 
ROOT
ATOM      1  N   UNL d   1       0.049  -1.465  -0.081  0.00  0.00    -0.288 N 
ATOM      2  C   UNL d   1       1.331  -0.998  -0.169  0.00  0.00     0.121 C 
ATOM      3  N   UNL d   1       1.439   0.303  -0.174  0.00  0.00    -0.337 N 
ATOM      4  HN  UNL d   1       2.297   0.854  -0.211  1.00  0.00     0.167 HD
ATOM      5  C   UNL d   1       0.139   0.774  -0.117  0.00  0.00     0.105 C 
ATOM      6  C   UNL d   1      -0.792  -0.391  -0.183  0.00  0.00     0.276 C 
ATOM      7  C   UNL d   1      -0.182   2.071  -0.018  0.00  0.00     0.072 C 
ATOM      8  O   UNL d   1      -1.987  -0.420  -0.410  0.00  0.00    -0.265 OA
ENDROOT
BRANCH   7   9
ATOM      9  C   UNL d   1      -1.511   2.547   0.126  0.00  0.00     0.078 A 
ATOM     10  O   UNL d   1      -2.493   1.879   0.821  0.00  0.00    -0.316 OA
ATOM     11  C   UNL d   1      -3.656   2.564   0.711  0.00  0.00     0.050 A 
ATOM     12  C   UNL d   1      -4.843   1.924   1.316  0.00  0.00     0.076 C 
ATOM     13  C   UNL d   1      -3.447   3.732   0.018  0.00  0.00     0.035 A 
ATOM     14  C   UNL d   1      -2.080   3.731  -0.336  0.00  0.00     0.040 A 
ENDBRANCH   7   9
BRANCH   1  15
ATOM     15  C   UNL d   1      -0.506  -2.809   0.016  0.00  0.00     0.245 C 
BRANCH  15  16
ATOM     16  C   UNL d   1      -0.187  -3.552   1.303  0.00  0.00     0.277 C 
ATOM     17  O   UNL d   1      -0.551  -4.704   1.508  0.00  0.00    -0.263 OA
BRANCH  16  18
ATOM     18  O   UNL d   1       0.471  -2.772   2.201  0.00  0.00    -0.321 OA
BRANCH  18  19
ATOM     19  C   UNL d   1       0.495  -3.256   3.551  0.00  0.00     0.174 C 
ATOM     20  C   UNL d   1      -0.736  -2.716   4.256  0.00  0.00     0.034 C 
ENDBRANCH  18  19
ENDBRANCH  16  18
ENDBRANCH  15  16
ENDBRANCH   1  15
BRANCH   2  21
ATOM     21  C   UNL d   1       2.526  -1.881  -0.229  0.00  0.00     0.008 A 
ATOM     22  C   UNL d   1       2.520  -3.109  -0.897  0.00  0.00     0.015 A 
ATOM     23  C   UNL d   1       3.669  -3.901  -0.945  0.00  0.00     0.001 A 
ATOM     24  C   UNL d   1       4.851  -3.449  -0.369  0.00  0.00     0.000 A 
ATOM     25  C   UNL d   1       4.884  -2.207   0.262  0.00  0.00     0.001 A 
ATOM     26  C   UNL d   1       3.725  -1.427   0.337  0.00  0.00     0.015 A 
ENDBRANCH   2  21
TORSDOF 6
