REMARK  1 active torsions:
REMARK  status: ('A' for Active; 'I' for Inactive)
REMARK    1  A    between atoms: O_12  and  C_5 
ROOT
ATOM      1  C   UNL d   1      -0.024  -0.798  -0.031  0.00  0.00     0.030 A 
ATOM      2  C   UNL d   1      -0.057   0.626  -0.002  0.00  0.00     0.051 A 
ATOM      3  N   UNL d   1      -1.210   1.329   0.004  0.00  0.00    -0.365 N 
ATOM      4  HN  UNL d   1      -1.188   2.348   0.043  1.00  0.00     0.165 HD
ATOM      5  C   UNL d   1      -1.307  -1.413  -0.055  0.00  0.00     0.080 A 
ATOM      6  C   UNL d   1       1.265  -1.446  -0.049  0.00  0.00    -0.047 A 
ATOM      7  C   UNL d   1       1.136   1.357   0.021  0.00  0.00    -0.034 A 
ATOM      8  C   UNL d   1       2.437  -0.672  -0.006  0.00  0.00     0.008 A 
ATOM      9  C   UNL d   1       2.376   0.709   0.025  0.00  0.00     0.009 A 
ATOM     10  C   UNL d   1      -2.386   0.681  -0.042  0.00  0.00     0.091 A 
ATOM     11  C   UNL d   1      -2.490  -0.682  -0.082  0.00  0.00     0.054 A 
ATOM     12  C   UNL d   1       1.512  -2.932  -0.108  0.00  0.00     0.049 C 
ATOM     13  C   UNL d   1       1.149   2.866   0.031  0.00  0.00     0.050 C 
ENDROOT
BRANCH   5  14
ATOM     14  O   UNL d   1      -1.506  -2.767  -0.036  0.00  0.00    -0.360 OA
ATOM     15  H   UNL d   1      -0.965  -3.111   0.695  0.00  0.00     0.217 HD
ENDBRANCH   5  14
TORSDOF 1
