REMARK  0 active torsions:
REMARK  status: ('A' for Active; 'I' for Inactive)
ROOT
ATOM      1  N   UNL d   1      -1.161   0.798   0.007  0.00  0.00    -0.046 N 
ATOM      2  C   UNL d   1      -1.284  -0.583   0.006  0.00  0.00     0.708 A 
ATOM      3  C   UNL d   1       0.054   1.497   0.005  0.00  0.00     0.290 A 
ATOM      4  C   UNL d   1       1.229   0.601   0.000  0.00  0.00     0.035 A 
ATOM      5  N   UNL d   1      -0.160  -1.336   0.005  0.00  0.00    -0.193 N 
ATOM      6  N   UNL d   1      -2.550  -0.918   0.007  0.00  0.00    -0.184 N 
ATOM      7  HN  UNL d   1      -2.964  -1.850   0.007  1.00  0.00     0.185 HD
ATOM      8  C   UNL d   1       1.070  -0.727   0.000  0.00  0.00     0.038 A 
ATOM      9  N   UNL d   1      -2.389   1.375   0.006  0.00  0.00    -0.272 N 
ATOM     10  HN  UNL d   1      -2.639   2.364   0.006  1.00  0.00     0.189 HD
ATOM     11  C   UNL d   1      -3.181   0.300   0.006  0.00  0.00     0.216 A 
ATOM     12  O   UNL d   1       0.112   2.719   0.005  0.00  0.00    -0.265 OA
ATOM     13  C   UNL d   1       2.639   1.040  -0.010  0.00  0.00     0.047 A 
ATOM     14  C   UNL d   1       2.381  -1.436  -0.011  0.00  0.00     0.058 A 
ATOM     15  C   UNL d   1       3.408  -0.288   0.004  0.00  0.00     0.011 A 
ATOM     16  H   UNL d   1      -0.212  -2.351   0.001  0.00  0.00     0.184 HD
ENDROOT
TORSDOF 0
