REMARK  5 active torsions:
REMARK  status: ('A' for Active; 'I' for Inactive)
REMARK    1  A    between atoms: C_8  and  N_1 
REMARK    2  A    between atoms: C_10  and  C_4 
REMARK    3  A    between atoms: O_12  and  C_5 
REMARK    4  A    between atoms: C_9  and  C_7 
REMARK    5  A    between atoms: O_16  and  C_10 
ROOT
ATOM      1  N   UNL d   1       0.821  -0.662   0.076  0.00  0.00    -0.233 N 
ATOM      2  N   UNL d   1       0.910   0.681   0.009  0.00  0.00    -0.286 N 
ATOM      3  HN  UNL d   1       1.761   1.240  -0.053  1.00  0.00     0.188 HD
ATOM      4  C   UNL d   1      -0.359   1.129   0.043  0.00  0.00     0.128 A 
ATOM      5  C   UNL d   1      -0.504  -1.093   0.098  0.00  0.00     0.164 A 
ATOM      6  C   UNL d   1      -1.270   0.046   0.060  0.00  0.00     0.095 A 
ENDROOT
BRANCH   1   7
ATOM      7  C   UNL d   1       2.003  -1.442  -0.010  0.00  0.00     0.074 A 
ATOM      8  C   UNL d   1       3.209  -1.051   0.612  0.00  0.00     0.076 A 
ATOM      9  C   UNL d   1       4.349  -1.860   0.393  0.00  0.00     0.018 A 
ATOM     10  C   UNL d   1       4.296  -3.014  -0.390  0.00  0.00     0.001 A 
ATOM     11  C   UNL d   1       3.101  -3.389  -0.987  0.00  0.00     0.002 A 
ATOM     12  C   UNL d   1       1.962  -2.607  -0.805  0.00  0.00     0.032 A 
BRANCH   8  13
ATOM     13  C   UNL d   1       3.409   0.110   1.573  0.00  0.00     0.419 C 
ATOM     14  F   UNL d   1       2.314   0.784   2.001  0.00  0.00    -0.166 F 
ATOM     15  F   UNL d   1       3.985  -0.336   2.736  0.00  0.00    -0.166 F 
ATOM     16  F   UNL d   1       4.280   1.039   1.088  0.00  0.00    -0.166 F 
ENDBRANCH   8  13
ENDBRANCH   1   7
BRANCH   5  17
ATOM     17  O   UNL d   1      -0.912  -2.360   0.206  0.00  0.00    -0.345 OA
ATOM     18  H   UNL d   1      -0.174  -2.928   0.489  0.00  0.00     0.219 HD
ENDBRANCH   5  17
BRANCH   4  19
ATOM     19  C   UNL d   1      -0.695   2.556   0.059  0.00  0.00     0.311 C 
ATOM     20  O   UNL d   1      -1.853   2.972   0.020  0.00  0.00    -0.258 OA
BRANCH  19  21
ATOM     21  O   UNL d   1       0.403   3.365   0.131  0.00  0.00    -0.321 OA
ATOM     22  C   UNL d   1       0.118   4.761   0.136  0.00  0.00     0.213 C 
ENDBRANCH  19  21
ENDBRANCH   4  19
TORSDOF 5
