REMARK  2 active torsions:
REMARK  status: ('A' for Active; 'I' for Inactive)
REMARK    1  A    between atoms: N_5  and  C_2 
REMARK       I    between atoms: C_6  and  N_7 
REMARK    2  A    between atoms: C_14  and  C_6 
ROOT
ATOM      1  N   UNL d   1       1.592  -2.797   0.322  0.00  0.00    -0.265 NA
ATOM      2  C   UNL d   1       3.216  -6.609  -0.301  0.00  0.00     0.253 C 
ATOM      3  N   UNL d   1       2.473  -5.502   0.091  0.00  0.00    -0.346 N 
ATOM      4  C   UNL d   1       1.096  -3.633  -0.792  0.00  0.00     0.117 C 
ATOM      5  C   UNL d   1       2.967  -3.168   0.736  0.00  0.00     0.117 C 
ATOM      6  C   UNL d   1       2.997  -4.648   1.164  0.00  0.00     0.141 C 
ATOM      7  C   UNL d   1       1.122  -5.116  -0.355  0.00  0.00     0.141 C 
ATOM      8  O   UNL d   1       4.187  -7.008   0.344  0.00  0.00    -0.267 OA
ENDROOT
BRANCH   1   9
ATOM      9  C   UNL d   1       1.494  -1.419   0.095  0.00  0.00     0.103 A 
ATOM     10  C   UNL d   1       1.327  -0.504   1.148  0.00  0.00     0.070 A 
ATOM     11  S   UNL d   1       1.159  -0.801   2.838  0.00  0.00    -0.096 SA
ATOM     12  C   UNL d   1       1.260   0.859   0.875  0.00  0.00     0.060 A 
ATOM     13  C   UNL d   1       1.030   0.861   3.192  0.00  0.00     0.059 A 
ATOM     14  C   UNL d   1       1.099   1.654   2.063  0.00  0.00    -0.027 A 
ATOM     15  C   UNL d   1       1.010   3.141   2.096  0.00  0.00     0.051 C 
ATOM     16  N   UNL d   1       1.341   1.350  -0.386  0.00  0.00    -0.351 N 
ATOM     17  C   UNL d   1       1.472   0.416  -1.328  0.00  0.00     0.182 A 
ATOM     18  HN  UNL d   1       1.304   2.347  -0.595  1.00  0.00     0.166 HD
ATOM     19  N   UNL d   1       1.542  -0.916  -1.163  0.00  0.00    -0.342 N 
ATOM     20  HN  UNL d   1       1.628  -1.537  -1.969  1.00  0.00     0.167 HD
ENDBRANCH   1   9
BRANCH   2  21
ATOM     21  C   UNL d   1       2.899  -7.331  -1.562  0.00  0.00     0.032 A 
ATOM     22  C   UNL d   1       2.486  -6.658  -2.716  0.00  0.00     0.017 A 
ATOM     23  C   UNL d   1       2.244  -7.361  -3.896  0.00  0.00     0.007 A 
ATOM     24  C   UNL d   1       2.482  -8.738  -3.962  0.00  0.00    -0.062 A 
ATOM     25  C   UNL d   1       2.946  -9.406  -2.823  0.00  0.00     0.007 A 
ATOM     26  C   UNL d   1       2.260  -9.465  -5.256  0.00  0.00     0.048 C 
ATOM     27  C   UNL d   1       3.152  -8.707  -1.629  0.00  0.00     0.017 A 
ENDBRANCH   2  21
TORSDOF 2
