REMARK  3 active torsions:
REMARK  status: ('A' for Active; 'I' for Inactive)
REMARK    1  A    between atoms: S_2  and  C_1 
REMARK    2  A    between atoms: O_7  and  S_2 
REMARK    3  A    between atoms: C_12  and  O_7 
ROOT
ATOM      1  S   UNL d   1       2.092  -3.065   0.034  0.00  0.00     0.311 S 
ATOM      2  O   UNL d   1       1.950  -4.495   0.216  0.00  0.00    -0.192 OA
ATOM      3  O   UNL d   1       0.973  -2.153   0.150  0.00  0.00    -0.192 OA
ENDROOT
BRANCH   1   4
ATOM      4  C   UNL d   1       3.306  -2.586   1.232  0.00  0.00     0.146 A 
ATOM      5  S   UNL d   1       2.877  -1.334   2.324  0.00  0.00    -0.067 SA
ATOM      6  C   UNL d   1       4.386  -1.403   3.088  0.00  0.00     0.054 A 
ATOM      7 BR   UNL d   1       4.868  -0.272   4.500  0.00  0.00    -0.043 Br
ATOM      8  C   UNL d   1       5.217  -2.364   2.570  0.00  0.00     0.048 A 
ATOM      9  C   UNL d   1       4.579  -3.042   1.497  0.00  0.00     0.043 A 
ATOM     10 BR   UNL d   1       5.470  -4.427   0.569  0.00  0.00    -0.049 Br
ENDBRANCH   1   4
BRANCH   1  11
ATOM     11  O   UNL d   1       2.910  -2.754  -1.346  0.00  0.00    -0.229 OA
BRANCH  11  12
ATOM     12  C   UNL d   1       2.311  -2.901  -2.572  0.00  0.00     0.089 A 
ATOM     13  C   UNL d   1       2.805  -2.094  -3.602  0.00  0.00     0.040 A 
ATOM     14  C   UNL d   1       2.258  -2.178  -4.886  0.00  0.00     0.026 A 
ATOM     15  C   UNL d   1       1.226  -3.079  -5.141  0.00  0.00     0.034 A 
ATOM     16  C   UNL d   1       0.744  -3.899  -4.123  0.00  0.00     0.026 A 
ATOM     17 CL   UNL d   1       0.546  -3.185  -6.717  0.00  0.00    -0.084 Cl
ATOM     18  C   UNL d   1       1.289  -3.814  -2.840  0.00  0.00     0.040 A 
ENDBRANCH  11  12
ENDBRANCH   1  11
TORSDOF 3
