REMARK  2 active torsions:
REMARK  status: ('A' for Active; 'I' for Inactive)
REMARK    1  A    between atoms: C_12  and  N_3 
REMARK    2  A    between atoms: C_13  and  C_7 
ROOT
ATOM      1  C   UNL d   1      -2.448  -0.798  -0.071  0.00  0.00     0.102 A 
ATOM      2  C   UNL d   1      -3.734  -1.207  -0.018  0.00  0.00     0.118 C 
ATOM      3  N   UNL d   1      -4.933  -0.486   0.145  0.00  0.00    -0.248 N 
ATOM      4  S   UNL d   1      -4.105  -2.952   0.089  0.00  0.00    -0.047 SA
ATOM      5  N   UNL d   1      -6.028  -1.234   0.601  0.00  0.00    -0.283 N 
ATOM      6  HN  UNL d   1      -6.942  -0.863   0.859  1.00  0.00     0.188 HD
ATOM      7  C   UNL d   1      -5.673  -2.478   0.637  0.00  0.00     0.137 C 
ATOM      8  C   UNL d   1      -1.244  -1.681  -0.225  0.00  0.00     0.200 A 
ATOM      9  C   UNL d   1      -1.936   0.595   0.125  0.00  0.00     0.200 A 
ATOM     10  C   UNL d   1      -0.474   0.513   0.021  0.00  0.00     0.029 A 
ATOM     11  C   UNL d   1      -0.078  -0.805  -0.128  0.00  0.00     0.029 A 
ATOM     12  O   UNL d   1      -2.520   1.617   0.415  0.00  0.00    -0.286 OA
ATOM     13  O   UNL d   1      -1.167  -2.872  -0.433  0.00  0.00    -0.286 OA
ATOM     14  C   UNL d   1       1.257  -1.167  -0.170  0.00  0.00     0.016 A 
ATOM     15  C   UNL d   1       0.452   1.541   0.103  0.00  0.00     0.016 A 
ATOM     16  C   UNL d   1       1.806   1.199   0.046  0.00  0.00     0.001 A 
ATOM     17  C   UNL d   1       2.206  -0.146  -0.077  0.00  0.00     0.001 A 
ENDROOT
BRANCH   3  18
ATOM     18  C   UNL d   1      -5.247   0.808  -0.355  0.00  0.00     0.057 A 
ATOM     19  C   UNL d   1      -4.688   1.314  -1.539  0.00  0.00     0.032 A 
ATOM     20  C   UNL d   1      -4.909   2.639  -1.933  0.00  0.00     0.009 A 
ATOM     21  C   UNL d   1      -5.717   3.483  -1.165  0.00  0.00    -0.062 A 
ATOM     22  C   UNL d   1      -6.357   2.962  -0.038  0.00  0.00     0.009 A 
ATOM     23  C   UNL d   1      -5.835   4.936  -1.518  0.00  0.00     0.048 C 
ATOM     24  C   UNL d   1      -6.134   1.637   0.352  0.00  0.00     0.032 A 
ENDBRANCH   3  18
BRANCH   7  25
ATOM     25  C   UNL d   1      -6.445  -3.669   1.105  0.00  0.00     0.180 C 
ATOM     26  O   UNL d   1      -5.924  -4.521   1.817  0.00  0.00    -0.291 OA
ATOM     27  C   UNL d   1      -7.893  -3.726   0.719  0.00  0.00     0.099 C 
ENDBRANCH   7  25
TORSDOF 2
