REMARK  8 active torsions:
REMARK  status: ('A' for Active; 'I' for Inactive)
REMARK    1  A    between atoms: C_7  and  C_1 
REMARK    2  A    between atoms: O_10  and  C_7 
REMARK    3  A    between atoms: C_8  and  C_12 
REMARK    4  A    between atoms: O_14  and  C_8 
REMARK    5  A    between atoms: C_11  and  O_10 
REMARK    6  A    between atoms: C_12  and  C_15 
REMARK    7  A    between atoms: C_15  and  C_13 
REMARK    8  A    between atoms: C_25  and  O_14 
ROOT
ATOM      1  C   UNL d   1      -3.554   3.823  -0.666  0.00  0.00     0.069 A 
ATOM      2  C   UNL d   1      -5.832   5.404  -1.134  0.00  0.00    -0.058 A 
ATOM      3  C   UNL d   1      -4.709   3.628   0.091  0.00  0.00     0.037 A 
ATOM      4  C   UNL d   1      -3.522   4.845  -1.614  0.00  0.00     0.037 A 
ATOM      5  C   UNL d   1      -5.844   4.414  -0.145  0.00  0.00     0.010 A 
ATOM      6  C   UNL d   1      -4.651   5.630  -1.849  0.00  0.00     0.010 A 
ENDROOT
BRANCH   1   7
ATOM      7  O   UNL d   1      -2.396   3.101  -0.566  0.00  0.00    -0.347 OA
BRANCH   7   8
ATOM      8  C   UNL d   1      -2.519   1.786  -0.016  0.00  0.00     0.215 C 
BRANCH   8   9
ATOM      9  C   UNL d   1      -1.197   1.012   0.004  0.00  0.00    -0.021 C 
ATOM     10  C   UNL d   1       0.042   1.669   0.250  0.00  0.00    -0.047 C 
ATOM     11  C   UNL d   1       1.260   0.950   0.140  0.00  0.00    -0.049 C 
ATOM     12  C   UNL d   1       0.088   3.136   0.622  0.00  0.00     0.049 C 
ATOM     13  C   UNL d   1       2.599   1.656   0.229  0.00  0.00     0.049 C 
ATOM     14  C   UNL d   1       1.243  -0.457  -0.035  0.00  0.00    -0.049 C 
ATOM     15  C   UNL d   1       0.009  -1.140  -0.156  0.00  0.00    -0.049 C 
ATOM     16  C   UNL d   1       2.562  -1.204  -0.063  0.00  0.00     0.049 C 
ATOM     17  C   UNL d   1      -1.212  -0.408  -0.142  0.00  0.00    -0.047 C 
ATOM     18  C   UNL d   1       0.016  -2.649  -0.297  0.00  0.00     0.049 C 
ATOM     19  C   UNL d   1      -2.511  -1.179  -0.274  0.00  0.00     0.049 C 
ENDBRANCH   8   9
ENDBRANCH   7   8
ENDBRANCH   1   7
BRANCH   2  20
ATOM     20  C   UNL d   1      -7.081   6.189  -1.453  0.00  0.00     0.048 C 
BRANCH  20  21
ATOM     21  C   UNL d   1      -7.561   5.891  -2.871  0.00  0.00     0.116 C 
BRANCH  21  22
ATOM     22  C   UNL d   1      -8.907   6.500  -3.149  0.00  0.00     0.259 C 
ATOM     23  O   UNL d   1      -9.563   7.168  -2.365  0.00  0.00    -0.265 OA
BRANCH  22  24
ATOM     24  O   UNL d   1      -9.306   6.122  -4.397  0.00  0.00    -0.322 OA
BRANCH  24  25
ATOM     25  C   UNL d   1     -10.691   6.337  -4.697  0.00  0.00     0.174 C 
ATOM     26  C   UNL d   1     -11.472   5.125  -4.227  0.00  0.00     0.034 C 
ENDBRANCH  24  25
ENDBRANCH  22  24
ENDBRANCH  21  22
ENDBRANCH  20  21
ENDBRANCH   2  20
TORSDOF 8
