REMARK  9 active torsions:
REMARK  status: ('A' for Active; 'I' for Inactive)
REMARK    1  A    between atoms: C_7  and  C_1 
REMARK    2  A    between atoms: N_18  and  C_3 
REMARK    3  A    between atoms: C_17  and  C_6 
REMARK       I    between atoms: N_14  and  C_7 
REMARK    4  A    between atoms: C_20  and  C_12 
REMARK    5  A    between atoms: C_13  and  N_15 
REMARK    6  A    between atoms: N_21  and  C_13 
REMARK    7  A    between atoms: N_15  and  N_14 
REMARK    8  A    between atoms: C_24  and  N_21 
REMARK    9  A    between atoms: C_22  and  C_24 
ROOT
ATOM      1  C   UNL d   1      -2.551  -0.698  -0.000  0.00  0.00     0.103 A 
ATOM      2  C   UNL d   1      -0.185  -0.985   0.025  0.00  0.00     0.040 A 
ATOM      3  C   UNL d   1      -1.495  -1.596  -0.090  0.00  0.00     0.062 A 
ATOM      4  C   UNL d   1      -0.350   0.389   0.124  0.00  0.00     0.103 A 
ATOM      5  S   UNL d   1      -1.970   0.900   0.161  0.00  0.00    -0.062 SA
ATOM      6  C   UNL d   1       1.164  -1.459   0.049  0.00  0.00     0.018 A 
ATOM      7  N   UNL d   1       1.881   0.861   0.198  0.00  0.00    -0.298 N 
ATOM      8  HN  UNL d   1       2.645   1.536   0.237  1.00  0.00     0.187 HD
ATOM      9  N   UNL d   1       0.639   1.295   0.196  0.00  0.00    -0.292 N 
ATOM     10  HN  UNL d   1       0.433   2.292   0.247  1.00  0.00     0.187 HD
ATOM     11  C   UNL d   1       2.171  -0.467   0.149  0.00  0.00     0.070 A 
ENDROOT
BRANCH   1  12
ATOM     12  C   UNL d   1      -3.971  -1.004  -0.093  0.00  0.00     0.279 C 
ATOM     13  N   UNL d   1      -4.858   0.041   0.099  0.00  0.00    -0.263 N 
ATOM     14  H   UNL d   1      -4.542   0.999   0.214  0.00  0.00     0.190 HD
ATOM     15  O   UNL d   1      -4.403  -2.130  -0.364  0.00  0.00    -0.265 OA
BRANCH  13  16
ATOM     16  N   UNL d   1      -6.184  -0.147  -0.341  0.00  0.00    -0.274 N 
ATOM     17  H   UNL d   1      -6.362  -1.086  -0.709  0.00  0.00     0.189 HD
BRANCH  16  18
ATOM     18  C   UNL d   1      -7.241   0.450   0.295  0.00  0.00     0.186 C 
ATOM     19  S   UNL d   1      -7.143   1.449   1.629  0.00  0.00    -0.040 SA
BRANCH  18  20
ATOM     20  N   UNL d   1      -8.463   0.227  -0.278  0.00  0.00    -0.363 N 
ATOM     21  H   UNL d   1      -9.228   0.672   0.212  0.00  0.00     0.162 HD
BRANCH  20  22
ATOM     22  C   UNL d   1      -8.689  -0.086  -1.674  0.00  0.00     0.148 C 
BRANCH  22  23
ATOM     23  C   UNL d   1      -9.429  -1.377  -1.763  0.00  0.00    -0.018 C 
ATOM     24  C   UNL d   1      -8.953  -2.483  -2.353  0.00  0.00     0.008 C 
ENDBRANCH  22  23
ENDBRANCH  20  22
ENDBRANCH  18  20
ENDBRANCH  16  18
ENDBRANCH  13  16
ENDBRANCH   1  12
BRANCH   3  25
ATOM     25  N   UNL d   1      -1.722  -2.920  -0.268  0.00  0.00    -0.397 N 
ATOM     26  H   UNL d   1      -1.020  -3.548  -0.650  0.00  0.00     0.156 HD
ATOM     27  H   UNL d   1      -2.675  -3.267  -0.408  0.00  0.00     0.156 HD
ENDBRANCH   3  25
BRANCH   6  28
ATOM     28  C   UNL d   1       1.444  -2.908  -0.040  0.00  0.00    -0.023 A 
ATOM     29  C   UNL d   1       2.279  -3.436  -1.038  0.00  0.00     0.012 A 
ATOM     30  C   UNL d   1       2.564  -4.804  -1.093  0.00  0.00     0.001 A 
ATOM     31  C   UNL d   1       1.980  -5.677  -0.180  0.00  0.00     0.000 A 
ATOM     32  C   UNL d   1       1.141  -5.180   0.812  0.00  0.00     0.001 A 
ATOM     33  C   UNL d   1       0.904  -3.806   0.901  0.00  0.00     0.012 A 
ENDBRANCH   6  28
BRANCH  11  34
ATOM     34  C   UNL d   1       3.631  -0.743   0.192  0.00  0.00    -0.007 A 
ATOM     35  C   UNL d   1       4.526   0.013  -0.592  0.00  0.00     0.014 A 
ATOM     36  C   UNL d   1       5.893  -0.279  -0.627  0.00  0.00     0.001 A 
ATOM     37  C   UNL d   1       6.400  -1.335   0.125  0.00  0.00     0.000 A 
ATOM     38  C   UNL d   1       5.545  -2.071   0.940  0.00  0.00     0.001 A 
ATOM     39  C   UNL d   1       4.184  -1.761   0.992  0.00  0.00     0.014 A 
ENDBRANCH  11  34
TORSDOF 9
