REMARK  5 active torsions:
REMARK  status: ('A' for Active; 'I' for Inactive)
REMARK    1  A    between atoms: N_3  and  S_1 
REMARK    2  A    between atoms: C_10  and  S_1 
REMARK    3  A    between atoms: N_2  and  C_11 
REMARK    4  A    between atoms: N_4  and  N_3 
REMARK       I    between atoms: C_7  and  N_4 
REMARK    5  A    between atoms: C_14  and  C_7 
ROOT
ATOM      1  N   UNL d   1      -0.029  -0.198  -3.468  0.00  0.00    -0.256 N 
ATOM      2  C   UNL d   1       0.563  -1.438  -3.583  0.00  0.00     0.270 C 
ATOM      3  O   UNL d   1       1.770  -1.595  -3.747  0.00  0.00    -0.266 OA
ATOM      4  H   UNL d   1      -1.029  -0.058  -3.342  0.00  0.00     0.191 HD
ENDROOT
BRANCH   2   5
ATOM      5  C   UNL d   1      -0.359  -2.605  -3.499  0.00  0.00     0.033 A 
ATOM      6  C   UNL d   1      -0.073  -3.741  -4.259  0.00  0.00     0.019 A 
ATOM      7  C   UNL d   1      -0.938  -4.843  -4.235  0.00  0.00     0.031 A 
ATOM      8  C   UNL d   1      -2.053  -4.866  -3.385  0.00  0.00     0.039 A 
ATOM      9  C   UNL d   1      -2.301  -3.741  -2.586  0.00  0.00     0.031 A 
ATOM     10  C   UNL d   1      -1.481  -2.606  -2.663  0.00  0.00     0.019 A 
BRANCH   8  11
ATOM     11  N   UNL d   1      -2.913  -6.018  -3.326  0.00  0.00    -0.320 N 
ATOM     12  C   UNL d   1      -4.300  -6.019  -3.103  0.00  0.00     0.013 A 
ATOM     13  C   UNL d   1      -4.746  -7.328  -3.112  0.00  0.00     0.027 A 
ATOM     14  C   UNL d   1      -5.198  -4.833  -2.971  0.00  0.00     0.068 C 
ATOM     15  C   UNL d   1      -3.652  -8.157  -3.370  0.00  0.00     0.027 A 
ATOM     16  C   UNL d   1      -2.527  -7.360  -3.481  0.00  0.00     0.013 A 
ATOM     17  C   UNL d   1      -1.141  -7.894  -3.639  0.00  0.00     0.068 C 
ENDBRANCH   8  11
ENDBRANCH   2   5
BRANCH   1  18
ATOM     18  N   UNL d   1       0.822   0.989  -3.394  0.00  0.00    -0.220 N 
ATOM     19  H   UNL d   1       1.832   0.810  -3.336  0.00  0.00     0.200 HD
BRANCH  18  20
ATOM     20  S   UNL d   1       0.186   2.297  -2.524  0.00  0.00     0.276 S 
ATOM     21  O   UNL d   1       0.214   1.930  -1.127  0.00  0.00    -0.199 OA
ATOM     22  O   UNL d   1      -1.055   2.673  -3.170  0.00  0.00    -0.199 OA
BRANCH  20  23
ATOM     23  C   UNL d   1       1.370   3.594  -2.779  0.00  0.00     0.081 A 
ATOM     24  C   UNL d   1       1.180   4.513  -3.818  0.00  0.00     0.027 A 
ATOM     25  C   UNL d   1       2.032   5.616  -3.930  0.00  0.00     0.025 A 
ATOM     26  C   UNL d   1       3.059   5.800  -3.003  0.00  0.00     0.034 A 
ATOM     27  C   UNL d   1       3.247   4.884  -1.967  0.00  0.00     0.025 A 
ATOM     28 CL   UNL d   1       4.079   7.181  -3.117  0.00  0.00    -0.084 Cl
ATOM     29  C   UNL d   1       2.399   3.779  -1.849  0.00  0.00     0.027 A 
ENDBRANCH  20  23
ENDBRANCH  18  20
ENDBRANCH   1  18
TORSDOF 5
