REMARK  2 active torsions:
REMARK  status: ('A' for Active; 'I' for Inactive)
REMARK    1  A    between atoms: C_7  and  C_1 
REMARK    2  A    between atoms: C_8  and  C_3 
ROOT
ATOM      1  C   UNL d   1       0.670   1.213  -0.052  0.00  0.00     0.086 A 
ATOM      2  S   UNL d   1       1.382  -0.337  -0.214  0.00  0.00    -0.066 SA
ATOM      3  C   UNL d   1      -0.156  -1.076  -0.064  0.00  0.00     0.074 A 
ATOM      4  N   UNL d   1      -0.640   1.212   0.050  0.00  0.00    -0.352 N 
ATOM      5  HN  UNL d   1      -1.217   2.048   0.144  1.00  0.00     0.166 HD
ATOM      6  C   UNL d   1      -1.128  -0.088   0.012  0.00  0.00     0.027 A 
ATOM      7  C   UNL d   1      -2.604  -0.276   0.082  0.00  0.00     0.070 C 
ENDROOT
BRANCH   1   8
ATOM      8  C   UNL d   1       1.458   2.495  -0.018  0.00  0.00     0.005 A 
ATOM      9  C   UNL d   1       2.821   2.581  -0.204  0.00  0.00     0.063 A 
ATOM     10  S   UNL d   1       3.390   4.195  -0.096  0.00  0.00    -0.113 SA
ATOM     11  C   UNL d   1       1.817   4.787   0.209  0.00  0.00     0.050 A 
ATOM     12  C   UNL d   1       0.877   3.779   0.218  0.00  0.00     0.022 A 
ENDBRANCH   1   8
BRANCH   3  13
ATOM     13  C   UNL d   1      -0.340  -2.520  -0.056  0.00  0.00     0.164 C 
ATOM     14  O   UNL d   1      -1.453  -3.038  -0.194  0.00  0.00    -0.292 OA
ATOM     15  C   UNL d   1       0.853  -3.431   0.132  0.00  0.00     0.097 C 
ENDBRANCH   3  13
TORSDOF 2
