REMARK  8 active torsions:
REMARK  status: ('A' for Active; 'I' for Inactive)
REMARK    1  A    between atoms: S_2  and  N_1 
REMARK    2  A    between atoms: S_3  and  N_1 
REMARK    3  A    between atoms: C_7  and  N_1 
REMARK    4  A    between atoms: C_6  and  S_2 
REMARK    5  A    between atoms: C_5  and  S_3 
REMARK    6  A    between atoms: C_4  and  C_12 
REMARK       I    between atoms: C_13  and  N_15 
REMARK       I    between atoms: C_14  and  N_16 
REMARK    7  A    between atoms: N_15  and  C_31 
REMARK    8  A    between atoms: N_16  and  C_30 
ROOT
ATOM      1  N   UNL d   1       1.021   0.097   0.038  0.00  0.00    -0.157 N 
ENDROOT
BRANCH   1   2
ATOM      2  S   UNL d   1       0.148  -1.315   0.008  0.00  0.00     0.278 S 
ATOM      3  O   UNL d   1      -0.163  -1.665   1.382  0.00  0.00    -0.199 OA
ATOM      4  O   UNL d   1      -0.911  -1.228  -0.972  0.00  0.00    -0.199 OA
BRANCH   2   5
ATOM      5  C   UNL d   1       1.263  -2.577  -0.589  0.00  0.00     0.081 A 
ATOM      6  C   UNL d   1       1.848  -3.465   0.317  0.00  0.00     0.027 A 
ATOM      7  C   UNL d   1       2.697  -4.473  -0.151  0.00  0.00     0.031 A 
ATOM      8  C   UNL d   1       2.975  -4.595  -1.519  0.00  0.00     0.034 A 
ATOM      9  C   UNL d   1       2.348  -3.726  -2.418  0.00  0.00     0.031 A 
ATOM     10  C   UNL d   1       1.482  -2.725  -1.960  0.00  0.00     0.027 A 
BRANCH   8  11
ATOM     11  N   UNL d   1       3.872  -5.613  -1.907  0.00  0.00    -0.328 N 
ATOM     12  C   UNL d   1       4.463  -5.766  -3.147  0.00  0.00     0.218 C 
ATOM     13  O   UNL d   1       4.350  -5.011  -4.107  0.00  0.00    -0.274 OA
ATOM     14  C   UNL d   1       5.346  -6.988  -3.240  0.00  0.00     0.117 C 
ATOM     15  H   UNL d   1       4.178  -6.239  -1.173  0.00  0.00     0.169 HD
ENDBRANCH   8  11
ENDBRANCH   2   5
ENDBRANCH   1   2
BRANCH   1  16
ATOM     16  S   UNL d   1       0.266   1.580  -0.072  0.00  0.00     0.278 S 
ATOM     17  O   UNL d   1       1.167   2.601   0.439  0.00  0.00    -0.199 OA
ATOM     18  O   UNL d   1      -0.286   1.733  -1.401  0.00  0.00    -0.199 OA
BRANCH  16  19
ATOM     19  C   UNL d   1      -1.085   1.518   1.092  0.00  0.00     0.081 A 
ATOM     20  C   UNL d   1      -0.895   1.998   2.391  0.00  0.00     0.027 A 
ATOM     21  C   UNL d   1      -1.978   2.054   3.276  0.00  0.00     0.031 A 
ATOM     22  C   UNL d   1      -3.255   1.637   2.876  0.00  0.00     0.034 A 
ATOM     23  C   UNL d   1      -3.430   1.162   1.573  0.00  0.00     0.031 A 
ATOM     24  C   UNL d   1      -2.355   1.118   0.675  0.00  0.00     0.027 A 
BRANCH  22  25
ATOM     25  N   UNL d   1      -4.293   1.749   3.824  0.00  0.00    -0.328 N 
ATOM     26  C   UNL d   1      -5.626   1.417   3.654  0.00  0.00     0.218 C 
ATOM     27  O   UNL d   1      -6.143   0.937   2.650  0.00  0.00    -0.274 OA
ATOM     28  C   UNL d   1      -6.470   1.709   4.871  0.00  0.00     0.117 C 
ATOM     29  H   UNL d   1      -4.028   2.127   4.725  0.00  0.00     0.169 HD
ENDBRANCH  22  25
ENDBRANCH  16  19
ENDBRANCH   1  16
BRANCH   1  30
ATOM     30  C   UNL d   1       2.441   0.090  -0.024  0.00  0.00     0.062 A 
ATOM     31  C   UNL d   1       3.078   0.328  -1.246  0.00  0.00     0.032 A 
ATOM     32  C   UNL d   1       4.471   0.388  -1.310  0.00  0.00     0.018 A 
ATOM     33  C   UNL d   1       5.244   0.222  -0.152  0.00  0.00     0.048 A 
ATOM     34  C   UNL d   1       4.594  -0.033   1.068  0.00  0.00     0.018 A 
ATOM     35  C   UNL d   1       3.198  -0.102   1.133  0.00  0.00     0.032 A 
BRANCH  33  36
ATOM     36  C   UNL d   1       6.751   0.338  -0.200  0.00  0.00     0.417 C 
ATOM     37  F   UNL d   1       7.242   0.574  -1.447  0.00  0.00    -0.166 F 
ATOM     38  F   UNL d   1       7.216   1.349   0.584  0.00  0.00    -0.166 F 
ATOM     39  F   UNL d   1       7.372  -0.791   0.240  0.00  0.00    -0.166 F 
ENDBRANCH  33  36
ENDBRANCH   1  30
TORSDOF 8
