REMARK  4 active torsions:
REMARK  status: ('A' for Active; 'I' for Inactive)
REMARK    1  A    between atoms: C_7  and  C_1 
REMARK       I    between atoms: N_13  and  C_7 
REMARK    2  A    between atoms: N_9  and  N_13 
REMARK    3  A    between atoms: C_12  and  C_18 
REMARK    4  A    between atoms: O_20  and  C_15 
ROOT
ATOM      1  C   UNL d   1       1.975  -2.520   0.014  0.00  0.00     0.289 C 
ATOM      2  N   UNL d   1       1.091  -3.575  -0.200  0.00  0.00    -0.265 N 
ATOM      3  O   UNL d   1       3.174  -2.695   0.221  0.00  0.00    -0.264 OA
ATOM      4  H   UNL d   1       0.093  -3.412  -0.223  0.00  0.00     0.190 HD
ENDROOT
BRANCH   1   5
ATOM      5  C   UNL d   1       1.362  -1.211   0.003  0.00  0.00     0.132 A 
ATOM      6  N   UNL d   1       1.821  -0.114   0.721  0.00  0.00    -0.302 N 
ATOM      7  C   UNL d   1       0.940   0.934   0.459  0.00  0.00     0.112 A 
ATOM      8  C   UNL d   1       2.922   0.030   1.572  0.00  0.00     0.099 A 
ATOM      9  C   UNL d   1       1.177   2.177   1.112  0.00  0.00     0.049 A 
ATOM     10  N   UNL d   1       0.012   0.585  -0.401  0.00  0.00    -0.344 N 
ATOM     11  C   UNL d   1       2.237   2.314   1.931  0.00  0.00     0.005 A 
ATOM     12  C   UNL d   1       3.153   1.212   2.170  0.00  0.00     0.018 A 
ATOM     13  C   UNL d   1       0.288  -0.719  -0.732  0.00  0.00     0.040 A 
ATOM     14  HN  UNL d   1      -0.754   1.161  -0.750  1.00  0.00     0.167 HD
ATOM     15  C   UNL d   1      -0.511  -1.364  -1.804  0.00  0.00     0.071 C 
ENDBRANCH   1   5
BRANCH   2  16
ATOM     16  N   UNL d   1       1.569  -4.846  -0.305  0.00  0.00    -0.308 N 
ATOM     17  C   UNL d   1       0.689  -5.786  -0.452  0.00  0.00     0.121 C 
ATOM     18  HN  UNL d   1       2.568  -5.048  -0.270  1.00  0.00     0.186 HD
BRANCH  17  19
ATOM     19  C   UNL d   1       1.114  -7.193  -0.604  0.00  0.00     0.014 A 
ATOM     20  C   UNL d   1       2.464  -7.554  -0.690  0.00  0.00     0.077 A 
ATOM     21  C   UNL d   1       2.825  -8.889  -0.849  0.00  0.00     0.037 A 
ATOM     22  C   UNL d   1       1.840  -9.874  -0.916  0.00  0.00     0.003 A 
ATOM     23  C   UNL d   1       0.492  -9.522  -0.828  0.00  0.00     0.001 A 
ATOM     24  C   UNL d   1       0.125  -8.182  -0.675  0.00  0.00     0.015 A 
BRANCH  20  25
ATOM     25  O   UNL d   1       3.492  -6.652  -0.632  0.00  0.00    -0.360 OA
ATOM     26  H   UNL d   1       3.112  -5.758  -0.475  0.00  0.00     0.217 HD
ENDBRANCH  20  25
ENDBRANCH  17  19
ENDBRANCH   2  16
TORSDOF 4
