REMARK  2 active torsions:
REMARK  status: ('A' for Active; 'I' for Inactive)
REMARK    1  A    between atoms: N_2  and  C_1 
REMARK    2  A    between atoms: C_12  and  C_7 
ROOT
ATOM      1  C   UNL d   1       1.053  -0.572   0.034  0.00  0.00     0.129 A 
ATOM      2  C   UNL d   1       1.009   0.802   0.042  0.00  0.00     0.082 A 
ATOM      3  N   UNL d   1      -0.246  -0.980   0.029  0.00  0.00    -0.285 N 
ATOM      4  N   UNL d   1      -1.129   0.031  -0.001  0.00  0.00    -0.298 N 
ATOM      5  HN  UNL d   1      -2.146  -0.030  -0.032  1.00  0.00     0.187 HD
ATOM      6  C   UNL d   1      -0.373   1.141   0.019  0.00  0.00     0.062 A 
ATOM      7  H   UNL d   1      -0.608  -1.925   0.083  0.00  0.00     0.188 HD
ENDROOT
BRANCH   1   8
ATOM      8  N   UNL d   1       2.145  -1.441   0.050  0.00  0.00    -0.305 N 
ATOM      9  C   UNL d   1       3.377  -1.217   0.673  0.00  0.00     0.014 A 
ATOM     10  C   UNL d   1       4.183  -2.319   0.461  0.00  0.00     0.027 A 
ATOM     11  C   UNL d   1       3.737  -0.041   1.518  0.00  0.00     0.068 C 
ATOM     12  C   UNL d   1       3.456  -3.248  -0.292  0.00  0.00     0.027 A 
ATOM     13  C   UNL d   1       2.214  -2.698  -0.558  0.00  0.00     0.014 A 
ATOM     14  C   UNL d   1       1.181  -3.307  -1.449  0.00  0.00     0.068 C 
ENDBRANCH   1   8
BRANCH   6  15
ATOM     15  C   UNL d   1      -0.959   2.480  -0.004  0.00  0.00    -0.008 A 
ATOM     16  C   UNL d   1      -2.203   2.698  -0.612  0.00  0.00     0.014 A 
ATOM     17  C   UNL d   1      -2.757   3.979  -0.660  0.00  0.00     0.001 A 
ATOM     18  C   UNL d   1      -2.077   5.054  -0.092  0.00  0.00     0.000 A 
ATOM     19  C   UNL d   1      -0.844   4.850   0.525  0.00  0.00     0.001 A 
ATOM     20  C   UNL d   1      -0.287   3.570   0.569  0.00  0.00     0.014 A 
ENDBRANCH   6  15
TORSDOF 2
