REMARK  7 active torsions:
REMARK  status: ('A' for Active; 'I' for Inactive)
REMARK    1  A    between atoms: C_2  and  C_1 
REMARK    2  A    between atoms: N_21  and  C_4 
REMARK    3  A    between atoms: S_19  and  C_10 
REMARK    4  A    between atoms: C_18  and  C_11 
REMARK    5  A    between atoms: C_24  and  C_16 
REMARK    6  A    between atoms: C_27  and  S_19 
REMARK    7  A    between atoms: C_29  and  C_27 
ROOT
ATOM      1  C   UNL d   1       2.425   0.016  -0.015  0.00  0.00     0.150 A 
ATOM      2  C   UNL d   1       1.688   1.190  -0.050  0.00  0.00     0.079 A 
ATOM      3  C   UNL d   1       0.303   0.848  -0.072  0.00  0.00     0.058 A 
ATOM      4  C   UNL d   1       0.286  -0.543  -0.105  0.00  0.00     0.162 A 
ATOM      5  O   UNL d   1       1.556  -1.041  -0.095  0.00  0.00    -0.287 OA
ATOM      6  C   UNL d   1      -0.951   1.495  -0.038  0.00  0.00     0.017 A 
ATOM      7  N   UNL d   1      -0.791  -1.353  -0.133  0.00  0.00    -0.335 N 
ATOM      8  HN  UNL d   1      -0.715  -2.369  -0.167  1.00  0.00     0.168 HD
ATOM      9  C   UNL d   1      -1.980  -0.710  -0.111  0.00  0.00     0.045 A 
ATOM     10  C   UNL d   1      -2.094   0.680  -0.045  0.00  0.00     0.045 A 
ENDROOT
BRANCH   1  11
ATOM     11  C   UNL d   1       3.842  -0.141   0.134  0.00  0.00     0.161 A 
ATOM     12  N   UNL d   1       4.635  -1.117  -0.418  0.00  0.00    -0.314 N 
ATOM     13  C   UNL d   1       5.878  -0.930   0.127  0.00  0.00     0.163 A 
ATOM     14  C   UNL d   1       4.262  -2.086  -1.416  0.00  0.00     0.160 C 
ATOM     15  N   UNL d   1       5.876   0.141   0.883  0.00  0.00    -0.278 N 
ATOM     16  N   UNL d   1       4.600   0.653   0.870  0.00  0.00    -0.281 N 
ATOM     17  HN  UNL d   1       6.674   0.524   1.388  1.00  0.00     0.189 HD
ATOM     18  HN  UNL d   1       4.292   1.500   1.347  1.00  0.00     0.188 HD
BRANCH  13  19
ATOM     19  S   UNL d   1       7.231  -1.970  -0.162  0.00  0.00    -0.088 SA
BRANCH  19  20
ATOM     20  C   UNL d   1       8.177  -1.702   1.372  0.00  0.00     0.121 C 
BRANCH  20  21
ATOM     21  C   UNL d   1       9.466  -2.497   1.388  0.00  0.00    -0.048 A 
ATOM     22  C   UNL d   1      10.678  -1.895   1.012  0.00  0.00     0.011 A 
ATOM     23  C   UNL d   1      11.870  -2.625   1.036  0.00  0.00     0.043 A 
ATOM     24  C   UNL d   1      11.851  -3.956   1.430  0.00  0.00     0.116 A 
ATOM     25  C   UNL d   1      10.663  -4.574   1.800  0.00  0.00     0.043 A 
ATOM     26  F   UNL d   1      12.994  -4.654   1.455  0.00  0.00    -0.206 F 
ATOM     27  C   UNL d   1       9.469  -3.847   1.778  0.00  0.00     0.011 A 
ENDBRANCH  20  21
ENDBRANCH  19  20
ENDBRANCH  13  19
ENDBRANCH   1  11
BRANCH   2  28
ATOM     28  N   UNL d   1       2.208   2.433  -0.054  0.00  0.00    -0.396 N 
ATOM     29  H   UNL d   1       3.210   2.608  -0.081  0.00  0.00     0.156 HD
ATOM     30  H   UNL d   1       1.623   3.251  -0.217  0.00  0.00     0.156 HD
ENDBRANCH   2  28
BRANCH   6  31
ATOM     31  C   UNL d   1      -1.083   2.941   0.067  0.00  0.00     0.086 A 
ATOM     32  O   UNL d   1      -0.141   3.708  -0.558  0.00  0.00    -0.322 OA
ATOM     33  C   UNL d   1      -0.449   5.008  -0.322  0.00  0.00     0.142 A 
ATOM     34  C   UNL d   1      -1.600   5.100   0.422  0.00  0.00     0.027 A 
ATOM     35  C   UNL d   1      -2.020   3.768   0.658  0.00  0.00     0.040 A 
ENDBRANCH   6  31
BRANCH   9  36
ATOM     36  C   UNL d   1      -3.181  -1.577  -0.170  0.00  0.00    -0.009 A 
ATOM     37  C   UNL d   1      -3.204  -2.834   0.463  0.00  0.00     0.013 A 
ATOM     38  C   UNL d   1      -4.331  -3.661   0.401  0.00  0.00     0.001 A 
ATOM     39  C   UNL d   1      -5.463  -3.251  -0.298  0.00  0.00     0.000 A 
ATOM     40  C   UNL d   1      -5.470  -2.013  -0.932  0.00  0.00     0.001 A 
ATOM     41  C   UNL d   1      -4.342  -1.188  -0.869  0.00  0.00     0.013 A 
ENDBRANCH   9  36
TORSDOF 7
