REMARK  4 active torsions:
REMARK  status: ('A' for Active; 'I' for Inactive)
REMARK    1  A    between atoms: S_2  and  C_1 
REMARK    2  A    between atoms: N_6  and  S_2 
REMARK    3  A    between atoms: C_14  and  N_9 
REMARK    4  A    between atoms: C_18  and  C_17 
ROOT
ATOM      1  N   UNL d   1       4.004  -0.647   1.242  0.00  0.00    -0.202 NA
ATOM      2  N   UNL d   1       1.890  -1.585   3.003  0.00  0.00    -0.379 N 
ATOM      3  C   UNL d   1       3.648  -2.102   1.359  0.00  0.00     0.127 C 
ATOM      4  C   UNL d   1       3.649   0.072   2.516  0.00  0.00     0.127 C 
ATOM      5  C   UNL d   1       2.182  -2.344   1.774  0.00  0.00     0.138 C 
ATOM      6  C   UNL d   1       2.173  -0.140   2.914  0.00  0.00     0.138 C 
ENDROOT
BRANCH   1   7
ATOM      7  S   UNL d   1       3.476   0.166  -0.155  0.00  0.00     0.260 S 
ATOM      8  O   UNL d   1       4.176   1.438  -0.200  0.00  0.00    -0.204 OA
ATOM      9  O   UNL d   1       2.031   0.118  -0.218  0.00  0.00    -0.204 OA
BRANCH   7  10
ATOM     10  C   UNL d   1       3.992  -0.675  -1.594  0.00  0.00     0.161 A 
ATOM     11  N   UNL d   1       3.549  -1.948  -1.928  0.00  0.00    -0.335 N 
ATOM     12  C   UNL d   1       4.010  -2.179  -3.141  0.00  0.00     0.079 A 
ATOM     13  HN  UNL d   1       2.985  -2.574  -1.355  1.00  0.00     0.168 HD
ATOM     14  C   UNL d   1       3.703  -3.372  -3.970  0.00  0.00     0.089 C 
ATOM     15  N   UNL d   1       4.787  -1.128  -3.574  0.00  0.00    -0.348 N 
ATOM     16  C   UNL d   1       4.791  -0.171  -2.600  0.00  0.00     0.135 A 
ATOM     17  C   UNL d   1       5.427  -1.012  -4.862  0.00  0.00     0.156 C 
ENDBRANCH   7  10
ENDBRANCH   1   7
BRANCH   2  18
ATOM     18  C   UNL d   1       1.076  -2.082   4.002  0.00  0.00     0.030 A 
ATOM     19  C   UNL d   1       0.105  -3.068   3.774  0.00  0.00     0.030 A 
ATOM     20  C   UNL d   1      -0.645  -3.623   4.823  0.00  0.00     0.017 A 
ATOM     21  C   UNL d   1      -0.428  -3.200   6.136  0.00  0.00     0.009 A 
ATOM     22  C   UNL d   1       0.504  -2.193   6.380  0.00  0.00     0.017 A 
ATOM     23  C   UNL d   1       1.242  -1.650   5.326  0.00  0.00     0.030 A 
BRANCH  21  24
ATOM     24  C   UNL d   1      -1.141  -3.786   7.303  0.00  0.00     0.155 C 
ATOM     25  O   UNL d   1      -1.289  -3.111   8.321  0.00  0.00    -0.293 OA
ATOM     26  C   UNL d   1      -1.630  -5.208   7.239  0.00  0.00     0.096 C 
ENDBRANCH  21  24
ENDBRANCH   2  18
TORSDOF 4
