REMARK  3 active torsions:
REMARK  status: ('A' for Active; 'I' for Inactive)
REMARK    1  A    between atoms: C_9  and  C_3 
REMARK    2  A    between atoms: C_10  and  C_5 
REMARK    3  A    between atoms: O_21  and  C_15 
ROOT
ATOM      1  N   UNL d   1      -0.454   1.589  -0.741  0.00  0.00    -0.358 N 
ATOM      2  HN  UNL d   1      -0.270   2.154  -1.570  1.00  0.00     0.166 HD
ATOM      3  C   UNL d   1      -1.604   1.693  -0.144  0.00  0.00     0.021 C 
ATOM      4  S   UNL d   1      -1.155  -1.557  -0.311  0.00  0.00    -0.118 SA
ATOM      5  C   UNL d   1      -2.381  -0.577   0.665  0.00  0.00     0.091 C 
ATOM      6  C   UNL d   1      -1.980   0.850   1.066  0.00  0.00     0.078 C 
ATOM      7  C   UNL d   1       0.544   0.713  -0.268  0.00  0.00     0.049 A 
ATOM      8  C   UNL d   1       0.372  -0.670  -0.052  0.00  0.00     0.028 A 
ATOM      9  C   UNL d   1       1.818   1.267  -0.088  0.00  0.00     0.031 A 
ATOM     10  C   UNL d   1       1.477  -1.455   0.321  0.00  0.00     0.021 A 
ATOM     11  C   UNL d   1       2.906   0.481   0.298  0.00  0.00     0.002 A 
ATOM     12  C   UNL d   1       2.736  -0.883   0.498  0.00  0.00     0.002 A 
ENDROOT
BRANCH   5  13
ATOM     13  C   UNL d   1      -3.754  -0.610  -0.001  0.00  0.00    -0.043 A 
ATOM     14  C   UNL d   1      -3.911  -0.416  -1.384  0.00  0.00     0.011 A 
ATOM     15  C   UNL d   1      -5.175  -0.377  -1.975  0.00  0.00     0.037 A 
ATOM     16  C   UNL d   1      -6.314  -0.524  -1.190  0.00  0.00     0.068 A 
ATOM     17  C   UNL d   1      -6.179  -0.754   0.179  0.00  0.00     0.037 A 
ATOM     18  C   UNL d   1      -4.912  -0.786   0.773  0.00  0.00     0.011 A 
BRANCH  16  19
ATOM     19  O   UNL d   1      -7.596  -0.488  -1.667  0.00  0.00    -0.356 OA
ATOM     20  C   UNL d   1      -7.784   0.343  -2.810  0.00  0.00     0.210 C 
ENDBRANCH  16  19
ENDBRANCH   5  13
BRANCH   3  21
ATOM     21  C   UNL d   1      -2.628   2.627  -0.721  0.00  0.00    -0.013 A 
ATOM     22  C   UNL d   1      -2.622   2.848  -2.105  0.00  0.00     0.014 A 
ATOM     23  C   UNL d   1      -3.646   3.584  -2.709  0.00  0.00     0.007 A 
ATOM     24  C   UNL d   1      -4.678   4.126  -1.938  0.00  0.00    -0.062 A 
ATOM     25  C   UNL d   1      -4.648   3.959  -0.549  0.00  0.00     0.007 A 
ATOM     26  C   UNL d   1      -5.833   4.816  -2.603  0.00  0.00     0.048 C 
ATOM     27  C   UNL d   1      -3.625   3.222   0.058  0.00  0.00     0.014 A 
ENDBRANCH   3  21
TORSDOF 3
