REMARK  4 active torsions:
REMARK  status: ('A' for Active; 'I' for Inactive)
REMARK    1  A    between atoms: C_7  and  C_1 
REMARK    2  A    between atoms: C_10  and  C_6 
REMARK    3  A    between atoms: O_17  and  C_11 
REMARK    4  A    between atoms: O_19  and  C_14 
ROOT
ATOM      1  C   UNL d   1      -1.587   1.704  -0.140  0.00  0.00     0.024 C 
ATOM      2  N   UNL d   1      -0.471   1.572  -0.800  0.00  0.00    -0.358 N 
ATOM      3  HN  UNL d   1      -0.316   2.124  -1.644  1.00  0.00     0.166 HD
ATOM      4  S   UNL d   1      -1.208  -1.536  -0.491  0.00  0.00    -0.118 SA
ATOM      5  C   UNL d   1      -1.971   0.813   1.035  0.00  0.00     0.078 C 
ATOM      6  C   UNL d   1      -2.374  -0.612   0.603  0.00  0.00     0.091 C 
ATOM      7  C   UNL d   1       0.521   0.676  -0.363  0.00  0.00     0.049 A 
ATOM      8  C   UNL d   1       0.337  -0.706  -0.173  0.00  0.00     0.028 A 
ATOM      9  C   UNL d   1       1.791   1.227  -0.144  0.00  0.00     0.031 A 
ATOM     10  C   UNL d   1       1.424  -1.499   0.228  0.00  0.00     0.021 A 
ATOM     11  C   UNL d   1       2.863   0.435   0.266  0.00  0.00     0.002 A 
ATOM     12  C   UNL d   1       2.679  -0.930   0.453  0.00  0.00     0.002 A 
ENDROOT
BRANCH   1  13
ATOM     13  C   UNL d   1      -2.527   2.780  -0.599  0.00  0.00     0.020 A 
ATOM     14  C   UNL d   1      -2.604   3.110  -1.962  0.00  0.00     0.077 A 
ATOM     15  C   UNL d   1      -3.458   4.117  -2.410  0.00  0.00     0.037 A 
ATOM     16  C   UNL d   1      -4.230   4.825  -1.492  0.00  0.00     0.003 A 
ATOM     17  C   UNL d   1      -4.156   4.517  -0.134  0.00  0.00     0.001 A 
ATOM     18  C   UNL d   1      -3.307   3.499   0.314  0.00  0.00     0.016 A 
BRANCH  14  19
ATOM     19  O   UNL d   1      -1.873   2.463  -2.924  0.00  0.00    -0.360 OA
ATOM     20  H   UNL d   1      -1.168   1.959  -2.458  0.00  0.00     0.217 HD
ENDBRANCH  14  19
ENDBRANCH   1  13
BRANCH   6  21
ATOM     21  C   UNL d   1      -3.776  -0.624   0.006  0.00  0.00    -0.043 A 
ATOM     22  C   UNL d   1      -4.867  -1.108   0.743  0.00  0.00     0.011 A 
ATOM     23  C   UNL d   1      -6.167  -0.995   0.239  0.00  0.00     0.037 A 
ATOM     24  C   UNL d   1      -6.409  -0.384  -0.995  0.00  0.00     0.068 A 
ATOM     25  C   UNL d   1      -5.326   0.058  -1.751  0.00  0.00     0.037 A 
ATOM     26  C   UNL d   1      -4.029  -0.090  -1.266  0.00  0.00     0.011 A 
BRANCH  24  27
ATOM     27  O   UNL d   1      -7.723  -0.272  -1.348  0.00  0.00    -0.356 OA
ATOM     28  C   UNL d   1      -7.995   0.515  -2.503  0.00  0.00     0.210 C 
ENDBRANCH  24  27
ENDBRANCH   6  21
TORSDOF 4
