REMARK  4 active torsions:
REMARK  status: ('A' for Active; 'I' for Inactive)
REMARK    1  A    between atoms: S_13  and  C_2 
REMARK    2  A    between atoms: C_11  and  C_10 
REMARK    3  A    between atoms: C_15  and  C_11 
REMARK    4  A    between atoms: C_12  and  S_13 
ROOT
ATOM      1  C   UNL d   1      -0.583   1.434  -0.005  0.00  0.00     0.085 A 
ATOM      2  C   UNL d   1      -1.337   0.257  -0.037  0.00  0.00     0.095 A 
ATOM      3  N   UNL d   1      -0.749  -0.964  -0.068  0.00  0.00    -0.353 N 
ATOM      4  HN  UNL d   1      -1.319  -1.810  -0.096  1.00  0.00     0.166 HD
ATOM      5  C   UNL d   1       0.826   1.354  -0.031  0.00  0.00    -0.031 A 
ATOM      6  C   UNL d   1       1.440   0.081  -0.046  0.00  0.00    -0.032 A 
ATOM      7  C   UNL d   1       0.608  -1.049  -0.061  0.00  0.00     0.012 A 
ATOM      8  C   UNL d   1      -1.237   2.700   0.094  0.00  0.00     0.103 C 
ATOM      9  N   UNL d   1      -1.739   3.746   0.170  0.00  0.00    -0.191 NA
ATOM     10  C   UNL d   1       1.677   2.605  -0.006  0.00  0.00     0.050 C 
ATOM     11  C   UNL d   1       2.940  -0.079  -0.022  0.00  0.00     0.050 C 
ATOM     12  C   UNL d   1       1.140  -2.457  -0.028  0.00  0.00     0.068 C 
ENDROOT
BRANCH   2  13
ATOM     13  S   UNL d   1      -3.119   0.214   0.177  0.00  0.00    -0.083 SA
BRANCH  13  14
ATOM     14  C   UNL d   1      -3.690   0.806  -1.351  0.00  0.00     0.056 C 
ATOM     15  C   UNL d   1      -4.213   2.036  -1.479  0.00  0.00     0.063 C 
BRANCH  15  16
ATOM     16  C   UNL d   1      -4.811   2.466  -2.772  0.00  0.00     0.182 C 
ATOM     17  O   UNL d   1      -5.203   1.648  -3.598  0.00  0.00    -0.288 OA
BRANCH  16  18
ATOM     18  C   UNL d   1      -4.969   3.927  -3.024  0.00  0.00     0.014 A 
ATOM     19  C   UNL d   1      -4.086   4.874  -2.491  0.00  0.00     0.015 A 
ATOM     20  C   UNL d   1      -4.249   6.231  -2.781  0.00  0.00     0.001 A 
ATOM     21  C   UNL d   1      -5.291   6.651  -3.606  0.00  0.00     0.000 A 
ATOM     22  C   UNL d   1      -6.168   5.713  -4.150  0.00  0.00     0.001 A 
ATOM     23  C   UNL d   1      -6.005   4.355  -3.866  0.00  0.00     0.015 A 
ENDBRANCH  16  18
ENDBRANCH  15  16
ENDBRANCH  13  14
ENDBRANCH   2  13
TORSDOF 4
