REMARK  5 active torsions:
REMARK  status: ('A' for Active; 'I' for Inactive)
REMARK    1  A    between atoms: C_8  and  C_2 
REMARK    2  A    between atoms: C_2  and  O_20 
REMARK    3  A    between atoms: C_16  and  C_8 
REMARK    4  A    between atoms: C_14  and  O_18 
REMARK    5  A    between atoms: O_18  and  C_16 
ROOT
ATOM      1  C   UNL d   1       8.993  14.680   2.408  0.00  0.00    -0.002 C 
ATOM      2  C   UNL d   1      10.049  15.781   2.057  0.00  0.00     0.128 C 
ATOM      3  C   UNL d   1       9.616  14.009   3.676  0.00  0.00     0.002 C 
ATOM      4  C   UNL d   1       9.210  10.236   3.244  0.00  0.00    -0.033 C 
ATOM      5  C   UNL d   1       9.577  11.640   2.562  0.00  0.00    -0.001 C 
ATOM      6  C   UNL d   1      10.380  12.698   3.380  0.00  0.00    -0.005 C 
ATOM      7  C   UNL d   1      10.251   9.775   4.374  0.00  0.00    -0.036 C 
ATOM      8  C   UNL d   1       8.757  13.675   1.258  0.00  0.00     0.013 C 
ATOM      9  C   UNL d   1      10.393  16.351   3.432  0.00  0.00     0.047 C 
ATOM     10  C   UNL d   1       8.401  12.290   1.786  0.00  0.00     0.007 C 
ATOM     11  C   UNL d   1      10.520  15.104   4.308  0.00  0.00     0.009 C 
ATOM     12  C   UNL d   1      11.060  12.166   4.634  0.00  0.00     0.006 C 
ATOM     13  C   UNL d   1      11.466  10.726   4.458  0.00  0.00     0.010 C 
ATOM     14  C   UNL d   1       7.612  15.246   2.852  0.00  0.00     0.019 C 
ATOM     15  C   UNL d   1       7.750  10.280   3.783  0.00  0.00     0.016 C 
ATOM     16  C   UNL d   1       9.207   9.182   2.080  0.00  0.00     0.010 C 
ATOM     17  C   UNL d   1       9.610   9.717   5.792  0.00  0.00     0.016 C 
ATOM     18  C   UNL d   1      10.884   8.380   4.091  0.00  0.00     0.010 C 
ATOM     19  C   UNL d   1       9.002   7.735   2.517  0.00  0.00     0.001 C 
ATOM     20  C   UNL d   1       9.916   7.299   3.650  0.00  0.00     0.001 C 
ENDROOT
BRANCH   2  21
ATOM     21  C   UNL d   1       9.637  16.902   1.081  0.00  0.00     0.185 C 
ATOM     22  O   UNL d   1       8.462  17.174   0.827  0.00  0.00    -0.292 OA
BRANCH  21  23
ATOM     23  C   UNL d   1      10.783  17.718   0.471  0.00  0.00     0.260 C 
BRANCH  23  24
ATOM     24  O   UNL d   1      10.376  18.455  -0.689  0.00  0.00    -0.314 OA
BRANCH  24  25
ATOM     25  C   UNL d   1      10.108  17.664  -1.759  0.00  0.00     0.255 C 
ATOM     26  O   UNL d   1      10.263  16.446  -1.790  0.00  0.00    -0.266 OA
ATOM     27  C   UNL d   1       9.633  18.483  -2.924  0.00  0.00     0.126 C 
ENDBRANCH  24  25
ENDBRANCH  23  24
ENDBRANCH  21  23
ENDBRANCH   2  21
BRANCH   2  28
ATOM     28  O   UNL d   1      11.260  15.183   1.567  0.00  0.00    -0.381 OA
ATOM     29  H   UNL d   1      11.089  14.804   0.686  0.00  0.00     0.211 HD
ENDBRANCH   2  28
TORSDOF 5
