REMARK  5 active torsions:
REMARK  status: ('A' for Active; 'I' for Inactive)
REMARK    1  A    between atoms: N_2  and  C_1 
REMARK    2  A    between atoms: N_3  and  C_1 
REMARK    3  A    between atoms: N_5  and  N_2 
REMARK    4  A    between atoms: C_6  and  N_3 
REMARK    5  A    between atoms: C_14  and  C_7 
ROOT
ATOM      1  N   UNL d   1       0.241   0.476  -1.129  0.00  0.00    -0.332 N 
ATOM      2  H   UNL d   1       0.727   0.695  -1.990  0.00  0.00     0.168 HD
ENDROOT
BRANCH   1   3
ATOM      3  C   UNL d   1       1.054  -0.125  -0.198  0.00  0.00     0.186 C 
ATOM      4  S   UNL d   1       0.636  -1.289   0.931  0.00  0.00    -0.040 SA
BRANCH   3   5
ATOM      5  N   UNL d   1       2.383   0.264  -0.246  0.00  0.00    -0.296 N 
ATOM      6  H   UNL d   1       2.981  -0.211   0.423  0.00  0.00     0.183 HD
BRANCH   5   7
ATOM      7  N   UNL d   1       2.804   1.512  -0.780  0.00  0.00    -0.238 NA
ATOM      8  C   UNL d   1       2.253   2.627   0.012  0.00  0.00     0.135 C 
ATOM      9  C   UNL d   1       4.274   1.592  -0.720  0.00  0.00     0.135 C 
ENDBRANCH   5   7
ENDBRANCH   3   5
ENDBRANCH   1   3
BRANCH   1  10
ATOM     10  C   UNL d   1      -1.159   0.592  -1.115  0.00  0.00     0.034 A 
ATOM     11  C   UNL d   1      -1.865   0.863   0.062  0.00  0.00     0.030 A 
ATOM     12  C   UNL d   1      -3.253   1.012   0.037  0.00  0.00     0.009 A 
ATOM     13  C   UNL d   1      -3.961   0.879  -1.161  0.00  0.00    -0.058 A 
ATOM     14  C   UNL d   1      -3.249   0.625  -2.343  0.00  0.00     0.009 A 
ATOM     15  C   UNL d   1      -1.855   0.512  -2.321  0.00  0.00     0.030 A 
BRANCH  13  16
ATOM     16  C   UNL d   1      -5.464   0.974  -1.177  0.00  0.00     0.034 C 
ATOM     17  C   UNL d   1      -6.114  -0.369  -0.881  0.00  0.00     0.010 C 
ENDBRANCH  13  16
ENDBRANCH   1  10
TORSDOF 5
