REMARK  7 active torsions:
REMARK  status: ('A' for Active; 'I' for Inactive)
REMARK    1  A    between atoms: N_2  and  C_1 
REMARK    2  A    between atoms: S_7  and  C_1 
REMARK    3  A    between atoms: C_3  and  N_2 
REMARK    4  A    between atoms: C_6  and  C_11 
REMARK    5  A    between atoms: O_14  and  C_6 
REMARK    6  A    between atoms: C_11  and  S_7 
REMARK    7  A    between atoms: C_16  and  O_14 
ROOT
ATOM      1  N   UNL d   1       0.654  -1.143  -0.091  0.00  0.00    -0.341 N 
ATOM      2  H   UNL d   1      -0.351  -1.011  -0.190  0.00  0.00     0.167 HD
ENDROOT
BRANCH   1   3
ATOM      3  C   UNL d   1       1.412  -0.003  -0.208  0.00  0.00     0.139 C 
ATOM      4  S   UNL d   1       2.979   0.086  -0.786  0.00  0.00    -0.053 SA
BRANCH   3   5
ATOM      5  S   UNL d   1       0.522   1.411   0.335  0.00  0.00    -0.091 SA
BRANCH   5   6
ATOM      6  C   UNL d   1      -0.042   2.094  -1.246  0.00  0.00     0.192 C 
BRANCH   6   7
ATOM      7  C   UNL d   1      -1.155   1.267  -1.846  0.00  0.00     0.268 C 
ATOM      8  O   UNL d   1      -1.509   0.162  -1.470  0.00  0.00    -0.264 OA
BRANCH   7   9
ATOM      9  O   UNL d   1      -1.662   1.923  -2.933  0.00  0.00    -0.321 OA
BRANCH   9  10
ATOM     10  C   UNL d   1      -2.510   1.133  -3.776  0.00  0.00     0.174 C 
ATOM     11  C   UNL d   1      -1.634   0.359  -4.745  0.00  0.00     0.034 C 
ENDBRANCH   9  10
ENDBRANCH   7   9
ENDBRANCH   6   7
ENDBRANCH   5   6
ENDBRANCH   3   5
ENDBRANCH   1   3
BRANCH   1  12
ATOM     12  C   UNL d   1       1.039  -2.366   0.515  0.00  0.00     0.039 A 
ATOM     13  C   UNL d   1       0.295  -3.538   0.275  0.00  0.00    -0.035 A 
ATOM     14  C   UNL d   1       0.548  -4.685   1.055  0.00  0.00     0.015 A 
ATOM     15  C   UNL d   1      -0.747  -3.650  -0.804  0.00  0.00     0.050 C 
ATOM     16  C   UNL d   1       1.529  -4.689   2.053  0.00  0.00    -0.061 A 
ATOM     17  C   UNL d   1       2.300  -3.542   2.239  0.00  0.00     0.009 A 
ATOM     18  C   UNL d   1       1.700  -5.885   2.943  0.00  0.00     0.048 C 
ATOM     19  C   UNL d   1       2.058  -2.397   1.474  0.00  0.00     0.030 A 
ENDBRANCH   1  12
TORSDOF 7
