REMARK  4 active torsions:
REMARK  status: ('A' for Active; 'I' for Inactive)
REMARK    1  A    between atoms: C_9  and  C_3 
REMARK    2  A    between atoms: C_8  and  C_4 
REMARK    3  A    between atoms: C_10  and  C_5 
REMARK    4  A    between atoms: O_21  and  C_15 
ROOT
ATOM      1  N   UNL d   1      -1.336  -0.050  -0.006  0.00  0.00    -0.355 N 
ATOM      2  HN  UNL d   1      -2.355  -0.091   0.006  1.00  0.00     0.166 HD
ATOM      3  C   UNL d   1      -0.693   1.144  -0.011  0.00  0.00     0.043 A 
ATOM      4  C   UNL d   1      -0.599  -1.189  -0.018  0.00  0.00     0.043 A 
ATOM      5  C   UNL d   1       1.480   0.061  -0.001  0.00  0.00    -0.022 A 
ATOM      6  C   UNL d   1       0.700   1.221   0.017  0.00  0.00     0.042 A 
ATOM      7  C   UNL d   1       0.797  -1.158  -0.029  0.00  0.00     0.042 A 
ENDROOT
BRANCH   3   8
ATOM      8  C   UNL d   1      -1.546   2.353  -0.038  0.00  0.00    -0.009 A 
ATOM      9  C   UNL d   1      -2.838   2.344   0.516  0.00  0.00     0.016 A 
ATOM     10  C   UNL d   1      -3.653   3.486   0.506  0.00  0.00     0.037 A 
ATOM     11  C   UNL d   1      -3.193   4.667  -0.071  0.00  0.00     0.068 A 
ATOM     12  C   UNL d   1      -1.912   4.705  -0.615  0.00  0.00     0.037 A 
ATOM     13  C   UNL d   1      -1.107   3.561  -0.612  0.00  0.00     0.016 A 
BRANCH  11  14
ATOM     14  O   UNL d   1      -3.886   5.844  -0.126  0.00  0.00    -0.356 OA
ATOM     15  C   UNL d   1      -5.301   5.712  -0.192  0.00  0.00     0.210 C 
ENDBRANCH  11  14
ENDBRANCH   3   8
BRANCH   4  16
ATOM     16  C   UNL d   1      -1.351  -2.463   0.028  0.00  0.00    -0.009 A 
ATOM     17  C   UNL d   1      -0.874  -3.633  -0.590  0.00  0.00     0.014 A 
ATOM     18  C   UNL d   1      -1.554  -4.850  -0.480  0.00  0.00     0.007 A 
ATOM     19  C   UNL d   1      -2.746  -4.932   0.244  0.00  0.00    -0.062 A 
ATOM     20  C   UNL d   1      -3.252  -3.775   0.841  0.00  0.00     0.007 A 
ATOM     21  C   UNL d   1      -3.451  -6.249   0.372  0.00  0.00     0.048 C 
ATOM     22  C   UNL d   1      -2.565  -2.560   0.731  0.00  0.00     0.014 A 
ENDBRANCH   4  16
BRANCH   5  23
ATOM     23  C   UNL d   1       2.959   0.129   0.033  0.00  0.00    -0.026 A 
ATOM     24  C   UNL d   1       3.659   1.161  -0.621  0.00  0.00     0.012 A 
ATOM     25  C   UNL d   1       5.053   1.255  -0.552  0.00  0.00     0.001 A 
ATOM     26  C   UNL d   1       5.781   0.305   0.155  0.00  0.00     0.000 A 
ATOM     27  C   UNL d   1       5.116  -0.739   0.792  0.00  0.00     0.001 A 
ATOM     28  C   UNL d   1       3.723  -0.821   0.735  0.00  0.00     0.012 A 
ENDBRANCH   5  23
TORSDOF 4
