REMARK  7 active torsions:
REMARK  status: ('A' for Active; 'I' for Inactive)
REMARK    1  A    between atoms: N_2  and  C_1 
REMARK    2  A    between atoms: N_6  and  C_1 
REMARK    3  A    between atoms: C_3  and  N_2 
REMARK    4  A    between atoms: C_7  and  C_4 
REMARK    5  A    between atoms: C_11  and  N_6 
REMARK    6  A    between atoms: O_9  and  C_12 
REMARK    7  A    between atoms: C_12  and  C_11 
ROOT
ATOM      1  N   UNL d   1       0.571   1.216  -0.148  0.00  0.00    -0.333 N 
ATOM      2  H   UNL d   1       1.065   0.337  -0.122  0.00  0.00     0.168 HD
ENDROOT
BRANCH   1   3
ATOM      3  C   UNL d   1      -0.674   1.174   0.433  0.00  0.00     0.172 C 
ATOM      4  S   UNL d   1      -2.105   1.749  -0.214  0.00  0.00    -0.041 SA
BRANCH   3   5
ATOM      5  N   UNL d   1      -0.735   0.534   1.640  0.00  0.00    -0.365 N 
ATOM      6  H   UNL d   1      -1.668   0.558   2.042  0.00  0.00     0.161 HD
BRANCH   5   7
ATOM      7  C   UNL d   1       0.322   0.527   2.650  0.00  0.00     0.148 C 
BRANCH   7   8
ATOM      8  C   UNL d   1       0.248   1.782   3.527  0.00  0.00     0.183 C 
BRANCH   8   9
ATOM      9  O   UNL d   1      -1.017   1.827   4.190  0.00  0.00    -0.399 OA
ATOM     10  H   UNL d   1      -1.081   2.699   4.620  0.00  0.00     0.209 HD
ENDBRANCH   8   9
ENDBRANCH   7   8
ENDBRANCH   5   7
ENDBRANCH   3   5
ENDBRANCH   1   3
BRANCH   1  11
ATOM     11  C   UNL d   1       1.059   2.206  -1.032  0.00  0.00     0.041 A 
ATOM     12  C   UNL d   1       1.933   1.897  -2.095  0.00  0.00    -0.028 A 
ATOM     13  C   UNL d   1       2.505   2.976  -2.811  0.00  0.00     0.010 A 
ATOM     14  C   UNL d   1       2.207   4.304  -2.509  0.00  0.00     0.001 A 
ATOM     15  C   UNL d   1       1.323   4.590  -1.482  0.00  0.00     0.002 A 
ATOM     16  C   UNL d   1       0.759   3.549  -0.747  0.00  0.00     0.030 A 
BRANCH  12  17
ATOM     17  C   UNL d   1       2.284   0.505  -2.608  0.00  0.00     0.013 C 
ATOM     18  C   UNL d   1       3.455  -0.108  -1.841  0.00  0.00     0.015 C 
ATOM     19  C   UNL d   1       1.112  -0.474  -2.725  0.00  0.00     0.015 C 
ENDBRANCH  12  17
ENDBRANCH   1  11
TORSDOF 7
