REMARK  1 active torsions:
REMARK  status: ('A' for Active; 'I' for Inactive)
REMARK    1  A    between atoms: C_2  and  C_1 
REMARK       I    between atoms: N_7  and  C_2 
ROOT
ATOM      1  C   UNL d   1      -1.440  -0.168  -0.076  0.00  0.00     0.048 A 
ATOM      2  C   UNL d   1      -0.645  -1.323  -0.037  0.00  0.00     0.022 A 
ATOM      3  C   UNL d   1      -0.801   1.091  -0.097  0.00  0.00     0.025 A 
ATOM      4  C   UNL d   1       0.754  -1.205   0.006  0.00  0.00     0.020 A 
ATOM      5  C   UNL d   1       0.595   1.209  -0.066  0.00  0.00    -0.061 A 
ATOM      6  I   UNL d   1      -1.358  -3.301  -0.138  0.00  0.00    -0.043 I 
ATOM      7  C   UNL d   1       1.367   0.049  -0.009  0.00  0.00     0.008 A 
ATOM      8  C   UNL d   1       1.264   2.550  -0.130  0.00  0.00     0.048 C 
ENDROOT
BRANCH   1   9
ATOM      9  C   UNL d   1      -2.929  -0.114  -0.133  0.00  0.00     0.250 C 
ATOM     10  O   UNL d   1      -3.511   0.807  -0.693  0.00  0.00    -0.268 OA
ATOM     11  N   UNL d   1      -3.646  -1.087   0.501  0.00  0.00    -0.366 N 
ATOM     12  H   UNL d   1      -3.220  -1.907   0.909  0.00  0.00     0.159 HD
ATOM     13  H   UNL d   1      -4.652  -1.062   0.400  0.00  0.00     0.159 HD
ENDBRANCH   1   9
TORSDOF 1
