REMARK  1 active torsions:
REMARK  status: ('A' for Active; 'I' for Inactive)
REMARK    1  A    between atoms: C_16  and  C_11 
ROOT
ATOM      1  N   UNL d   1      -5.953  -0.143   2.517  0.00  0.00    -0.197 NA
ATOM      2  C   UNL d   1      -5.521  -0.122   1.440  0.00  0.00     0.063 C 
ATOM      3  C   UNL d   1      -5.003  -0.099   0.063  0.00  0.00     0.162 C 
ENDROOT
BRANCH   3   4
ATOM      4  C   UNL d   1      -3.494  -0.063   0.011  0.00  0.00    -0.043 A 
ATOM      5  C   UNL d   1      -2.758  -1.257   0.005  0.00  0.00     0.020 A 
ATOM      6  C   UNL d   1      -1.356  -1.243  -0.007  0.00  0.00    -0.024 A 
ATOM      7  C   UNL d   1      -0.673  -0.006  -0.009  0.00  0.00    -0.004 A 
ATOM      8  C   UNL d   1      -0.618  -2.434  -0.009  0.00  0.00     0.013 A 
ATOM      9  C   UNL d   1      -1.403   1.204  -0.003  0.00  0.00    -0.024 A 
ATOM     10  C   UNL d   1       0.744   0.020  -0.009  0.00  0.00    -0.004 A 
ATOM     11  C   UNL d   1      -2.807   1.160   0.010  0.00  0.00     0.020 A 
ATOM     12  C   UNL d   1      -0.708   2.421  -0.004  0.00  0.00     0.013 A 
ATOM     13  C   UNL d   1       0.690   2.447  -0.006  0.00  0.00     0.013 A 
ATOM     14  C   UNL d   1       1.429   1.256  -0.007  0.00  0.00    -0.024 A 
ATOM     15  C   UNL d   1       2.832   1.264  -0.001  0.00  0.00     0.012 A 
ATOM     16  C   UNL d   1       3.550   0.068   0.002  0.00  0.00     0.002 A 
ATOM     17  C   UNL d   1       2.875  -1.152  -0.002  0.00  0.00     0.012 A 
ATOM     18  C   UNL d   1       1.473  -1.192  -0.008  0.00  0.00    -0.024 A 
ATOM     19  C   UNL d   1       0.779  -2.409  -0.009  0.00  0.00     0.013 A 
ENDBRANCH   3   4
TORSDOF 1
