REMARK  3 active torsions:
REMARK  status: ('A' for Active; 'I' for Inactive)
REMARK    1  A    between atoms: N_3  and  C_9 
REMARK    2  A    between atoms: C_15  and  C_4 
REMARK    3  A    between atoms: C_11  and  C_6 
ROOT
ATOM      1  N   UNL d   1      -0.428   1.623  -0.759  0.00  0.00    -0.358 N 
ATOM      2  HN  UNL d   1      -0.252   2.195  -1.586  1.00  0.00     0.166 HD
ATOM      3  C   UNL d   1      -1.558   1.744  -0.127  0.00  0.00     0.021 C 
ATOM      4  S   UNL d   1      -1.196  -1.492  -0.451  0.00  0.00    -0.118 SA
ATOM      5  C   UNL d   1      -2.360  -0.546   0.623  0.00  0.00     0.091 C 
ATOM      6  C   UNL d   1      -1.937   0.866   1.056  0.00  0.00     0.078 C 
ATOM      7  C   UNL d   1       0.555   0.716  -0.321  0.00  0.00     0.049 A 
ATOM      8  C   UNL d   1       0.358  -0.668  -0.145  0.00  0.00     0.028 A 
ATOM      9  C   UNL d   1       1.832   1.249  -0.092  0.00  0.00     0.031 A 
ATOM     10  C   UNL d   1       1.438  -1.478   0.239  0.00  0.00     0.021 A 
ATOM     11  C   UNL d   1       2.699  -0.927   0.470  0.00  0.00     0.002 A 
ATOM     12  C   UNL d   1       2.896   0.440   0.307  0.00  0.00     0.002 A 
ENDROOT
BRANCH   5  13
ATOM     13  C   UNL d   1      -3.773  -0.527   0.038  0.00  0.00    -0.041 A 
ATOM     14  C   UNL d   1      -4.010  -0.269  -1.325  0.00  0.00     0.044 A 
ATOM     15  C   UNL d   1      -5.319  -0.162  -1.809  0.00  0.00     0.103 A 
ATOM     16  C   UNL d   1      -6.412  -0.316  -0.948  0.00  0.00     0.036 A 
ATOM     17  C   UNL d   1      -6.186  -0.581   0.403  0.00  0.00     0.003 A 
ATOM     18  C   UNL d   1      -4.880  -0.683   0.891  0.00  0.00     0.008 A 
BRANCH  15  19
ATOM     19  N   UNL d   1      -5.542   0.136  -3.226  0.00  0.00    -0.116 N 
ATOM     20  O   UNL d   1      -4.551   0.275  -3.958  0.00  0.00    -0.532 OA
ATOM     21  O   UNL d   1      -6.717   0.237  -3.616  0.00  0.00    -0.532 OA
ENDBRANCH  15  19
ENDBRANCH   5  13
BRANCH   3  22
ATOM     22  C   UNL d   1      -2.519   2.794  -0.596  0.00  0.00    -0.014 A 
ATOM     23  C   UNL d   1      -2.553   3.125  -1.958  0.00  0.00     0.013 A 
ATOM     24  C   UNL d   1      -3.403   4.133  -2.418  0.00  0.00     0.001 A 
ATOM     25  C   UNL d   1      -4.218   4.822  -1.522  0.00  0.00     0.000 A 
ATOM     26  C   UNL d   1      -4.188   4.501  -0.167  0.00  0.00     0.001 A 
ATOM     27  C   UNL d   1      -3.339   3.492   0.298  0.00  0.00     0.013 A 
ENDBRANCH   3  22
TORSDOF 3
