REMARK  3 active torsions:
REMARK  status: ('A' for Active; 'I' for Inactive)
REMARK    1  A    between atoms: N_8  and  C_1 
REMARK       I    between atoms: C_6  and  N_8 
REMARK       I    between atoms: N_11  and  C_6 
REMARK    2  A    between atoms: N_9  and  C_10 
REMARK    3  A    between atoms: C_15  and  N_11 
ROOT
ATOM      1  C   UNL d   1       1.088   3.018  -0.223  0.00  0.00     0.325 C 
ATOM      2  N   UNL d   1       0.980   4.323   0.222  0.00  0.00    -0.305 N 
ATOM      3  N   UNL d   1       2.416   2.632  -0.337  0.00  0.00    -0.309 N 
ATOM      4  O   UNL d   1       0.123   2.291  -0.430  0.00  0.00    -0.247 OA
ATOM      5  H   UNL d   1       1.762   4.658   0.764  0.00  0.00     0.171 HD
ATOM      6  H   UNL d   1       3.107   3.369  -0.362  0.00  0.00     0.170 HD
ENDROOT
BRANCH   3   7
ATOM      7  C   UNL d   1       2.900   1.307  -0.478  0.00  0.00     0.038 A 
ATOM      8  C   UNL d   1       2.065   0.186  -0.447  0.00  0.00     0.059 A 
ATOM      9  C   UNL d   1       2.579  -1.120  -0.430  0.00  0.00     0.040 A 
ATOM     10  C   UNL d   1       3.963  -1.299  -0.505  0.00  0.00     0.030 A 
ATOM     11  C   UNL d   1       4.808  -0.187  -0.590  0.00  0.00     0.004 A 
ATOM     12  C   UNL d   1       4.280   1.108  -0.571  0.00  0.00     0.029 A 
BRANCH   9  13
ATOM     13  N   UNL d   1       1.685  -2.228  -0.276  0.00  0.00    -0.333 N 
ATOM     14  C   UNL d   1       2.036  -3.549  -0.051  0.00  0.00     0.096 A 
ATOM     15  C   UNL d   1       0.894  -4.298   0.140  0.00  0.00     0.019 A 
ATOM     16  C   UNL d   1      -0.205  -3.432  -0.005  0.00  0.00     0.019 A 
ATOM     17  C   UNL d   1       0.302  -2.180  -0.274  0.00  0.00     0.096 A 
ENDBRANCH   9  13
ENDBRANCH   3   7
BRANCH   2  18
ATOM     18  C   UNL d   1      -0.216   5.020   0.387  0.00  0.00     0.092 A 
ATOM     19  C   UNL d   1      -1.456   4.872  -0.210  0.00  0.00     0.101 A 
ATOM     20  O   UNL d   1      -2.302   5.820   0.289  0.00  0.00    -0.240 OA
ATOM     21  C   UNL d   1      -2.098   4.028  -1.239  0.00  0.00     0.081 C 
ATOM     22  N   UNL d   1      -1.649   6.607   1.206  0.00  0.00    -0.263 N 
ATOM     23  C   UNL d   1      -0.401   6.133   1.263  0.00  0.00     0.058 A 
ATOM     24  HN  UNL d   1      -2.036   7.390   1.733  1.00  0.00     0.194 HD
ATOM     25  C   UNL d   1       0.554   6.755   2.210  0.00  0.00     0.072 C 
ENDBRANCH   2  18
TORSDOF 3
