REMARK  5 active torsions:
REMARK  status: ('A' for Active; 'I' for Inactive)
REMARK    1  A    between atoms: N_2  and  N_1 
REMARK       I    between atoms: C_3  and  N_2 
REMARK       I    between atoms: N_10  and  C_3 
REMARK    2  A    between atoms: O_15  and  C_4 
REMARK    3  A    between atoms: O_16  and  C_5 
REMARK    4  A    between atoms: O_17  and  C_6 
REMARK    5  A    between atoms: C_7  and  N_10 
ROOT
ATOM      1  C   UNL d   1       4.824   0.040  -1.157  0.00  0.00     0.135 A 
ATOM      2  C   UNL d   1       3.577   0.682  -1.285  0.00  0.00     0.106 A 
ATOM      3  C   UNL d   1       5.243  -0.381   0.116  0.00  0.00     0.106 A 
ATOM      4  C   UNL d   1       3.228   0.580   1.135  0.00  0.00     0.054 A 
ATOM      5  C   UNL d   1       4.434  -0.123   1.238  0.00  0.00     0.069 A 
ATOM      6  C   UNL d   1       2.840   1.004  -0.135  0.00  0.00     0.069 A 
ENDROOT
BRANCH   4   7
ATOM      7  N   UNL d   1       2.497   0.859   2.307  0.00  0.00    -0.191 N 
ATOM      8  C   UNL d   1       1.500   1.781   2.505  0.00  0.00     0.695 C 
ATOM      9  N   UNL d   1       0.732   1.714   3.633  0.00  0.00    -0.072 N 
ATOM     10  N   UNL d   1       1.247   2.730   1.655  0.00  0.00    -0.233 N 
ATOM     11  H   UNL d   1       0.026   2.417   3.736  0.00  0.00     0.212 HD
ATOM     12  H   UNL d   1       0.484   3.335   1.956  0.00  0.00     0.174 HD
ATOM     13  HN  UNL d   1       1.756   2.856   0.781  1.00  0.00     0.174 HD
ATOM     14  H   UNL d   1       2.683   0.203   3.061  0.00  0.00     0.184 HD
BRANCH   9  15
ATOM     15  N   UNL d   1       1.054   1.035   4.743  0.00  0.00    -0.024 N 
ATOM     16  O   UNL d   1       0.403   1.388   5.727  0.00  0.00    -0.516 OA
ATOM     17  O   UNL d   1       1.905   0.148   4.696  0.00  0.00    -0.516 OA
ENDBRANCH   9  15
ENDBRANCH   4   7
BRANCH   3  18
ATOM     18  O   UNL d   1       6.364  -1.107   0.429  0.00  0.00    -0.353 OA
ATOM     19  C   UNL d   1       7.523  -0.868  -0.356  0.00  0.00     0.210 C 
ENDBRANCH   3  18
BRANCH   2  20
ATOM     20  O   UNL d   1       3.109   0.929  -2.554  0.00  0.00    -0.353 OA
ATOM     21  C   UNL d   1       1.711   1.175  -2.682  0.00  0.00     0.210 C 
ENDBRANCH   2  20
BRANCH   1  22
ATOM     22  O   UNL d   1       5.562  -0.342  -2.250  0.00  0.00    -0.351 OA
ATOM     23  C   UNL d   1       5.880   0.698  -3.174  0.00  0.00     0.210 C 
ENDBRANCH   1  22
TORSDOF 5
