REMARK  7 active torsions:
REMARK  status: ('A' for Active; 'I' for Inactive)
REMARK    1  A    between atoms: N_7  and  C_1 
REMARK    2  A    between atoms: C_8  and  C_2 
REMARK    3  A    between atoms: C_11  and  N_3 
REMARK       I    between atoms: C_9  and  N_7 
REMARK    4  A    between atoms: O_16  and  C_8 
REMARK    5  A    between atoms: C_12  and  C_9 
REMARK    6  A    between atoms: N_10  and  C_12 
REMARK    7  A    between atoms: C_23  and  O_16 
ROOT
ATOM      1  C   UNL d   1       1.176  -0.863   0.957  0.00  0.00     0.147 A 
ATOM      2  C   UNL d   1      -0.070  -1.219   1.474  0.00  0.00     0.102 A 
ATOM      3  N   UNL d   1       1.235   0.536   1.031  0.00  0.00    -0.239 N 
ATOM      4  N   UNL d   1       0.116   1.060   1.589  0.00  0.00    -0.302 N 
ATOM      5  HN  UNL d   1      -0.070   2.038   1.812  1.00  0.00     0.186 HD
ATOM      6  C   UNL d   1      -0.682   0.017   1.780  0.00  0.00     0.129 A 
ENDROOT
BRANCH   1   7
ATOM      7  N   UNL d   1       2.224  -1.694   0.535  0.00  0.00    -0.309 N 
ATOM      8  C   UNL d   1       2.021  -2.735  -0.439  0.00  0.00     0.251 C 
ATOM      9  O   UNL d   1       0.906  -2.893  -0.921  0.00  0.00    -0.271 OA
ATOM     10  H   UNL d   1       3.190  -1.413   0.689  0.00  0.00     0.170 HD
BRANCH   8  11
ATOM     11  C   UNL d   1       3.263  -3.504  -0.925  0.00  0.00     0.375 C 
BRANCH  11  12
ATOM     12  N   UNL d   1       4.561  -2.861  -0.569  0.00  0.00     0.101 N 
ATOM     13  C   UNL d   1       5.107  -3.321   0.739  0.00  0.00     0.299 C 
ATOM     14  C   UNL d   1       5.697  -4.747   0.766  0.00  0.00     0.198 C 
ATOM     15  O   UNL d   1       6.683  -4.921  -0.252  0.00  0.00    -0.388 OA
ATOM     16  C   UNL d   1       6.138  -4.641  -1.542  0.00  0.00     0.198 C 
ATOM     17  C   UNL d   1       5.596  -3.198  -1.602  0.00  0.00     0.299 C 
ENDBRANCH  11  12
ENDBRANCH   8  11
ENDBRANCH   1   7
BRANCH   2  18
ATOM     18  C   UNL d   1      -0.644  -2.526   1.752  0.00  0.00     0.298 C 
ATOM     19  O   UNL d   1      -0.034  -3.579   1.610  0.00  0.00    -0.259 OA
BRANCH  18  20
ATOM     20  O   UNL d   1      -1.920  -2.427   2.226  0.00  0.00    -0.318 OA
BRANCH  20  21
ATOM     21  C   UNL d   1      -2.686  -3.641   2.353  0.00  0.00     0.174 C 
ATOM     22  C   UNL d   1      -2.441  -4.358   3.669  0.00  0.00     0.034 C 
ENDBRANCH  20  21
ENDBRANCH  18  20
ENDBRANCH   2  18
BRANCH   3  23
ATOM     23  C   UNL d   1       2.259   1.415   0.576  0.00  0.00     0.058 A 
ATOM     24  C   UNL d   1       3.158   1.044  -0.432  0.00  0.00     0.031 A 
ATOM     25  C   UNL d   1       4.146   1.941  -0.849  0.00  0.00     0.002 A 
ATOM     26  C   UNL d   1       4.244   3.203  -0.265  0.00  0.00     0.000 A 
ATOM     27  C   UNL d   1       3.340   3.584   0.723  0.00  0.00     0.002 A 
ATOM     28  C   UNL d   1       2.341   2.701   1.133  0.00  0.00     0.031 A 
ENDBRANCH   3  23
TORSDOF 7
