REMARK  1 active torsions:
REMARK  status: ('A' for Active; 'I' for Inactive)
REMARK    1  A    between atoms: C_10  and  C_2 
REMARK       I    between atoms: N_16  and  C_10 
ROOT
ATOM      1  C   UNL d   1      -0.463   0.707  -0.004  0.00  0.00     0.061 A 
ATOM      2  C   UNL d   1      -1.897   0.854  -0.006  0.00  0.00     0.077 A 
ATOM      3  C   UNL d   1      -0.213  -0.663  -0.007  0.00  0.00     0.132 A 
ATOM      4  C   UNL d   1      -2.393  -0.449  -0.008  0.00  0.00     0.066 A 
ATOM      5  O   UNL d   1      -1.377  -1.353  -0.009  0.00  0.00    -0.310 OA
ATOM      6  C   UNL d   1       0.666   1.552  -0.001  0.00  0.00     0.172 A 
ATOM      7  C   UNL d   1       1.062  -1.229  -0.007  0.00  0.00     0.192 A 
ATOM      8  C   UNL d   1       1.954   1.010  -0.000  0.00  0.00     0.197 A 
ATOM      9  C   UNL d   1       2.147  -0.363  -0.003  0.00  0.00     0.199 A 
ATOM     10  F   UNL d   1       0.524   2.885   0.002  0.00  0.00    -0.202 F 
ATOM     11  F   UNL d   1       1.240  -2.556  -0.009  0.00  0.00    -0.200 F 
ATOM     12  F   UNL d   1       3.013   1.832   0.003  0.00  0.00    -0.199 F 
ATOM     13  F   UNL d   1       3.393  -0.859  -0.003  0.00  0.00    -0.199 F 
ATOM     14  C   UNL d   1      -3.741  -1.066  -0.010  0.00  0.00     0.078 C 
ENDROOT
BRANCH   2  15
ATOM     15  C   UNL d   1      -2.732   2.050  -0.006  0.00  0.00     0.252 C 
ATOM     16  O   UNL d   1      -3.958   2.022  -0.002  0.00  0.00    -0.268 OA
ATOM     17  N   UNL d   1      -2.091   3.253  -0.012  0.00  0.00    -0.366 N 
ATOM     18  H   UNL d   1      -1.089   3.373  -0.014  0.00  0.00     0.159 HD
ATOM     19  H   UNL d   1      -2.665   4.086  -0.011  0.00  0.00     0.159 HD
ENDBRANCH   2  15
TORSDOF 1
