REMARK  3 active torsions:
REMARK  status: ('A' for Active; 'I' for Inactive)
REMARK    1  A    between atoms: C_18  and  C_10 
REMARK    2  A    between atoms: C_19  and  C_18 
REMARK    3  A    between atoms: O_22  and  C_21 
ROOT
ATOM      1  C   UNL d   1      -0.278  -1.131  -0.049  0.00  0.00     0.181 A 
ATOM      2  N   UNL d   1       0.956  -0.776   0.272  0.00  0.00    -0.277 N 
ATOM      3  HN  UNL d   1       1.727  -1.405   0.496  1.00  0.00     0.189 HD
ATOM      4  C   UNL d   1      -0.741  -2.486  -0.080  0.00  0.00     0.058 A 
ATOM      5  S   UNL d   1      -2.093  -2.949  -1.016  0.00  0.00    -0.085 SA
ATOM      6  O   UNL d   1      -1.073  -0.032  -0.290  0.00  0.00    -0.277 OA
ATOM      7  N   UNL d   1       1.003   0.602   0.248  0.00  0.00    -0.281 N 
ATOM      8  HN  UNL d   1       1.814   1.190   0.441  1.00  0.00     0.189 HD
ATOM      9  C   UNL d   1      -1.992  -4.589  -0.514  0.00  0.00     0.022 A 
ATOM     10  C   UNL d   1      -0.207   1.006  -0.072  0.00  0.00     0.144 A 
ATOM     11  C   UNL d   1      -2.936  -5.580  -0.984  0.00  0.00     0.021 A 
ATOM     12  C   UNL d   1      -0.211  -3.562   0.602  0.00  0.00     0.025 A 
ATOM     13  C   UNL d   1      -0.938  -4.767   0.364  0.00  0.00     0.022 A 
ATOM     14  S   UNL d   1      -3.353  -6.947  -0.028  0.00  0.00    -0.101 SA
ATOM     15  C   UNL d   1      -3.623  -5.597  -2.186  0.00  0.00     0.021 A 
ATOM     16  C   UNL d   1      -4.451  -7.529  -1.200  0.00  0.00     0.050 A 
ATOM     17  C   UNL d   1      -4.497  -6.718  -2.309  0.00  0.00     0.008 A 
ENDROOT
BRANCH  10  18
ATOM     18  C   UNL d   1      -0.762   2.380  -0.111  0.00  0.00     0.124 C 
BRANCH  18  19
ATOM     19  C   UNL d   1      -0.732   3.015  -1.480  0.00  0.00    -0.048 A 
ATOM     20  C   UNL d   1       0.391   3.757  -1.892  0.00  0.00     0.044 A 
ATOM     21  C   UNL d   1       0.416   4.371  -3.147  0.00  0.00     0.068 A 
ATOM     22  C   UNL d   1      -0.682   4.232  -3.998  0.00  0.00     0.037 A 
ATOM     23  C   UNL d   1      -1.795   3.487  -3.607  0.00  0.00     0.003 A 
ATOM     24  C   UNL d   1      -1.820   2.879  -2.353  0.00  0.00     0.007 A 
BRANCH  21  25
ATOM     25  O   UNL d   1       1.438   5.128  -3.650  0.00  0.00    -0.356 OA
ATOM     26  C   UNL d   1       2.576   5.307  -2.816  0.00  0.00     0.210 C 
ENDBRANCH  21  25
ENDBRANCH  18  19
ENDBRANCH  10  18
TORSDOF 3
