REMARK  2 active torsions:
REMARK  status: ('A' for Active; 'I' for Inactive)
REMARK    1  A    between atoms: N_7  and  C_1 
REMARK       I    between atoms: C_9  and  N_7 
REMARK    2  A    between atoms: C_10  and  C_9 
ROOT
ATOM      1  C   UNL d   1       2.334   0.640   0.121  0.00  0.00     0.688 A 
ATOM      2  N   UNL d   1       2.351  -0.675   0.440  0.00  0.00    -0.155 N 
ATOM      3  C   UNL d   1       1.216  -1.439   0.511  0.00  0.00     0.272 A 
ATOM      4  C   UNL d   1      -0.047  -0.718   0.268  0.00  0.00     0.060 A 
ATOM      5  N   UNL d   1       1.261   1.330  -0.070  0.00  0.00    -0.191 N 
ATOM      6  HN  UNL d   1       1.303   2.326  -0.283  1.00  0.00     0.184 HD
ATOM      7  C   UNL d   1       0.032   0.655   0.027  0.00  0.00     0.065 A 
ATOM      8  C   UNL d   1      -1.276  -1.385   0.271  0.00  0.00     0.026 A 
ATOM      9  O   UNL d   1       1.238  -2.643   0.748  0.00  0.00    -0.267 OA
ATOM     10  C   UNL d   1      -1.149   1.371  -0.168  0.00  0.00     0.031 A 
ATOM     11  C   UNL d   1      -2.457  -0.668   0.046  0.00  0.00    -0.061 A 
ATOM     12  C   UNL d   1      -2.385   0.717  -0.155  0.00  0.00     0.009 A 
ATOM     13  C   UNL d   1      -3.785  -1.365   0.010  0.00  0.00     0.048 C 
ATOM     14  H   UNL d   1       3.245  -1.135   0.587  0.00  0.00     0.187 HD
ENDROOT
BRANCH   1  15
ATOM     15  N   UNL d   1       3.512   1.291  -0.056  0.00  0.00    -0.155 N 
ATOM     16  C   UNL d   1       4.786   0.746  -0.064  0.00  0.00     0.269 C 
ATOM     17  O   UNL d   1       5.050  -0.383   0.337  0.00  0.00    -0.267 OA
ATOM     18  H   UNL d   1       3.361   2.213  -0.436  0.00  0.00     0.187 HD
BRANCH  16  19
ATOM     19  C   UNL d   1       5.843   1.616  -0.657  0.00  0.00     0.033 A 
ATOM     20  C   UNL d   1       5.736   3.015  -0.656  0.00  0.00     0.023 A 
ATOM     21  C   UNL d   1       6.653   3.798  -1.368  0.00  0.00    -0.061 A 
ATOM     22  C   UNL d   1       6.482   5.287  -1.451  0.00  0.00     0.048 C 
ATOM     23  C   UNL d   1       7.718   3.172  -2.026  0.00  0.00     0.007 A 
ATOM     24  C   UNL d   1       7.864   1.784  -1.978  0.00  0.00     0.002 A 
ATOM     25  C   UNL d   1       6.927   1.005  -1.298  0.00  0.00     0.017 A 
ENDBRANCH  16  19
ENDBRANCH   1  15
TORSDOF 2
