REMARK  4 active torsions:
REMARK  status: ('A' for Active; 'I' for Inactive)
REMARK    1  A    between atoms: C_5  and  C_1 
REMARK       I    between atoms: N_10  and  C_5 
REMARK    2  A    between atoms: C_14  and  N_10 
REMARK    3  A    between atoms: O_12  and  C_15 
REMARK    4  A    between atoms: C_15  and  C_14 
ROOT
ATOM      1  C   UNL d   1      -1.846  -1.287  -0.101  0.00  0.00     0.108 A 
ATOM      2  C   UNL d   1      -2.118   0.169  -0.088  0.00  0.00     0.304 A 
ATOM      3  C   UNL d   1      -0.582  -1.744  -0.051  0.00  0.00     0.037 A 
ATOM      4  O   UNL d   1      -1.024   1.028  -0.079  0.00  0.00    -0.274 OA
ATOM      5  C   UNL d   1       0.543  -0.824  -0.003  0.00  0.00    -0.001 A 
ATOM      6  C   UNL d   1       0.293   0.543  -0.035  0.00  0.00     0.089 A 
ATOM      7  O   UNL d   1      -3.261   0.620  -0.091  0.00  0.00    -0.259 OA
ATOM      8  C   UNL d   1       1.866  -1.265   0.054  0.00  0.00     0.014 A 
ATOM      9  C   UNL d   1       1.325   1.479  -0.022  0.00  0.00     0.038 A 
ATOM     10  C   UNL d   1       2.914  -0.338   0.073  0.00  0.00     0.001 A 
ATOM     11  C   UNL d   1       2.643   1.032   0.032  0.00  0.00     0.003 A 
ENDROOT
BRANCH   1  12
ATOM     12  C   UNL d   1      -2.928  -2.319  -0.193  0.00  0.00     0.257 C 
ATOM     13  O   UNL d   1      -2.676  -3.523  -0.182  0.00  0.00    -0.267 OA
ATOM     14  N   UNL d   1      -4.208  -1.844  -0.307  0.00  0.00    -0.355 N 
ATOM     15  H   UNL d   1      -4.383  -0.846  -0.179  0.00  0.00     0.162 HD
BRANCH  14  16
ATOM     16  C   UNL d   1      -5.369  -2.712  -0.389  0.00  0.00     0.149 C 
BRANCH  16  17
ATOM     17  C   UNL d   1      -5.878  -3.149   0.984  0.00  0.00     0.186 C 
BRANCH  17  18
ATOM     18  O   UNL d   1      -6.346  -2.001   1.702  0.00  0.00    -0.394 OA
ATOM     19  C   UNL d   1      -6.851  -2.357   2.982  0.00  0.00     0.201 C 
ENDBRANCH  17  18
ENDBRANCH  16  17
ENDBRANCH  14  16
ENDBRANCH   1  12
TORSDOF 4
