REMARK  6 active torsions:
REMARK  status: ('A' for Active; 'I' for Inactive)
REMARK    1  A    between atoms: C_3  and  C_1 
REMARK    2  A    between atoms: C_18  and  C_5 
REMARK       I    between atoms: C_7  and  N_12 
REMARK    3  A    between atoms: C_9  and  C_7 
REMARK    4  A    between atoms: C_10  and  C_11 
REMARK    5  A    between atoms: O_19  and  C_10 
REMARK    6  A    between atoms: N_12  and  C_18 
ROOT
ATOM      1  C   UNL d   1      -2.837  -7.500  -0.081  0.00  0.00     0.169 C 
ENDROOT
BRANCH   1   2
ATOM      2  N   UNL d   1      -1.481  -7.991  -0.188  0.00  0.00    -0.353 N 
ATOM      3  C   UNL d   1      -0.409  -7.140  -0.120  0.00  0.00     0.241 C 
ATOM      4  O   UNL d   1      -0.486  -5.922  -0.072  0.00  0.00    -0.269 OA
ATOM      5  H   UNL d   1      -1.337  -8.989  -0.103  0.00  0.00     0.163 HD
BRANCH   3   6
ATOM      6  C   UNL d   1       0.880  -7.872  -0.174  0.00  0.00     0.080 C 
ATOM      7  C   UNL d   1       2.011  -7.512   0.447  0.00  0.00     0.086 C 
BRANCH   7   8
ATOM      8  C   UNL d   1       2.203  -6.404   1.388  0.00  0.00     0.165 C 
ATOM      9  O   UNL d   1       3.249  -5.797   1.521  0.00  0.00    -0.647 OA
BRANCH   8  10
ATOM     10  O   UNL d   1       1.164  -6.222   2.210  0.00  0.00    -0.773 OA
ATOM     11  H   UNL d   1       1.423  -5.449   2.751  0.00  0.00     0.167 HD
ENDBRANCH   8  10
ENDBRANCH   7   8
ENDBRANCH   3   6
ENDBRANCH   1   2
BRANCH   1  12
ATOM     12  C   UNL d   1      -3.784  -8.653  -0.208  0.00  0.00     0.001 A 
ATOM     13  S   UNL d   1      -3.763  -9.918   0.948  0.00  0.00    -0.092 SA
ATOM     14  C   UNL d   1      -4.967 -10.820   0.120  0.00  0.00     0.022 A 
ATOM     15  C   UNL d   1      -5.428 -10.119  -0.980  0.00  0.00     0.021 A 
ATOM     16  C   UNL d   1      -4.749  -8.876  -1.171  0.00  0.00     0.018 A 
BRANCH  14  17
ATOM     17  C   UNL d   1      -5.360 -12.135   0.576  0.00  0.00     0.021 A 
ATOM     18  S   UNL d   1      -5.928 -13.333  -0.520  0.00  0.00    -0.101 SA
ATOM     19  C   UNL d   1      -6.058 -14.509   0.712  0.00  0.00     0.050 A 
ATOM     20  C   UNL d   1      -5.711 -14.005   1.944  0.00  0.00     0.008 A 
ATOM     21  C   UNL d   1      -5.317 -12.636   1.866  0.00  0.00     0.021 A 
ENDBRANCH  14  17
ENDBRANCH   1  12
TORSDOF 6
