REMARK  3 active torsions:
REMARK  status: ('A' for Active; 'I' for Inactive)
REMARK       I    between atoms: N_3  and  C_1 
REMARK    1  A    between atoms: C_8  and  C_1 
REMARK    2  A    between atoms: C_2  and  C_8 
REMARK    3  A    between atoms: C_11  and  N_3 
ROOT
ATOM      1  C   UNL d   1       0.990  -0.074  -0.004  0.00  0.00     0.226 C 
ATOM      2  N   UNL d   1       0.330   0.093  -1.212  0.00  0.00    -0.327 N 
ATOM      3  O   UNL d   1       0.450  -0.161   1.097  0.00  0.00    -0.273 OA
ATOM      4  H   UNL d   1       0.860  -0.070  -2.058  0.00  0.00     0.169 HD
ENDROOT
BRANCH   1   5
ATOM      5  C   UNL d   1       2.509  -0.085  -0.139  0.00  0.00     0.141 C 
BRANCH   5   6
ATOM      6  C   UNL d   1       3.205  -1.329   0.365  0.00  0.00    -0.044 A 
ATOM      7  C   UNL d   1       4.149  -1.982  -0.444  0.00  0.00     0.050 A 
ATOM      8  C   UNL d   1       4.866  -3.073   0.048  0.00  0.00     0.119 A 
ATOM      9  F   UNL d   1       5.772  -3.669  -0.739  0.00  0.00    -0.206 F 
ATOM     10  C   UNL d   1       4.670  -3.541   1.338  0.00  0.00     0.084 A 
ATOM     11  C   UNL d   1       3.740  -2.899   2.140  0.00  0.00     0.119 A 
ATOM     12  C   UNL d   1       3.014  -1.803   1.672  0.00  0.00     0.050 A 
ATOM     13  F   UNL d   1       3.546  -3.329   3.394  0.00  0.00    -0.206 F 
ENDBRANCH   5   6
ENDBRANCH   1   5
BRANCH   2  14
ATOM     14  C   UNL d   1      -1.036   0.410  -1.388  0.00  0.00     0.034 A 
ATOM     15  C   UNL d   1      -1.876   0.810  -0.343  0.00  0.00     0.032 A 
ATOM     16  C   UNL d   1      -3.209   1.152  -0.592  0.00  0.00     0.044 A 
ATOM     17  C   UNL d   1      -3.703   1.092  -1.887  0.00  0.00     0.116 A 
ATOM     18  C   UNL d   1      -2.886   0.701  -2.940  0.00  0.00     0.044 A 
ATOM     19  F   UNL d   1      -4.979   1.420  -2.126  0.00  0.00    -0.206 F 
ATOM     20  C   UNL d   1      -1.550   0.367  -2.692  0.00  0.00     0.032 A 
ENDBRANCH   2  14
TORSDOF 3
