REMARK  8 active torsions:
REMARK  status: ('A' for Active; 'I' for Inactive)
REMARK    1  A    between atoms: N_3  and  C_1 
REMARK    2  A    between atoms: C_8  and  C_2 
REMARK    3  A    between atoms: C_4  and  N_3 
REMARK    4  A    between atoms: N_11  and  C_4 
REMARK    5  A    between atoms: O_13  and  C_8 
REMARK    6  A    between atoms: C_14  and  N_11 
REMARK    7  A    between atoms: C_16  and  O_13 
REMARK    8  A    between atoms: C_15  and  C_14 
ROOT
ATOM      1  N   UNL d   1       2.222  -1.483   0.117  0.00  0.00    -0.318 N 
ATOM      2  H   UNL d   1       2.097  -2.382  -0.334  0.00  0.00     0.170 HD
ENDROOT
BRANCH   1   3
ATOM      3  C   UNL d   1       1.226  -0.528  -0.041  0.00  0.00     0.140 A 
ATOM      4  C   UNL d   1       0.753   0.409   0.855  0.00  0.00     0.101 A 
ATOM      5  C   UNL d   1      -0.270   1.082   0.139  0.00  0.00     0.128 A 
ATOM      6  N   UNL d   1      -0.464   0.580  -1.081  0.00  0.00    -0.309 N 
ATOM      7  N   UNL d   1       0.433  -0.415  -1.153  0.00  0.00    -0.285 N 
ATOM      8  HN  UNL d   1      -1.133   0.880  -1.790  1.00  0.00     0.186 HD
ATOM      9  H   UNL d   1       0.480  -0.946  -2.016  0.00  0.00     0.188 HD
BRANCH   4  10
ATOM     10  C   UNL d   1       1.095   0.586   2.247  0.00  0.00     0.298 C 
ATOM     11  O   UNL d   1       1.657  -0.276   2.908  0.00  0.00    -0.259 OA
BRANCH  10  12
ATOM     12  O   UNL d   1       0.627   1.770   2.727  0.00  0.00    -0.318 OA
BRANCH  12  13
ATOM     13  C   UNL d   1       0.594   1.916   4.153  0.00  0.00     0.174 C 
ATOM     14  C   UNL d   1      -0.784   1.491   4.628  0.00  0.00     0.034 C 
ENDBRANCH  12  13
ENDBRANCH  10  12
ENDBRANCH   4  10
ENDBRANCH   1   3
BRANCH   1  15
ATOM     15  C   UNL d   1       3.524  -1.236   0.667  0.00  0.00     0.173 C 
ATOM     16  S   UNL d   1       4.312   0.230   0.731  0.00  0.00    -0.041 SA
BRANCH  15  17
ATOM     17  N   UNL d   1       4.042  -2.466   0.965  0.00  0.00    -0.363 N 
ATOM     18  H   UNL d   1       3.370  -3.174   1.219  0.00  0.00     0.162 HD
BRANCH  17  19
ATOM     19  C   UNL d   1       5.404  -2.724   1.414  0.00  0.00     0.160 C 
BRANCH  19  20
ATOM     20  C   UNL d   1       5.806  -4.173   1.262  0.00  0.00    -0.041 A 
ATOM     21  C   UNL d   1       7.095  -4.479   0.793  0.00  0.00     0.009 A 
ATOM     22  C   UNL d   1       7.526  -5.804   0.688  0.00  0.00     0.001 A 
ATOM     23  C   UNL d   1       6.675  -6.844   1.049  0.00  0.00     0.000 A 
ATOM     24  C   UNL d   1       5.397  -6.561   1.523  0.00  0.00     0.001 A 
ATOM     25  C   UNL d   1       4.969  -5.235   1.642  0.00  0.00     0.009 A 
ENDBRANCH  19  20
ENDBRANCH  17  19
ENDBRANCH  15  17
ENDBRANCH   1  15
TORSDOF 8
