REMARK  9 active torsions:
REMARK  status: ('A' for Active; 'I' for Inactive)
REMARK    1  A    between atoms: C_9  and  C_1 
REMARK    2  A    between atoms: N_18  and  C_3 
REMARK    3  A    between atoms: C_12  and  C_6 
REMARK       I    between atoms: N_14  and  C_9 
REMARK    4  A    between atoms: C_22  and  C_10 
REMARK    5  A    between atoms: C_13  and  N_15 
REMARK    6  A    between atoms: N_24  and  C_13 
REMARK    7  A    between atoms: N_15  and  N_14 
REMARK    8  A    between atoms: C_27  and  N_24 
REMARK    9  A    between atoms: C_25  and  C_27 
ROOT
ATOM      1  C   UNL d   1       2.404   0.041   0.050  0.00  0.00     0.174 A 
ATOM      2  C   UNL d   1       0.285   0.845   0.048  0.00  0.00     0.058 A 
ATOM      3  C   UNL d   1       1.661   1.200   0.099  0.00  0.00     0.081 A 
ATOM      4  C   UNL d   1       0.275  -0.553   0.004  0.00  0.00     0.162 A 
ATOM      5  O   UNL d   1       1.557  -1.035   0.009  0.00  0.00    -0.285 OA
ATOM      6  C   UNL d   1      -0.972   1.484   0.053  0.00  0.00     0.017 A 
ATOM      7  N   UNL d   1      -0.801  -1.363  -0.037  0.00  0.00    -0.335 N 
ATOM      8  HN  UNL d   1      -0.723  -2.380  -0.063  1.00  0.00     0.168 HD
ATOM      9  C   UNL d   1      -1.993  -0.721  -0.043  0.00  0.00     0.045 A 
ATOM     10  C   UNL d   1      -2.111   0.669   0.018  0.00  0.00     0.045 A 
ENDROOT
BRANCH   1  11
ATOM     11  C   UNL d   1       3.839  -0.143   0.007  0.00  0.00     0.296 C 
ATOM     12  N   UNL d   1       4.247  -1.457   0.101  0.00  0.00    -0.262 N 
ATOM     13  H   UNL d   1       3.576  -2.218   0.132  0.00  0.00     0.190 HD
ATOM     14  O   UNL d   1       4.650   0.772  -0.138  0.00  0.00    -0.264 OA
BRANCH  12  15
ATOM     15  N   UNL d   1       5.585  -1.778  -0.166  0.00  0.00    -0.273 N 
ATOM     16  H   UNL d   1       6.164  -0.999  -0.486  0.00  0.00     0.189 HD
BRANCH  15  17
ATOM     17  C   UNL d   1       6.223  -2.784   0.516  0.00  0.00     0.186 C 
ATOM     18  S   UNL d   1       5.623  -3.611   1.836  0.00  0.00    -0.040 SA
BRANCH  17  19
ATOM     19  N   UNL d   1       7.430  -3.163  -0.007  0.00  0.00    -0.363 N 
ATOM     20  H   UNL d   1       7.869  -3.916   0.508  0.00  0.00     0.162 HD
BRANCH  19  21
ATOM     21  C   UNL d   1       7.747  -3.096  -1.419  0.00  0.00     0.148 C 
BRANCH  21  22
ATOM     22  C   UNL d   1       9.014  -2.328  -1.586  0.00  0.00    -0.018 C 
ATOM     23  C   UNL d   1       9.104  -1.168  -2.248  0.00  0.00     0.008 C 
ENDBRANCH  21  22
ENDBRANCH  19  21
ENDBRANCH  17  19
ENDBRANCH  15  17
ENDBRANCH  12  15
ENDBRANCH   1  11
BRANCH   3  24
ATOM     24  N   UNL d   1       2.181   2.442   0.172  0.00  0.00    -0.396 N 
ATOM     25  H   UNL d   1       1.601   3.250  -0.050  0.00  0.00     0.156 HD
ATOM     26  H   UNL d   1       3.177   2.601   0.011  0.00  0.00     0.156 HD
ENDBRANCH   3  24
BRANCH   6  27
ATOM     27  C   UNL d   1      -1.105   2.932   0.130  0.00  0.00     0.086 A 
ATOM     28  O   UNL d   1      -0.131   3.686  -0.462  0.00  0.00    -0.322 OA
ATOM     29  C   UNL d   1      -0.441   4.991  -0.256  0.00  0.00     0.142 A 
ATOM     30  C   UNL d   1      -1.626   5.097   0.428  0.00  0.00     0.027 A 
ATOM     31  C   UNL d   1      -2.066   3.772   0.660  0.00  0.00     0.040 A 
ENDBRANCH   6  27
BRANCH   9  32
ATOM     32  C   UNL d   1      -3.200  -1.579  -0.128  0.00  0.00    -0.009 A 
ATOM     33  C   UNL d   1      -3.266  -2.817   0.537  0.00  0.00     0.013 A 
ATOM     34  C   UNL d   1      -4.403  -3.628   0.459  0.00  0.00     0.001 A 
ATOM     35  C   UNL d   1      -5.505  -3.223  -0.293  0.00  0.00     0.000 A 
ATOM     36  C   UNL d   1      -5.471  -2.003  -0.958  0.00  0.00     0.001 A 
ATOM     37  C   UNL d   1      -4.333  -1.193  -0.875  0.00  0.00     0.013 A 
ENDBRANCH   9  32
TORSDOF 9
