REMARK  5 active torsions:
REMARK  status: ('A' for Active; 'I' for Inactive)
REMARK    1  A    between atoms: S_2  and  C_1 
REMARK    2  A    between atoms: N_9  and  S_2 
REMARK    3  A    between atoms: N_8  and  C_13 
REMARK    4  A    between atoms: C_20  and  N_9 
REMARK    5  A    between atoms: C_21  and  C_20 
ROOT
ATOM      1  C   UNL d   1      -1.835  -2.700   2.709  0.00  0.00     0.143 C 
ENDROOT
BRANCH   1   2
ATOM      2  N   UNL d   1      -2.425  -3.425   1.579  0.00  0.00    -0.211 NA
ATOM      3  H   UNL d   1      -2.821  -4.335   1.803  0.00  0.00     0.140 HD
BRANCH   2   4
ATOM      4  S   UNL d   1      -1.487  -3.491   0.184  0.00  0.00     0.250 S 
ATOM      5  O   UNL d   1      -0.994  -2.163  -0.081  0.00  0.00    -0.205 OA
ATOM      6  O   UNL d   1      -2.233  -4.246  -0.800  0.00  0.00    -0.205 OA
BRANCH   4   7
ATOM      7  C   UNL d   1      -0.072  -4.482   0.565  0.00  0.00     0.139 A 
ATOM      8  S   UNL d   1      -0.400  -6.101   1.043  0.00  0.00    -0.062 SA
ATOM      9  C   UNL d   1       1.276  -6.371   1.275  0.00  0.00     0.048 A 
ATOM     10  C   UNL d   1       1.783  -7.693   1.738  0.00  0.00     0.076 C 
ATOM     11  N   UNL d   1       2.049  -5.338   1.030  0.00  0.00    -0.356 N 
ATOM     12  C   UNL d   1       1.290  -4.248   0.615  0.00  0.00     0.036 A 
ATOM     13  HN  UNL d   1       3.064  -5.334   1.130  1.00  0.00     0.166 HD
ATOM     14  C   UNL d   1       2.025  -2.993   0.308  0.00  0.00     0.070 C 
ENDBRANCH   4   7
ENDBRANCH   2   4
ENDBRANCH   1   2
BRANCH   1  15
ATOM     15  C   UNL d   1      -2.752  -2.703   3.904  0.00  0.00    -0.044 A 
ATOM     16  C   UNL d   1      -3.116  -3.903   4.519  0.00  0.00     0.010 A 
ATOM     17  C   UNL d   1      -3.964  -3.896   5.628  0.00  0.00     0.030 A 
ATOM     18  C   UNL d   1      -4.467  -2.705   6.171  0.00  0.00     0.030 A 
ATOM     19  C   UNL d   1      -4.094  -1.512   5.542  0.00  0.00     0.030 A 
ATOM     20  C   UNL d   1      -3.249  -1.505   4.426  0.00  0.00     0.010 A 
BRANCH  18  21
ATOM     21  N   UNL d   1      -5.346  -2.751   7.235  0.00  0.00    -0.378 N 
ATOM     22  C   UNL d   1      -6.271  -1.647   7.524  0.00  0.00     0.153 C 
ATOM     23  C   UNL d   1      -7.557  -2.224   8.163  0.00  0.00     0.291 C 
ATOM     24  N   UNL d   1      -7.282  -3.028   9.378  0.00  0.00     0.087 N 
ATOM     25  C   UNL d   1      -6.322  -4.106   9.043  0.00  0.00     0.291 C 
ATOM     26  C   UNL d   1      -8.521  -3.593   9.906  0.00  0.00     0.310 C 
ATOM     27  C   UNL d   1      -5.016  -3.562   8.421  0.00  0.00     0.153 C 
ENDBRANCH  18  21
ENDBRANCH   1  15
TORSDOF 5
