REMARK  1 active torsions:
REMARK  status: ('A' for Active; 'I' for Inactive)
REMARK    1  A    between atoms: C_12  and  C_5 
ROOT
ATOM      1  C   UNL d   1      -0.215  -0.688  -0.037  0.00  0.00     0.704 A 
ATOM      2  N   UNL d   1      -0.260   0.695   0.009  0.00  0.00    -0.151 N 
ATOM      3  N   UNL d   1       0.975  -1.357  -0.044  0.00  0.00    -0.189 N 
ATOM      4  HN  UNL d   1       1.012  -2.374  -0.097  1.00  0.00     0.184 HD
ATOM      5  C   UNL d   1       2.066  -0.639   0.021  0.00  0.00     0.067 A 
ATOM      6  N   UNL d   1      -1.455  -1.137  -0.066  0.00  0.00    -0.131 N 
ATOM      7  HN  UNL d   1      -1.732  -2.118  -0.099  1.00  0.00     0.205 HD
ATOM      8  N   UNL d   1      -2.314  -0.057  -0.043  0.00  0.00    -0.281 N 
ATOM      9  HN  UNL d   1      -3.333  -0.097  -0.058  1.00  0.00     0.188 HD
ATOM     10  C   UNL d   1       0.881   1.476   0.050  0.00  0.00     0.118 A 
ATOM     11  C   UNL d   1       2.077   0.872   0.059  0.00  0.00     0.050 A 
ATOM     12  C   UNL d   1      -1.581   1.030  -0.001  0.00  0.00     0.223 A 
ENDROOT
BRANCH   5  13
ATOM     13  C   UNL d   1       3.339  -1.353   0.028  0.00  0.00     0.032 A 
ATOM     14  S   UNL d   1       4.740  -0.705   0.777  0.00  0.00    -0.100 SA
ATOM     15  C   UNL d   1       5.683  -2.069   0.370  0.00  0.00     0.050 A 
ATOM     16  C   UNL d   1       4.953  -3.014  -0.312  0.00  0.00     0.008 A 
ATOM     17  C   UNL d   1       3.598  -2.610  -0.492  0.00  0.00     0.021 A 
ENDBRANCH   5  13
TORSDOF 1
