REMARK  7 active torsions:
REMARK  status: ('A' for Active; 'I' for Inactive)
REMARK    1  A    between atoms: C_2  and  C_1 
REMARK    2  A    between atoms: C_8  and  C_1 
REMARK    3  A    between atoms: C_11  and  C_1 
REMARK    4  A    between atoms: O_15  and  C_1 
REMARK    5  A    between atoms: N_3  and  C_6 
REMARK    6  A    between atoms: C_18  and  C_8 
REMARK    7  A    between atoms: C_17  and  C_13 
ROOT
ATOM      1  C   UNL d   1       0.734   1.268   0.787  0.00  0.00     0.008 A 
ATOM      2  C   UNL d   1      -0.595   1.725   0.895  0.00  0.00     0.041 A 
ATOM      3  C   UNL d   1       1.719   1.946   1.558  0.00  0.00     0.013 A 
ATOM      4  C   UNL d   1      -0.876   2.831   1.733  0.00  0.00     0.030 A 
ATOM      5  C   UNL d   1       1.422   3.055   2.351  0.00  0.00     0.001 A 
ATOM      6  C   UNL d   1       0.119   3.506   2.432  0.00  0.00     0.002 A 
ENDROOT
BRANCH   1   7
ATOM      7  C   UNL d   1       1.201   0.093  -0.102  0.00  0.00     0.118 C 
BRANCH   7   8
ATOM      8  C   UNL d   1       0.441  -0.028  -1.472  0.00  0.00     0.086 C 
BRANCH   8   9
ATOM      9  C   UNL d   1       0.560   1.106  -2.494  0.00  0.00    -0.055 A 
ATOM     10  C   UNL d   1       1.209   2.323  -2.253  0.00  0.00     0.007 A 
ATOM     11  C   UNL d   1       1.381   3.270  -3.266  0.00  0.00     0.001 A 
ATOM     12  C   UNL d   1       0.890   3.018  -4.542  0.00  0.00     0.000 A 
ATOM     13  C   UNL d   1       0.214   1.829  -4.798  0.00  0.00     0.001 A 
ATOM     14  C   UNL d   1       0.046   0.883  -3.782  0.00  0.00     0.007 A 
ENDBRANCH   8   9
ENDBRANCH   7   8
BRANCH   7  15
ATOM     15  C   UNL d   1       1.311  -1.262   0.640  0.00  0.00    -0.019 A 
ATOM     16  C   UNL d   1       0.989  -1.424   2.000  0.00  0.00     0.010 A 
ATOM     17  C   UNL d   1       1.276  -2.616   2.679  0.00  0.00     0.001 A 
ATOM     18  C   UNL d   1       1.869  -3.685   2.014  0.00  0.00     0.000 A 
ATOM     19  C   UNL d   1       2.168  -3.568   0.662  0.00  0.00     0.001 A 
ATOM     20  C   UNL d   1       1.896  -2.373  -0.012  0.00  0.00     0.010 A 
ENDBRANCH   7  15
BRANCH   7  21
ATOM     21  O   UNL d   1       2.607   0.346  -0.414  0.00  0.00    -0.380 OA
ATOM     22  H   UNL d   1       2.709   0.340  -1.379  0.00  0.00     0.211 HD
ENDBRANCH   7  21
ENDBRANCH   1   7
BRANCH   2  23
ATOM     23  N   UNL d   1      -1.708   1.075   0.316  0.00  0.00    -0.365 N 
ATOM     24  C   UNL d   1      -2.502   1.825  -0.384  0.00  0.00     0.100 C 
ATOM     25  HN  UNL d   1      -1.877   0.077   0.441  1.00  0.00     0.165 HD
BRANCH  24  26
ATOM     26  C   UNL d   1      -3.899   1.431  -0.666  0.00  0.00    -0.018 A 
ATOM     27  C   UNL d   1      -4.835   2.470  -0.720  0.00  0.00     0.052 A 
ATOM     28  C   UNL d   1      -6.162   2.124  -0.590  0.00  0.00     0.105 A 
ATOM     29  O   UNL d   1      -7.196   2.995  -0.422  0.00  0.00    -0.323 OA
ATOM     30  C   UNL d   1      -6.569   0.811  -0.501  0.00  0.00     0.105 A 
ATOM     31  C   UNL d   1      -8.209   2.084   0.053  0.00  0.00     0.352 C 
ATOM     32  O   UNL d   1      -7.906   0.708  -0.263  0.00  0.00    -0.323 OA
ATOM     33  C   UNL d   1      -5.671  -0.236  -0.557  0.00  0.00     0.040 A 
ATOM     34  C   UNL d   1      -4.308   0.084  -0.610  0.00  0.00     0.016 A 
ENDBRANCH  24  26
ENDBRANCH   2  23
TORSDOF 7
