REMARK  1 active torsions:
REMARK  status: ('A' for Active; 'I' for Inactive)
REMARK    1  A    between atoms: C_11  and  C_4 
ROOT
ATOM      1  C   UNL d   1      -0.194   0.092  -0.094  0.00  0.00     0.053 A 
ATOM      2  C   UNL d   1       0.312  -1.150  -0.260  0.00  0.00    -0.017 A 
ATOM      3  C   UNL d   1       2.597  -0.290  -0.105  0.00  0.00     0.124 A 
ATOM      4  C   UNL d   1       1.774  -1.352  -0.278  0.00  0.00     0.009 A 
ATOM      5  N   UNL d   1       0.652   1.155   0.068  0.00  0.00    -0.321 N 
ATOM      6  C   UNL d   1       2.014   1.070   0.073  0.00  0.00     0.267 A 
ATOM      7  C   UNL d   1      -1.659   0.314  -0.065  0.00  0.00    -0.003 A 
ATOM      8  C   UNL d   1       4.019  -0.379  -0.059  0.00  0.00     0.106 C 
ATOM      9  C   UNL d   1      -0.632  -2.328  -0.394  0.00  0.00     0.046 C 
ATOM     10  N   UNL d   1       5.174  -0.474  -0.010  0.00  0.00    -0.191 NA
ATOM     11  O   UNL d   1       2.700   2.075   0.222  0.00  0.00    -0.266 OA
ATOM     12  C   UNL d   1      -2.504  -0.780   0.214  0.00  0.00    -0.045 A 
ATOM     13  C   UNL d   1      -1.893  -2.136   0.459  0.00  0.00     0.044 C 
ATOM     14  C   UNL d   1      -2.240   1.568  -0.303  0.00  0.00     0.014 A 
ATOM     15  C   UNL d   1      -3.890  -0.598   0.301  0.00  0.00     0.008 A 
ATOM     16  C   UNL d   1      -3.623   1.740  -0.233  0.00  0.00     0.001 A 
ATOM     17  C   UNL d   1      -4.446   0.660   0.077  0.00  0.00     0.001 A 
ATOM     18  H   UNL d   1       0.285   2.084   0.234  0.00  0.00     0.169 HD
ENDROOT
BRANCH   4  19
ATOM     19  C   UNL d   1       2.382  -2.699  -0.457  0.00  0.00    -0.024 A 
ATOM     20  C   UNL d   1       2.643  -3.510   0.658  0.00  0.00     0.015 A 
ATOM     21  C   UNL d   1       3.218  -4.773   0.491  0.00  0.00     0.043 A 
ATOM     22  C   UNL d   1       3.514  -5.229  -0.787  0.00  0.00     0.116 A 
ATOM     23  C   UNL d   1       3.255  -4.443  -1.904  0.00  0.00     0.043 A 
ATOM     24  F   UNL d   1       4.056  -6.445  -0.946  0.00  0.00    -0.206 F 
ATOM     25  C   UNL d   1       2.695  -3.173  -1.742  0.00  0.00     0.015 A 
ENDBRANCH   4  19
TORSDOF 1
