REMARK  5 active torsions:
REMARK  status: ('A' for Active; 'I' for Inactive)
REMARK    1  A    between atoms: C_13  and  C_3 
REMARK    2  A    between atoms: C_5  and  C_4 
REMARK    3  A    between atoms: C_6  and  C_9 
REMARK    4  A    between atoms: O_21  and  C_13 
REMARK    5  A    between atoms: C_22  and  O_21 
ROOT
ATOM      1  C   UNL d   1       0.089  -2.628   0.064  0.00  0.00     0.088 A 
ATOM      2  N   UNL d   1      -1.027  -3.078  -0.584  0.00  0.00    -0.361 N 
ATOM      3  HN  UNL d   1      -1.677  -2.426  -1.023  1.00  0.00     0.165 HD
ATOM      4  C   UNL d   1      -0.404  -5.352  -0.053  0.00  0.00     0.065 A 
ATOM      5  C   UNL d   1       0.987  -3.505   0.678  0.00  0.00     0.064 A 
ATOM      6  C   UNL d   1       0.730  -4.878   0.614  0.00  0.00     0.043 A 
ATOM      7  C   UNL d   1      -1.246  -4.413  -0.627  0.00  0.00     0.104 A 
ATOM      8 CL   UNL d   1       2.385  -3.010   1.562  0.00  0.00    -0.082 Cl
ENDROOT
BRANCH   1   9
ATOM      9  C   UNL d   1       0.288  -1.168   0.030  0.00  0.00     0.103 A 
ATOM     10  N   UNL d   1       1.460  -0.564  -0.001  0.00  0.00    -0.343 N 
ATOM     11  C   UNL d   1       1.316   0.823  -0.014  0.00  0.00     0.115 A 
ATOM     12  HN  UNL d   1       2.357  -1.049  -0.013  1.00  0.00     0.167 HD
ATOM     13  C   UNL d   1       0.002   1.250   0.005  0.00  0.00     0.087 A 
ATOM     14  S   UNL d   1      -1.061  -0.091   0.028  0.00  0.00    -0.079 SA
BRANCH  11  15
ATOM     15  C   UNL d   1       2.465   1.724  -0.105  0.00  0.00     0.310 C 
ATOM     16  O   UNL d   1       2.360   2.941  -0.191  0.00  0.00    -0.258 OA
BRANCH  15  17
ATOM     17  O   UNL d   1       3.644   1.038  -0.176  0.00  0.00    -0.317 OA
BRANCH  17  18
ATOM     18  C   UNL d   1       4.755   1.767  -0.707  0.00  0.00     0.175 C 
ATOM     19  C   UNL d   1       4.726   1.630  -2.219  0.00  0.00     0.034 C 
ENDBRANCH  17  18
ENDBRANCH  15  17
ENDBRANCH  11  15
ENDBRANCH   1   9
BRANCH   4  20
ATOM     20  C   UNL d   1      -0.727  -6.810  -0.155  0.00  0.00     0.418 C 
ATOM     21  F   UNL d   1       0.196  -7.611   0.443  0.00  0.00    -0.166 F 
ATOM     22  F   UNL d   1      -1.920  -7.118   0.422  0.00  0.00    -0.166 F 
ATOM     23  F   UNL d   1      -0.812  -7.235  -1.445  0.00  0.00    -0.166 F 
ENDBRANCH   4  20
TORSDOF 5
