REMARK  10 active torsions:
REMARK  status: ('A' for Active; 'I' for Inactive)
REMARK    1  A    between atoms: C_6  and  C_1 
REMARK    2  A    between atoms: C_7  and  C_1 
REMARK    3  A    between atoms: C_2  and  C_5 
REMARK    4  A    between atoms: N_3  and  C_4 
REMARK       I    between atoms: C_5  and  N_12 
REMARK    5  A    between atoms: O_19  and  C_6 
REMARK    6  A    between atoms: O_18  and  C_7 
REMARK    7  A    between atoms: N_11  and  C_8 
REMARK    8  A    between atoms: N_12  and  N_11 
REMARK    9  A    between atoms: C_23  and  O_18 
REMARK   10  A    between atoms: C_22  and  O_19 
ROOT
ATOM      1  C   UNL d   1       5.226   0.086  -0.071  0.00  0.00     0.272 C 
ATOM      2  N   UNL d   1       4.479  -0.838   0.659  0.00  0.00    -0.266 N 
ATOM      3  O   UNL d   1       4.784   1.093  -0.608  0.00  0.00    -0.266 OA
ATOM      4  H   UNL d   1       4.930  -1.603   1.149  0.00  0.00     0.190 HD
ENDROOT
BRANCH   2   5
ATOM      5  N   UNL d   1       3.120  -0.671   0.940  0.00  0.00    -0.308 N 
ATOM      6  H   UNL d   1       2.826  -0.888   1.896  0.00  0.00     0.186 HD
BRANCH   5   7
ATOM      7  C   UNL d   1       2.206   0.037   0.190  0.00  0.00     0.131 C 
ATOM      8  C   UNL d   1       0.960   0.443   0.504  0.00  0.00     0.131 C 
BRANCH   8   9
ATOM      9  C   UNL d   1       0.310   0.152   1.802  0.00  0.00     0.300 C 
ATOM     10  O   UNL d   1      -0.552   0.855   2.310  0.00  0.00    -0.259 OA
BRANCH   9  11
ATOM     11  O   UNL d   1       0.821  -0.975   2.376  0.00  0.00    -0.318 OA
BRANCH  11  12
ATOM     12  C   UNL d   1       0.320  -1.276   3.688  0.00  0.00     0.174 C 
ATOM     13  C   UNL d   1       1.156  -0.545   4.722  0.00  0.00     0.034 C 
ENDBRANCH  11  12
ENDBRANCH   9  11
ENDBRANCH   8   9
BRANCH   8  14
ATOM     14  C   UNL d   1       0.315   1.364  -0.461  0.00  0.00     0.300 C 
ATOM     15  O   UNL d   1       0.921   2.088  -1.237  0.00  0.00    -0.259 OA
BRANCH  14  16
ATOM     16  O   UNL d   1      -1.035   1.310  -0.339  0.00  0.00    -0.318 OA
BRANCH  16  17
ATOM     17  C   UNL d   1      -1.747   2.409  -0.926  0.00  0.00     0.174 C 
ATOM     18  C   UNL d   1      -1.864   3.519   0.104  0.00  0.00     0.034 C 
ENDBRANCH  16  17
ENDBRANCH  14  16
ENDBRANCH   8  14
ENDBRANCH   5   7
ENDBRANCH   2   5
BRANCH   1  19
ATOM     19  C   UNL d   1       6.672  -0.251  -0.238  0.00  0.00     0.060 A 
ATOM     20  C   UNL d   1       7.687   0.722  -0.370  0.00  0.00     0.054 A 
ATOM     21  C   UNL d   1       8.985   0.314  -0.745  0.00  0.00     0.031 A 
ATOM     22  C   UNL d   1       9.283  -1.034  -0.954  0.00  0.00     0.002 A 
ATOM     23  C   UNL d   1       8.290  -1.993  -0.812  0.00  0.00     0.001 A 
ATOM     24  C   UNL d   1       6.993  -1.605  -0.472  0.00  0.00     0.019 A 
BRANCH  20  25
ATOM     25  N   UNL d   1       7.496   2.111  -0.106  0.00  0.00    -0.332 N 
ATOM     26  C   UNL d   1       8.176   3.149  -0.723  0.00  0.00     0.096 A 
ATOM     27  C   UNL d   1       7.778   4.347  -0.173  0.00  0.00     0.019 A 
ATOM     28  C   UNL d   1       6.848   4.049   0.843  0.00  0.00     0.019 A 
ATOM     29  C   UNL d   1       6.701   2.676   0.872  0.00  0.00     0.096 A 
ENDBRANCH  20  25
ENDBRANCH   1  19
TORSDOF 10
