REMARK  3 active torsions:
REMARK  status: ('A' for Active; 'I' for Inactive)
REMARK    1  A    between atoms: C_11  and  C_3 
REMARK    2  A    between atoms: C_4  and  O_10 
REMARK    3  A    between atoms: O_10  and  C_11 
ROOT
ATOM      1  N   UNL d   1       6.485   3.271   1.672  0.00  0.00    -0.197 NA
ATOM      2  C   UNL d   1       6.040   2.331   1.160  0.00  0.00     0.061 C 
ATOM      3  C   UNL d   1       5.502   1.119   0.529  0.00  0.00     0.150 C 
ENDROOT
BRANCH   3   4
ATOM      4  C   UNL d   1       6.330  -0.091   0.942  0.00  0.00     0.189 C 
BRANCH   4   5
ATOM      5  O   UNL d   1       5.818  -1.276   0.323  0.00  0.00    -0.350 OA
BRANCH   5   6
ATOM      6  C   UNL d   1       6.505  -2.432   0.607  0.00  0.00     0.068 A 
ATOM      7  C   UNL d   1       7.602  -2.527   1.466  0.00  0.00     0.037 A 
ATOM      8  C   UNL d   1       8.234  -3.754   1.678  0.00  0.00     0.009 A 
ATOM      9  C   UNL d   1       7.782  -4.909   1.036  0.00  0.00    -0.062 A 
ATOM     10  C   UNL d   1       6.679  -4.819   0.180  0.00  0.00     0.009 A 
ATOM     11  C   UNL d   1       8.487  -6.210   1.283  0.00  0.00     0.048 C 
ATOM     12  C   UNL d   1       6.046  -3.587  -0.032  0.00  0.00     0.037 A 
ENDBRANCH   5   6
ENDBRANCH   4   5
ENDBRANCH   3   4
TORSDOF 3
