REMARK  5 active torsions:
REMARK  status: ('A' for Active; 'I' for Inactive)
REMARK       I    between atoms: N_2  and  C_1 
REMARK    1  A    between atoms: C_3  and  C_1 
REMARK       I    between atoms: C_4  and  N_2 
REMARK    2  A    between atoms: C_5  and  C_4 
REMARK    3  A    between atoms: O_14  and  C_7 
REMARK    4  A    between atoms: O_15  and  C_8 
REMARK    5  A    between atoms: O_17  and  C_11 
ROOT
ATOM      1  C   UNL d   1      -0.902  -1.975  -2.390  0.00  0.00     0.261 C 
ATOM      2  N   UNL d   1       0.459  -2.081  -2.173  0.00  0.00    -0.289 N 
ATOM      3  C   UNL d   1       1.032  -2.383  -0.948  0.00  0.00     0.258 C 
ATOM      4  O   UNL d   1      -1.775  -2.035  -1.531  0.00  0.00    -0.267 OA
ATOM      5  O   UNL d   1       0.432  -2.566   0.107  0.00  0.00    -0.267 OA
ATOM      6  H   UNL d   1       1.073  -1.815  -2.926  0.00  0.00     0.172 HD
ENDROOT
BRANCH   1   7
ATOM      7  C   UNL d   1      -1.343  -1.692  -3.782  0.00  0.00     0.065 A 
ATOM      8  C   UNL d   1      -2.523  -0.958  -3.987  0.00  0.00     0.081 A 
ATOM      9  C   UNL d   1      -2.971  -0.676  -5.275  0.00  0.00     0.037 A 
ATOM     10  C   UNL d   1      -2.262  -1.154  -6.375  0.00  0.00     0.003 A 
ATOM     11  C   UNL d   1      -1.104  -1.910  -6.185  0.00  0.00     0.001 A 
ATOM     12  C   UNL d   1      -0.641  -2.179  -4.893  0.00  0.00     0.020 A 
BRANCH   8  13
ATOM     13  O   UNL d   1      -3.299  -0.488  -2.960  0.00  0.00    -0.360 OA
ATOM     14  H   UNL d   1      -3.021  -0.949  -2.135  0.00  0.00     0.217 HD
ENDBRANCH   8  13
ENDBRANCH   1   7
BRANCH   3  15
ATOM     15  C   UNL d   1       2.519  -2.440  -0.930  0.00  0.00     0.035 A 
ATOM     16  C   UNL d   1       3.185  -2.022   0.232  0.00  0.00     0.056 A 
ATOM     17  C   UNL d   1       4.587  -1.997   0.300  0.00  0.00     0.102 A 
ATOM     18  C   UNL d   1       5.325  -2.446  -0.810  0.00  0.00     0.101 A 
ATOM     19  C   UNL d   1       4.646  -2.910  -1.950  0.00  0.00     0.040 A 
ATOM     20  C   UNL d   1       3.253  -2.908  -2.018  0.00  0.00     0.020 A 
BRANCH  17  21
ATOM     21  O   UNL d   1       5.269  -1.547   1.398  0.00  0.00    -0.353 OA
ATOM     22  C   UNL d   1       4.526  -1.069   2.513  0.00  0.00     0.210 C 
ENDBRANCH  17  21
BRANCH  18  23
ATOM     23  O   UNL d   1       6.684  -2.513  -0.970  0.00  0.00    -0.353 OA
ATOM     24  C   UNL d   1       7.527  -2.030   0.065  0.00  0.00     0.210 C 
ENDBRANCH  18  23
ENDBRANCH   3  15
TORSDOF 5
