REMARK  3 active torsions:
REMARK  status: ('A' for Active; 'I' for Inactive)
REMARK    1  A    between atoms: C_8  and  C_1 
REMARK    2  A    between atoms: C_7  and  O_12 
REMARK       I    between atoms: N_13  and  C_7 
REMARK    3  A    between atoms: O_12  and  N_9 
ROOT
ATOM      1  C   UNL d   1      -0.792  -2.548  -0.009  0.00  0.00     0.146 C 
ATOM      2  N   UNL d   1       0.471  -2.802  -0.023  0.00  0.00    -0.265 N 
ATOM      3  HN  UNL d   1       1.199  -2.088  -0.030  1.00  0.00     0.194 HD
ENDROOT
BRANCH   1   4
ATOM      4  C   UNL d   1      -1.202  -1.155  -0.004  0.00  0.00     0.084 A 
ATOM      5  C   UNL d   1      -0.418   0.028  -0.011  0.00  0.00     0.057 A 
ATOM      6  C   UNL d   1      -1.302   1.073  -0.004  0.00  0.00     0.128 A 
ATOM      7 BR   UNL d   1       1.448   0.200  -0.026  0.00  0.00    -0.047 Br
ATOM      8  N   UNL d   1      -2.536   0.502   0.007  0.00  0.00    -0.310 N 
ATOM      9  N   UNL d   1      -2.513  -0.843   0.007  0.00  0.00    -0.298 N 
ATOM     10  H   UNL d   1      -3.438   0.968   0.014  0.00  0.00     0.186 HD
ATOM     11  HN  UNL d   1      -3.308  -1.483   0.014  1.00  0.00     0.187 HD
ENDBRANCH   1   4
BRANCH   2  12
ATOM     12  O   UNL d   1       0.721  -4.192  -0.028  0.00  0.00    -0.181 OA
BRANCH  12  13
ATOM     13  C   UNL d   1       2.089  -4.430  -0.050  0.00  0.00     0.382 C 
ATOM     14  O   UNL d   1       2.552  -5.566  -0.057  0.00  0.00    -0.236 OA
ATOM     15  N   UNL d   1       2.836  -3.283  -0.064  0.00  0.00    -0.340 N 
ATOM     16  C   UNL d   1       4.266  -3.207  -0.086  0.00  0.00     0.151 C 
ATOM     17  H   UNL d   1       2.268  -2.442  -0.053  0.00  0.00     0.164 HD
ENDBRANCH  12  13
ENDBRANCH   2  12
TORSDOF 3
