REMARK  3 active torsions:
REMARK  status: ('A' for Active; 'I' for Inactive)
REMARK    1  A    between atoms: C_2  and  C_1 
REMARK       I    between atoms: N_8  and  C_2 
REMARK    2  A    between atoms: C_15  and  C_5 
REMARK    3  A    between atoms: C_14  and  N_8 
ROOT
ATOM      1  C   UNL d   1       0.237  -2.160   0.696  0.00  0.00     0.261 C 
ATOM      2  N   UNL d   1      -0.452  -3.287   0.274  0.00  0.00    -0.323 N 
ATOM      3  O   UNL d   1       1.234  -2.168   1.404  0.00  0.00    -0.267 OA
ATOM      4  H   UNL d   1      -1.343  -3.148  -0.190  0.00  0.00     0.169 HD
ENDROOT
BRANCH   1   5
ATOM      5  C   UNL d   1      -0.274  -0.901   0.211  0.00  0.00     0.093 C 
ATOM      6  C   UNL d   1      -1.551  -0.252   0.286  0.00  0.00     0.083 C 
ATOM      7  N   UNL d   1      -1.482   0.929  -0.361  0.00  0.00    -0.259 N 
ATOM      8  O   UNL d   1      -0.178   1.113  -0.741  0.00  0.00    -0.241 OA
ATOM      9  HN  UNL d   1      -2.258   1.567  -0.536  1.00  0.00     0.195 HD
ATOM     10  C   UNL d   1       0.552   0.042  -0.364  0.00  0.00     0.090 C 
ATOM     11  C   UNL d   1       2.006   0.106  -0.622  0.00  0.00     0.080 C 
BRANCH   6  12
ATOM     12  C   UNL d   1      -2.808  -0.620   0.969  0.00  0.00    -0.006 A 
ATOM     13  C   UNL d   1      -3.926   0.233   0.865  0.00  0.00     0.014 A 
ATOM     14  C   UNL d   1      -5.121  -0.037   1.538  0.00  0.00     0.001 A 
ATOM     15  C   UNL d   1      -5.232  -1.181   2.319  0.00  0.00     0.000 A 
ATOM     16  C   UNL d   1      -4.143  -2.039   2.440  0.00  0.00     0.001 A 
ATOM     17  C   UNL d   1      -2.937  -1.752   1.786  0.00  0.00     0.014 A 
ENDBRANCH   6  12
ENDBRANCH   1   5
BRANCH   2  18
ATOM     18  C   UNL d   1      -0.098  -4.612   0.619  0.00  0.00     0.035 A 
ATOM     19  C   UNL d   1       1.200  -4.959   1.016  0.00  0.00     0.043 A 
ATOM     20  C   UNL d   1       1.475  -6.256   1.486  0.00  0.00    -0.006 A 
ATOM     21  C   UNL d   1       2.641  -6.890   1.994  0.00  0.00     0.030 A 
ATOM     22  C   UNL d   1       0.444  -7.190   1.514  0.00  0.00     0.042 A 
ATOM     23  C   UNL d   1       2.289  -8.166   2.366  0.00  0.00     0.089 A 
ATOM     24  N   UNL d   1       0.962  -8.339   2.070  0.00  0.00    -0.365 N 
ATOM     25  H   UNL d   1       0.431  -9.180   2.251  0.00  0.00     0.165 HD
ATOM     26  C   UNL d   1      -0.843  -6.899   1.045  0.00  0.00     0.033 A 
ATOM     27  C   UNL d   1      -1.092  -5.595   0.586  0.00  0.00     0.032 A 
ENDBRANCH   2  18
TORSDOF 3
