REMARK  2 active torsions:
REMARK  status: ('A' for Active; 'I' for Inactive)
REMARK    1  A    between atoms: C_2  and  C_1 
REMARK    2  A    between atoms: C_10  and  C_3 
ROOT
ATOM      1  C   UNL d   1       1.001   1.214  -0.152  0.00  0.00     0.062 C 
ATOM      2  C   UNL d   1       0.330   0.685   0.896  0.00  0.00     0.035 C 
ATOM      3  C   UNL d   1       0.284   1.803  -1.250  0.00  0.00     0.101 C 
ATOM      4  N   UNL d   1      -0.271   2.290  -2.145  0.00  0.00    -0.191 NA
ENDROOT
BRANCH   1   5
ATOM      5  C   UNL d   1       2.444   1.220  -0.195  0.00  0.00     0.025 A 
ATOM      6  S   UNL d   1       3.410  -0.018   0.535  0.00  0.00    -0.101 SA
ATOM      7  C   UNL d   1       4.870   0.646  -0.051  0.00  0.00     0.050 A 
ATOM      8  C   UNL d   1       4.659   1.795  -0.772  0.00  0.00     0.008 A 
ATOM      9  C   UNL d   1       3.275   2.126  -0.847  0.00  0.00     0.021 A 
ENDBRANCH   1   5
BRANCH   2  10
ATOM     10  C   UNL d   1      -1.138   0.643   0.975  0.00  0.00    -0.035 A 
ATOM     11  C   UNL d   1      -1.846  -0.393   0.359  0.00  0.00     0.012 A 
ATOM     12  C   UNL d   1      -3.243  -0.378   0.340  0.00  0.00     0.007 A 
ATOM     13  C   UNL d   1      -3.951   0.668   0.944  0.00  0.00    -0.062 A 
ATOM     14  C   UNL d   1      -3.239   1.693   1.578  0.00  0.00     0.007 A 
ATOM     15  C   UNL d   1      -5.449   0.709   0.857  0.00  0.00     0.048 C 
ATOM     16  C   UNL d   1      -1.840   1.679   1.598  0.00  0.00     0.012 A 
ENDBRANCH   2  10
TORSDOF 2
