REMARK  2 active torsions:
REMARK  status: ('A' for Active; 'I' for Inactive)
REMARK    1  A    between atoms: C_11  and  N_5 
REMARK    2  A    between atoms: C_12  and  C_11 
ROOT
ATOM      1  N   UNL d   1       0.658   0.359   0.028  0.00  0.00    -0.251 N 
ATOM      2  C   UNL d   1       1.226  -0.888   0.128  0.00  0.00     0.174 A 
ATOM      3  C   UNL d   1       1.449   1.485  -0.012  0.00  0.00     0.324 C 
ATOM      4  C   UNL d   1       2.959   1.217  -0.122  0.00  0.00     0.331 C 
ATOM      5  N   UNL d   1       3.367  -0.096   0.111  0.00  0.00    -0.247 N 
ATOM      6  N   UNL d   1       2.487  -1.149   0.185  0.00  0.00    -0.274 N 
ATOM      7  HN  UNL d   1       2.821  -2.108   0.282  1.00  0.00     0.189 HD
ATOM      8  S   UNL d   1       0.019  -2.161   0.165  0.00  0.00    -0.050 SA
ATOM      9  C   UNL d   1      -0.760   0.338   0.018  0.00  0.00     0.062 A 
ATOM     10  C   UNL d   1      -1.278  -0.962   0.073  0.00  0.00     0.035 A 
ATOM     11  O   UNL d   1       3.719   2.135  -0.420  0.00  0.00    -0.260 OA
ATOM     12  O   UNL d   1       1.059   2.646   0.029  0.00  0.00    -0.261 OA
ATOM     13  C   UNL d   1      -1.630   1.420  -0.044  0.00  0.00     0.031 A 
ATOM     14  C   UNL d   1      -2.642  -1.212   0.058  0.00  0.00     0.021 A 
ATOM     15  C   UNL d   1      -3.010   1.182  -0.047  0.00  0.00     0.002 A 
ATOM     16  C   UNL d   1      -3.513  -0.126  -0.000  0.00  0.00     0.002 A 
ENDROOT
BRANCH   5  17
ATOM     17  C   UNL d   1       4.778  -0.452  -0.009  0.00  0.00     0.193 C 
BRANCH  17  18
ATOM     18  C   UNL d   1       5.597  -0.258   1.249  0.00  0.00    -0.017 A 
ATOM     19  C   UNL d   1       5.663  -1.217   2.274  0.00  0.00     0.042 A 
ATOM     20 CL   UNL d   1       4.696  -2.647   2.261  0.00  0.00    -0.084 Cl
ATOM     21  C   UNL d   1       6.553  -1.058   3.343  0.00  0.00     0.024 A 
ATOM     22  C   UNL d   1       7.379   0.063   3.413  0.00  0.00     0.002 A 
ATOM     23  C   UNL d   1       7.289   1.047   2.434  0.00  0.00     0.001 A 
ATOM     24  C   UNL d   1       6.399   0.893   1.367  0.00  0.00     0.010 A 
ENDBRANCH  17  18
ENDBRANCH   5  17
TORSDOF 2
