REMARK  4 active torsions:
REMARK  status: ('A' for Active; 'I' for Inactive)
REMARK       I    between atoms: C_2  and  N_1 
REMARK    1  A    between atoms: C_3  and  C_2 
REMARK    2  A    between atoms: C_6  and  C_4 
REMARK    3  A    between atoms: C_8  and  C_6 
REMARK       I    between atoms: N_10  and  C_8 
REMARK    4  A    between atoms: C_9  and  N_10 
ROOT
ATOM      1  N   UNL d   1      -1.548  -1.255   0.228  0.00  0.00    -0.332 N 
ATOM      2  C   UNL d   1      -2.377  -2.153   0.897  0.00  0.00     0.257 C 
ATOM      3  C   UNL d   1      -0.058  -1.302   0.348  0.00  0.00     0.188 C 
ATOM      4  C   UNL d   1       0.451  -0.083   1.169  0.00  0.00     0.241 C 
ATOM      5  N   UNL d   1      -0.192   1.117   0.959  0.00  0.00    -0.358 N 
ATOM      6  O   UNL d   1      -1.943  -3.097   1.561  0.00  0.00    -0.267 OA
ATOM      7  O   UNL d   1       1.480  -0.081   1.841  0.00  0.00    -0.271 OA
ATOM      8  C   UNL d   1      -2.007   0.027  -0.339  0.00  0.00     0.147 C 
ATOM      9  C   UNL d   1      -1.577   1.190   0.554  0.00  0.00     0.142 C 
ATOM     10  H   UNL d   1       0.194   1.876   1.509  0.00  0.00     0.162 HD
ENDROOT
BRANCH   3  11
ATOM     11  C   UNL d   1       0.647  -2.570   0.838  0.00  0.00     0.138 C 
BRANCH  11  12
ATOM     12  C   UNL d   1       0.666  -3.671  -0.197  0.00  0.00     0.224 C 
ATOM     13  N   UNL d   1      -0.310  -4.625  -0.014  0.00  0.00    -0.326 N 
ATOM     14  H   UNL d   1      -1.093  -4.365   0.593  0.00  0.00     0.169 HD
ATOM     15  O   UNL d   1       1.503  -3.670  -1.096  0.00  0.00    -0.273 OA
BRANCH  13  16
ATOM     16  C   UNL d   1      -0.360  -5.920  -0.583  0.00  0.00     0.058 A 
ATOM     17  C   UNL d   1       0.758  -6.513  -1.181  0.00  0.00     0.055 A 
ATOM     18  C   UNL d   1       0.706  -7.841  -1.614  0.00  0.00     0.036 A 
ATOM     19 CL   UNL d   1       2.100  -8.569  -2.314  0.00  0.00    -0.084 Cl
ATOM     20  C   UNL d   1      -0.457  -8.593  -1.466  0.00  0.00     0.026 A 
ATOM     21  C   UNL d   1      -1.589  -8.006  -0.903  0.00  0.00     0.028 A 
ATOM     22  C   UNL d   1      -1.542  -6.677  -0.467  0.00  0.00     0.060 A 
ATOM     23 CL   UNL d   1      -2.992  -5.994   0.185  0.00  0.00    -0.082 Cl
ENDBRANCH  13  16
ENDBRANCH  11  12
ENDBRANCH   3  11
BRANCH   2  24
ATOM     24  C   UNL d   1      -3.854  -2.042   0.868  0.00  0.00     0.070 A 
ATOM     25  C   UNL d   1      -4.578  -1.827  -0.306  0.00  0.00     0.135 A 
ATOM     26  C   UNL d   1      -5.963  -1.686  -0.278  0.00  0.00     0.085 A 
ATOM     27  F   UNL d   1      -3.957  -1.734  -1.491  0.00  0.00    -0.205 F 
ATOM     28  C   UNL d   1      -6.634  -1.844   0.927  0.00  0.00     0.119 A 
ATOM     29  C   UNL d   1      -5.947  -2.152   2.096  0.00  0.00     0.043 A 
ATOM     30  F   UNL d   1      -7.966  -1.707   0.962  0.00  0.00    -0.206 F 
ATOM     31  C   UNL d   1      -4.554  -2.250   2.069  0.00  0.00     0.023 A 
ENDBRANCH   2  24
TORSDOF 4
