REMARK  5 active torsions:
REMARK  status: ('A' for Active; 'I' for Inactive)
REMARK    1  A    between atoms: C_9  and  C_3 
REMARK    2  A    between atoms: C_13  and  C_4 
REMARK    3  A    between atoms: C_11  and  O_12 
REMARK    4  A    between atoms: O_12  and  C_13 
REMARK    5  A    between atoms: O_24  and  C_19 
ROOT
ATOM      1  N   UNL d   1       1.335   0.116   0.009  0.00  0.00    -0.321 N 
ATOM      2  HN  UNL d   1       2.334   0.248   0.170  1.00  0.00     0.169 HD
ATOM      3  C   UNL d   1       0.656  -1.007  -0.093  0.00  0.00     0.182 A 
ATOM      4  C   UNL d   1       0.355   1.065  -0.156  0.00  0.00     0.128 A 
ATOM      5  N   UNL d   1      -0.881   0.573  -0.323  0.00  0.00    -0.245 N 
ATOM      6  HN  UNL d   1      -1.756   1.084  -0.445  1.00  0.00     0.196 HD
ATOM      7  O   UNL d   1      -0.682  -0.807  -0.291  0.00  0.00    -0.217 OA
ENDROOT
BRANCH   4   8
ATOM      8  C   UNL d   1       0.617   2.529  -0.061  0.00  0.00     0.254 C 
BRANCH   8   9
ATOM      9  O   UNL d   1       0.856   3.115  -1.349  0.00  0.00    -0.342 OA
BRANCH   9  10
ATOM     10  C   UNL d   1       1.038   4.474  -1.372  0.00  0.00     0.091 A 
ATOM     11  C   UNL d   1       1.901   5.005  -2.346  0.00  0.00     0.069 A 
ATOM     12  C   UNL d   1       2.092   6.386  -2.459  0.00  0.00     0.050 A 
ATOM     13 CL   UNL d   1       2.768   3.978  -3.433  0.00  0.00    -0.081 Cl
ATOM     14  C   UNL d   1       1.411   7.244  -1.601  0.00  0.00     0.035 A 
ATOM     15  C   UNL d   1       0.541   6.736  -0.641  0.00  0.00     0.026 A 
ATOM     16 CL   UNL d   1       1.628   8.945  -1.735  0.00  0.00    -0.084 Cl
ATOM     17  C   UNL d   1       0.350   5.356  -0.530  0.00  0.00     0.040 A 
ENDBRANCH   9  10
ENDBRANCH   8   9
ENDBRANCH   4   8
BRANCH   3  18
ATOM     18  C   UNL d   1       1.118  -2.386  -0.011  0.00  0.00     0.017 A 
ATOM     19  C   UNL d   1       2.480  -2.644   0.206  0.00  0.00     0.018 A 
ATOM     20  C   UNL d   1       2.964  -3.955   0.274  0.00  0.00     0.037 A 
ATOM     21  C   UNL d   1       2.091  -5.031   0.121  0.00  0.00     0.068 A 
ATOM     22  C   UNL d   1       0.730  -4.787  -0.061  0.00  0.00     0.037 A 
ATOM     23  C   UNL d   1       0.245  -3.476  -0.137  0.00  0.00     0.018 A 
BRANCH  21  24
ATOM     24  O   UNL d   1       2.449  -6.349   0.168  0.00  0.00    -0.356 OA
ATOM     25  C   UNL d   1       3.788  -6.632  -0.226  0.00  0.00     0.210 C 
ENDBRANCH  21  24
ENDBRANCH   3  18
TORSDOF 5
