REMARK  2 active torsions:
REMARK  status: ('A' for Active; 'I' for Inactive)
REMARK    1  A    between atoms: C_6  and  N_2 
REMARK    2  A    between atoms: C_8  and  C_5 
ROOT
ATOM      1  C   UNL d   1      -0.450  -1.124  -0.024  0.00  0.00     0.183 A 
ATOM      2  N   UNL d   1       0.924  -0.715   0.017  0.00  0.00    -0.297 N 
ATOM      3  N   UNL d   1      -1.183   0.079  -0.029  0.00  0.00    -0.331 N 
ATOM      4  C   UNL d   1       0.927   0.676   0.069  0.00  0.00     0.130 A 
ATOM      5  C   UNL d   1      -0.328   1.149   0.027  0.00  0.00     0.060 A 
ATOM      6  S   UNL d   1      -1.207  -2.598   0.019  0.00  0.00    -0.040 SA
ATOM      7  H   UNL d   1      -2.191   0.120  -0.064  0.00  0.00     0.168 HD
ENDROOT
BRANCH   2   8
ATOM      8  C   UNL d   1       2.088  -1.533  -0.003  0.00  0.00     0.041 A 
ATOM      9  C   UNL d   1       2.120  -2.767  -0.658  0.00  0.00     0.030 A 
ATOM     10  C   UNL d   1       3.289  -3.536  -0.697  0.00  0.00     0.009 A 
ATOM     11  C   UNL d   1       4.458  -3.089  -0.075  0.00  0.00    -0.062 A 
ATOM     12  C   UNL d   1       4.442  -1.854   0.575  0.00  0.00     0.009 A 
ATOM     13  C   UNL d   1       5.702  -3.924  -0.128  0.00  0.00     0.048 C 
ATOM     14  C   UNL d   1       3.273  -1.083   0.603  0.00  0.00     0.030 A 
ENDBRANCH   2   8
BRANCH   5  15
ATOM     15  C   UNL d   1      -0.779   2.540   0.029  0.00  0.00    -0.008 A 
ATOM     16  C   UNL d   1      -0.008   3.542  -0.583  0.00  0.00     0.015 A 
ATOM     17  C   UNL d   1      -0.434   4.873  -0.587  0.00  0.00     0.024 A 
ATOM     18  C   UNL d   1      -1.640   5.214   0.020  0.00  0.00     0.034 A 
ATOM     19  C   UNL d   1      -2.423   4.235   0.626  0.00  0.00     0.024 A 
ATOM     20 CL   UNL d   1      -2.164   6.852   0.021  0.00  0.00    -0.084 Cl
ATOM     21  C   UNL d   1      -1.994   2.903   0.628  0.00  0.00     0.015 A 
ENDBRANCH   5  15
TORSDOF 2
