REMARK  3 active torsions:
REMARK  status: ('A' for Active; 'I' for Inactive)
REMARK    1  A    between atoms: N_11  and  C_3 
REMARK    2  A    between atoms: C_15  and  N_6 
REMARK    3  A    between atoms: C_17  and  C_15 
ROOT
ATOM      1  C   UNL d   1      -0.231  -0.798  -0.100  0.00  0.00     0.160 A 
ATOM      2  C   UNL d   1      -0.547   0.524  -0.138  0.00  0.00     0.165 A 
ATOM      3  C   UNL d   1      -2.360  -0.758  -0.040  0.00  0.00     0.708 A 
ATOM      4  N   UNL d   1      -1.327  -1.581  -0.071  0.00  0.00    -0.172 N 
ATOM      5  HN  UNL d   1      -1.353  -2.600  -0.073  1.00  0.00     0.186 HD
ATOM      6  N   UNL d   1      -1.934   0.568  -0.121  0.00  0.00    -0.168 N 
ATOM      7  N   UNL d   1       1.060  -1.258  -0.065  0.00  0.00    -0.287 N 
ATOM      8  N   UNL d   1       1.769   1.018  -0.087  0.00  0.00    -0.269 N 
ATOM      9  C   UNL d   1       2.111  -0.346  -0.049  0.00  0.00     0.332 A 
ATOM     10  C   UNL d   1       0.465   1.535  -0.150  0.00  0.00     0.282 A 
ATOM     11  O   UNL d   1       3.282  -0.729   0.003  0.00  0.00    -0.246 OA
ATOM     12  O   UNL d   1       0.223   2.736  -0.204  0.00  0.00    -0.265 OA
ATOM     13  C   UNL d   1       1.362  -2.676  -0.005  0.00  0.00     0.163 C 
ATOM     14  C   UNL d   1       2.848   1.987  -0.045  0.00  0.00     0.164 C 
ENDROOT
BRANCH   6  15
ATOM     15  C   UNL d   1      -2.740   1.786  -0.007  0.00  0.00     0.188 C 
BRANCH  15  16
ATOM     16  C   UNL d   1      -3.561   2.191  -1.220  0.00  0.00    -0.018 A 
ATOM     17  C   UNL d   1      -4.350   3.360  -1.159  0.00  0.00     0.043 A 
ATOM     18  C   UNL d   1      -5.238   3.696  -2.185  0.00  0.00     0.048 A 
ATOM     19 CL   UNL d   1      -4.282   4.432   0.200  0.00  0.00    -0.084 Cl
ATOM     20  C   UNL d   1      -5.353   2.866  -3.292  0.00  0.00     0.035 A 
ATOM     21  C   UNL d   1      -4.557   1.731  -3.402  0.00  0.00     0.024 A 
ATOM     22 CL   UNL d   1      -6.498   3.232  -4.523  0.00  0.00    -0.084 Cl
ATOM     23  C   UNL d   1      -3.654   1.406  -2.384  0.00  0.00     0.012 A 
ENDBRANCH  15  16
ENDBRANCH   6  15
BRANCH   3  24
ATOM     24  N   UNL d   1      -3.673  -1.253   0.031  0.00  0.00    -0.090 N 
ATOM     25  N   UNL d   1      -4.712  -0.383  -0.003  0.00  0.00    -0.284 N 
ATOM     26  C   UNL d   1      -5.806  -1.145  -0.097  0.00  0.00     0.025 A 
ATOM     27  HN  UNL d   1      -4.668   0.636   0.034  1.00  0.00     0.188 HD
ATOM     28  C   UNL d   1      -7.154  -0.549  -0.257  0.00  0.00     0.070 C 
ATOM     29  C   UNL d   1      -5.493  -2.511  -0.024  0.00  0.00     0.053 A 
ATOM     30  C   UNL d   1      -4.121  -2.568   0.090  0.00  0.00     0.050 A 
ATOM     31  C   UNL d   1      -3.273  -3.783   0.215  0.00  0.00     0.071 C 
ENDBRANCH   3  24
TORSDOF 3
