REMARK  3 active torsions:
REMARK  status: ('A' for Active; 'I' for Inactive)
REMARK    1  A    between atoms: C_9  and  C_2 
REMARK    2  A    between atoms: C_3  and  C_8 
REMARK    3  A    between atoms: C_4  and  C_7 
ROOT
ATOM      1  C   UNL d   1       3.591  -3.580  -0.968  0.00  0.00     0.049 A 
ATOM      2  C   UNL d   1       4.282  -2.672   1.191  0.00  0.00     0.049 A 
ATOM      3  C   UNL d   1       2.352  -1.721   0.030  0.00  0.00    -0.006 A 
ATOM      4  C   UNL d   1       4.458  -3.580   0.136  0.00  0.00     0.032 A 
ATOM      5  C   UNL d   1       2.540  -2.647  -1.006  0.00  0.00     0.030 A 
ATOM      6  C   UNL d   1       3.229  -1.743   1.123  0.00  0.00     0.030 A 
ENDROOT
BRANCH   3   7
ATOM      7  C   UNL d   1       1.235  -0.788  -0.031  0.00  0.00     0.063 A 
ATOM      8  N   UNL d   1       0.042  -1.141  -0.653  0.00  0.00    -0.292 N 
ATOM      9  N   UNL d   1      -0.855  -0.172  -0.590  0.00  0.00    -0.061 NA
ATOM     10  HN  UNL d   1      -0.121  -2.041  -1.105  1.00  0.00     0.183 HD
ATOM     11  S   UNL d   1      -0.287   1.190   0.195  0.00  0.00    -0.010 SA
ATOM     12  C   UNL d   1       1.253   0.493   0.495  0.00  0.00     0.096 A 
ENDBRANCH   3   7
BRANCH   1  13
ATOM     13  C   UNL d   1       3.762  -4.567  -2.099  0.00  0.00     0.417 C 
ATOM     14  F   UNL d   1       4.817  -5.411  -1.925  0.00  0.00    -0.166 F 
ATOM     15  F   UNL d   1       2.670  -5.363  -2.264  0.00  0.00    -0.166 F 
ATOM     16  F   UNL d   1       3.967  -3.955  -3.297  0.00  0.00    -0.166 F 
ENDBRANCH   1  13
BRANCH   2  17
ATOM     17  C   UNL d   1       5.187  -2.689   2.401  0.00  0.00     0.417 C 
ATOM     18  F   UNL d   1       6.136  -3.663   2.359  0.00  0.00    -0.166 F 
ATOM     19  F   UNL d   1       5.858  -1.515   2.559  0.00  0.00    -0.166 F 
ATOM     20  F   UNL d   1       4.497  -2.885   3.558  0.00  0.00    -0.166 F 
ENDBRANCH   2  17
TORSDOF 3
