REMARK  5 active torsions:
REMARK  status: ('A' for Active; 'I' for Inactive)
REMARK    1  A    between atoms: C_5  and  C_1 
REMARK    2  A    between atoms: S_16  and  C_8 
REMARK    3  A    between atoms: C_11  and  C_13 
REMARK    4  A    between atoms: C_23  and  S_16 
REMARK    5  A    between atoms: C_20  and  C_23 
ROOT
ATOM      1  C   UNL d   1      -0.745  -2.373   0.014  0.00  0.00     0.039 A 
ATOM      2  N   UNL d   1      -0.763  -4.588   1.016  0.00  0.00    -0.355 N 
ATOM      3  HN  UNL d   1      -0.480  -5.210   1.774  1.00  0.00     0.166 HD
ATOM      4  C   UNL d   1      -0.386  -3.277   1.026  0.00  0.00     0.020 A 
ATOM      5  C   UNL d   1      -1.520  -5.058  -0.011  0.00  0.00     0.117 A 
ATOM      6  C   UNL d   1      -1.532  -2.880  -1.032  0.00  0.00     0.020 A 
ATOM      7  C   UNL d   1      -1.921  -4.222  -1.048  0.00  0.00     0.035 A 
ATOM      8  C   UNL d   1       0.454  -2.889   2.211  0.00  0.00     0.069 C 
ENDROOT
BRANCH   1   9
ATOM      9  C   UNL d   1      -0.310  -0.977   0.027  0.00  0.00     0.177 A 
ATOM     10  O   UNL d   1      -0.710  -0.160  -1.006  0.00  0.00    -0.267 OA
ATOM     11  C   UNL d   1      -0.082   1.022  -0.694  0.00  0.00     0.204 A 
ATOM     12  N   UNL d   1       0.608   0.941   0.424  0.00  0.00    -0.272 N 
ATOM     13  N   UNL d   1       0.454  -0.342   0.891  0.00  0.00    -0.277 N 
ATOM     14  HN  UNL d   1       1.152   1.686   0.858  1.00  0.00     0.189 HD
ATOM     15  HN  UNL d   1       0.855  -0.729   1.746  1.00  0.00     0.189 HD
BRANCH  11  16
ATOM     16  S   UNL d   1      -0.118   2.453  -1.671  0.00  0.00    -0.081 SA
BRANCH  16  17
ATOM     17  C   UNL d   1      -1.810   2.411  -2.304  0.00  0.00     0.109 C 
BRANCH  17  18
ATOM     18  C   UNL d   1      -2.076   3.693  -3.038  0.00  0.00    -0.026 C 
ATOM     19  C   UNL d   1      -2.306   3.788  -4.354  0.00  0.00     0.007 C 
ENDBRANCH  17  18
ENDBRANCH  16  17
ENDBRANCH  11  16
ENDBRANCH   1   9
BRANCH   5  20
ATOM     20  C   UNL d   1      -1.929  -6.526  -0.031  0.00  0.00     0.432 C 
ATOM     21  F   UNL d   1      -1.481  -7.253   1.032  0.00  0.00    -0.165 F 
ATOM     22  F   UNL d   1      -3.285  -6.688  -0.046  0.00  0.00    -0.165 F 
ATOM     23  F   UNL d   1      -1.474  -7.177  -1.143  0.00  0.00    -0.165 F 
ENDBRANCH   5  20
TORSDOF 5
