REMARK  3 active torsions:
REMARK  status: ('A' for Active; 'I' for Inactive)
REMARK    1  A    between atoms: N_2  and  C_1 
REMARK    2  A    between atoms: C_11  and  C_3 
REMARK    3  A    between atoms: C_7  and  C_4 
ROOT
ATOM      1  C   UNL d   1       1.571  -0.624  -0.089  0.00  0.00     0.064 A 
ATOM      2  C   UNL d   1       1.439   0.814  -0.099  0.00  0.00     0.024 A 
ATOM      3  C   UNL d   1       0.112   1.209  -0.230  0.00  0.00     0.102 A 
ATOM      4  S   UNL d   1      -0.940  -0.153  -0.286  0.00  0.00    -0.094 SA
ATOM      5  C   UNL d   1       0.356  -1.258  -0.227  0.00  0.00     0.081 A 
ENDROOT
BRANCH   1   6
ATOM      6  N   UNL d   1       2.800  -1.315   0.009  0.00  0.00    -0.250 N 
ATOM      7  C   UNL d   1       3.446  -1.218   1.256  0.00  0.00     0.240 C 
ATOM      8  O   UNL d   1       2.941  -0.682   2.250  0.00  0.00    -0.272 OA
ATOM      9  C   UNL d   1       4.852  -1.764   1.371  0.00  0.00     0.178 C 
ATOM     10  S   UNL d   1       5.127  -3.216   0.349  0.00  0.00    -0.150 SA
ATOM     11  C   UNL d   1       4.668  -2.439  -1.201  0.00  0.00     0.178 C 
ATOM     12  C   UNL d   1       3.248  -1.921  -1.178  0.00  0.00     0.240 C 
ATOM     13  O   UNL d   1       2.595  -1.941  -2.228  0.00  0.00    -0.272 OA
ENDBRANCH   1   6
BRANCH   2  14
ATOM     14  C   UNL d   1       2.549   1.765  -0.087  0.00  0.00    -0.022 A 
ATOM     15  C   UNL d   1       3.526   1.699  -1.092  0.00  0.00     0.012 A 
ATOM     16  C   UNL d   1       4.625   2.559  -1.069  0.00  0.00     0.001 A 
ATOM     17  C   UNL d   1       4.743   3.506  -0.054  0.00  0.00     0.000 A 
ATOM     18  C   UNL d   1       3.768   3.588   0.940  0.00  0.00     0.001 A 
ATOM     19  C   UNL d   1       2.679   2.713   0.933  0.00  0.00     0.012 A 
ENDBRANCH   2  14
BRANCH   3  20
ATOM     20  C   UNL d   1      -0.487   2.578  -0.313  0.00  0.00     0.424 C 
ATOM     21  F   UNL d   1       0.352   3.495  -0.859  0.00  0.00    -0.166 F 
ATOM     22  F   UNL d   1      -1.618   2.613  -1.068  0.00  0.00    -0.166 F 
ATOM     23  F   UNL d   1      -0.828   3.045   0.917  0.00  0.00    -0.166 F 
ENDBRANCH   3  20
TORSDOF 3
