REMARK  6 active torsions:
REMARK  status: ('A' for Active; 'I' for Inactive)
REMARK    1  A    between atoms: N_2  and  C_1 
REMARK    2  A    between atoms: N_3  and  C_1 
REMARK    3  A    between atoms: C_4  and  N_3 
REMARK    4  A    between atoms: N_7  and  C_11 
REMARK    5  A    between atoms: C_9  and  C_8 
REMARK    6  A    between atoms: C_11  and  C_9 
ROOT
ATOM      1  N   UNL d   1       0.131  -0.635  -1.040  0.00  0.00    -0.353 N 
ATOM      2  C   UNL d   1      -0.815   0.035  -1.983  0.00  0.00     0.088 C 
ATOM      3  C   UNL d   1       0.675  -1.875  -1.589  0.00  0.00     0.125 C 
ATOM      4  C   UNL d   1      -2.026  -0.900  -2.145  0.00  0.00     0.025 C 
ATOM      5  C   UNL d   1      -0.434  -2.889  -1.844  0.00  0.00     0.020 C 
ATOM      6  C   UNL d   1      -1.622  -2.304  -2.608  0.00  0.00     0.004 C 
ENDROOT
BRANCH   1   7
ATOM      7  C   UNL d   1       0.952   0.059  -0.135  0.00  0.00     0.174 C 
ATOM      8  S   UNL d   1       2.084   1.224  -0.560  0.00  0.00    -0.041 SA
BRANCH   7   9
ATOM      9  N   UNL d   1       0.808  -0.442   1.152  0.00  0.00    -0.333 N 
ATOM     10  H   UNL d   1       0.670  -1.440   1.220  0.00  0.00     0.168 HD
BRANCH   9  11
ATOM     11  C   UNL d   1       0.742   0.286   2.367  0.00  0.00     0.042 A 
ATOM     12  C   UNL d   1       1.140  -0.306   3.587  0.00  0.00    -0.013 A 
ATOM     13  C   UNL d   1       0.851   0.366   4.791  0.00  0.00     0.042 A 
ATOM     14  C   UNL d   1       1.964  -1.569   3.625  0.00  0.00     0.052 C 
ATOM     15 CL   UNL d   1       1.274  -0.300   6.330  0.00  0.00    -0.084 Cl
ATOM     16  C   UNL d   1       0.209   1.612   4.793  0.00  0.00     0.024 A 
ATOM     17  C   UNL d   1      -0.134   2.205   3.584  0.00  0.00     0.004 A 
ATOM     18  C   UNL d   1       0.135   1.556   2.385  0.00  0.00     0.030 A 
ENDBRANCH   9  11
ENDBRANCH   7   9
ENDBRANCH   1   7
BRANCH   2  19
ATOM     19  C   UNL d   1      -1.237   1.456  -1.556  0.00  0.00     0.055 C 
BRANCH  19  20
ATOM     20  C   UNL d   1      -2.163   2.202  -2.529  0.00  0.00     0.274 C 
BRANCH  20  21
ATOM     21  N   UNL d   1      -2.351   3.618  -2.132  0.00  0.00     0.088 N 
ATOM     22  C   UNL d   1      -1.106   4.403  -2.243  0.00  0.00     0.272 C 
ATOM     23  C   UNL d   1      -1.302   5.839  -1.759  0.00  0.00     0.030 C 
ATOM     24  C   UNL d   1      -2.419   6.529  -2.525  0.00  0.00     0.003 C 
ATOM     25  C   UNL d   1      -3.685   5.682  -2.480  0.00  0.00     0.030 C 
ATOM     26  C   UNL d   1      -3.416   4.245  -2.935  0.00  0.00     0.272 C 
ENDBRANCH  20  21
ENDBRANCH  19  20
ENDBRANCH   2  19
TORSDOF 6
