REMARK  8 active torsions:
REMARK  status: ('A' for Active; 'I' for Inactive)
REMARK    1  A    between atoms: C_3  and  S_1 
REMARK    2  A    between atoms: N_4  and  S_1 
REMARK    3  A    between atoms: S_2  and  C_6 
REMARK    4  A    between atoms: N_12  and  S_2 
REMARK    5  A    between atoms: C_17  and  N_4 
REMARK    6  A    between atoms: O_22  and  C_9 
REMARK    7  A    between atoms: O_23  and  C_16 
REMARK    8  A    between atoms: C_18  and  C_17 
ROOT
ATOM      1  N   UNL d   1       0.316  -1.592   0.492  0.00  0.00    -0.311 N 
ATOM      2  H   UNL d   1      -0.155  -1.569   1.397  0.00  0.00     0.172 HD
ENDROOT
BRANCH   1   3
ATOM      3  S   UNL d   1       0.954  -0.095   0.065  0.00  0.00     0.261 S 
ATOM      4  O   UNL d   1       0.281   0.849   0.931  0.00  0.00    -0.200 OA
ATOM      5  O   UNL d   1       2.392  -0.249   0.057  0.00  0.00    -0.200 OA
BRANCH   3   6
ATOM      6  C   UNL d   1       0.400   0.195  -1.589  0.00  0.00     0.115 A 
ATOM      7  C   UNL d   1      -0.342  -0.828  -2.213  0.00  0.00     0.065 A 
ATOM      8  C   UNL d   1      -0.862  -0.684  -3.494  0.00  0.00     0.069 A 
ATOM      9  C   UNL d   1      -0.662   0.518  -4.158  0.00  0.00     0.039 A 
ATOM     10  C   UNL d   1       0.051   1.553  -3.541  0.00  0.00     0.041 A 
ATOM     11  C   UNL d   1       0.602   1.406  -2.256  0.00  0.00     0.091 A 
BRANCH   8  12
ATOM     12  O   UNL d   1      -1.586  -1.631  -4.163  0.00  0.00    -0.356 OA
ATOM     13  C   UNL d   1      -1.751  -2.892  -3.517  0.00  0.00     0.210 C 
ENDBRANCH   8  12
BRANCH  11  14
ATOM     14  O   UNL d   1       1.168   2.560  -1.795  0.00  0.00    -0.354 OA
ATOM     15  C   UNL d   1       2.420   2.477  -1.127  0.00  0.00     0.210 C 
ENDBRANCH  11  14
ENDBRANCH   3   6
ENDBRANCH   1   3
BRANCH   1  16
ATOM     16  C   UNL d   1       1.085  -2.792   0.153  0.00  0.00     0.170 C 
BRANCH  16  17
ATOM     17  C   UNL d   1       0.337  -4.043   0.558  0.00  0.00    -0.040 A 
ATOM     18  C   UNL d   1      -1.020  -4.213   0.238  0.00  0.00     0.010 A 
ATOM     19  C   UNL d   1      -1.711  -5.355   0.643  0.00  0.00     0.025 A 
ATOM     20  C   UNL d   1      -1.037  -6.332   1.377  0.00  0.00     0.074 A 
ATOM     21  C   UNL d   1       0.321  -6.201   1.669  0.00  0.00     0.025 A 
ATOM     22  C   UNL d   1       1.005  -5.059   1.257  0.00  0.00     0.010 A 
BRANCH  20  23
ATOM     23  S   UNL d   1      -1.921  -7.745   1.973  0.00  0.00     0.239 S 
ATOM     24  O   UNL d   1      -3.099  -7.942   1.155  0.00  0.00    -0.206 OA
ATOM     25  O   UNL d   1      -0.993  -8.806   2.269  0.00  0.00    -0.206 OA
BRANCH  23  26
ATOM     26  N   UNL d   1      -2.469  -7.168   3.451  0.00  0.00    -0.225 NA
ATOM     27  H   UNL d   1      -3.489  -7.142   3.469  0.00  0.00     0.136 HD
ATOM     28  H   UNL d   1      -2.049  -7.699   4.214  0.00  0.00     0.136 HD
ENDBRANCH  23  26
ENDBRANCH  20  23
ENDBRANCH  16  17
ENDBRANCH   1  16
TORSDOF 8
