REMARK  4 active torsions:
REMARK  status: ('A' for Active; 'I' for Inactive)
REMARK    1  A    between atoms: N_3  and  S_1 
REMARK    2  A    between atoms: C_9  and  S_1 
REMARK    3  A    between atoms: C_2  and  N_3 
REMARK    4  A    between atoms: C_14  and  C_8 
ROOT
ATOM      1  C   UNL d   1      -1.733   1.018   0.774  0.00  0.00     0.080 A 
ATOM      2  N   UNL d   1      -6.395   3.222   2.354  0.00  0.00    -0.191 NA
ATOM      3  C   UNL d   1      -5.395   2.740   2.025  0.00  0.00     0.099 C 
ATOM      4  C   UNL d   1      -2.746   1.262  -0.166  0.00  0.00     0.027 A 
ATOM      5  C   UNL d   1      -1.926   1.327   2.124  0.00  0.00     0.027 A 
ATOM      6  C   UNL d   1      -4.153   2.151   1.603  0.00  0.00     0.044 A 
ATOM      7  C   UNL d   1      -3.141   1.891   2.534  0.00  0.00     0.024 A 
ATOM      8  C   UNL d   1      -3.952   1.835   0.252  0.00  0.00     0.024 A 
ENDROOT
BRANCH   1   9
ATOM      9  S   UNL d   1      -0.172   0.326   0.211  0.00  0.00     0.264 S 
ATOM     10  O   UNL d   1       0.723   0.300   1.348  0.00  0.00    -0.200 OA
ATOM     11  O   UNL d   1      -0.525  -0.895  -0.483  0.00  0.00    -0.200 OA
BRANCH   9  12
ATOM     12  N   UNL d   1       0.301   1.444  -0.889  0.00  0.00    -0.264 N 
ATOM     13  H   UNL d   1      -0.146   1.340  -1.785  0.00  0.00     0.180 HD
BRANCH  12  14
ATOM     14  C   UNL d   1       0.731   2.697  -0.501  0.00  0.00     0.133 A 
ATOM     15  C   UNL d   1       0.007   3.847  -0.688  0.00  0.00     0.082 A 
ATOM     16  C   UNL d   1       0.745   4.871  -0.031  0.00  0.00     0.062 A 
ATOM     17  N   UNL d   1       1.907   4.379   0.433  0.00  0.00    -0.296 N 
ATOM     18  N   UNL d   1       1.887   3.071   0.125  0.00  0.00    -0.280 N 
ATOM     19  HN  UNL d   1       2.646   4.890   0.915  1.00  0.00     0.187 HD
ATOM     20  C   UNL d   1       3.084   2.285   0.312  0.00  0.00     0.179 C 
BRANCH  16  21
ATOM     21  C   UNL d   1       0.356   6.271   0.182  0.00  0.00    -0.008 A 
ATOM     22  C   UNL d   1      -0.940   6.719  -0.120  0.00  0.00     0.014 A 
ATOM     23  C   UNL d   1      -1.313   8.043   0.126  0.00  0.00     0.001 A 
ATOM     24  C   UNL d   1      -0.397   8.937   0.673  0.00  0.00     0.000 A 
ATOM     25  C   UNL d   1       0.895   8.511   0.971  0.00  0.00     0.001 A 
ATOM     26  C   UNL d   1       1.268   7.187   0.727  0.00  0.00     0.014 A 
ENDBRANCH  16  21
ENDBRANCH  12  14
ENDBRANCH   9  12
ENDBRANCH   1   9
TORSDOF 4
