REMARK  2 active torsions:
REMARK  status: ('A' for Active; 'I' for Inactive)
REMARK       I    between atoms: C_4  and  N_1 
REMARK    1  A    between atoms: C_5  and  C_4 
REMARK    2  A    between atoms: C_16  and  C_9 
ROOT
ATOM      1  N   UNL d   1       2.672  -0.171   1.417  0.00  0.00    -0.322 N 
ATOM      2  N   UNL d   1       4.869  -1.205   1.427  0.00  0.00    -0.322 N 
ATOM      3  C   UNL d   1       3.977  -0.293   2.148  0.00  0.00     0.227 C 
ATOM      4  C   UNL d   1       1.630   0.764   1.651  0.00  0.00     0.260 C 
ATOM      5  C   UNL d   1       4.865  -2.485   1.976  0.00  0.00     0.256 C 
ATOM      6  C   UNL d   1       3.950  -1.031   3.483  0.00  0.00    -0.000 C 
ATOM      7  C   UNL d   1       4.308  -2.369   3.310  0.00  0.00     0.042 C 
ATOM      8  O   UNL d   1       0.479   0.478   1.317  0.00  0.00    -0.267 OA
ATOM      9  O   UNL d   1       5.252  -3.526   1.468  0.00  0.00    -0.267 OA
ATOM     10  C   UNL d   1       4.998  -1.087   0.005  0.00  0.00     0.130 C 
ATOM     11  C   UNL d   1       2.584  -0.615   0.008  0.00  0.00     0.130 C 
ATOM     12  C   UNL d   1       3.670  -1.514  -0.560  0.00  0.00     0.040 C 
ATOM     13  C   UNL d   1       3.937  -0.587   4.793  0.00  0.00     0.012 C 
ATOM     14  C   UNL d   1       4.428  -3.316   4.316  0.00  0.00     0.018 C 
ATOM     15  C   UNL d   1       4.091  -1.504   5.859  0.00  0.00     0.001 C 
ATOM     16  C   UNL d   1       4.292  -2.870   5.621  0.00  0.00     0.001 C 
ENDROOT
BRANCH   4  17
ATOM     17  C   UNL d   1       1.920   2.157   1.956  0.00  0.00     0.092 C 
ATOM     18  C   UNL d   1       2.140   2.827   3.194  0.00  0.00     0.083 C 
ATOM     19  N   UNL d   1       2.333   4.141   2.993  0.00  0.00    -0.259 N 
ATOM     20  O   UNL d   1       1.958   4.386   1.696  0.00  0.00    -0.241 OA
ATOM     21  HN  UNL d   1       2.686   4.820   3.667  1.00  0.00     0.195 HD
ATOM     22  C   UNL d   1       1.613   3.215   1.110  0.00  0.00     0.090 C 
ATOM     23  C   UNL d   1       0.909   3.362  -0.189  0.00  0.00     0.080 C 
BRANCH  18  24
ATOM     24  C   UNL d   1       2.049   2.318   4.556  0.00  0.00    -0.006 A 
ATOM     25  C   UNL d   1       1.220   1.229   4.860  0.00  0.00     0.014 A 
ATOM     26  C   UNL d   1       1.131   0.755   6.170  0.00  0.00     0.001 A 
ATOM     27  C   UNL d   1       1.847   1.381   7.188  0.00  0.00     0.000 A 
ATOM     28  C   UNL d   1       2.641   2.490   6.905  0.00  0.00     0.001 A 
ATOM     29  C   UNL d   1       2.742   2.958   5.595  0.00  0.00     0.014 A 
ENDBRANCH  18  24
ENDBRANCH   4  17
TORSDOF 2
