REMARK  5 active torsions:
REMARK  status: ('A' for Active; 'I' for Inactive)
REMARK    1  A    between atoms: C_30  and  N_1 
REMARK    2  A    between atoms: S_18  and  C_7 
REMARK    3  A    between atoms: C_8  and  N_15 
REMARK       I    between atoms: N_15  and  C_19 
REMARK    4  A    between atoms: C_29  and  S_18 
REMARK    5  A    between atoms: C_19  and  C_29 
ROOT
ATOM      1  N   UNL d   1      -5.577  -1.570   1.389  0.00  0.00    -0.305 N 
ATOM      2  C   UNL d   1      -4.934  -2.292   0.406  0.00  0.00     0.233 C 
ATOM      3  O   UNL d   1      -5.404  -3.274  -0.166  0.00  0.00    -0.272 OA
ATOM      4  H   UNL d   1      -5.133  -0.759   1.797  0.00  0.00     0.171 HD
ENDROOT
BRANCH   2   5
ATOM      5  C   UNL d   1      -3.578  -1.764  -0.035  0.00  0.00     0.185 C 
BRANCH   5   6
ATOM      6  S   UNL d   1      -2.736  -0.718   1.195  0.00  0.00    -0.083 SA
BRANCH   6   7
ATOM      7  C   UNL d   1      -1.346  -0.250   0.268  0.00  0.00     0.163 A 
ATOM      8  N   UNL d   1      -0.280   0.473   0.752  0.00  0.00    -0.311 N 
ATOM      9  C   UNL d   1       0.506   0.745  -0.352  0.00  0.00     0.141 A 
ATOM     10  N   UNL d   1      -0.030   0.136  -1.397  0.00  0.00    -0.282 N 
ATOM     11  C   UNL d   1       1.667   1.590  -0.505  0.00  0.00     0.050 A 
ATOM     12  N   UNL d   1      -1.181  -0.486  -1.009  0.00  0.00    -0.278 N 
ATOM     13  HN  UNL d   1       0.355   0.131  -2.342  1.00  0.00     0.188 HD
ATOM     14  HN  UNL d   1      -1.801  -1.035  -1.605  1.00  0.00     0.189 HD
ATOM     15  S   UNL d   1       2.708   2.101   0.753  0.00  0.00    -0.098 SA
ATOM     16  C   UNL d   1       2.108   2.092  -1.720  0.00  0.00     0.023 A 
ATOM     17  C   UNL d   1       3.688   3.015  -0.303  0.00  0.00     0.050 A 
ATOM     18  C   UNL d   1       3.262   2.920  -1.607  0.00  0.00     0.009 A 
BRANCH   8  19
ATOM     19  C   UNL d   1      -0.078   0.859   2.132  0.00  0.00     0.128 C 
ATOM     20  C   UNL d   1      -0.616   2.244   2.446  0.00  0.00     0.027 C 
ENDBRANCH   8  19
ENDBRANCH   6   7
ENDBRANCH   5   6
ENDBRANCH   2   5
BRANCH   1  21
ATOM     21  C   UNL d   1      -6.789  -1.965   1.889  0.00  0.00     0.168 A 
ATOM     22  S   UNL d   1      -7.428  -0.976   3.124  0.00  0.00    -0.032 SA
ATOM     23  C   UNL d   1      -8.756  -2.074   3.208  0.00  0.00     0.109 A 
ATOM     24  C   UNL d   1      -9.854  -1.982   4.136  0.00  0.00     0.040 A 
ATOM     25  N   UNL d   1      -8.666  -3.072   2.351  0.00  0.00    -0.291 N 
ATOM     26  S   UNL d   1     -10.343  -0.523   4.895  0.00  0.00    -0.099 SA
ATOM     27  C   UNL d   1     -10.670  -3.032   4.522  0.00  0.00     0.022 A 
ATOM     28  C   UNL d   1     -11.626  -1.294   5.722  0.00  0.00     0.050 A 
ATOM     29  C   UNL d   1     -11.685  -2.640   5.442  0.00  0.00     0.008 A 
ATOM     30  N   UNL d   1      -7.527  -3.000   1.575  0.00  0.00    -0.279 N 
ATOM     31  HN  UNL d   1      -9.360  -3.815   2.271  1.00  0.00     0.187 HD
ATOM     32  HN  UNL d   1      -7.290  -3.671   0.845  1.00  0.00     0.189 HD
ENDBRANCH   1  21
TORSDOF 5
