REMARK  0 active torsions:
REMARK  status: ('A' for Active; 'I' for Inactive)
ROOT
ATOM      1  N   UNL d   1      -1.542   0.678   0.031  0.00  0.00    -0.046 N 
ATOM      2  C   UNL d   1      -1.538  -0.697  -0.027  0.00  0.00     0.708 A 
ATOM      3  C   UNL d   1      -0.396   1.478   0.072  0.00  0.00     0.290 A 
ATOM      4  C   UNL d   1       0.890   0.703   0.039  0.00  0.00     0.035 A 
ATOM      5  N   UNL d   1      -0.354  -1.337  -0.047  0.00  0.00    -0.193 N 
ATOM      6  N   UNL d   1      -2.764  -1.155  -0.054  0.00  0.00    -0.184 N 
ATOM      7  HN  UNL d   1      -3.084  -2.122  -0.097  1.00  0.00     0.185 HD
ATOM      8  C   UNL d   1       0.846  -0.648  -0.015  0.00  0.00     0.038 A 
ATOM      9  N   UNL d   1      -2.820   1.138   0.044  0.00  0.00    -0.272 N 
ATOM     10  HN  UNL d   1      -3.163   2.098   0.083  1.00  0.00     0.189 HD
ATOM     11  C   UNL d   1      -3.507  -0.006  -0.009  0.00  0.00     0.216 A 
ATOM     12  O   UNL d   1      -0.463   2.699   0.129  0.00  0.00    -0.265 OA
ATOM     13  C   UNL d   1       2.162   1.502   0.051  0.00  0.00     0.046 C 
ATOM     14  C   UNL d   1       2.112  -1.477  -0.033  0.00  0.00     0.058 C 
ATOM     15  C   UNL d   1       3.379   0.669  -0.356  0.00  0.00     0.005 C 
ATOM     16  C   UNL d   1       3.364  -0.683   0.347  0.00  0.00     0.006 C 
ATOM     17  H   UNL d   1      -0.329  -2.352  -0.091  0.00  0.00     0.184 HD
ENDROOT
TORSDOF 0
