REMARK  3 active torsions:
REMARK  status: ('A' for Active; 'I' for Inactive)
REMARK    1  A    between atoms: C_6  and  C_1 
REMARK    2  A    between atoms: C_8  and  N_3 
REMARK    3  A    between atoms: C_9  and  C_4 
REMARK       I    between atoms: N_7  and  C_6 
ROOT
ATOM      1  C   UNL d   1      -0.302   1.129   0.108  0.00  0.00     0.057 A 
ATOM      2  C   UNL d   1       1.008   0.653   0.174  0.00  0.00     0.029 A 
ATOM      3  N   UNL d   1       0.992  -0.745   0.110  0.00  0.00    -0.314 N 
ATOM      4  C   UNL d   1      -0.344  -1.167   0.105  0.00  0.00     0.051 A 
ATOM      5  C   UNL d   1      -1.128  -0.024   0.108  0.00  0.00     0.050 A 
ATOM      6  C   UNL d   1       2.265   1.448   0.367  0.00  0.00     0.070 C 
ENDROOT
BRANCH   1   7
ATOM      7  C   UNL d   1      -0.710   2.543   0.142  0.00  0.00     0.255 C 
ATOM      8  N   UNL d   1      -1.825   2.935  -0.581  0.00  0.00    -0.348 N 
ATOM      9  C   UNL d   1      -2.599   2.170  -1.544  0.00  0.00     0.126 C 
ATOM     10  C   UNL d   1      -2.214   4.335  -0.595  0.00  0.00     0.126 C 
ATOM     11  C   UNL d   1      -3.205   3.223  -2.461  0.00  0.00     0.021 C 
ATOM     12  C   UNL d   1      -3.409   4.413  -1.534  0.00  0.00     0.021 C 
ATOM     13  O   UNL d   1      -0.062   3.372   0.788  0.00  0.00    -0.267 OA
ENDBRANCH   1   7
BRANCH   3  14
ATOM     14  C   UNL d   1       2.149  -1.588   0.069  0.00  0.00     0.039 A 
ATOM     15  C   UNL d   1       2.208  -2.754   0.843  0.00  0.00     0.030 A 
ATOM     16  C   UNL d   1       3.290  -3.627   0.716  0.00  0.00     0.002 A 
ATOM     17  C   UNL d   1       4.331  -3.328  -0.161  0.00  0.00     0.000 A 
ATOM     18  C   UNL d   1       4.296  -2.151  -0.907  0.00  0.00     0.002 A 
ATOM     19  C   UNL d   1       3.208  -1.281  -0.796  0.00  0.00     0.030 A 
ENDBRANCH   3  14
BRANCH   4  20
ATOM     20  C   UNL d   1      -0.841  -2.556   0.063  0.00  0.00    -0.009 A 
ATOM     21  C   UNL d   1      -0.314  -3.515  -0.811  0.00  0.00     0.014 A 
ATOM     22  C   UNL d   1      -0.749  -4.843  -0.760  0.00  0.00     0.001 A 
ATOM     23  C   UNL d   1      -1.758  -5.214   0.125  0.00  0.00     0.000 A 
ATOM     24  C   UNL d   1      -2.339  -4.258   0.954  0.00  0.00     0.001 A 
ATOM     25  C   UNL d   1      -1.881  -2.938   0.924  0.00  0.00     0.014 A 
ENDBRANCH   4  20
TORSDOF 3
