REMARK  3 active torsions:
REMARK  status: ('A' for Active; 'I' for Inactive)
REMARK    1  A    between atoms: C_3  and  N_1 
REMARK    2  A    between atoms: C_10  and  C_2 
REMARK    3  A    between atoms: C_8  and  C_7 
ROOT
ATOM      1  N   UNL d   1      -0.197  -1.334  -0.122  0.00  0.00    -0.239 N 
ATOM      2  C   UNL d   1       0.988  -0.682  -0.093  0.00  0.00     0.149 A 
ATOM      3  N   UNL d   1       0.860   0.605  -0.087  0.00  0.00    -0.238 N 
ATOM      4  HN  UNL d   1       1.608   1.299  -0.063  1.00  0.00     0.196 HD
ATOM      5  C   UNL d   1      -1.159  -0.377  -0.129  0.00  0.00     0.395 A 
ATOM      6  O   UNL d   1      -0.546   0.852  -0.122  0.00  0.00    -0.179 OA
ATOM      7  O   UNL d   1      -2.371  -0.538  -0.133  0.00  0.00    -0.235 OA
ENDROOT
BRANCH   1   8
ATOM      8  C   UNL d   1      -0.476  -2.704  -0.021  0.00  0.00     0.061 A 
ATOM      9  C   UNL d   1      -0.603  -3.377   1.207  0.00  0.00     0.075 A 
ATOM     10  C   UNL d   1      -0.799  -4.774   1.188  0.00  0.00     0.018 A 
ATOM     11  C   UNL d   1      -0.890  -5.476  -0.014  0.00  0.00     0.001 A 
ATOM     12  C   UNL d   1      -0.818  -4.793  -1.222  0.00  0.00     0.002 A 
ATOM     13  C   UNL d   1      -0.630  -3.413  -1.225  0.00  0.00     0.031 A 
BRANCH   9  14
ATOM     14  C   UNL d   1      -0.582  -2.701   2.557  0.00  0.00     0.419 C 
ATOM     15  F   UNL d   1      -0.428  -1.351   2.519  0.00  0.00    -0.166 F 
ATOM     16  F   UNL d   1      -1.726  -2.925   3.263  0.00  0.00    -0.166 F 
ATOM     17  F   UNL d   1       0.431  -3.164   3.342  0.00  0.00    -0.166 F 
ENDBRANCH   9  14
ENDBRANCH   1   8
BRANCH   2  18
ATOM     18  C   UNL d   1       2.311  -1.335  -0.065  0.00  0.00     0.026 A 
ATOM     19  C   UNL d   1       3.352  -0.711   0.613  0.00  0.00     0.102 A 
ATOM     20  N   UNL d   1       4.612  -1.209   0.697  0.00  0.00    -0.374 N 
ATOM     21  C   UNL d   1       4.854  -2.374   0.060  0.00  0.00     0.087 A 
ATOM     22  HN  UNL d   1       5.343  -0.725   1.219  1.00  0.00     0.164 HD
ATOM     23  C   UNL d   1       3.896  -3.055  -0.669  0.00  0.00     0.018 A 
ATOM     24  C   UNL d   1       2.613  -2.518  -0.742  0.00  0.00     0.018 A 
ENDBRANCH   2  18
TORSDOF 3
