REMARK  2 active torsions:
REMARK  status: ('A' for Active; 'I' for Inactive)
REMARK    1  A    between atoms: C_8  and  C_4 
REMARK    2  A    between atoms: C_9  and  C_5 
ROOT
ATOM      1  C   UNL d   1      -0.609  -1.371   1.406  0.00  0.00     0.017 C 
ATOM      2  C   UNL d   1      -0.772   1.097   1.666  0.00  0.00     0.017 C 
ATOM      3  C   UNL d   1      -0.270  -0.181   2.232  0.00  0.00     0.188 C 
ATOM      4  C   UNL d   1      -0.969  -2.475   2.083  0.00  0.00     0.024 C 
ATOM      5  C   UNL d   1      -1.316   1.960   2.542  0.00  0.00     0.024 C 
ATOM      6  O   UNL d   1      -1.315   0.039  -0.401  0.00  0.00    -0.382 OA
ATOM      7  O   UNL d   1       0.308  -0.255   3.309  0.00  0.00    -0.287 OA
ATOM      8  C   UNL d   1      -0.711   1.195   0.179  0.00  0.00     0.210 C 
ATOM      9  C   UNL d   1      -0.601  -1.153  -0.073  0.00  0.00     0.210 C 
ENDROOT
BRANCH   4  10
ATOM     10  C   UNL d   1      -1.488  -3.691   1.460  0.00  0.00    -0.035 A 
ATOM     11  C   UNL d   1      -0.622  -4.701   1.028  0.00  0.00     0.014 A 
ATOM     12  C   UNL d   1      -1.141  -5.866   0.459  0.00  0.00     0.043 A 
ATOM     13  C   UNL d   1      -2.518  -6.012   0.324  0.00  0.00     0.116 A 
ATOM     14  C   UNL d   1      -3.389  -5.012   0.739  0.00  0.00     0.043 A 
ATOM     15  F   UNL d   1      -3.013  -7.137  -0.210  0.00  0.00    -0.206 F 
ATOM     16  C   UNL d   1      -2.873  -3.847   1.307  0.00  0.00     0.014 A 
ENDBRANCH   4  10
BRANCH   5  17
ATOM     17  C   UNL d   1      -2.055   3.157   2.147  0.00  0.00    -0.035 A 
ATOM     18  C   UNL d   1      -3.437   3.059   1.928  0.00  0.00     0.014 A 
ATOM     19  C   UNL d   1      -4.169   4.185   1.549  0.00  0.00     0.043 A 
ATOM     20  C   UNL d   1      -3.514   5.400   1.388  0.00  0.00     0.116 A 
ATOM     21  C   UNL d   1      -2.142   5.509   1.596  0.00  0.00     0.043 A 
ATOM     22  F   UNL d   1      -4.215   6.483   1.028  0.00  0.00    -0.206 F 
ATOM     23  C   UNL d   1      -1.407   4.384   1.976  0.00  0.00     0.014 A 
ENDBRANCH   5  17
TORSDOF 2
