REMARK  4 active torsions:
REMARK  status: ('A' for Active; 'I' for Inactive)
REMARK    1  A    between atoms: C_10  and  N_1 
REMARK    2  A    between atoms: C_9  and  C_3 
REMARK    3  A    between atoms: N_8  and  C_14 
REMARK    4  A    between atoms: C_14  and  C_10 
ROOT
ATOM      1  N   UNL d   1       2.114  -0.160   0.221  0.00  0.00    -0.325 N 
ATOM      2  C   UNL d   1       1.162   0.830  -0.012  0.00  0.00     0.257 C 
ATOM      3  C   UNL d   1       1.783  -1.555  -0.090  0.00  0.00     0.206 C 
ATOM      4  N   UNL d   1       0.428  -1.865   0.339  0.00  0.00    -0.266 NA
ATOM      5  C   UNL d   1      -0.252   0.417  -0.086  0.00  0.00     0.053 A 
ATOM      6  C   UNL d   1      -0.562  -0.932   0.060  0.00  0.00     0.026 A 
ATOM      7  O   UNL d   1       1.406   2.029  -0.115  0.00  0.00    -0.267 OA
ATOM      8  C   UNL d   1      -1.260   1.384  -0.210  0.00  0.00     0.019 A 
ATOM      9  C   UNL d   1      -1.911  -1.300   0.112  0.00  0.00     0.024 A 
ATOM     10  C   UNL d   1      -2.598   1.002  -0.168  0.00  0.00     0.001 A 
ATOM     11  C   UNL d   1      -2.923  -0.343  -0.009  0.00  0.00     0.002 A 
ATOM     12  H   UNL d   1       0.169  -2.820   0.114  0.00  0.00     0.130 HD
ENDROOT
BRANCH   1  13
ATOM     13  C   UNL d   1       3.540   0.186   0.368  0.00  0.00     0.148 C 
BRANCH  13  14
ATOM     14  C   UNL d   1       3.988   1.651   0.233  0.00  0.00     0.147 C 
BRANCH  14  15
ATOM     15  N   UNL d   1       5.405   1.809   0.509  0.00  0.00    -0.331 N 
ATOM     16  C   UNL d   1       6.418   1.262  -0.280  0.00  0.00     0.318 C 
ATOM     17  N   UNL d   1       7.617   1.815   0.155  0.00  0.00    -0.341 N 
ATOM     18  O   UNL d   1       6.310   0.447  -1.173  0.00  0.00    -0.247 OA
ATOM     19  C   UNL d   1       7.408   2.591   1.345  0.00  0.00     0.144 C 
ATOM     20  H   UNL d   1       8.491   1.418  -0.162  0.00  0.00     0.164 HD
ATOM     21  C   UNL d   1       5.923   2.918   1.277  0.00  0.00     0.147 C 
ENDBRANCH  14  15
ENDBRANCH  13  14
ENDBRANCH   1  13
BRANCH   3  22
ATOM     22  C   UNL d   1       2.738  -2.536   0.567  0.00  0.00     0.020 A 
ATOM     23  S   UNL d   1       3.754  -3.546  -0.379  0.00  0.00    -0.103 SA
ATOM     24  C   UNL d   1       4.414  -4.295   1.011  0.00  0.00     0.050 A 
ATOM     25  C   UNL d   1       3.860  -3.809   2.174  0.00  0.00     0.008 A 
ATOM     26  C   UNL d   1       2.888  -2.802   1.918  0.00  0.00     0.018 A 
ENDBRANCH   3  22
TORSDOF 4
