REMARK  5 active torsions:
REMARK  status: ('A' for Active; 'I' for Inactive)
REMARK    1  A    between atoms: N_2  and  S_1 
REMARK    2  A    between atoms: C_7  and  S_1 
REMARK    3  A    between atoms: C_5  and  N_2 
REMARK    4  A    between atoms: C_3  and  C_4 
REMARK       I    between atoms: C_4  and  N_8 
REMARK    5  A    between atoms: N_8  and  C_18 
ROOT
ATOM      1  C   UNL d   1       0.392  -0.414   1.559  0.00  0.00     0.080 A 
ATOM      2  C   UNL d   1       0.238  -1.801   1.644  0.00  0.00     0.027 A 
ATOM      3  C   UNL d   1       0.274   0.378   2.701  0.00  0.00     0.027 A 
ATOM      4  C   UNL d   1      -0.171  -1.604   4.034  0.00  0.00     0.035 A 
ATOM      5  C   UNL d   1      -0.017  -0.219   3.933  0.00  0.00     0.031 A 
ATOM      6  C   UNL d   1      -0.062  -2.388   2.877  0.00  0.00     0.031 A 
ENDROOT
BRANCH   1   7
ATOM      7  S   UNL d   1       0.814   0.335  -0.001  0.00  0.00     0.263 S 
ATOM      8  O   UNL d   1       1.503   1.575   0.272  0.00  0.00    -0.200 OA
ATOM      9  O   UNL d   1       1.432  -0.699  -0.809  0.00  0.00    -0.200 OA
BRANCH   7  10
ATOM     10  N   UNL d   1      -0.680   0.649  -0.726  0.00  0.00    -0.280 N 
ATOM     11  H   UNL d   1      -1.056  -0.151  -1.227  0.00  0.00     0.179 HD
BRANCH  10  12
ATOM     12  C   UNL d   1      -1.597   1.540  -0.093  0.00  0.00     0.054 A 
ATOM     13  C   UNL d   1      -1.456   2.928  -0.289  0.00  0.00    -0.034 A 
ATOM     14  C   UNL d   1      -2.279   3.809   0.433  0.00  0.00     0.009 A 
ATOM     15  C   UNL d   1      -0.468   3.527  -1.253  0.00  0.00     0.050 C 
ATOM     16  C   UNL d   1      -3.246   3.322   1.306  0.00  0.00     0.001 A 
ATOM     17  C   UNL d   1      -3.419   1.949   1.451  0.00  0.00     0.009 A 
ATOM     18  C   UNL d   1      -2.613   1.041   0.745  0.00  0.00    -0.034 A 
ATOM     19  C   UNL d   1      -2.907  -0.422   0.933  0.00  0.00     0.050 C 
ENDBRANCH  10  12
ENDBRANCH   7  10
ENDBRANCH   1   7
BRANCH   4  20
ATOM     20  N   UNL d   1      -0.423  -2.280   5.247  0.00  0.00    -0.323 N 
ATOM     21  C   UNL d   1      -0.417  -1.746   6.522  0.00  0.00     0.257 C 
ATOM     22  O   UNL d   1      -0.225  -0.573   6.823  0.00  0.00    -0.267 OA
ATOM     23  H   UNL d   1      -0.538  -3.284   5.171  0.00  0.00     0.169 HD
BRANCH  21  24
ATOM     24  C   UNL d   1      -0.752  -2.695   7.622  0.00  0.00     0.054 A 
ATOM     25  C   UNL d   1      -0.345  -4.036   7.676  0.00  0.00     0.051 A 
ATOM     26  C   UNL d   1      -0.797  -4.866   8.710  0.00  0.00     0.048 A 
ATOM     27 CL   UNL d   1       0.733  -4.746   6.527  0.00  0.00    -0.083 Cl
ATOM     28  C   UNL d   1      -1.636  -4.354   9.698  0.00  0.00     0.035 A 
ATOM     29  C   UNL d   1      -2.003  -3.012   9.688  0.00  0.00     0.025 A 
ATOM     30 CL   UNL d   1      -2.231  -5.392  10.933  0.00  0.00    -0.084 Cl
ATOM     31  C   UNL d   1      -1.557  -2.184   8.656  0.00  0.00     0.020 A 
ENDBRANCH  21  24
ENDBRANCH   4  20
TORSDOF 5
