REMARK  2 active torsions:
REMARK  status: ('A' for Active; 'I' for Inactive)
REMARK    1  A    between atoms: C_2  and  C_1 
REMARK       I    between atoms: N_7  and  C_2 
REMARK    2  A    between atoms: C_11  and  N_7 
ROOT
ATOM      1  C   UNL d   1       1.512   2.420   0.138  0.00  0.00     0.258 C 
ATOM      2  N   UNL d   1       0.954   3.684   0.002  0.00  0.00    -0.323 N 
ATOM      3  O   UNL d   1       0.887   1.409   0.432  0.00  0.00    -0.267 OA
ATOM      4  H   UNL d   1       1.544   4.412  -0.370  0.00  0.00     0.169 HD
ENDROOT
BRANCH   2   5
ATOM      5  C   UNL d   1      -0.420   3.996   0.133  0.00  0.00     0.037 A 
ATOM      6  C   UNL d   1      -1.357   3.118   0.685  0.00  0.00     0.069 A 
ATOM      7  C   UNL d   1      -2.716   3.426   0.659  0.00  0.00     0.104 A 
ATOM      8  O   UNL d   1      -3.567   2.467   1.147  0.00  0.00    -0.346 OA
ATOM      9  C   UNL d   1      -3.155   4.642   0.138  0.00  0.00     0.102 A 
ATOM     10  C   UNL d   1      -4.878   2.644   0.606  0.00  0.00     0.202 C 
ATOM     11  C   UNL d   1      -5.323   4.087   0.779  0.00  0.00     0.202 C 
ATOM     12  O   UNL d   1      -4.478   4.992   0.056  0.00  0.00    -0.346 OA
ATOM     13  C   UNL d   1      -2.225   5.553  -0.358  0.00  0.00     0.042 A 
ATOM     14  C   UNL d   1      -0.862   5.232  -0.356  0.00  0.00     0.032 A 
ENDBRANCH   2   5
BRANCH   1  15
ATOM     15  C   UNL d   1       2.943   2.343  -0.160  0.00  0.00     0.064 A 
ATOM     16  C   UNL d   1       3.660   1.157  -0.268  0.00  0.00     0.065 A 
ATOM     17  O   UNL d   1       4.959   1.410  -0.586  0.00  0.00    -0.319 OA
ATOM     18  C   UNL d   1       3.333  -0.281  -0.131  0.00  0.00     0.077 C 
ATOM     19  C   UNL d   1       5.101   2.755  -0.679  0.00  0.00     0.050 A 
ATOM     20  C   UNL d   1       3.904   3.378  -0.404  0.00  0.00     0.051 A 
ATOM     21  C   UNL d   1       6.449   3.235  -1.041  0.00  0.00     0.076 C 
ENDBRANCH   1  15
TORSDOF 2
