REMARK  7 active torsions:
REMARK  status: ('A' for Active; 'I' for Inactive)
REMARK    1  A    between atoms: C_7  and  C_1 
REMARK    2  A    between atoms: C_11  and  C_5 
REMARK    3  A    between atoms: S_15  and  C_10 
REMARK    4  A    between atoms: C_14  and  C_20 
REMARK    5  A    between atoms: O_26  and  C_14 
REMARK    6  A    between atoms: C_20  and  S_15 
REMARK    7  A    between atoms: C_28  and  O_26 
ROOT
ATOM      1  C   UNL d   1      -0.317  -2.627  -0.005  0.00  0.00     0.054 A 
ATOM      2  N   UNL d   1       0.206  -3.315   1.034  0.00  0.00    -0.336 N 
ATOM      3  HN  UNL d   1       0.699  -2.840   1.790  1.00  0.00     0.168 HD
ATOM      4  C   UNL d   1       0.051  -4.647   1.032  0.00  0.00     0.145 A 
ATOM      5  N   UNL d   1      -0.590  -5.343   0.078  0.00  0.00    -0.347 N 
ATOM      6  HN  UNL d   1      -0.684  -6.358   0.120  1.00  0.00     0.167 HD
ATOM      7  C   UNL d   1      -0.987  -3.258  -1.034  0.00  0.00     0.048 A 
ATOM      8  C   UNL d   1      -1.100  -4.623  -0.937  0.00  0.00     0.092 A 
ENDROOT
BRANCH   1   9
ATOM      9  C   UNL d   1      -0.145  -1.168   0.069  0.00  0.00     0.056 A 
ATOM     10  S   UNL d   1      -1.295  -0.110  -0.658  0.00  0.00    -0.068 SA
ATOM     11  C   UNL d   1      -0.426   1.265  -0.107  0.00  0.00     0.085 A 
ATOM     12  N   UNL d   1       0.655   0.981   0.587  0.00  0.00    -0.352 N 
ATOM     13  C   UNL d   1       0.831  -0.398   0.691  0.00  0.00     0.025 A 
ATOM     14  HN  UNL d   1       1.280   1.676   0.993  1.00  0.00     0.166 HD
ATOM     15  C   UNL d   1       2.025  -0.883   1.436  0.00  0.00     0.070 C 
BRANCH  11  16
ATOM     16  C   UNL d   1      -0.917   2.631  -0.367  0.00  0.00    -0.002 A 
ATOM     17  C   UNL d   1      -0.614   3.655   0.547  0.00  0.00     0.016 A 
ATOM     18  C   UNL d   1      -1.072   4.963   0.346  0.00  0.00     0.024 A 
ATOM     19  C   UNL d   1      -1.830   5.263  -0.781  0.00  0.00     0.034 A 
ATOM     20  C   UNL d   1      -2.131   4.271  -1.710  0.00  0.00     0.024 A 
ATOM     21 CL   UNL d   1      -2.395   6.868  -1.034  0.00  0.00    -0.084 Cl
ATOM     22  C   UNL d   1      -1.675   2.963  -1.504  0.00  0.00     0.016 A 
ENDBRANCH  11  16
ENDBRANCH   1   9
BRANCH   4  23
ATOM     23  S   UNL d   1       0.655  -5.525   2.456  0.00  0.00    -0.084 SA
BRANCH  23  24
ATOM     24  C   UNL d   1       1.051  -7.140   1.700  0.00  0.00     0.193 C 
BRANCH  24  25
ATOM     25  C   UNL d   1       2.044  -6.987   0.566  0.00  0.00     0.268 C 
ATOM     26  O   UNL d   1       2.932  -6.151   0.508  0.00  0.00    -0.264 OA
BRANCH  25  27
ATOM     27  O   UNL d   1       1.795  -7.918  -0.407  0.00  0.00    -0.321 OA
BRANCH  27  28
ATOM     28  C   UNL d   1       2.308  -7.586  -1.703  0.00  0.00     0.174 C 
ATOM     29  C   UNL d   1       3.447  -8.496  -2.116  0.00  0.00     0.034 C 
ENDBRANCH  27  28
ENDBRANCH  25  27
ENDBRANCH  24  25
ENDBRANCH  23  24
ENDBRANCH   4  23
TORSDOF 7
