REMARK  1 active torsions:
REMARK  status: ('A' for Active; 'I' for Inactive)
REMARK    1  A    between atoms: C_8  and  C_3 
ROOT
ATOM      1  N   UNL d   1       0.266   0.780   0.892  0.00  0.00    -0.323 N 
ATOM      2  HN  UNL d   1       0.188   1.397   1.701  1.00  0.00     0.169 HD
ATOM      3  C   UNL d   1       1.286   0.695  -0.035  0.00  0.00     0.137 A 
ATOM      4  N   UNL d   1       1.076  -0.233  -0.985  0.00  0.00    -0.242 N 
ATOM      5  HN  UNL d   1       1.680  -0.477  -1.770  1.00  0.00     0.196 HD
ATOM      6  C   UNL d   1      -0.577  -0.134   0.473  0.00  0.00     0.144 A 
ATOM      7  O   UNL d   1      -0.157  -0.783  -0.648  0.00  0.00    -0.223 OA
ATOM      8  C   UNL d   1      -1.875  -0.549   1.029  0.00  0.00     0.100 C 
ENDROOT
BRANCH   3   9
ATOM      9  C   UNL d   1       2.476   1.538   0.031  0.00  0.00     0.010 A 
ATOM     10  C   UNL d   1       2.631   2.466   1.072  0.00  0.00     0.015 A 
ATOM     11  C   UNL d   1       3.772   3.269   1.147  0.00  0.00     0.001 A 
ATOM     12  C   UNL d   1       4.771   3.155   0.182  0.00  0.00     0.000 A 
ATOM     13  C   UNL d   1       4.629   2.241  -0.860  0.00  0.00     0.001 A 
ATOM     14  C   UNL d   1       3.489   1.437  -0.935  0.00  0.00     0.015 A 
ENDBRANCH   3   9
TORSDOF 1
