REMARK  4 active torsions:
REMARK  status: ('A' for Active; 'I' for Inactive)
REMARK    1  A    between atoms: C_4  and  N_1 
REMARK    2  A    between atoms: C_2  and  C_8 
REMARK    3  A    between atoms: C_3  and  C_6 
REMARK       I    between atoms: N_5  and  C_3 
REMARK    4  A    between atoms: C_17  and  N_5 
ROOT
ATOM      1  C   UNL d   1       0.051   4.644   0.315  0.00  0.00     0.256 C 
ATOM      2  N   UNL d   1      -0.801   5.705   0.569  0.00  0.00    -0.323 N 
ATOM      3  O   UNL d   1      -0.060   3.520   0.794  0.00  0.00    -0.267 OA
ATOM      4  H   UNL d   1      -0.735   6.531  -0.006  0.00  0.00     0.169 HD
ENDROOT
BRANCH   2   5
ATOM      5  C   UNL d   1      -1.786   5.749   1.590  0.00  0.00     0.035 A 
ATOM      6  C   UNL d   1      -1.942   4.747   2.553  0.00  0.00     0.030 A 
ATOM      7  C   UNL d   1      -2.858   4.890   3.600  0.00  0.00     0.018 A 
ATOM      8  C   UNL d   1      -3.641   6.042   3.711  0.00  0.00     0.048 A 
ATOM      9  C   UNL d   1      -3.522   7.029   2.721  0.00  0.00     0.018 A 
ATOM     10  C   UNL d   1      -2.601   6.885   1.673  0.00  0.00     0.030 A 
BRANCH   8  11
ATOM     11  C   UNL d   1      -4.566   6.236   4.887  0.00  0.00     0.417 C 
ATOM     12  F   UNL d   1      -4.541   5.206   5.778  0.00  0.00    -0.166 F 
ATOM     13  F   UNL d   1      -4.256   7.353   5.605  0.00  0.00    -0.166 F 
ATOM     14  F   UNL d   1      -5.867   6.379   4.516  0.00  0.00    -0.166 F 
ENDBRANCH   8  11
ENDBRANCH   2   5
BRANCH   1  15
ATOM     15  C   UNL d   1       1.202   4.866  -0.618  0.00  0.00     0.034 A 
ATOM     16  C   UNL d   1       1.971   3.737  -0.958  0.00  0.00     0.053 A 
ATOM     17  C   UNL d   1       3.097   3.868  -1.777  0.00  0.00     0.103 A 
ATOM     18  C   UNL d   1       3.461   5.119  -2.284  0.00  0.00     0.036 A 
ATOM     19  C   UNL d   1       2.706   6.243  -1.945  0.00  0.00     0.003 A 
ATOM     20  C   UNL d   1       1.589   6.122  -1.106  0.00  0.00     0.017 A 
BRANCH  17  21
ATOM     21  N   UNL d   1       3.915   2.686  -2.079  0.00  0.00    -0.116 N 
ATOM     22  O   UNL d   1       3.610   1.615  -1.541  0.00  0.00    -0.532 OA
ATOM     23  O   UNL d   1       4.866   2.834  -2.862  0.00  0.00    -0.532 OA
ENDBRANCH  17  21
ENDBRANCH   1  15
TORSDOF 4
