REMARK  4 active torsions:
REMARK  status: ('A' for Active; 'I' for Inactive)
REMARK    1  A    between atoms: C_4  and  N_1 
REMARK    2  A    between atoms: N_7  and  C_2 
REMARK    3  A    between atoms: N_19  and  C_3 
REMARK    4  A    between atoms: C_9  and  C_12 
ROOT
ATOM      1  N   UNL d   1       0.935  -0.532   0.022  0.00  0.00    -0.237 N 
ATOM      2  C   UNL d   1       0.851   0.772   0.538  0.00  0.00     0.143 A 
ATOM      3  N   UNL d   1      -0.259  -0.951  -0.469  0.00  0.00    -0.302 N 
ATOM      4  HN  UNL d   1      -0.470  -1.845  -0.911  1.00  0.00     0.186 HD
ATOM      5  C   UNL d   1      -0.468   1.147   0.376  0.00  0.00     0.106 A 
ATOM      6  C   UNL d   1      -1.095   0.062  -0.247  0.00  0.00     0.134 A 
ATOM      7  C   UNL d   1      -1.053   2.399   0.717  0.00  0.00     0.104 C 
ATOM      8  N   UNL d   1      -1.516   3.427   0.988  0.00  0.00    -0.191 NA
ENDROOT
BRANCH   2   9
ATOM      9  N   UNL d   1       1.906   1.488   1.020  0.00  0.00    -0.383 N 
ATOM     10  H   UNL d   1       2.857   1.280   0.716  0.00  0.00     0.157 HD
ATOM     11  H   UNL d   1       1.795   2.485   1.212  0.00  0.00     0.157 HD
ENDBRANCH   2   9
BRANCH   1  12
ATOM     12  C   UNL d   1       2.045  -1.421   0.014  0.00  0.00     0.091 A 
ATOM     13  C   UNL d   1       2.205  -2.405  -0.975  0.00  0.00     0.132 A 
ATOM     14  C   UNL d   1       3.310  -3.276  -0.969  0.00  0.00     0.054 A 
ATOM     15  C   UNL d   1       4.271  -3.187   0.048  0.00  0.00     0.050 A 
ATOM     16  C   UNL d   1       4.095  -2.228   1.058  0.00  0.00     0.019 A 
ATOM     17  C   UNL d   1       2.996  -1.359   1.045  0.00  0.00     0.035 A 
BRANCH  13  18
ATOM     18  N   UNL d   1       1.340  -2.475  -2.144  0.00  0.00    -0.113 N 
ATOM     19  O   UNL d   1       1.376  -1.511  -2.920  0.00  0.00    -0.532 OA
ATOM     20  O   UNL d   1       0.741  -3.544  -2.332  0.00  0.00    -0.532 OA
ENDBRANCH  13  18
BRANCH  15  21
ATOM     21  C   UNL d   1       5.486  -4.085   0.066  0.00  0.00     0.417 C 
ATOM     22  F   UNL d   1       5.529  -4.960  -0.974  0.00  0.00    -0.166 F 
ATOM     23  F   UNL d   1       6.647  -3.376   0.010  0.00  0.00    -0.166 F 
ATOM     24  F   UNL d   1       5.558  -4.836   1.198  0.00  0.00    -0.166 F 
ENDBRANCH  15  21
ENDBRANCH   1  12
TORSDOF 4
