REMARK  6 active torsions:
REMARK  status: ('A' for Active; 'I' for Inactive)
REMARK    1  A    between atoms: C_3  and  C_1 
REMARK    2  A    between atoms: O_7  and  C_1 
REMARK    3  A    between atoms: C_6  and  C_3 
REMARK    4  A    between atoms: O_4  and  C_5 
REMARK    5  A    between atoms: C_8  and  O_4 
REMARK    6  A    between atoms: C_13  and  C_8 
ROOT
ATOM      1  C   UNL d   1      -3.918   0.207  -0.843  0.00  0.00     0.069 A 
ATOM      2  C   UNL d   1      -1.126   0.436  -1.003  0.00  0.00    -0.048 A 
ATOM      3  C   UNL d   1      -3.318   1.466  -0.878  0.00  0.00     0.037 A 
ATOM      4  C   UNL d   1      -3.118  -0.936  -0.830  0.00  0.00     0.037 A 
ATOM      5  C   UNL d   1      -1.732  -0.824  -0.922  0.00  0.00     0.010 A 
ATOM      6  C   UNL d   1      -1.929   1.584  -0.964  0.00  0.00     0.010 A 
ENDROOT
BRANCH   1   7
ATOM      7  O   UNL d   1      -5.287   0.202  -0.829  0.00  0.00    -0.347 OA
BRANCH   7   8
ATOM      8  C   UNL d   1      -5.887  -1.003  -1.316  0.00  0.00     0.214 C 
BRANCH   8   9
ATOM      9  C   UNL d   1      -7.315  -0.780  -1.752  0.00  0.00    -0.034 A 
ATOM     10  C   UNL d   1      -7.761   0.468  -2.209  0.00  0.00     0.009 A 
ATOM     11  C   UNL d   1      -9.063   0.622  -2.688  0.00  0.00     0.001 A 
ATOM     12  C   UNL d   1      -9.927  -0.471  -2.726  0.00  0.00     0.000 A 
ATOM     13  C   UNL d   1      -9.493  -1.718  -2.284  0.00  0.00     0.001 A 
ATOM     14  C   UNL d   1      -8.193  -1.873  -1.802  0.00  0.00     0.009 A 
ENDBRANCH   8   9
ENDBRANCH   7   8
ENDBRANCH   1   7
BRANCH   2  15
ATOM     15  C   UNL d   1       0.365   0.540  -1.209  0.00  0.00     0.148 C 
BRANCH  15  16
ATOM     16  C   UNL d   1       0.841   0.536  -2.648  0.00  0.00     0.143 C 
ATOM     17  O   UNL d   1       2.029   0.583  -2.938  0.00  0.00    -0.650 OA
BRANCH  16  18
ATOM     18  O   UNL d   1      -0.107   0.477  -3.609  0.00  0.00    -0.776 OA
ATOM     19  H   UNL d   1      -1.028   0.446  -3.287  0.00  0.00     0.167 HD
ENDBRANCH  16  18
ENDBRANCH  15  16
ENDBRANCH   2  15
TORSDOF 6
