REMARK  10 active torsions:
REMARK  status: ('A' for Active; 'I' for Inactive)
REMARK    1  A    between atoms: O_15  and  C_2 
REMARK    2  A    between atoms: C_9  and  C_3 
REMARK    3  A    between atoms: C_10  and  C_6 
REMARK       I    between atoms: N_7  and  C_11 
REMARK    4  A    between atoms: C_16  and  N_7 
REMARK    5  A    between atoms: C_22  and  N_7 
REMARK    6  A    between atoms: C_11  and  C_19 
REMARK    7  A    between atoms: C_19  and  O_15 
REMARK    8  A    between atoms: C_17  and  C_16 
REMARK    9  A    between atoms: O_29  and  C_17 
REMARK   10  A    between atoms: C_32  and  O_29 
ROOT
ATOM      1  C   UNL d   1      -1.164  -0.342   1.307  0.00  0.00     0.108 A 
ATOM      2  C   UNL d   1       0.087  -0.787   0.887  0.00  0.00     0.165 A 
ATOM      3  C   UNL d   1      -1.373   1.048   1.377  0.00  0.00     0.025 A 
ATOM      4  N   UNL d   1       1.108   0.045   0.569  0.00  0.00    -0.335 N 
ATOM      5  HN  UNL d   1       2.002  -0.327   0.248  1.00  0.00     0.168 HD
ATOM      6  C   UNL d   1       0.919   1.374   0.687  0.00  0.00     0.052 A 
ATOM      7  C   UNL d   1      -0.302   1.905   1.062  0.00  0.00     0.046 A 
ATOM      8  C   UNL d   1      -2.169  -1.290   1.673  0.00  0.00     0.105 C 
ATOM      9  N   UNL d   1      -3.009  -2.035   1.979  0.00  0.00    -0.191 NA
ENDROOT
BRANCH   2  10
ATOM     10  O   UNL d   1       0.324  -2.152   0.797  0.00  0.00    -0.325 OA
BRANCH  10  11
ATOM     11  C   UNL d   1       1.624  -2.431   0.291  0.00  0.00     0.280 C 
BRANCH  11  12
ATOM     12  C   UNL d   1       1.978  -3.926   0.155  0.00  0.00     0.249 C 
ATOM     13  N   UNL d   1       3.107  -4.353   0.859  0.00  0.00    -0.307 N 
ATOM     14  O   UNL d   1       1.388  -4.650  -0.651  0.00  0.00    -0.271 OA
BRANCH  13  15
ATOM     15  C   UNL d   1       3.709  -5.646   0.523  0.00  0.00     0.243 C 
BRANCH  15  16
ATOM     16  C   UNL d   1       3.209  -6.822   1.359  0.00  0.00     0.277 C 
ATOM     17  O   UNL d   1       2.353  -6.782   2.231  0.00  0.00    -0.263 OA
BRANCH  16  18
ATOM     18  O   UNL d   1       3.932  -7.935   1.022  0.00  0.00    -0.321 OA
BRANCH  18  19
ATOM     19  C   UNL d   1       3.776  -9.069   1.888  0.00  0.00     0.174 C 
ATOM     20  C   UNL d   1       4.884  -9.034   2.925  0.00  0.00     0.034 C 
ENDBRANCH  18  19
ENDBRANCH  16  18
ENDBRANCH  15  16
ENDBRANCH  13  15
BRANCH  13  21
ATOM     21  C   UNL d   1       3.454  -3.780   2.108  0.00  0.00     0.037 A 
ATOM     22  C   UNL d   1       2.510  -3.732   3.140  0.00  0.00     0.030 A 
ATOM     23  C   UNL d   1       2.807  -3.072   4.330  0.00  0.00     0.002 A 
ATOM     24  C   UNL d   1       4.037  -2.436   4.480  0.00  0.00     0.000 A 
ATOM     25  C   UNL d   1       4.984  -2.489   3.456  0.00  0.00     0.002 A 
ATOM     26  C   UNL d   1       4.704  -3.180   2.275  0.00  0.00     0.030 A 
ENDBRANCH  13  21
ENDBRANCH  11  12
ENDBRANCH  10  11
ENDBRANCH   2  10
BRANCH   3  27
ATOM     27  C   UNL d   1      -2.646   1.668   1.752  0.00  0.00     0.086 A 
ATOM     28  O   UNL d   1      -2.539   2.895   2.352  0.00  0.00    -0.322 OA
ATOM     29  C   UNL d   1      -3.792   3.349   2.593  0.00  0.00     0.142 A 
ATOM     30  C   UNL d   1      -4.721   2.434   2.161  0.00  0.00     0.027 A 
ATOM     31  C   UNL d   1      -3.985   1.347   1.625  0.00  0.00     0.040 A 
ENDBRANCH   3  27
BRANCH   6  32
ATOM     32  C   UNL d   1       2.114   2.174   0.393  0.00  0.00     0.031 A 
ATOM     33  S   UNL d   1       2.380   3.693   1.152  0.00  0.00    -0.100 SA
ATOM     34  C   UNL d   1       3.893   3.899   0.389  0.00  0.00     0.050 A 
ATOM     35  C   UNL d   1       4.202   2.844  -0.438  0.00  0.00     0.008 A 
ATOM     36  C   UNL d   1       3.180   1.851  -0.431  0.00  0.00     0.021 A 
ENDBRANCH   6  32
TORSDOF 10
