REMARK  5 active torsions:
REMARK  status: ('A' for Active; 'I' for Inactive)
REMARK    1  A    between atoms: S_10  and  C_2 
REMARK    2  A    between atoms: N_3  and  C_8 
REMARK    3  A    between atoms: C_17  and  S_10 
REMARK    4  A    between atoms: C_11  and  C_15 
REMARK    5  A    between atoms: C_15  and  C_17 
ROOT
ATOM      1  S   UNL d   1       3.642   1.383   0.462  0.00  0.00    -0.097 SA
ENDROOT
BRANCH   1   2
ATOM      2  C   UNL d   1       1.944   0.989   0.559  0.00  0.00     0.115 A 
ATOM      3  S   UNL d   1       1.436  -0.593   0.995  0.00  0.00    -0.045 SA
ATOM      4  C   UNL d   1      -0.179  -0.070   0.931  0.00  0.00     0.103 A 
ATOM      5  C   UNL d   1      -0.235   1.269   0.549  0.00  0.00     0.067 A 
ATOM      6  N   UNL d   1      -1.216  -0.879   1.230  0.00  0.00    -0.358 N 
ATOM      7  C   UNL d   1      -1.512   1.847   0.449  0.00  0.00     0.034 A 
ATOM      8  N   UNL d   1       0.996   1.872   0.329  0.00  0.00    -0.343 N 
ATOM      9  C   UNL d   1      -2.619   1.054   0.760  0.00  0.00     0.019 A 
ATOM     10  C   UNL d   1      -2.416  -0.266   1.137  0.00  0.00     0.089 A 
ATOM     11  HN  UNL d   1       1.141   2.839   0.038  1.00  0.00     0.167 HD
ATOM     12  HN  UNL d   1      -1.105  -1.856   1.500  1.00  0.00     0.166 HD
ENDBRANCH   1   2
BRANCH   1  13
ATOM     13  C   UNL d   1       3.610   3.159   0.080  0.00  0.00     0.165 C 
BRANCH  13  14
ATOM     14  C   UNL d   1       5.029   3.710   0.067  0.00  0.00     0.169 C 
ATOM     15  O   UNL d   1       6.033   3.018  -0.092  0.00  0.00    -0.291 OA
BRANCH  14  16
ATOM     16  C   UNL d   1       5.241   5.179   0.224  0.00  0.00     0.013 A 
ATOM     17  C   UNL d   1       4.278   6.121  -0.150  0.00  0.00     0.051 A 
ATOM     18  C   UNL d   1       4.590   7.489  -0.057  0.00  0.00     0.103 A 
ATOM     19  C   UNL d   1       5.835   7.918   0.426  0.00  0.00     0.036 A 
ATOM     20  C   UNL d   1       6.781   6.973   0.815  0.00  0.00     0.003 A 
ATOM     21  C   UNL d   1       6.488   5.612   0.707  0.00  0.00     0.015 A 
BRANCH  18  22
ATOM     22  N   UNL d   1       3.610   8.488  -0.503  0.00  0.00    -0.116 N 
ATOM     23  O   UNL d   1       2.528   8.071  -0.940  0.00  0.00    -0.532 OA
ATOM     24  O   UNL d   1       3.921   9.684  -0.418  0.00  0.00    -0.532 OA
ENDBRANCH  18  22
ENDBRANCH  14  16
ENDBRANCH  13  14
ENDBRANCH   1  13
TORSDOF 5
