REMARK  5 active torsions:
REMARK  status: ('A' for Active; 'I' for Inactive)
REMARK    1  A    between atoms: S_8  and  C_3 
REMARK    2  A    between atoms: C_10  and  C_4 
REMARK    3  A    between atoms: C_11  and  S_8 
REMARK    4  A    between atoms: S_9  and  C_10 
REMARK    5  A    between atoms: C_12  and  S_9 
ROOT
ATOM      1  N   UNL d   1       1.434  -0.678   0.082  0.00  0.00    -0.332 N 
ATOM      2  HN  UNL d   1       2.350  -1.116   0.180  1.00  0.00     0.168 HD
ATOM      3  C   UNL d   1       0.283  -1.309   0.030  0.00  0.00     0.134 A 
ATOM      4  C   UNL d   1       1.192   0.695  -0.019  0.00  0.00     0.098 A 
ATOM      5  N   UNL d   1      -0.075   1.127  -0.077  0.00  0.00    -0.313 N 
ATOM      6  HN  UNL d   1      -0.387   2.097  -0.121  1.00  0.00     0.175 HD
ATOM      7  S   UNL d   1      -1.046  -0.235  -0.064  0.00  0.00     0.013 SA
ENDROOT
BRANCH   4   8
ATOM      8  C   UNL d   1       2.318   1.689  -0.011  0.00  0.00     0.156 C 
BRANCH   8   9
ATOM      9  S   UNL d   1       3.785   1.082  -0.920  0.00  0.00    -0.122 SA
BRANCH   9  10
ATOM     10  C   UNL d   1       4.980   2.402  -0.766  0.00  0.00     0.001 A 
ATOM     11  C   UNL d   1       4.752   3.643  -0.161  0.00  0.00     0.020 A 
ATOM     12  C   UNL d   1       5.762   4.614  -0.124  0.00  0.00     0.025 A 
ATOM     13  C   UNL d   1       7.007   4.350  -0.690  0.00  0.00     0.034 A 
ATOM     14  C   UNL d   1       7.254   3.121  -1.288  0.00  0.00     0.025 A 
ATOM     15 CL   UNL d   1       8.239   5.549  -0.655  0.00  0.00    -0.084 Cl
ATOM     16  C   UNL d   1       6.245   2.154  -1.324  0.00  0.00     0.020 A 
ENDBRANCH   9  10
ENDBRANCH   8   9
ENDBRANCH   4   8
BRANCH   3  17
ATOM     17  S   UNL d   1       0.158  -3.048   0.080  0.00  0.00    -0.064 SA
BRANCH  17  18
ATOM     18  C   UNL d   1       0.164  -3.358  -1.678  0.00  0.00     0.007 A 
ATOM     19  C   UNL d   1       1.278  -3.047  -2.468  0.00  0.00     0.021 A 
ATOM     20  C   UNL d   1       1.267  -3.309  -3.841  0.00  0.00     0.025 A 
ATOM     21  C   UNL d   1       0.145  -3.890  -4.427  0.00  0.00     0.034 A 
ATOM     22  C   UNL d   1      -0.964  -4.219  -3.649  0.00  0.00     0.025 A 
ATOM     23 CL   UNL d   1       0.127  -4.207  -6.117  0.00  0.00    -0.084 Cl
ATOM     24  C   UNL d   1      -0.952  -3.956  -2.275  0.00  0.00     0.021 A 
ENDBRANCH  17  18
ENDBRANCH   3  17
TORSDOF 5
