REMARK  9 active torsions:
REMARK  status: ('A' for Active; 'I' for Inactive)
REMARK    1  A    between atoms: C_3  and  S_1 
REMARK    2  A    between atoms: N_4  and  S_1 
REMARK    3  A    between atoms: C_2  and  C_9 
REMARK       I    between atoms: N_5  and  C_2 
REMARK    4  A    between atoms: C_23  and  N_4 
REMARK    5  A    between atoms: C_24  and  N_4 
REMARK    6  A    between atoms: C_16  and  N_5 
REMARK    7  A    between atoms: C_22  and  C_17 
REMARK    8  A    between atoms: C_26  and  C_23 
REMARK    9  A    between atoms: C_25  and  C_24 
ROOT
ATOM      1  N   UNL d   1       0.968   7.216 -10.870  0.00  0.00    -0.197 NA
ATOM      2  C   UNL d   1       0.094   7.581 -10.197  0.00  0.00     0.063 C 
ATOM      3  C   UNL d   1      -1.016   8.071  -9.358  0.00  0.00     0.162 C 
ENDROOT
BRANCH   3   4
ATOM      4  C   UNL d   1      -1.130   7.311  -8.060  0.00  0.00    -0.045 A 
ATOM      5  C   UNL d   1      -0.408   7.709  -6.927  0.00  0.00     0.010 A 
ATOM      6  C   UNL d   1      -0.392   6.906  -5.779  0.00  0.00     0.030 A 
ATOM      7  C   UNL d   1      -1.073   5.684  -5.758  0.00  0.00     0.035 A 
ATOM      8  C   UNL d   1      -1.874   5.345  -6.848  0.00  0.00     0.030 A 
ATOM      9  C   UNL d   1      -1.898   6.146  -7.993  0.00  0.00     0.010 A 
BRANCH   7  10
ATOM     10  N   UNL d   1      -0.856   4.826  -4.652  0.00  0.00    -0.323 N 
ATOM     11  C   UNL d   1      -1.122   3.462  -4.630  0.00  0.00     0.256 C 
ATOM     12  O   UNL d   1      -1.656   2.830  -5.537  0.00  0.00    -0.267 OA
ATOM     13  H   UNL d   1      -0.280   5.213  -3.922  0.00  0.00     0.169 HD
BRANCH  11  14
ATOM     14  C   UNL d   1      -0.644   2.684  -3.440  0.00  0.00     0.032 A 
ATOM     15  C   UNL d   1      -0.126   3.273  -2.278  0.00  0.00     0.018 A 
ATOM     16  C   UNL d   1       0.368   2.470  -1.244  0.00  0.00     0.026 A 
ATOM     17  C   UNL d   1       0.360   1.077  -1.372  0.00  0.00     0.074 A 
ATOM     18  C   UNL d   1      -0.213   0.473  -2.489  0.00  0.00     0.026 A 
ATOM     19  C   UNL d   1      -0.708   1.279  -3.518  0.00  0.00     0.018 A 
BRANCH  17  20
ATOM     20  S   UNL d   1       1.012   0.068  -0.061  0.00  0.00     0.243 S 
ATOM     21  O   UNL d   1       0.215  -1.137  -0.027  0.00  0.00    -0.206 OA
ATOM     22  O   UNL d   1       1.142   0.905   1.118  0.00  0.00    -0.206 OA
BRANCH  20  23
ATOM     23  N   UNL d   1       2.628  -0.324  -0.585  0.00  0.00    -0.206 NA
BRANCH  23  24
ATOM     24  C   UNL d   1       3.449   0.901  -0.895  0.00  0.00     0.107 C 
BRANCH  24  25
ATOM     25  C   UNL d   1       4.872   0.634  -1.397  0.00  0.00     0.011 C 
ATOM     26  C   UNL d   1       4.942  -0.281  -2.608  0.00  0.00     0.006 C 
ENDBRANCH  24  25
ENDBRANCH  23  24
BRANCH  23  27
ATOM     27  C   UNL d   1       3.320  -1.249   0.382  0.00  0.00     0.107 C 
BRANCH  27  28
ATOM     28  C   UNL d   1       2.782  -2.679   0.359  0.00  0.00     0.011 C 
ATOM     29  C   UNL d   1       2.768  -3.298  -1.030  0.00  0.00     0.006 C 
ENDBRANCH  27  28
ENDBRANCH  23  27
ENDBRANCH  20  23
ENDBRANCH  17  20
ENDBRANCH  11  14
ENDBRANCH   7  10
ENDBRANCH   3   4
TORSDOF 9
