REMARK  2 active torsions:
REMARK  status: ('A' for Active; 'I' for Inactive)
REMARK       I    between atoms: C_4  and  N_1 
REMARK    1  A    between atoms: C_8  and  C_4 
REMARK    2  A    between atoms: C_9  and  C_5 
ROOT
ATOM      1  N   UNL d   1       0.930  -0.713  -0.045  0.00  0.00    -0.229 N 
ATOM      2  N   UNL d   1       0.936   0.645  -0.135  0.00  0.00    -0.290 N 
ATOM      3  HN  UNL d   1       1.743   1.252  -0.283  1.00  0.00     0.187 HD
ATOM      4  C   UNL d   1       2.137  -1.461  -0.078  0.00  0.00     0.300 C 
ATOM      5  C   UNL d   1      -0.340   1.015   0.013  0.00  0.00     0.067 A 
ATOM      6  C   UNL d   1      -1.190  -0.101   0.164  0.00  0.00     0.051 A 
ATOM      7  C   UNL d   1      -0.358  -1.192   0.113  0.00  0.00     0.122 A 
ATOM      8  O   UNL d   1       2.012  -2.675   0.093  0.00  0.00    -0.263 OA
ENDROOT
BRANCH   4   9
ATOM      9  C   UNL d   1       3.426  -0.820  -0.278  0.00  0.00     0.144 A 
ATOM     10  O   UNL d   1       4.545  -1.476   0.174  0.00  0.00    -0.317 OA
ATOM     11  C   UNL d   1       5.617  -0.684  -0.080  0.00  0.00     0.143 A 
ATOM     12  C   UNL d   1       5.225   0.466  -0.718  0.00  0.00     0.027 A 
ATOM     13  C   UNL d   1       3.819   0.378  -0.855  0.00  0.00     0.045 A 
ENDBRANCH   4   9
BRANCH   5  14
ATOM     14  C   UNL d   1      -0.736   2.461   0.006  0.00  0.00     0.033 A 
ATOM     15  S   UNL d   1      -2.329   3.033   0.232  0.00  0.00    -0.100 SA
ATOM     16  C   UNL d   1      -1.835   4.664   0.076  0.00  0.00     0.050 A 
ATOM     17  C   UNL d   1      -0.481   4.774  -0.151  0.00  0.00     0.008 A 
ATOM     18  C   UNL d   1       0.156   3.499  -0.185  0.00  0.00     0.021 A 
ENDBRANCH   5  14
TORSDOF 2
