REMARK  6 active torsions:
REMARK  status: ('A' for Active; 'I' for Inactive)
REMARK    1  A    between atoms: C_4  and  C_1 
REMARK    2  A    between atoms: N_7  and  C_2 
REMARK    3  A    between atoms: C_3  and  C_11 
REMARK    4  A    between atoms: O_22  and  C_4 
REMARK       I    between atoms: C_6  and  N_8 
REMARK    5  A    between atoms: C_12  and  C_6 
REMARK    6  A    between atoms: N_8  and  N_7 
ROOT
ATOM      1  C   UNL d   1       3.744   3.560   0.029  0.00  0.00     0.270 C 
ATOM      2  N   UNL d   1       2.603   2.867  -0.328  0.00  0.00    -0.265 N 
ATOM      3  O   UNL d   1       4.646   3.063   0.701  0.00  0.00    -0.266 OA
ATOM      4  H   UNL d   1       1.746   3.334  -0.634  0.00  0.00     0.190 HD
ENDROOT
BRANCH   2   5
ATOM      5  N   UNL d   1       2.453   1.574   0.188  0.00  0.00    -0.296 N 
ATOM      6  H   UNL d   1       3.278   1.331   0.753  0.00  0.00     0.187 HD
BRANCH   5   7
ATOM      7  C   UNL d   1       1.828   0.580  -0.503  0.00  0.00     0.071 A 
ATOM      8  C   UNL d   1       0.780   0.684  -1.413  0.00  0.00     0.108 A 
ATOM      9  S   UNL d   1       0.340  -0.884  -2.001  0.00  0.00    -0.094 SA
ATOM     10  C   UNL d   1       1.506  -1.668  -1.045  0.00  0.00     0.053 A 
ATOM     11  C   UNL d   1       2.227  -0.777  -0.290  0.00  0.00     0.039 A 
BRANCH   8  12
ATOM     12  C   UNL d   1       0.057   1.862  -1.885  0.00  0.00     0.302 C 
ATOM     13  O   UNL d   1       0.304   3.029  -1.587  0.00  0.00    -0.259 OA
BRANCH  12  14
ATOM     14  O   UNL d   1      -0.959   1.515  -2.734  0.00  0.00    -0.322 OA
ATOM     15  C   UNL d   1      -1.729   2.602  -3.245  0.00  0.00     0.213 C 
ENDBRANCH  12  14
ENDBRANCH   8  12
ENDBRANCH   5   7
ENDBRANCH   2   5
BRANCH   1  16
ATOM     16  C   UNL d   1       3.823   4.973  -0.426  0.00  0.00     0.033 A 
ATOM     17  C   UNL d   1       4.607   5.874   0.303  0.00  0.00     0.018 A 
ATOM     18  C   UNL d   1       4.713   7.207  -0.104  0.00  0.00     0.017 A 
ATOM     19  C   UNL d   1       4.045   7.655  -1.254  0.00  0.00     0.048 A 
ATOM     20  C   UNL d   1       3.272   6.741  -1.989  0.00  0.00     0.017 A 
ATOM     21  C   UNL d   1       3.161   5.410  -1.581  0.00  0.00     0.018 A 
BRANCH  19  22
ATOM     22  C   UNL d   1       4.153   9.088  -1.718  0.00  0.00     0.417 C 
ATOM     23  F   UNL d   1       4.899   9.875  -0.895  0.00  0.00    -0.166 F 
ATOM     24  F   UNL d   1       4.720   9.191  -2.952  0.00  0.00    -0.166 F 
ATOM     25  F   UNL d   1       2.937   9.695  -1.815  0.00  0.00    -0.166 F 
ENDBRANCH  19  22
ENDBRANCH   1  16
TORSDOF 6
