REMARK  4 active torsions:
REMARK  status: ('A' for Active; 'I' for Inactive)
REMARK    1  A    between atoms: C_5  and  N_1 
REMARK    2  A    between atoms: S_7  and  C_4 
REMARK    3  A    between atoms: C_10  and  S_7 
REMARK    4  A    between atoms: N_18  and  C_15 
ROOT
ATOM      1  N   UNL d   1       0.063   0.890  -0.006  0.00  0.00    -0.251 N 
ATOM      2  C   UNL d   1      -1.078   0.153   0.215  0.00  0.00     0.232 C 
ATOM      3  C   UNL d   1       1.164   0.070  -0.145  0.00  0.00     0.245 C 
ATOM      4  C   UNL d   1       0.715  -1.375  -0.189  0.00  0.00     0.154 C 
ATOM      5  C   UNL d   1      -0.752  -1.311   0.177  0.00  0.00     0.129 C 
ATOM      6  O   UNL d   1      -2.217   0.545   0.424  0.00  0.00    -0.273 OA
ATOM      7  O   UNL d   1       2.347   0.393  -0.183  0.00  0.00    -0.271 OA
ENDROOT
BRANCH   4   8
ATOM      8  S   UNL d   1       1.043  -2.019  -1.875  0.00  0.00    -0.113 SA
BRANCH   8   9
ATOM      9  C   UNL d   1       0.560  -3.742  -1.700  0.00  0.00     0.022 A 
ATOM     10  C   UNL d   1      -0.437  -4.277  -2.545  0.00  0.00     0.022 A 
ATOM     11  C   UNL d   1      -0.825  -5.612  -2.382  0.00  0.00     0.024 A 
ATOM     12  C   UNL d   1      -0.155  -6.443  -1.483  0.00  0.00     0.002 A 
ATOM     13  C   UNL d   1       0.881  -5.933  -0.705  0.00  0.00     0.001 A 
ATOM     14  C   UNL d   1       1.233  -4.584  -0.805  0.00  0.00     0.020 A 
BRANCH  10  15
ATOM     15  N   UNL d   1      -1.196  -3.446  -3.397  0.00  0.00    -0.302 NA
ATOM     16  H   UNL d   1      -0.654  -2.634  -3.688  0.00  0.00     0.124 HD
ATOM     17  H   UNL d   1      -1.595  -3.941  -4.189  0.00  0.00     0.124 HD
ENDBRANCH  10  15
ENDBRANCH   8   9
ENDBRANCH   4   8
BRANCH   1  18
ATOM     18  C   UNL d   1       0.114   2.321  -0.052  0.00  0.00     0.047 A 
ATOM     19  C   UNL d   1      -0.892   3.120   0.513  0.00  0.00     0.054 A 
ATOM     20  C   UNL d   1      -0.843   4.521   0.442  0.00  0.00     0.042 A 
ATOM     21 CL   UNL d   1      -2.114   5.414   1.202  0.00  0.00    -0.084 Cl
ATOM     22  C   UNL d   1       0.205   5.173  -0.218  0.00  0.00    -0.040 A 
ATOM     23  C   UNL d   1       1.214   4.387  -0.780  0.00  0.00     0.011 A 
ATOM     24  C   UNL d   1       0.279   6.670  -0.327  0.00  0.00     0.050 C 
ATOM     25  C   UNL d   1       1.170   2.987  -0.693  0.00  0.00     0.031 A 
ENDBRANCH   1  18
TORSDOF 4
