REMARK  3 active torsions:
REMARK  status: ('A' for Active; 'I' for Inactive)
REMARK    1  A    between atoms: C_5  and  N_1 
REMARK    2  A    between atoms: C_6  and  C_2 
REMARK    3  A    between atoms: C_13  and  C_5 
ROOT
ATOM      1  N   UNL d   1      -2.411   0.699   0.330  0.00  0.00     0.131 N 
ATOM      2  C   UNL d   1      -1.185   1.438  -0.061  0.00  0.00     0.490 C 
ATOM      3  N   UNL d   1       0.054   0.687   0.271  0.00  0.00     0.131 N 
ATOM      4  C   UNL d   1      -2.438  -0.600  -0.347  0.00  0.00     0.278 C 
ATOM      5  C   UNL d   1       0.052  -0.662  -0.345  0.00  0.00     0.228 C 
ATOM      6  C   UNL d   1      -1.218  -1.444  -0.014  0.00  0.00     0.066 C 
ATOM      7  C   UNL d   1       1.264   1.405  -0.199  0.00  0.00     0.276 C 
ATOM      8  C   UNL d   1       1.280  -1.462   0.124  0.00  0.00     0.036 C 
ATOM      9  C   UNL d   1       2.542   0.690   0.248  0.00  0.00     0.030 C 
ATOM     10  C   UNL d   1       2.574  -0.748  -0.243  0.00  0.00     0.004 C 
ENDROOT
BRANCH   1  11
ATOM     11  C   UNL d   1      -2.580   0.593   1.793  0.00  0.00     0.314 C 
BRANCH  11  12
ATOM     12  C   UNL d   1      -3.827  -0.139   2.262  0.00  0.00    -0.030 A 
ATOM     13  C   UNL d   1      -3.713  -1.315   3.020  0.00  0.00     0.009 A 
ATOM     14  C   UNL d   1      -4.850  -1.945   3.531  0.00  0.00     0.001 A 
ATOM     15  C   UNL d   1      -6.112  -1.406   3.291  0.00  0.00     0.000 A 
ATOM     16  C   UNL d   1      -6.240  -0.246   2.528  0.00  0.00     0.001 A 
ATOM     17  C   UNL d   1      -5.104   0.383   2.012  0.00  0.00     0.009 A 
ENDBRANCH  11  12
ENDBRANCH   1  11
BRANCH   2  18
ATOM     18  C   UNL d   1      -1.201   2.883   0.474  0.00  0.00     0.005 A 
ATOM     19  C   UNL d   1      -0.669   3.215   1.737  0.00  0.00     0.013 A 
ATOM     20  C   UNL d   1      -0.653   4.536   2.187  0.00  0.00     0.024 A 
ATOM     21  C   UNL d   1      -1.174   5.545   1.380  0.00  0.00     0.034 A 
ATOM     22  C   UNL d   1      -1.724   5.238   0.140  0.00  0.00     0.024 A 
ATOM     23 CL   UNL d   1      -1.126   7.178   1.919  0.00  0.00    -0.084 Cl
ATOM     24  C   UNL d   1      -1.746   3.914  -0.309  0.00  0.00     0.013 A 
ENDBRANCH   2  18
TORSDOF 3
