REMARK  2 active torsions:
REMARK  status: ('A' for Active; 'I' for Inactive)
REMARK    1  A    between atoms: C_7  and  C_2 
REMARK    2  A    between atoms: C_11  and  C_6 
ROOT
ATOM      1  C   UNL d   1      -0.478  -0.409   0.001  0.00  0.00     0.124 A 
ATOM      2  C   UNL d   1       0.273  -1.536  -0.037  0.00  0.00     0.009 A 
ATOM      3  C   UNL d   1       0.207   0.919   0.027  0.00  0.00     0.267 A 
ATOM      4  N   UNL d   1       1.579   0.905   0.062  0.00  0.00    -0.322 N 
ATOM      5  C   UNL d   1       1.732  -1.429  -0.001  0.00  0.00     0.045 A 
ATOM      6  C   UNL d   1       2.336  -0.234   0.051  0.00  0.00     0.046 A 
ATOM      7  C   UNL d   1      -1.902  -0.404   0.012  0.00  0.00     0.106 C 
ATOM      8  N   UNL d   1      -3.062  -0.435   0.040  0.00  0.00    -0.191 NA
ATOM      9  O   UNL d   1      -0.409   1.980   0.015  0.00  0.00    -0.266 OA
ATOM     10  H   UNL d   1       2.035   1.811   0.078  0.00  0.00     0.169 HD
ENDROOT
BRANCH   2  11
ATOM     11  C   UNL d   1      -0.376  -2.814  -0.106  0.00  0.00     0.016 A 
ATOM     12  S   UNL d   1      -0.712  -3.532  -1.637  0.00  0.00    -0.101 SA
ATOM     13  C   UNL d   1      -1.394  -4.924  -0.917  0.00  0.00     0.050 A 
ATOM     14  C   UNL d   1      -1.376  -4.856   0.456  0.00  0.00     0.008 A 
ATOM     15  C   UNL d   1      -0.796  -3.639   0.923  0.00  0.00     0.020 A 
ENDBRANCH   2  11
BRANCH   6  16
ATOM     16  C   UNL d   1       3.795  -0.094   0.091  0.00  0.00    -0.009 A 
ATOM     17  C   UNL d   1       4.527   0.012  -1.096  0.00  0.00     0.014 A 
ATOM     18  C   UNL d   1       5.915   0.175  -1.057  0.00  0.00     0.007 A 
ATOM     19  C   UNL d   1       6.589   0.235   0.169  0.00  0.00    -0.062 A 
ATOM     20  C   UNL d   1       5.856   0.118   1.355  0.00  0.00     0.007 A 
ATOM     21  C   UNL d   1       8.076   0.436   0.201  0.00  0.00     0.048 C 
ATOM     22  C   UNL d   1       4.468  -0.047   1.317  0.00  0.00     0.014 A 
ENDBRANCH   6  16
TORSDOF 2
