REMARK  5 active torsions:
REMARK  status: ('A' for Active; 'I' for Inactive)
REMARK    1  A    between atoms: C_12  and  N_1 
REMARK    2  A    between atoms: S_15  and  C_2 
REMARK    3  A    between atoms: C_11  and  C_3 
REMARK    4  A    between atoms: C_10  and  O_13 
REMARK    5  A    between atoms: O_13  and  C_11 
ROOT
ATOM      1  N   UNL d   1      -0.204  -0.945  -0.645  0.00  0.00    -0.308 N 
ATOM      2  C   UNL d   1       0.939  -0.364  -0.126  0.00  0.00     0.160 A 
ATOM      3  C   UNL d   1      -1.242  -0.339   0.038  0.00  0.00     0.125 A 
ATOM      4  N   UNL d   1       0.626   0.480   0.823  0.00  0.00    -0.278 N 
ATOM      5  HN  UNL d   1       1.280   1.032   1.379  1.00  0.00     0.189 HD
ATOM      6  N   UNL d   1      -0.732   0.488   0.934  0.00  0.00    -0.285 N 
ATOM      7  HN  UNL d   1      -1.269   1.043   1.601  1.00  0.00     0.188 HD
ENDROOT
BRANCH   3   8
ATOM      8  C   UNL d   1      -2.705  -0.412  -0.223  0.00  0.00     0.253 C 
BRANCH   8   9
ATOM      9  O   UNL d   1      -3.198  -1.715   0.086  0.00  0.00    -0.343 OA
BRANCH   9  10
ATOM     10  C   UNL d   1      -4.567  -1.833   0.071  0.00  0.00     0.076 A 
ATOM     11  C   UNL d   1      -5.090  -3.091   0.355  0.00  0.00    -0.018 A 
ATOM     12  C   UNL d   1      -6.471  -3.327   0.353  0.00  0.00    -0.043 A 
ATOM     13  C   UNL d   1      -4.322  -4.323   0.709  0.00  0.00     0.042 A 
ATOM     14  C   UNL d   1      -6.787  -4.752   0.678  0.00  0.00     0.040 A 
ATOM     15  C   UNL d   1      -7.382  -2.310   0.080  0.00  0.00    -0.055 A 
ATOM     16  C   UNL d   1      -5.410  -5.393   0.890  0.00  0.00     0.009 A 
ATOM     17  C   UNL d   1      -6.865  -1.039  -0.189  0.00  0.00     0.010 A 
ATOM     18  C   UNL d   1      -8.860  -2.556   0.070  0.00  0.00     0.049 C 
ATOM     19  C   UNL d   1      -5.479  -0.806  -0.200  0.00  0.00     0.038 A 
ENDBRANCH   9  10
ENDBRANCH   8   9
ENDBRANCH   3   8
BRANCH   1  20
ATOM     20  C   UNL d   1      -0.216  -1.998  -1.646  0.00  0.00     0.093 C 
ATOM     21  C   UNL d   1      -0.089  -3.389  -1.008  0.00  0.00     0.026 C 
ATOM     22  C   UNL d   1       0.312  -4.413  -2.068  0.00  0.00     0.002 C 
ATOM     23  C   UNL d   1      -0.660  -4.425  -3.247  0.00  0.00     0.000 C 
ATOM     24  C   UNL d   1      -0.942  -3.028  -3.808  0.00  0.00     0.002 C 
ATOM     25  C   UNL d   1      -1.318  -2.017  -2.714  0.00  0.00     0.026 C 
ENDBRANCH   1  20
BRANCH   2  26
ATOM     26  S   UNL d   1       2.574  -0.644  -0.635  0.00  0.00    -0.105 SA
ATOM     27  H   UNL d   1       2.456  -1.835  -1.231  0.00  0.00     0.110 HD
ENDBRANCH   2  26
TORSDOF 5
