REMARK  5 active torsions:
REMARK  status: ('A' for Active; 'I' for Inactive)
REMARK    1  A    between atoms: C_6  and  N_1 
REMARK    2  A    between atoms: C_5  and  C_6 
REMARK       I    between atoms: N_11  and  C_5 
REMARK    3  A    between atoms: N_8  and  N_11 
REMARK    4  A    between atoms: C_16  and  C_14 
REMARK    5  A    between atoms: O_19  and  C_17 
ROOT
ATOM      1  C   UNL d   1       2.640   2.953  -0.547  0.00  0.00     0.254 C 
ATOM      2  N   UNL d   1       3.659   2.055  -0.254  0.00  0.00    -0.269 N 
ATOM      3  O   UNL d   1       2.780   4.154  -0.764  0.00  0.00    -0.270 OA
ATOM      4  H   UNL d   1       3.388   1.233   0.293  0.00  0.00     0.190 HD
ENDROOT
BRANCH   1   5
ATOM      5  C   UNL d   1       1.252   2.270  -0.578  0.00  0.00     0.236 C 
BRANCH   5   6
ATOM      6  N   UNL d   1       0.534   2.180   0.707  0.00  0.00    -0.307 N 
ATOM      7  C   UNL d   1       1.260   1.683   1.796  0.00  0.00     0.234 C 
ATOM      8  C   UNL d   1       0.657   1.983   3.146  0.00  0.00     0.182 C 
ATOM      9  O   UNL d   1       2.333   1.092   1.685  0.00  0.00    -0.272 OA
ATOM     10  S   UNL d   1      -0.793   0.953   3.352  0.00  0.00    -0.118 SA
ATOM     11  C   UNL d   1      -1.582   1.380   1.803  0.00  0.00     0.028 A 
ATOM     12  C   UNL d   1      -0.910   1.974   0.702  0.00  0.00     0.054 A 
ATOM     13  C   UNL d   1      -2.948   1.057   1.726  0.00  0.00     0.021 A 
ATOM     14  C   UNL d   1      -1.690   2.279  -0.429  0.00  0.00     0.031 A 
ATOM     15  C   UNL d   1      -3.054   1.966  -0.489  0.00  0.00     0.002 A 
ATOM     16  C   UNL d   1      -3.681   1.342   0.582  0.00  0.00     0.002 A 
ENDBRANCH   5   6
ENDBRANCH   1   5
BRANCH   2  17
ATOM     17  N   UNL d   1       4.973   2.434  -0.230  0.00  0.00    -0.308 N 
ATOM     18  C   UNL d   1       5.768   1.521   0.238  0.00  0.00     0.118 C 
ATOM     19  HN  UNL d   1       5.297   3.347  -0.549  1.00  0.00     0.186 HD
BRANCH  18  20
ATOM     20  C   UNL d   1       7.232   1.699   0.318  0.00  0.00    -0.017 A 
ATOM     21  C   UNL d   1       7.824   2.937   0.044  0.00  0.00     0.049 A 
ATOM     22  C   UNL d   1       9.212   3.065   0.098  0.00  0.00     0.069 A 
ATOM     23  C   UNL d   1       9.995   1.952   0.422  0.00  0.00     0.037 A 
ATOM     24  C   UNL d   1       9.404   0.718   0.699  0.00  0.00     0.004 A 
ATOM     25  C   UNL d   1       8.018   0.591   0.652  0.00  0.00     0.013 A 
BRANCH  22  26
ATOM     26  O   UNL d   1       9.926   4.207  -0.143  0.00  0.00    -0.356 OA
ATOM     27  C   UNL d   1       9.181   5.362  -0.513  0.00  0.00     0.210 C 
ENDBRANCH  22  26
ENDBRANCH  18  20
ENDBRANCH   2  17
TORSDOF 5
