REMARK  2 active torsions:
REMARK  status: ('A' for Active; 'I' for Inactive)
REMARK    1  A    between atoms: S_11  and  C_5 
REMARK    2  A    between atoms: C_15  and  S_11 
ROOT
ATOM      1  C   UNL d   1       0.758   0.512  -0.040  0.00  0.00     0.039 A 
ATOM      2  C   UNL d   1       1.301  -0.769  -0.052  0.00  0.00     0.089 A 
ATOM      3  C   UNL d   1      -1.137  -0.873  -0.051  0.00  0.00    -0.008 A 
ATOM      4  C   UNL d   1      -0.691   0.438  -0.086  0.00  0.00    -0.029 A 
ATOM      5  C   UNL d   1       1.714   1.541   0.020  0.00  0.00     0.089 A 
ATOM      6  S   UNL d   1       0.128  -2.002  -0.072  0.00  0.00    -0.075 SA
ATOM      7  N   UNL d   1       2.605  -1.096  -0.040  0.00  0.00    -0.346 N 
ATOM      8  HN  UNL d   1       2.947  -2.056  -0.054  1.00  0.00     0.167 HD
ATOM      9  N   UNL d   1       3.035   1.255   0.028  0.00  0.00    -0.346 N 
ATOM     10  HN  UNL d   1       3.733   1.998   0.060  1.00  0.00     0.167 HD
ATOM     11  C   UNL d   1      -1.662   1.588  -0.097  0.00  0.00     0.041 C 
ATOM     12  C   UNL d   1       3.401  -0.030  -0.007  0.00  0.00     0.182 A 
ATOM     13  C   UNL d   1      -2.572  -1.308  -0.009  0.00  0.00     0.051 C 
ATOM     14  C   UNL d   1      -3.112   1.136  -0.331  0.00  0.00     0.009 C 
ATOM     15  C   UNL d   1      -3.480  -0.145   0.443  0.00  0.00    -0.014 C 
ATOM     16  C   UNL d   1      -3.413   0.068   1.960  0.00  0.00     0.010 C 
ENDROOT
BRANCH   5  17
ATOM     17  S   UNL d   1       1.262   3.250   0.067  0.00  0.00    -0.072 SA
BRANCH  17  18
ATOM     18  C   UNL d   1       1.038   3.577   1.810  0.00  0.00     0.007 A 
ATOM     19  C   UNL d   1       1.808   2.972   2.809  0.00  0.00     0.019 A 
ATOM     20  C   UNL d   1       1.622   3.310   4.153  0.00  0.00     0.001 A 
ATOM     21  C   UNL d   1       0.671   4.263   4.511  0.00  0.00     0.000 A 
ATOM     22  C   UNL d   1      -0.100   4.875   3.526  0.00  0.00     0.001 A 
ATOM     23  C   UNL d   1       0.084   4.533   2.182  0.00  0.00     0.019 A 
ENDBRANCH  17  18
ENDBRANCH   5  17
TORSDOF 2
