REMARK  5 active torsions:
REMARK  status: ('A' for Active; 'I' for Inactive)
REMARK    1  A    between atoms: S_2  and  C_1 
REMARK    2  A    between atoms: N_4  and  C_1 
REMARK    3  A    between atoms: C_7  and  S_2 
REMARK    4  A    between atoms: C_5  and  C_7 
REMARK    5  A    between atoms: O_8  and  C_5 
ROOT
ATOM      1  S   UNL d   1      -0.018  -0.448  -1.539  0.00  0.00    -0.091 SA
ENDROOT
BRANCH   1   2
ATOM      2  C   UNL d   1       1.152  -0.068  -0.265  0.00  0.00     0.136 C 
ATOM      3  S   UNL d   1       2.201  -1.277   0.269  0.00  0.00    -0.053 SA
BRANCH   2   4
ATOM      4  N   UNL d   1       1.073   1.226   0.284  0.00  0.00    -0.375 N 
ATOM      5  C   UNL d   1       1.866   1.635   1.449  0.00  0.00     0.150 C 
ATOM      6  C   UNL d   1       0.176   2.286  -0.184  0.00  0.00     0.150 C 
ENDBRANCH   2   4
ENDBRANCH   1   2
BRANCH   1   7
ATOM      7  C   UNL d   1       1.067  -1.006  -2.890  0.00  0.00     0.192 C 
BRANCH   7   8
ATOM      8  C   UNL d   1       0.269  -1.424  -4.115  0.00  0.00     0.268 C 
ATOM      9  O   UNL d   1      -0.947  -1.427  -4.237  0.00  0.00    -0.264 OA
BRANCH   8  10
ATOM     10  O   UNL d   1       1.139  -1.821  -5.096  0.00  0.00    -0.326 OA
ATOM     11  C   UNL d   1       0.499  -2.274  -6.293  0.00  0.00     0.213 C 
ENDBRANCH   8  10
ENDBRANCH   7   8
ENDBRANCH   1   7
TORSDOF 5
