REMARK  3 active torsions:
REMARK  status: ('A' for Active; 'I' for Inactive)
REMARK    1  A    between atoms: S_17  and  C_9 
REMARK    2  A    between atoms: C_21  and  S_17 
REMARK    3  A    between atoms: C_18  and  C_21 
ROOT
ATOM      1  C   UNL d   1       1.185   1.023  -0.015  0.00  0.00     0.068 A 
ATOM      2  C   UNL d   1      -1.273   0.837  -0.006  0.00  0.00     0.088 A 
ATOM      3  C   UNL d   1      -0.693  -0.427  -0.013  0.00  0.00     0.032 A 
ATOM      4  S   UNL d   1      -0.149   2.103   0.000  0.00  0.00    -0.066 SA
ATOM      5  C   UNL d   1       0.752  -0.303  -0.022  0.00  0.00     0.067 A 
ATOM      6  N   UNL d   1      -2.585   1.134  -0.004  0.00  0.00    -0.354 N 
ATOM      7  HN  UNL d   1      -2.928   2.095  -0.002  1.00  0.00     0.166 HD
ATOM      8  C   UNL d   1      -1.590  -1.532  -0.008  0.00  0.00    -0.045 A 
ATOM      9  C   UNL d   1       2.557   1.288  -0.017  0.00  0.00     0.090 A 
ATOM     10  N   UNL d   1       3.426   0.258  -0.030  0.00  0.00    -0.346 N 
ATOM     11  HN  UNL d   1       4.433   0.417  -0.039  1.00  0.00     0.167 HD
ATOM     12  N   UNL d   1       1.634  -1.338  -0.029  0.00  0.00    -0.350 N 
ATOM     13  HN  UNL d   1       1.335  -2.313  -0.031  1.00  0.00     0.166 HD
ATOM     14  C   UNL d   1       2.922  -0.983  -0.032  0.00  0.00     0.181 A 
ATOM     15  C   UNL d   1      -2.968  -1.242  -0.004  0.00  0.00     0.032 A 
ATOM     16  C   UNL d   1      -3.409   0.075  -0.005  0.00  0.00     0.006 A 
ATOM     17  C   UNL d   1      -1.186  -2.982  -0.006  0.00  0.00     0.049 C 
ATOM     18  C   UNL d   1      -4.881   0.370  -0.005  0.00  0.00     0.068 C 
ENDROOT
BRANCH   9  19
ATOM     19  S   UNL d   1       3.158   2.951   0.095  0.00  0.00    -0.107 SA
BRANCH  19  20
ATOM     20  C   UNL d   1       4.707   2.839  -0.848  0.00  0.00     0.107 C 
BRANCH  20  21
ATOM     21  C   UNL d   1       5.297   4.221  -0.922  0.00  0.00    -0.026 C 
ATOM     22  C   UNL d   1       5.544   4.895  -2.052  0.00  0.00     0.007 C 
ENDBRANCH  20  21
ENDBRANCH  19  20
ENDBRANCH   9  19
TORSDOF 3
