REMARK  4 active torsions:
REMARK  status: ('A' for Active; 'I' for Inactive)
REMARK    1  A    between atoms: C_3  and  C_16 
REMARK    2  A    between atoms: C_3  and  O_12 
REMARK    3  A    between atoms: O_26  and  C_8 
REMARK    4  A    between atoms: C_17  and  O_12 
ROOT
ATOM      1  C   UNL d   1       2.867  -2.052  -0.708  0.00  0.00     0.002 C 
ATOM      2  C   UNL d   1       0.785   0.267  -0.143  0.00  0.00     0.144 C 
ATOM      3  C   UNL d   1       3.473  -2.981  -1.884  0.00  0.00     0.138 C 
ATOM      4  C   UNL d   1      -0.269   1.180   0.627  0.00  0.00     0.019 C 
ATOM      5  C   UNL d   1       0.505  -1.272  -0.081  0.00  0.00     0.034 C 
ATOM      6  C   UNL d   1       1.406  -1.850  -1.165  0.00  0.00     0.005 C 
ATOM      7  C   UNL d   1      -1.663   0.512   0.731  0.00  0.00    -0.065 C 
ATOM      8  C   UNL d   1       2.344   0.437   0.163  0.00  0.00     0.160 C 
ATOM      9  C   UNL d   1       3.345  -0.546  -0.619  0.00  0.00     0.048 C 
ATOM     10  C   UNL d   1      -2.830   1.167   0.602  0.00  0.00     0.053 C 
ATOM     11  C   UNL d   1       2.423  -2.748  -3.014  0.00  0.00     0.048 C 
ATOM     12  C   UNL d   1       1.080  -2.849  -2.239  0.00  0.00     0.009 C 
ATOM     13  C   UNL d   1      -0.956  -1.657  -0.193  0.00  0.00     0.013 C 
ATOM     14  C   UNL d   1      -0.463   2.511  -0.181  0.00  0.00     0.025 C 
ATOM     15  C   UNL d   1      -1.707  -0.978   0.943  0.00  0.00     0.036 C 
ATOM     16  C   UNL d   1      -2.903   2.627   0.372  0.00  0.00     0.149 C 
ATOM     17  F   UNL d   1       0.603   0.622  -1.475  0.00  0.00    -0.239 F 
ATOM     18  O   UNL d   1      -3.995   3.169   0.294  0.00  0.00    -0.293 OA
ATOM     19  C   UNL d   1       3.070  -2.678   0.686  0.00  0.00     0.019 C 
ATOM     20  C   UNL d   1      -1.607   3.396   0.303  0.00  0.00     0.084 C 
ATOM     21  C   UNL d   1       0.209   1.519   2.051  0.00  0.00     0.023 C 
ENDROOT
BRANCH   3  22
ATOM     22  C   UNL d   1       3.415  -4.559  -1.808  0.00  0.00     0.158 C 
ATOM     23  O   UNL d   1       2.828  -5.177  -0.921  0.00  0.00    -0.295 OA
ATOM     24  C   UNL d   1       4.045  -5.325  -2.971  0.00  0.00     0.094 C 
ENDBRANCH   3  22
BRANCH   3  25
ATOM     25  O   UNL d   1       4.805  -2.556  -2.232  0.00  0.00    -0.302 OA
BRANCH  25  26
ATOM     26  C   UNL d   1       5.807  -3.074  -1.451  0.00  0.00     0.256 C 
ATOM     27  O   UNL d   1       5.655  -3.856  -0.523  0.00  0.00    -0.266 OA
ATOM     28  C   UNL d   1       7.160  -2.641  -1.907  0.00  0.00     0.126 C 
ENDBRANCH  25  26
ENDBRANCH   3  25
BRANCH   8  29
ATOM     29  O   UNL d   1       2.744   1.790  -0.071  0.00  0.00    -0.392 OA
ATOM     30  H   UNL d   1       3.707   1.812  -0.202  0.00  0.00     0.210 HD
ENDBRANCH   8  29
TORSDOF 4
