REMARK  5 active torsions:
REMARK  status: ('A' for Active; 'I' for Inactive)
REMARK    1  A    between atoms: C_3  and  C_12 
REMARK    2  A    between atoms: C_6  and  C_4 
REMARK    3  A    between atoms: O_11  and  C_5 
REMARK    4  A    between atoms: O_17  and  C_6 
REMARK    5  A    between atoms: C_12  and  O_11 
ROOT
ATOM      1  N   UNL d   1       0.516  -1.175   0.154  0.00  0.00    -0.327 N 
ATOM      2  HN  UNL d   1       0.056  -2.083   0.231  1.00  0.00     0.169 HD
ATOM      3  C   UNL d   1       1.754   1.304  -0.014  0.00  0.00     0.044 A 
ATOM      4  C   UNL d   1       1.856  -1.055   0.225  0.00  0.00     0.144 A 
ATOM      5  C   UNL d   1      -0.186  -0.040  -0.022  0.00  0.00     0.106 A 
ATOM      6  C   UNL d   1       2.519   0.153   0.155  0.00  0.00     0.074 A 
ATOM      7  C   UNL d   1       0.368   1.221  -0.118  0.00  0.00     0.060 A 
ATOM      8 CL   UNL d   1      -1.885  -0.253  -0.119  0.00  0.00    -0.064 Cl
ENDROOT
BRANCH   4   9
ATOM      9  O   UNL d   1       2.537  -2.220   0.452  0.00  0.00    -0.327 OA
BRANCH   9  10
ATOM     10  C   UNL d   1       3.386  -2.549  -0.659  0.00  0.00     0.294 C 
BRANCH  10  11
ATOM     11  C   UNL d   1       3.856  -3.993  -0.573  0.00  0.00     0.408 C 
ATOM     12  F   UNL d   1       2.833  -4.855  -0.399  0.00  0.00    -0.169 F 
ATOM     13  F   UNL d   1       4.493  -4.344  -1.716  0.00  0.00    -0.169 F 
ATOM     14  F   UNL d   1       4.731  -4.167   0.443  0.00  0.00    -0.169 F 
ENDBRANCH  10  11
ENDBRANCH   9  10
ENDBRANCH   4   9
BRANCH   3  15
ATOM     15  C   UNL d   1       2.465   2.591  -0.132  0.00  0.00     0.176 C 
ATOM     16  O   UNL d   1       3.511   2.702  -0.742  0.00  0.00    -0.646 OA
BRANCH  15  17
ATOM     17  O   UNL d   1       1.867   3.599   0.534  0.00  0.00    -0.773 OA
ATOM     18  H   UNL d   1       1.141   3.346   1.133  0.00  0.00     0.167 HD
ENDBRANCH  15  17
ENDBRANCH   3  15
TORSDOF 5
