REMARK  3 active torsions:
REMARK  status: ('A' for Active; 'I' for Inactive)
REMARK    1  A    between atoms: C_5  and  CA_1 
REMARK    2  A    between atoms: S_11  and  C_4 
REMARK    3  A    between atoms: OXT_13  and  C_5 
ROOT
ATOM      1  CA  UNL d   1      -0.963  -1.159  -0.045  0.00  0.00     0.127 A 
ATOM      2  N   UNL d   1      -2.331  -1.171   0.026  0.00  0.00    -0.330 N 
ATOM      3  HN  UNL d   1      -2.861  -2.042   0.035  1.00  0.00     0.168 HD
ATOM      4  C   UNL d   1      -2.934   0.025   0.084  0.00  0.00     0.144 A 
ATOM      5  C   UNL d   1      -0.204  -0.008  -0.059  0.00  0.00     0.059 A 
ATOM      6  N   UNL d   1      -2.287   1.197   0.074  0.00  0.00    -0.345 N 
ATOM      7  HN  UNL d   1      -2.789   2.084   0.118  1.00  0.00     0.167 HD
ATOM      8  C   UNL d   1      -0.939   1.154   0.002  0.00  0.00     0.112 A 
ATOM      9 BR   UNL d   1       1.672   0.117  -0.149  0.00  0.00    -0.047 Br
ENDROOT
BRANCH   1  10
ATOM     10  C   UNL d   1      -0.376  -2.538  -0.107  0.00  0.00     0.195 C 
ATOM     11  O   UNL d   1       0.803  -2.825  -0.177  0.00  0.00    -0.645 OA
BRANCH  10  12
ATOM     12  OXT UNL d   1      -1.363  -3.472  -0.075  0.00  0.00    -0.772 OA
ATOM     13  HXT UNL d   1      -2.243  -3.030  -0.019  0.00  0.00     0.167 HD
ENDBRANCH  10  12
ENDBRANCH   1  10
BRANCH   4  14
ATOM     14  S   UNL d   1      -4.704   0.015   0.181  0.00  0.00    -0.098 SA
ATOM     15  C   UNL d   1      -5.035   1.795   0.256  0.00  0.00     0.099 C 
ENDBRANCH   4  14
TORSDOF 3
