REMARK  4 active torsions:
REMARK  status: ('A' for Active; 'I' for Inactive)
REMARK       I    between atoms: C_4  and  N_1 
REMARK    1  A    between atoms: C_7  and  C_3 
REMARK    2  A    between atoms: C_8  and  C_4 
REMARK    3  A    between atoms: C_14  and  C_11 
REMARK    4  A    between atoms: O_20  and  C_14 
ROOT
ATOM      1  N   UNL d   1       3.387  -0.121  -0.067  0.00  0.00    -0.329 N 
ATOM      2  C   UNL d   1       1.058  -0.826   0.023  0.00  0.00     0.049 A 
ATOM      3  C   UNL d   1       2.494  -1.320   0.124  0.00  0.00     0.245 C 
ATOM      4  C   UNL d   1       4.671  -0.341  -0.579  0.00  0.00     0.255 C 
ATOM      5  C   UNL d   1       0.636   0.491  -0.032  0.00  0.00    -0.019 A 
ATOM      6  N   UNL d   1      -0.064  -1.617   0.026  0.00  0.00    -0.356 N 
ATOM      7  C   UNL d   1      -0.781   0.506  -0.038  0.00  0.00    -0.001 A 
ATOM      8  C   UNL d   1      -1.197  -0.826   0.011  0.00  0.00     0.043 A 
ATOM      9  C   UNL d   1       2.923   1.126   0.594  0.00  0.00     0.132 C 
ATOM     10  C   UNL d   1       1.607   1.617  -0.037  0.00  0.00     0.061 C 
ATOM     11  O   UNL d   1       5.075  -1.464  -0.859  0.00  0.00    -0.267 OA
ATOM     12  C   UNL d   1      -1.753   1.525  -0.059  0.00  0.00     0.014 A 
ATOM     13  C   UNL d   1      -2.551  -1.184   0.045  0.00  0.00     0.030 A 
ATOM     14  C   UNL d   1      -3.108   1.181  -0.024  0.00  0.00     0.001 A 
ATOM     15  C   UNL d   1      -3.498  -0.154   0.028  0.00  0.00     0.002 A 
ATOM     16  H   UNL d   1      -0.086  -2.627   0.080  0.00  0.00     0.166 HD
ENDROOT
BRANCH   3  17
ATOM     17  C   UNL d   1       2.786  -2.111   1.437  0.00  0.00     0.413 C 
ATOM     18  F   UNL d   1       3.867  -1.634   2.099  0.00  0.00    -0.168 F 
ATOM     19  F   UNL d   1       1.748  -2.067   2.310  0.00  0.00    -0.168 F 
ATOM     20  F   UNL d   1       3.012  -3.421   1.174  0.00  0.00    -0.168 F 
ENDBRANCH   3  17
BRANCH   4  21
ATOM     21  C   UNL d   1       5.580   0.811  -0.856  0.00  0.00     0.049 C 
ATOM     22  C   UNL d   1       6.956   0.817  -0.571  0.00  0.00     0.053 C 
ATOM     23  C   UNL d   1       7.663   2.034  -0.716  0.00  0.00     0.019 C 
ATOM     24  C   UNL d   1       7.032   3.203  -1.143  0.00  0.00     0.001 C 
ATOM     25  C   UNL d   1       5.700   3.162  -1.518  0.00  0.00     0.001 C 
ATOM     26  C   UNL d   1       5.000   1.961  -1.430  0.00  0.00     0.018 C 
BRANCH  22  27
ATOM     27  C   UNL d   1       7.799  -0.317  -0.084  0.00  0.00     0.177 C 
ATOM     28  O   UNL d   1       8.799  -0.111   0.584  0.00  0.00    -0.646 OA
BRANCH  27  29
ATOM     29  O   UNL d   1       7.510  -1.545  -0.548  0.00  0.00    -0.773 OA
ATOM     30  H   UNL d   1       6.609  -1.672  -0.924  0.00  0.00     0.167 HD
ENDBRANCH  27  29
ENDBRANCH  22  27
ENDBRANCH   4  21
TORSDOF 4
