REMARK  6 active torsions:
REMARK  status: ('A' for Active; 'I' for Inactive)
REMARK    1  A    between atoms: C_4  and  C_1 
REMARK    2  A    between atoms: S_3  and  C_2 
REMARK    3  A    between atoms: C_5  and  S_3 
REMARK       I    between atoms: N_12  and  C_4 
REMARK    4  A    between atoms: C_9  and  C_6 
REMARK    5  A    between atoms: C_7  and  O_10 
REMARK    6  A    between atoms: O_10  and  C_9 
ROOT
ATOM      1  S   UNL d   1       1.072  -2.828  -0.313  0.00  0.00    -0.089 SA
ENDROOT
BRANCH   1   2
ATOM      2  C   UNL d   1      -0.043  -4.160   0.163  0.00  0.00     0.021 A 
ATOM      3  C   UNL d   1      -1.216  -4.504  -0.550  0.00  0.00     0.049 A 
ATOM      4  C   UNL d   1      -2.141  -5.393   0.048  0.00  0.00     0.018 A 
ATOM      5  C   UNL d   1      -1.921  -5.950   1.305  0.00  0.00     0.001 A 
ATOM      6  C   UNL d   1      -0.749  -5.655   1.978  0.00  0.00     0.001 A 
ATOM      7  C   UNL d   1       0.176  -4.780   1.407  0.00  0.00     0.020 A 
BRANCH   3   8
ATOM      8  C   UNL d   1      -1.613  -4.044  -1.927  0.00  0.00     0.252 C 
ATOM      9  O   UNL d   1      -2.738  -4.297  -2.352  0.00  0.00    -0.268 OA
ATOM     10  N   UNL d   1      -0.679  -3.398  -2.701  0.00  0.00    -0.361 N 
ATOM     11  C   UNL d   1      -0.934  -3.019  -4.070  0.00  0.00     0.149 C 
ATOM     12  H   UNL d   1       0.225  -3.180  -2.302  0.00  0.00     0.162 HD
ENDBRANCH   3   8
ENDBRANCH   1   2
BRANCH   1  13
ATOM     13  C   UNL d   1       2.713  -3.345   0.195  0.00  0.00     0.014 A 
ATOM     14  C   UNL d   1       3.329  -2.918   1.394  0.00  0.00    -0.017 A 
ATOM     15  C   UNL d   1       4.695  -3.215   1.592  0.00  0.00     0.011 A 
ATOM     16  C   UNL d   1       5.422  -3.950   0.657  0.00  0.00     0.001 A 
ATOM     17  C   UNL d   1       4.800  -4.400  -0.500  0.00  0.00     0.001 A 
ATOM     18  C   UNL d   1       3.458  -4.094  -0.733  0.00  0.00     0.019 A 
BRANCH  14  19
ATOM     19  C   UNL d   1       2.608  -2.092   2.443  0.00  0.00     0.218 C 
BRANCH  19  20
ATOM     20  O   UNL d   1       3.173  -2.297   3.755  0.00  0.00    -0.317 OA
BRANCH  20  21
ATOM     21  C   UNL d   1       2.623  -3.289   4.506  0.00  0.00     0.255 C 
ATOM     22  O   UNL d   1       1.652  -3.965   4.203  0.00  0.00    -0.266 OA
ATOM     23  C   UNL d   1       3.375  -3.466   5.791  0.00  0.00     0.126 C 
ENDBRANCH  20  21
ENDBRANCH  19  20
ENDBRANCH  14  19
ENDBRANCH   1  13
TORSDOF 6
