REMARK  4 active torsions:
REMARK  status: ('A' for Active; 'I' for Inactive)
REMARK    1  A    between atoms: N_13  and  C_5 
REMARK    2  A    between atoms: C_12  and  C_6 
REMARK    3  A    between atoms: O_14  and  C_7 
REMARK    4  A    between atoms: C_17  and  O_14 
ROOT
ATOM      1  C   UNL d   1       0.938  -0.370  -0.016  0.00  0.00     0.095 A 
ATOM      2  C   UNL d   1      -1.460  -0.090   0.010  0.00  0.00     0.108 A 
ATOM      3  N   UNL d   1       0.000   1.839   0.048  0.00  0.00    -0.325 N 
ATOM      4  HN  UNL d   1       0.119   2.852   0.067  1.00  0.00     0.169 HD
ATOM      5  C   UNL d   1       1.059   1.022   0.065  0.00  0.00     0.101 A 
ATOM      6  C   UNL d   1      -0.351  -0.980  -0.030  0.00  0.00     0.023 A 
ATOM      7  C   UNL d   1      -1.229   1.287   0.004  0.00  0.00     0.165 A 
ATOM      8  C   UNL d   1       2.162  -1.116  -0.109  0.00  0.00     0.103 C 
ATOM      9  C   UNL d   1      -2.824  -0.531   0.120  0.00  0.00     0.104 C 
ATOM     10  N   UNL d   1      -3.920  -0.890   0.207  0.00  0.00    -0.191 NA
ATOM     11  N   UNL d   1       3.172  -1.679  -0.184  0.00  0.00    -0.191 NA
ENDROOT
BRANCH   5  12
ATOM     12  N   UNL d   1       2.269   1.671   0.283  0.00  0.00    -0.287 NA
ATOM     13  H   UNL d   1       2.118   2.677   0.255  0.00  0.00     0.125 HD
ATOM     14  H   UNL d   1       3.043   1.374  -0.301  0.00  0.00     0.125 HD
ENDBRANCH   5  12
BRANCH   6  15
ATOM     15  C   UNL d   1      -0.520  -2.476  -0.083  0.00  0.00    -0.023 A 
ATOM     16  C   UNL d   1      -1.523  -3.089  -0.861  0.00  0.00     0.012 A 
ATOM     17  C   UNL d   1      -1.691  -4.480  -0.897  0.00  0.00     0.001 A 
ATOM     18  C   UNL d   1      -0.813  -5.310  -0.213  0.00  0.00     0.000 A 
ATOM     19  C   UNL d   1       0.207  -4.745   0.538  0.00  0.00     0.001 A 
ATOM     20  C   UNL d   1       0.323  -3.352   0.633  0.00  0.00     0.012 A 
ENDBRANCH   6  15
BRANCH   7  21
ATOM     21  O   UNL d   1      -2.310   2.144  -0.102  0.00  0.00    -0.335 OA
BRANCH  21  22
ATOM     22  C   UNL d   1      -2.002   3.488   0.284  0.00  0.00     0.173 C 
ATOM     23  C   UNL d   1      -3.199   4.378   0.003  0.00  0.00     0.034 C 
ENDBRANCH  21  22
ENDBRANCH   7  21
TORSDOF 4
