REMARK  2 active torsions:
REMARK  status: ('A' for Active; 'I' for Inactive)
REMARK    1  A    between atoms: N_3  and  C_1 
REMARK    2  A    between atoms: C_2  and  N_3 
ROOT
ATOM      1  C   UNL d   1       1.222  -3.209   0.304  0.00  0.00     0.046 A 
ATOM      2  C   UNL d   1       1.674  -4.129  -0.675  0.00  0.00    -0.035 A 
ATOM      3  C   UNL d   1       2.113  -2.839   1.348  0.00  0.00    -0.035 A 
ATOM      4  C   UNL d   1       3.815  -4.338   0.477  0.00  0.00     0.001 A 
ATOM      5  C   UNL d   1       3.399  -3.405   1.416  0.00  0.00     0.009 A 
ATOM      6  C   UNL d   1       2.958  -4.698  -0.553  0.00  0.00     0.009 A 
ATOM      7  C   UNL d   1       1.749  -1.859   2.434  0.00  0.00     0.050 C 
ATOM      8  C   UNL d   1       0.897  -4.579  -1.886  0.00  0.00     0.050 C 
ENDROOT
BRANCH   1   9
ATOM      9  N   UNL d   1      -0.035  -2.562   0.257  0.00  0.00    -0.336 N 
ATOM     10  H   UNL d   1       0.059  -1.571   0.080  0.00  0.00     0.168 HD
BRANCH   9  11
ATOM     11  C   UNL d   1      -1.199  -3.101  -0.201  0.00  0.00     0.140 C 
ATOM     12  N   UNL d   1      -1.599  -4.323  -0.142  0.00  0.00    -0.370 N 
ATOM     13  C   UNL d   1      -2.836  -4.491  -0.925  0.00  0.00     0.132 C 
ATOM     14  HN  UNL d   1      -1.128  -5.067   0.373  1.00  0.00     0.161 HD
ATOM     15  C   UNL d   1      -3.599  -3.181  -0.975  0.00  0.00     0.102 C 
ATOM     16  S   UNL d   1      -2.287  -1.949  -0.961  0.00  0.00    -0.093 SA
ENDBRANCH   9  11
ENDBRANCH   1   9
TORSDOF 2
