REMARK  3 active torsions:
REMARK  status: ('A' for Active; 'I' for Inactive)
REMARK    1  A    between atoms: C_9  and  C_3 
REMARK    2  A    between atoms: C_7  and  C_10 
REMARK    3  A    between atoms: C_8  and  C_11 
ROOT
ATOM      1  C   UNL d   1      -3.770  -0.021   0.012  0.00  0.00    -0.006 A 
ATOM      2  C   UNL d   1      -5.904  -0.911   0.817  0.00  0.00     0.049 A 
ATOM      3  C   UNL d   1      -5.852   0.516  -1.162  0.00  0.00     0.049 A 
ATOM      4  C   UNL d   1      -6.567  -0.251  -0.228  0.00  0.00     0.032 A 
ATOM      5  C   UNL d   1      -4.457   0.625  -1.027  0.00  0.00     0.030 A 
ATOM      6  C   UNL d   1      -4.509  -0.781   0.929  0.00  0.00     0.030 A 
ENDROOT
BRANCH   1   7
ATOM      7  C   UNL d   1      -2.320   0.089   0.098  0.00  0.00     0.060 A 
ATOM      8  N   UNL d   1      -1.559   0.772  -0.828  0.00  0.00    -0.340 N 
ATOM      9  C   UNL d   1      -0.310   0.632  -0.434  0.00  0.00     0.111 A 
ATOM     10  HN  UNL d   1      -1.894   1.279  -1.647  1.00  0.00     0.167 HD
ATOM     11  N   UNL d   1      -0.229  -0.122   0.730  0.00  0.00    -0.317 N 
ATOM     12  C   UNL d   1       0.916   1.104  -0.984  0.00  0.00     0.049 A 
ATOM     13  C   UNL d   1       0.968  -0.433   1.369  0.00  0.00     0.098 A 
ATOM     14  C   UNL d   1      -1.513  -0.464   1.071  0.00  0.00     0.128 A 
ATOM     15  C   UNL d   1       2.123   0.014   0.847  0.00  0.00     0.018 A 
ATOM     16  C   UNL d   1       2.082   0.810  -0.372  0.00  0.00     0.005 A 
ENDBRANCH   1   7
BRANCH   3  17
ATOM     17  C   UNL d   1      -6.555   1.202  -2.309  0.00  0.00     0.417 C 
ATOM     18  F   UNL d   1      -7.898   0.972  -2.332  0.00  0.00    -0.166 F 
ATOM     19  F   UNL d   1      -6.412   2.556  -2.281  0.00  0.00    -0.166 F 
ATOM     20  F   UNL d   1      -6.091   0.797  -3.523  0.00  0.00    -0.166 F 
ENDBRANCH   3  17
BRANCH   2  21
ATOM     21  C   UNL d   1      -6.652  -1.775   1.804  0.00  0.00     0.417 C 
ATOM     22  F   UNL d   1      -7.987  -1.857   1.556  0.00  0.00    -0.166 F 
ATOM     23  F   UNL d   1      -6.193  -3.057   1.816  0.00  0.00    -0.166 F 
ATOM     24  F   UNL d   1      -6.534  -1.324   3.083  0.00  0.00    -0.166 F 
ENDBRANCH   2  21
TORSDOF 3
