REMARK  4 active torsions:
REMARK  status: ('A' for Active; 'I' for Inactive)
REMARK    1  A    between atoms: N_5  and  C_3 
REMARK    2  A    between atoms: C_12  and  C_4 
REMARK       I    between atoms: C_6  and  N_5 
REMARK       I    between atoms: N_10  and  C_6 
REMARK    3  A    between atoms: C_7  and  C_11 
REMARK    4  A    between atoms: C_21  and  N_10 
ROOT
ATOM      1  N   UNL d   1       1.058  -0.507   0.646  0.00  0.00    -0.336 N 
ATOM      2  HN  UNL d   1       1.840  -1.104   0.914  1.00  0.00     0.168 HD
ATOM      3  C   UNL d   1       1.162   0.828   0.302  0.00  0.00     0.116 A 
ATOM      4  C   UNL d   1      -0.208  -0.899   0.576  0.00  0.00     0.086 A 
ATOM      5  S   UNL d   1      -1.320   0.356   0.152  0.00  0.00    -0.080 SA
ATOM      6  C   UNL d   1      -0.027   1.456   0.014  0.00  0.00     0.100 A 
ENDROOT
BRANCH   3   7
ATOM      7  N   UNL d   1       2.358   1.498   0.223  0.00  0.00    -0.294 N 
ATOM      8  C   UNL d   1       3.634   1.067   0.424  0.00  0.00     0.326 C 
ATOM      9  N   UNL d   1       3.807  -0.199   0.899  0.00  0.00    -0.309 N 
ATOM     10  O   UNL d   1       4.534   1.868   0.152  0.00  0.00    -0.247 OA
ATOM     11  H   UNL d   1       2.941  -0.682   1.123  0.00  0.00     0.170 HD
ATOM     12  H   UNL d   1       2.336   2.452  -0.114  0.00  0.00     0.172 HD
BRANCH   9  13
ATOM     13  C   UNL d   1       5.014  -0.924   0.980  0.00  0.00     0.036 A 
ATOM     14  C   UNL d   1       6.252  -0.425   0.558  0.00  0.00     0.031 A 
ATOM     15  C   UNL d   1       7.375  -1.257   0.493  0.00  0.00     0.026 A 
ATOM     16  C   UNL d   1       7.271  -2.589   0.874  0.00  0.00     0.034 A 
ATOM     17  C   UNL d   1       6.068  -3.080   1.377  0.00  0.00     0.026 A 
ATOM     18 CL   UNL d   1       8.620  -3.640   0.693  0.00  0.00    -0.084 Cl
ATOM     19  C   UNL d   1       4.945  -2.247   1.435  0.00  0.00     0.031 A 
ENDBRANCH   9  13
ENDBRANCH   3   7
BRANCH   4  20
ATOM     20  C   UNL d   1      -0.681  -2.288   0.793  0.00  0.00    -0.002 A 
ATOM     21  C   UNL d   1       0.259  -3.316   0.955  0.00  0.00     0.015 A 
ATOM     22  C   UNL d   1      -0.137  -4.648   1.131  0.00  0.00     0.017 A 
ATOM     23  C   UNL d   1      -1.493  -4.997   1.145  0.00  0.00     0.048 A 
ATOM     24  C   UNL d   1      -2.443  -3.980   0.999  0.00  0.00     0.017 A 
ATOM     25  C   UNL d   1      -2.043  -2.647   0.827  0.00  0.00     0.015 A 
BRANCH  23  26
ATOM     26  C   UNL d   1      -1.935  -6.429   1.325  0.00  0.00     0.417 C 
ATOM     27  F   UNL d   1      -0.919  -7.329   1.219  0.00  0.00    -0.166 F 
ATOM     28  F   UNL d   1      -2.503  -6.647   2.543  0.00  0.00    -0.166 F 
ATOM     29  F   UNL d   1      -2.866  -6.810   0.405  0.00  0.00    -0.166 F 
ENDBRANCH  23  26
ENDBRANCH   4  20
TORSDOF 4
