REMARK  5 active torsions:
REMARK  status: ('A' for Active; 'I' for Inactive)
REMARK    1  A    between atoms: C_8  and  N_4 
REMARK    2  A    between atoms: C_13  and  C_8 
REMARK    3  A    between atoms: C_9  and  C_10 
REMARK    4  A    between atoms: C_10  and  C_14 
REMARK    5  A    between atoms: C_14  and  C_13 
ROOT
ATOM      1  C   UNL d   1      -0.649  -1.244   1.583  0.00  0.00     0.276 C 
ENDROOT
BRANCH   1   2
ATOM      2  N   UNL d   1       0.065  -0.066   2.093  0.00  0.00     0.122 N 
ATOM      3  C   UNL d   1       1.462  -0.007   1.704  0.00  0.00     0.399 C 
ATOM      4  N   UNL d   1       1.569   0.253   0.301  0.00  0.00    -0.342 N 
ATOM      5  C   UNL d   1       0.721   1.085  -0.348  0.00  0.00     0.170 C 
ATOM      6  H   UNL d   1       2.436   0.034  -0.173  0.00  0.00     0.163 HD
ATOM      7  N   UNL d   1      -0.402   1.431   0.322  0.00  0.00    -0.342 N 
ATOM      8  S   UNL d   1       1.014   1.601  -1.896  0.00  0.00    -0.041 SA
ATOM      9  C   UNL d   1      -0.571   1.185   1.721  0.00  0.00     0.399 C 
ATOM     10  H   UNL d   1      -1.006   2.104  -0.133  0.00  0.00     0.163 HD
ENDBRANCH   1   2
BRANCH   1  11
ATOM     11  C   UNL d   1      -0.182  -2.563   2.223  0.00  0.00     0.031 C 
BRANCH  11  12
ATOM     12  C   UNL d   1      -0.240  -2.583   3.756  0.00  0.00     0.006 C 
BRANCH  12  13
ATOM     13  C   UNL d   1      -1.669  -2.443   4.282  0.00  0.00     0.038 C 
BRANCH  13  14
ATOM     14  C   UNL d   1      -1.736  -2.421   5.786  0.00  0.00    -0.058 A 
ATOM     15  C   UNL d   1      -1.637  -1.205   6.477  0.00  0.00     0.007 A 
ATOM     16  C   UNL d   1      -1.742  -1.172   7.867  0.00  0.00     0.001 A 
ATOM     17  C   UNL d   1      -1.936  -2.355   8.578  0.00  0.00     0.000 A 
ATOM     18  C   UNL d   1      -2.014  -3.570   7.902  0.00  0.00     0.001 A 
ATOM     19  C   UNL d   1      -1.911  -3.606   6.511  0.00  0.00     0.007 A 
ENDBRANCH  13  14
ENDBRANCH  12  13
ENDBRANCH  11  12
ENDBRANCH   1  11
TORSDOF 5
