REMARK  8 active torsions:
REMARK  status: ('A' for Active; 'I' for Inactive)
REMARK    1  A    between atoms: C_3  and  C_1 
REMARK    2  A    between atoms: C_2  and  C_4 
REMARK       I    between atoms: C_5  and  N_8 
REMARK    3  A    between atoms: C_13  and  C_5 
REMARK    4  A    between atoms: N_8  and  C_7 
REMARK    5  A    between atoms: C_9  and  C_13 
REMARK    6  A    between atoms: C_15  and  C_9 
REMARK    7  A    between atoms: C_12  and  C_15 
REMARK    8  A    between atoms: O_23  and  C_12 
ROOT
ATOM      1  C   UNL d   1       0.317   2.580   4.833  0.00  0.00     0.222 C 
ATOM      2  N   UNL d   1       1.637   2.860   5.138  0.00  0.00    -0.327 N 
ATOM      3  O   UNL d   1      -0.254   2.862   3.780  0.00  0.00    -0.273 OA
ATOM      4  H   UNL d   1       1.980   2.534   6.045  0.00  0.00     0.169 HD
ENDROOT
BRANCH   2   5
ATOM      5  C   UNL d   1       2.566   3.554   4.324  0.00  0.00     0.036 A 
ATOM      6  C   UNL d   1       2.289   3.958   3.014  0.00  0.00     0.045 A 
ATOM      7  C   UNL d   1       3.245   4.630   2.232  0.00  0.00     0.050 A 
ATOM      8  C   UNL d   1       4.495   4.925   2.789  0.00  0.00     0.032 A 
ATOM      9  C   UNL d   1       4.800   4.539   4.106  0.00  0.00     0.050 A 
ATOM     10  C   UNL d   1       3.827   3.849   4.858  0.00  0.00     0.045 A 
BRANCH   7  11
ATOM     11  C   UNL d   1       2.908   5.006   0.808  0.00  0.00     0.417 C 
ATOM     12  F   UNL d   1       3.946   5.593   0.146  0.00  0.00    -0.166 F 
ATOM     13  F   UNL d   1       1.872   5.883   0.726  0.00  0.00    -0.166 F 
ATOM     14  F   UNL d   1       2.554   3.928   0.055  0.00  0.00    -0.166 F 
ENDBRANCH   7  11
BRANCH   9  15
ATOM     15  C   UNL d   1       6.146   4.868   4.709  0.00  0.00     0.417 C 
ATOM     16  F   UNL d   1       7.010   5.442   3.824  0.00  0.00    -0.166 F 
ATOM     17  F   UNL d   1       6.051   5.738   5.751  0.00  0.00    -0.166 F 
ATOM     18  F   UNL d   1       6.785   3.768   5.190  0.00  0.00    -0.166 F 
ENDBRANCH   9  15
ENDBRANCH   2   5
BRANCH   1  19
ATOM     19  C   UNL d   1      -0.460   1.878   5.941  0.00  0.00     0.113 C 
BRANCH  19  20
ATOM     20  C   UNL d   1      -0.673   0.343   5.753  0.00  0.00    -0.023 C 
ATOM     21  C   UNL d   1      -1.435   0.007   4.436  0.00  0.00     0.010 C 
ATOM     22  C   UNL d   1      -2.919   0.363   4.435  0.00  0.00     0.001 C 
ATOM     23  C   UNL d   1      -3.630  -0.259   5.628  0.00  0.00     0.000 C 
ATOM     24  C   UNL d   1      -2.980   0.188   6.930  0.00  0.00     0.001 C 
ATOM     25  C   UNL d   1      -1.495  -0.188   6.966  0.00  0.00     0.010 C 
BRANCH  20  26
ATOM     26  C   UNL d   1       0.679  -0.421   5.671  0.00  0.00     0.119 C 
BRANCH  26  27
ATOM     27  C   UNL d   1       1.597  -0.224   6.853  0.00  0.00     0.140 C 
ATOM     28  O   UNL d   1       2.154   0.835   7.103  0.00  0.00    -0.650 OA
BRANCH  27  29
ATOM     29  O   UNL d   1       1.744  -1.323   7.623  0.00  0.00    -0.776 OA
ATOM     30  H   UNL d   1       1.260  -2.114   7.315  0.00  0.00     0.167 HD
ENDBRANCH  27  29
ENDBRANCH  26  27
ENDBRANCH  20  26
ENDBRANCH  19  20
ENDBRANCH   1  19
TORSDOF 8
