REMARK  5 active torsions:
REMARK  status: ('A' for Active; 'I' for Inactive)
REMARK    1  A    between atoms: N_2  and  C_1 
REMARK    2  A    between atoms: N_8  and  C_1 
REMARK       I    between atoms: C_9  and  N_2 
REMARK    3  A    between atoms: C_3  and  N_10 
REMARK    4  A    between atoms: C_4  and  C_5 
REMARK    5  A    between atoms: C_20  and  C_9 
ROOT
ATOM      1  N   UNL d   1       0.454   0.919  -0.665  0.00  0.00    -0.355 N 
ATOM      2  N   UNL d   1      -0.490   3.145  -2.134  0.00  0.00    -0.363 N 
ATOM      3  C   UNL d   1       0.842   1.113  -2.073  0.00  0.00     0.145 C 
ATOM      4  C   UNL d   1      -0.787   1.612  -0.255  0.00  0.00     0.145 C 
ATOM      5  C   UNL d   1       0.841   2.601  -2.453  0.00  0.00     0.144 C 
ATOM      6  C   UNL d   1      -0.783   3.101  -0.691  0.00  0.00     0.144 C 
ENDROOT
BRANCH   1   7
ATOM      7  C   UNL d   1       1.099   0.019   0.126  0.00  0.00     0.176 C 
ATOM      8  S   UNL d   1       2.732   0.142   0.489  0.00  0.00    -0.041 SA
BRANCH   7   9
ATOM      9  N   UNL d   1       0.402  -1.019   0.698  0.00  0.00    -0.300 N 
ATOM     10  C   UNL d   1      -0.762  -1.644   0.258  0.00  0.00     0.257 C 
ATOM     11  O   UNL d   1      -1.502  -1.219  -0.625  0.00  0.00    -0.267 OA
ATOM     12  H   UNL d   1       0.983  -1.525   1.345  0.00  0.00     0.171 HD
BRANCH  10  13
ATOM     13  C   UNL d   1      -1.141  -2.930   0.928  0.00  0.00     0.032 A 
ATOM     14  C   UNL d   1      -0.253  -3.709   1.685  0.00  0.00     0.017 A 
ATOM     15  C   UNL d   1      -0.688  -4.906   2.267  0.00  0.00     0.001 A 
ATOM     16  C   UNL d   1      -2.001  -5.340   2.092  0.00  0.00     0.000 A 
ATOM     17  C   UNL d   1      -2.885  -4.582   1.330  0.00  0.00     0.001 A 
ATOM     18  C   UNL d   1      -2.457  -3.387   0.750  0.00  0.00     0.017 A 
ENDBRANCH  10  13
ENDBRANCH   7   9
ENDBRANCH   1   7
BRANCH   2  19
ATOM     19  C   UNL d   1      -0.957   4.206  -2.889  0.00  0.00     0.125 A 
ATOM     20  N   UNL d   1      -1.203   5.385  -2.264  0.00  0.00    -0.350 N 
ATOM     21  C   UNL d   1      -1.703   6.415  -2.993  0.00  0.00     0.106 A 
ATOM     22  HN  UNL d   1      -1.016   5.495  -1.267  1.00  0.00     0.166 HD
ATOM     23  C   UNL d   1      -1.994   6.345  -4.346  0.00  0.00     0.065 A 
ATOM     24  C   UNL d   1      -1.757   5.130  -4.986  0.00  0.00     0.045 A 
ATOM     25  C   UNL d   1      -1.246   4.054  -4.260  0.00  0.00     0.078 A 
ATOM     26 CL   UNL d   1      -1.112   2.544  -5.099  0.00  0.00    -0.080 Cl
BRANCH  23  27
ATOM     27  C   UNL d   1      -2.566   7.525  -5.064  0.00  0.00     0.418 C 
ATOM     28  F   UNL d   1      -2.779   7.299  -6.390  0.00  0.00    -0.166 F 
ATOM     29  F   UNL d   1      -3.766   7.913  -4.555  0.00  0.00    -0.166 F 
ATOM     30  F   UNL d   1      -1.758   8.618  -4.999  0.00  0.00    -0.166 F 
ENDBRANCH  23  27
ENDBRANCH   2  19
TORSDOF 5
