REMARK  3 active torsions:
REMARK  status: ('A' for Active; 'I' for Inactive)
REMARK    1  A    between atoms: C_7  and  C_1 
REMARK    2  A    between atoms: C_11  and  C_5 
REMARK    3  A    between atoms: S_16  and  C_10 
ROOT
ATOM      1  C   UNL d   1      -0.134  -1.133  -0.006  0.00  0.00     0.056 A 
ATOM      2  S   UNL d   1       1.406  -0.363  -0.011  0.00  0.00    -0.068 SA
ATOM      3  N   UNL d   1      -0.651   1.157   0.030  0.00  0.00    -0.352 N 
ATOM      4  HN  UNL d   1      -1.247   1.984   0.041  1.00  0.00     0.166 HD
ATOM      5  C   UNL d   1       0.665   1.183   0.033  0.00  0.00     0.085 A 
ATOM      6  C   UNL d   1      -1.120  -0.154   0.010  0.00  0.00     0.025 A 
ATOM      7  C   UNL d   1      -2.596  -0.359   0.018  0.00  0.00     0.070 C 
ENDROOT
BRANCH   1   8
ATOM      8  C   UNL d   1      -0.230  -2.598  -0.061  0.00  0.00     0.054 A 
ATOM      9  N   UNL d   1      -1.344  -3.066  -0.656  0.00  0.00    -0.336 N 
ATOM     10  C   UNL d   1      -1.456  -4.397  -0.781  0.00  0.00     0.144 A 
ATOM     11  HN  UNL d   1      -2.071  -2.436  -0.997  1.00  0.00     0.168 HD
ATOM     12  N   UNL d   1      -0.547  -5.285  -0.349  0.00  0.00    -0.347 N 
ATOM     13  C   UNL d   1       0.542  -4.781   0.253  0.00  0.00     0.092 A 
ATOM     14  HN  UNL d   1      -0.676  -6.289  -0.472  1.00  0.00     0.167 HD
ATOM     15  C   UNL d   1       0.751  -3.437   0.431  0.00  0.00     0.048 A 
BRANCH  10  16
ATOM     16  S   UNL d   1      -2.925  -4.991  -1.585  0.00  0.00    -0.098 SA
ATOM     17  C   UNL d   1      -2.605  -6.772  -1.567  0.00  0.00     0.099 C 
ENDBRANCH  10  16
ENDBRANCH   1   8
BRANCH   5  18
ATOM     18  C   UNL d   1       1.477   2.412   0.015  0.00  0.00    -0.002 A 
ATOM     19  C   UNL d   1       0.947   3.575  -0.567  0.00  0.00     0.016 A 
ATOM     20  C   UNL d   1       1.693   4.758  -0.621  0.00  0.00     0.024 A 
ATOM     21  C   UNL d   1       2.976   4.790  -0.083  0.00  0.00     0.034 A 
ATOM     22  C   UNL d   1       3.517   3.655   0.512  0.00  0.00     0.024 A 
ATOM     23 CL   UNL d   1       3.900   6.240  -0.150  0.00  0.00    -0.084 Cl
ATOM     24  C   UNL d   1       2.770   2.473   0.563  0.00  0.00     0.016 A 
ENDBRANCH   5  18
TORSDOF 3
