REMARK  4 active torsions:
REMARK  status: ('A' for Active; 'I' for Inactive)
REMARK    1  A    between atoms: C_5  and  C_1 
REMARK    2  A    between atoms: C_6  and  C_2 
REMARK       I    between atoms: N_9  and  C_5 
REMARK    3  A    between atoms: C_13  and  N_9 
REMARK    4  A    between atoms: C_17  and  C_12 
ROOT
ATOM      1  C   UNL d   1      -0.144  -1.329  -0.231  0.00  0.00     0.093 A 
ATOM      2  C   UNL d   1       0.693  -0.262  -0.711  0.00  0.00     0.085 A 
ATOM      3  N   UNL d   1       0.077   0.919  -0.543  0.00  0.00    -0.259 N 
ATOM      4  HN  UNL d   1       0.446   1.837  -0.792  1.00  0.00     0.195 HD
ATOM      5  O   UNL d   1      -1.137   0.657   0.027  0.00  0.00    -0.241 OA
ATOM      6  C   UNL d   1      -1.292  -0.679   0.190  0.00  0.00     0.090 A 
ATOM      7  C   UNL d   1      -2.603  -1.073   0.747  0.00  0.00     0.080 C 
ENDROOT
BRANCH   1   8
ATOM      8  C   UNL d   1       0.163  -2.760  -0.178  0.00  0.00     0.261 C 
ATOM      9  N   UNL d   1      -0.940  -3.595  -0.245  0.00  0.00    -0.323 N 
ATOM     10  H   UNL d   1      -1.829  -3.167  -0.450  0.00  0.00     0.169 HD
ATOM     11  O   UNL d   1       1.323  -3.138  -0.095  0.00  0.00    -0.267 OA
BRANCH   9  12
ATOM     12  C   UNL d   1      -0.984  -4.988  -0.003  0.00  0.00     0.035 A 
ATOM     13  C   UNL d   1       0.122  -5.768   0.319  0.00  0.00     0.030 A 
ATOM     14  C   UNL d   1      -0.036  -7.113   0.688  0.00  0.00     0.010 A 
ATOM     15  C   UNL d   1      -1.302  -7.716   0.742  0.00  0.00    -0.055 A 
ATOM     16  C   UNL d   1      -2.400  -6.947   0.339  0.00  0.00     0.010 A 
ATOM     17  C   UNL d   1      -2.243  -5.602  -0.027  0.00  0.00     0.030 A 
BRANCH  15  18
ATOM     18  C   UNL d   1      -1.429  -9.121   1.323  0.00  0.00     0.010 C 
ATOM     19  C   UNL d   1      -2.865  -9.589   1.591  0.00  0.00     0.015 C 
ATOM     20  C   UNL d   1      -0.706 -10.177   0.480  0.00  0.00     0.015 C 
ENDBRANCH  15  18
ENDBRANCH   9  12
ENDBRANCH   1   8
BRANCH   2  21
ATOM     21  C   UNL d   1       1.952  -0.316  -1.462  0.00  0.00     0.015 A 
ATOM     22  C   UNL d   1       3.008   0.595  -1.272  0.00  0.00     0.046 A 
ATOM     23 CL   UNL d   1       3.063   1.726   0.038  0.00  0.00    -0.083 Cl
ATOM     24  C   UNL d   1       4.098   0.610  -2.156  0.00  0.00     0.025 A 
ATOM     25  C   UNL d   1       4.163  -0.291  -3.217  0.00  0.00     0.002 A 
ATOM     26  C   UNL d   1       3.149  -1.228  -3.388  0.00  0.00     0.001 A 
ATOM     27  C   UNL d   1       2.052  -1.236  -2.523  0.00  0.00     0.015 A 
ENDBRANCH   2  21
TORSDOF 4
