REMARK  3 active torsions:
REMARK  status: ('A' for Active; 'I' for Inactive)
REMARK    1  A    between atoms: C_10  and  C_4 
REMARK    2  A    between atoms: O_11  and  C_5 
REMARK    3  A    between atoms: C_12  and  C_10 
ROOT
ATOM      1  N   UNL d   1      -0.699   1.206  -0.270  0.00  0.00    -0.170 N 
ATOM      2  HN  UNL d   1      -1.128   2.114  -0.446  1.00  0.00     0.186 HD
ATOM      3  C   UNL d   1      -1.441   0.123  -0.021  0.00  0.00     0.682 A 
ATOM      4  C   UNL d   1       1.288  -0.146  -0.066  0.00  0.00     0.020 A 
ATOM      5  C   UNL d   1       0.628   1.048  -0.281  0.00  0.00     0.163 A 
ATOM      6  N   UNL d   1      -0.898  -1.086   0.212  0.00  0.00    -0.195 N 
ATOM      7  HN  UNL d   1      -1.493  -1.895   0.392  1.00  0.00     0.184 HD
ATOM      8  C   UNL d   1       0.446  -1.212   0.203  0.00  0.00     0.033 A 
ATOM      9  N   UNL d   1      -2.791   0.247   0.044  0.00  0.00    -0.218 N 
ATOM     10  C   UNL d   1      -3.482   1.506  -0.109  0.00  0.00     0.141 C 
ATOM     11  C   UNL d   1      -3.681  -0.886   0.176  0.00  0.00     0.141 C 
ATOM     12  C   UNL d   1       0.955  -2.596   0.482  0.00  0.00     0.069 C 
ATOM     13  C   UNL d   1      -4.844   1.206   0.511  0.00  0.00     0.022 C 
ATOM     14  C   UNL d   1      -5.079  -0.260   0.165  0.00  0.00     0.022 C 
ENDROOT
BRANCH   4  15
ATOM     15  C   UNL d   1       2.786  -0.263  -0.096  0.00  0.00     0.083 C 
BRANCH  15  16
ATOM     16  C   UNL d   1       3.524   0.293   1.107  0.00  0.00    -0.054 A 
ATOM     17  C   UNL d   1       2.895   0.596   2.324  0.00  0.00     0.008 A 
ATOM     18  C   UNL d   1       3.605   1.208   3.360  0.00  0.00     0.007 A 
ATOM     19  C   UNL d   1       4.964   1.502   3.216  0.00  0.00    -0.062 A 
ATOM     20  C   UNL d   1       5.613   1.137   2.033  0.00  0.00     0.007 A 
ATOM     21  C   UNL d   1       5.685   2.265   4.287  0.00  0.00     0.048 C 
ATOM     22  C   UNL d   1       4.901   0.533   0.993  0.00  0.00     0.008 A 
ENDBRANCH  15  16
ENDBRANCH   4  15
BRANCH   5  23
ATOM     23  O   UNL d   1       1.310   2.211  -0.512  0.00  0.00    -0.345 OA
ATOM     24  H   UNL d   1       2.085   2.213   0.073  0.00  0.00     0.219 HD
ENDBRANCH   5  23
TORSDOF 3
