REMARK  4 active torsions:
REMARK  status: ('A' for Active; 'I' for Inactive)
REMARK    1  A    between atoms: C_2  and  C_1 
REMARK       I    between atoms: N_7  and  C_1 
REMARK    2  A    between atoms: C_3  and  C_2 
REMARK    3  A    between atoms: C_11  and  C_8 
REMARK    4  A    between atoms: C_13  and  C_11 
ROOT
ATOM      1  C   UNL d   1      -0.412  -1.857   0.160  0.00  0.00    -0.045 A 
ATOM      2  C   UNL d   1       0.015  -3.188   0.043  0.00  0.00     0.008 A 
ATOM      3  C   UNL d   1      -1.608  -1.482  -0.468  0.00  0.00     0.008 A 
ATOM      4  C   UNL d   1      -1.933  -3.742  -1.309  0.00  0.00    -0.058 A 
ATOM      5  C   UNL d   1      -2.360  -2.414  -1.191  0.00  0.00     0.007 A 
ATOM      6  C   UNL d   1      -0.738  -4.118  -0.682  0.00  0.00     0.007 A 
ENDROOT
BRANCH   1   7
ATOM      7  C   UNL d   1       0.381  -0.839   0.967  0.00  0.00     0.106 C 
ATOM      8  C   UNL d   1       0.348  -1.170   2.461  0.00  0.00     0.025 C 
BRANCH   7   9
ATOM      9  C   UNL d   1       1.821  -0.699   0.468  0.00  0.00     0.223 C 
ATOM     10  O   UNL d   1       2.817  -1.024   1.106  0.00  0.00    -0.273 OA
ATOM     11  N   UNL d   1       1.950  -0.141  -0.776  0.00  0.00    -0.370 N 
ATOM     12  H   UNL d   1       1.166  -0.089  -1.410  0.00  0.00     0.159 HD
ATOM     13  H   UNL d   1       2.884  -0.117  -1.167  0.00  0.00     0.159 HD
ENDBRANCH   7   9
ENDBRANCH   1   7
BRANCH   4  14
ATOM     14  C   UNL d   1      -2.760  -4.768  -2.053  0.00  0.00     0.042 C 
BRANCH  14  15
ATOM     15  C   UNL d   1      -3.023  -4.448  -3.539  0.00  0.00    -0.019 C 
ATOM     16  C   UNL d   1      -1.730  -4.383  -4.356  0.00  0.00     0.010 C 
ATOM     17  C   UNL d   1      -3.955  -5.503  -4.144  0.00  0.00     0.010 C 
ENDBRANCH  14  15
ENDBRANCH   4  14
TORSDOF 4
