REMARK  3 active torsions:
REMARK  status: ('A' for Active; 'I' for Inactive)
REMARK    1  A    between atoms: C_5  and  C_1 
REMARK    2  A    between atoms: O_10  and  C_2 
REMARK    3  A    between atoms: N_9  and  C_5 
ROOT
ATOM      1  C   UNL d   1      -0.012  -1.453   0.130  0.00  0.00     0.052 A 
ATOM      2  C   UNL d   1       1.164  -0.705   0.098  0.00  0.00     0.153 A 
ATOM      3  N   UNL d   1       1.214   0.638  -0.014  0.00  0.00    -0.340 N 
ATOM      4  HN  UNL d   1       2.105   1.133  -0.040  1.00  0.00     0.167 HD
ATOM      5  C   UNL d   1      -1.210  -0.739   0.025  0.00  0.00     0.021 A 
ATOM      6  C   UNL d   1       0.039   1.305  -0.091  0.00  0.00     0.007 A 
ATOM      7  C   UNL d   1      -1.187   0.651  -0.087  0.00  0.00     0.025 A 
ATOM      8  C   UNL d   1       0.117   2.797  -0.197  0.00  0.00     0.068 C 
ENDROOT
BRANCH   1   9
ATOM      9  C   UNL d   1      -0.017  -2.936   0.263  0.00  0.00     0.108 C 
ATOM     10  S   UNL d   1      -1.189  -3.831   1.055  0.00  0.00    -0.060 SA
BRANCH   9  11
ATOM     11  N   UNL d   1       1.028  -3.615  -0.307  0.00  0.00    -0.389 N 
ATOM     12  H   UNL d   1       1.745  -3.159  -0.863  0.00  0.00     0.157 HD
ATOM     13  H   UNL d   1       1.025  -4.634  -0.289  0.00  0.00     0.157 HD
ENDBRANCH   9  11
ENDBRANCH   1   9
BRANCH   2  14
ATOM     14  O   UNL d   1       2.398  -1.278   0.214  0.00  0.00    -0.345 OA
ATOM     15  H   UNL d   1       2.364  -1.783   1.043  0.00  0.00     0.219 HD
ENDBRANCH   2  14
TORSDOF 3
