REMARK  0 active torsions:
REMARK  status: ('A' for Active; 'I' for Inactive)
ROOT
ATOM      1  N   UNL d   1       0.014   1.396   0.017  0.00  0.00    -0.356 N 
ATOM      2  HN  UNL d   1       0.003   2.416   0.036  1.00  0.00     0.166 HD
ATOM      3  N   UNL d   1       0.037  -1.420  -0.019  0.00  0.00    -0.356 N 
ATOM      4  HN  UNL d   1       0.042  -2.440  -0.037  1.00  0.00     0.166 HD
ATOM      5  C   UNL d   1      -1.123  -0.719  -0.001  0.00  0.00     0.032 A 
ATOM      6  C   UNL d   1      -1.135   0.675  -0.003  0.00  0.00     0.032 A 
ATOM      7  C   UNL d   1       1.179  -0.710  -0.013  0.00  0.00     0.059 A 
ATOM      8  C   UNL d   1       1.170   0.705   0.010  0.00  0.00     0.059 A 
ATOM      9  C   UNL d   1      -2.423   1.453   0.039  0.00  0.00     0.059 C 
ATOM     10  C   UNL d   1      -2.392  -1.523  -0.046  0.00  0.00     0.059 C 
ATOM     11  C   UNL d   1       2.383   1.384   0.026  0.00  0.00     0.032 A 
ATOM     12  C   UNL d   1       2.396  -1.381  -0.032  0.00  0.00     0.032 A 
ATOM     13  C   UNL d   1      -3.624  -0.719   0.363  0.00  0.00     0.006 C 
ATOM     14  C   UNL d   1      -3.639   0.620  -0.365  0.00  0.00     0.006 C 
ATOM     15  C   UNL d   1       3.607  -0.689  -0.021  0.00  0.00     0.002 A 
ATOM     16  C   UNL d   1       3.601   0.700   0.011  0.00  0.00     0.002 A 
ENDROOT
TORSDOF 0
