REMARK  3 active torsions:
REMARK  status: ('A' for Active; 'I' for Inactive)
REMARK    1  A    between atoms: N_2  and  S_1 
REMARK    2  A    between atoms: C_3  and  S_1 
REMARK    3  A    between atoms: N_9  and  C_8 
ROOT
ATOM      1  C   UNL d   1       0.576  -0.245  -1.714  0.00  0.00     0.079 A 
ATOM      2  C   UNL d   1       1.469   0.018  -2.756  0.00  0.00     0.027 A 
ATOM      3  C   UNL d   1      -0.673  -0.807  -1.989  0.00  0.00     0.027 A 
ATOM      4  C   UNL d   1      -0.208  -0.682  -4.373  0.00  0.00     0.005 A 
ATOM      5  C   UNL d   1       1.076  -0.214  -4.078  0.00  0.00     0.025 A 
ATOM      6  C   UNL d   1      -1.053  -1.034  -3.316  0.00  0.00     0.025 A 
ENDROOT
BRANCH   1   7
ATOM      7  S   UNL d   1       1.070   0.030  -0.020  0.00  0.00     0.260 S 
ATOM      8  O   UNL d   1       0.319  -0.891   0.803  0.00  0.00    -0.200 OA
ATOM      9  O   UNL d   1       2.518   0.050   0.009  0.00  0.00    -0.200 OA
BRANCH   7  10
ATOM     10  N   UNL d   1       0.509   1.621   0.310  0.00  0.00    -0.307 N 
ATOM     11  C   UNL d   1       1.210   2.703  -0.428  0.00  0.00     0.135 C 
ATOM     12  C   UNL d   1       0.817   4.072   0.117  0.00  0.00     0.021 C 
ATOM     13  C   UNL d   1      -0.694   4.257   0.082  0.00  0.00     0.003 C 
ATOM     14  C   UNL d   1      -1.359   3.153   0.892  0.00  0.00     0.021 C 
ATOM     15  C   UNL d   1      -0.968   1.772   0.372  0.00  0.00     0.135 C 
ENDBRANCH   7  10
ENDBRANCH   1   7
BRANCH   4  16
ATOM     16  N   UNL d   1      -0.552  -1.018  -5.687  0.00  0.00    -0.303 NA
ATOM     17  H   UNL d   1      -1.551  -1.061  -5.857  0.00  0.00     0.124 HD
ATOM     18  H   UNL d   1      -0.064  -0.476  -6.395  0.00  0.00     0.124 HD
ENDBRANCH   4  16
TORSDOF 3
