REMARK  4 active torsions:
REMARK  status: ('A' for Active; 'I' for Inactive)
REMARK    1  A    between atoms: C_7  and  C_1 
REMARK    2  A    between atoms: C_6  and  C_2 
REMARK    3  A    between atoms: C_13  and  N_3 
REMARK       I    between atoms: N_9  and  C_6 
REMARK    4  A    between atoms: C_11  and  N_9 
ROOT
ATOM      1  C   UNL d   1       0.825  -0.435  -0.291  0.00  0.00     0.157 C 
ATOM      2  C   UNL d   1      -0.306  -1.107   0.154  0.00  0.00     0.082 C 
ATOM      3  N   UNL d   1       0.528   0.914  -0.241  0.00  0.00    -0.251 N 
ATOM      4  N   UNL d   1      -0.553   1.146   0.539  0.00  0.00    -0.303 N 
ATOM      5  HN  UNL d   1      -0.878   2.036   0.914  1.00  0.00     0.186 HD
ATOM      6  C   UNL d   1      -1.093  -0.064   0.701  0.00  0.00     0.127 C 
ENDROOT
BRANCH   2   7
ATOM      7  C   UNL d   1      -0.644  -2.521   0.212  0.00  0.00     0.256 C 
ATOM      8  N   UNL d   1       0.142  -3.403  -0.503  0.00  0.00    -0.344 N 
ATOM      9  H   UNL d   1       1.032  -3.107  -0.892  0.00  0.00     0.163 HD
ATOM     10  O   UNL d   1      -1.627  -2.908   0.838  0.00  0.00    -0.268 OA
BRANCH   8  11
ATOM     11  C   UNL d   1      -0.046  -4.854  -0.428  0.00  0.00     0.177 C 
ATOM     12  C   UNL d   1       1.275  -5.508  -0.865  0.00  0.00     0.240 C 
ATOM     13  N   UNL d   1       1.404  -6.857  -0.708  0.00  0.00    -0.359 N 
ATOM     14  O   UNL d   1       2.192  -4.865  -1.379  0.00  0.00    -0.271 OA
ATOM     15  C   UNL d   1       0.423  -7.745  -0.128  0.00  0.00     0.122 C 
ATOM     16  H   UNL d   1       2.281  -7.238  -1.046  0.00  0.00     0.162 HD
ATOM     17  C   UNL d   1      -0.808  -7.888  -1.013  0.00  0.00     0.020 C 
ATOM     18  C   UNL d   1      -1.765  -6.695  -0.954  0.00  0.00     0.004 C 
ATOM     19  C   UNL d   1      -1.181  -5.332  -1.343  0.00  0.00     0.035 C 
ENDBRANCH   8  11
ENDBRANCH   2   7
BRANCH   1  20
ATOM     20  C   UNL d   1       2.189  -0.881  -0.609  0.00  0.00     0.435 C 
ATOM     21  F   UNL d   1       2.401  -2.156  -0.202  0.00  0.00    -0.165 F 
ATOM     22  F   UNL d   1       2.454  -0.863  -1.935  0.00  0.00    -0.165 F 
ATOM     23  F   UNL d   1       3.130  -0.129   0.012  0.00  0.00    -0.165 F 
ENDBRANCH   1  20
BRANCH   3  24
ATOM     24  C   UNL d   1       1.234   1.987  -0.844  0.00  0.00     0.057 A 
ATOM     25  C   UNL d   1       1.782   1.828  -2.124  0.00  0.00     0.031 A 
ATOM     26  C   UNL d   1       2.648   2.790  -2.640  0.00  0.00     0.002 A 
ATOM     27  C   UNL d   1       2.941   3.927  -1.894  0.00  0.00     0.000 A 
ATOM     28  C   UNL d   1       2.314   4.136  -0.663  0.00  0.00     0.002 A 
ATOM     29  C   UNL d   1       1.438   3.179  -0.142  0.00  0.00     0.031 A 
ENDBRANCH   3  24
TORSDOF 4
