REMARK  3 active torsions:
REMARK  status: ('A' for Active; 'I' for Inactive)
REMARK    1  A    between atoms: C_5  and  C_1 
REMARK       I    between atoms: N_10  and  C_5 
REMARK    2  A    between atoms: C_16  and  N_10 
REMARK    3  A    between atoms: C_12  and  C_16 
ROOT
ATOM      1  C   UNL d   1       5.342  -1.155  -1.391  0.00  0.00     0.260 C 
ATOM      2  N   UNL d   1       4.809  -1.876  -0.333  0.00  0.00    -0.354 N 
ATOM      3  O   UNL d   1       5.274  -1.597  -2.535  0.00  0.00    -0.267 OA
ATOM      4  H   UNL d   1       4.844  -1.461   0.588  0.00  0.00     0.162 HD
ENDROOT
BRANCH   2   5
ATOM      5  C   UNL d   1       3.990  -3.067  -0.517  0.00  0.00     0.157 C 
BRANCH   5   6
ATOM      6  C   UNL d   1       4.728  -4.417  -0.502  0.00  0.00     0.171 C 
ATOM      7  O   UNL d   1       5.303  -4.675   0.800  0.00  0.00    -0.339 OA
ATOM      8  C   UNL d   1       6.195  -5.727   0.764  0.00  0.00     0.102 A 
ATOM      9  C   UNL d   1       6.750  -6.145   1.972  0.00  0.00     0.039 A 
ATOM     10  C   UNL d   1       6.603  -6.345  -0.426  0.00  0.00     0.102 A 
ATOM     11  C   UNL d   1       7.701  -7.172   1.984  0.00  0.00     0.003 A 
ATOM     12  C   UNL d   1       8.060  -7.817   0.798  0.00  0.00     0.003 A 
ATOM     13  C   UNL d   1       7.492  -7.417  -0.408  0.00  0.00     0.039 A 
ATOM     14  O   UNL d   1       6.205  -5.905  -1.664  0.00  0.00    -0.346 OA
ATOM     15  C   UNL d   1       5.807  -4.529  -1.571  0.00  0.00     0.209 C 
ENDBRANCH   5   6
ENDBRANCH   2   5
BRANCH   1  16
ATOM     16  C   UNL d   1       5.960   0.124  -1.047  0.00  0.00     0.096 A 
ATOM     17  S   UNL d   1       5.831   0.770   0.534  0.00  0.00    -0.082 SA
ATOM     18  C   UNL d   1       6.764   2.160   0.159  0.00  0.00     0.017 A 
ATOM     19  C   UNL d   1       7.106   3.209   1.037  0.00  0.00     0.020 A 
ATOM     20  C   UNL d   1       7.182   2.151  -1.173  0.00  0.00     0.004 A 
ATOM     21  C   UNL d   1       7.907   4.253   0.572  0.00  0.00     0.001 A 
ATOM     22  C   UNL d   1       8.355   4.263  -0.740  0.00  0.00     0.001 A 
ATOM     23  C   UNL d   1       7.995   3.231  -1.613  0.00  0.00     0.014 A 
ATOM     24  C   UNL d   1       6.672   0.991  -1.867  0.00  0.00     0.068 A 
ATOM     25 CL   UNL d   1       6.980   0.757  -3.545  0.00  0.00    -0.082 Cl
ENDBRANCH   1  16
TORSDOF 3
