REMARK  5 active torsions:
REMARK  status: ('A' for Active; 'I' for Inactive)
REMARK    1  A    between atoms: C_2  and  C_1 
REMARK       I    between atoms: N_9  and  C_2 
REMARK    2  A    between atoms: C_15  and  C_5 
REMARK    3  A    between atoms: C_8  and  C_13 
REMARK    4  A    between atoms: C_19  and  N_9 
REMARK    5  A    between atoms: C_18  and  C_10 
ROOT
ATOM      1  C   UNL d   1      -6.182  -2.355  -0.098  0.00  0.00     0.057 C 
ATOM      2  C   UNL d   1      -6.928  -2.946   0.868  0.00  0.00     0.053 C 
ATOM      3  C   UNL d   1      -4.856  -2.831  -0.396  0.00  0.00     0.100 C 
ATOM      4  N   UNL d   1      -3.766  -3.121  -0.674  0.00  0.00    -0.191 NA
ENDROOT
BRANCH   1   5
ATOM      5  C   UNL d   1      -6.684  -1.169  -0.870  0.00  0.00    -0.015 A 
ATOM      6  C   UNL d   1      -5.777  -0.319  -1.531  0.00  0.00     0.015 A 
ATOM      7  C   UNL d   1      -6.210   0.700  -2.394  0.00  0.00     0.030 A 
ATOM      8  C   UNL d   1      -7.569   0.904  -2.632  0.00  0.00     0.035 A 
ATOM      9  C   UNL d   1      -8.483   0.134  -1.912  0.00  0.00     0.030 A 
ATOM     10  C   UNL d   1      -8.047  -0.892  -1.052  0.00  0.00     0.015 A 
BRANCH   8  11
ATOM     11  N   UNL d   1      -7.919   1.824  -3.649  0.00  0.00    -0.323 N 
ATOM     12  C   UNL d   1      -9.180   2.046  -4.177  0.00  0.00     0.261 C 
ATOM     13  O   UNL d   1     -10.222   1.624  -3.679  0.00  0.00    -0.267 OA
ATOM     14  H   UNL d   1      -7.147   2.302  -4.090  0.00  0.00     0.169 HD
BRANCH  12  15
ATOM     15  C   UNL d   1      -9.224   2.823  -5.409  0.00  0.00     0.093 A 
ATOM     16  C   UNL d   1     -10.301   3.649  -5.894  0.00  0.00     0.083 A 
ATOM     17  N   UNL d   1     -10.041   4.065  -7.145  0.00  0.00    -0.259 N 
ATOM     18  O   UNL d   1      -8.789   3.611  -7.458  0.00  0.00    -0.241 OA
ATOM     19  HN  UNL d   1     -10.658   4.612  -7.744  1.00  0.00     0.195 HD
ATOM     20  C   UNL d   1      -8.279   2.902  -6.421  0.00  0.00     0.090 A 
ATOM     21  C   UNL d   1      -6.906   2.407  -6.645  0.00  0.00     0.080 C 
BRANCH  16  22
ATOM     22  C   UNL d   1     -11.505   4.136  -5.212  0.00  0.00    -0.006 A 
ATOM     23  C   UNL d   1     -12.662   4.450  -5.945  0.00  0.00     0.014 A 
ATOM     24  C   UNL d   1     -13.766   5.038  -5.321  0.00  0.00     0.001 A 
ATOM     25  C   UNL d   1     -13.731   5.315  -3.956  0.00  0.00     0.000 A 
ATOM     26  C   UNL d   1     -12.597   4.997  -3.213  0.00  0.00     0.001 A 
ATOM     27  C   UNL d   1     -11.490   4.418  -3.838  0.00  0.00     0.014 A 
ENDBRANCH  16  22
ENDBRANCH  12  15
ENDBRANCH   8  11
ENDBRANCH   1   5
BRANCH   2  28
ATOM     28  C   UNL d   1      -6.547  -4.119   1.678  0.00  0.00     0.033 A 
ATOM     29  N   UNL d   1      -5.733  -5.029   1.105  0.00  0.00    -0.366 N 
ATOM     30  C   UNL d   1      -5.326  -6.074   1.858  0.00  0.00     0.088 A 
ATOM     31  HN  UNL d   1      -5.435  -4.931   0.134  1.00  0.00     0.165 HD
ATOM     32  C   UNL d   1      -5.714  -6.271   3.170  0.00  0.00     0.017 A 
ATOM     33  C   UNL d   1      -6.586  -5.349   3.736  0.00  0.00     0.004 A 
ATOM     34  C   UNL d   1      -7.018  -4.261   2.979  0.00  0.00     0.029 A 
ENDBRANCH   2  28
TORSDOF 5
