REMARK  8 active torsions:
REMARK  status: ('A' for Active; 'I' for Inactive)
REMARK    1  A    between atoms: C_3  and  S_1 
REMARK    2  A    between atoms: N_6  and  S_1 
REMARK    3  A    between atoms: S_4  and  C_2 
REMARK    4  A    between atoms: C_15  and  S_4 
REMARK    5  A    between atoms: C_9  and  N_6 
REMARK    6  A    between atoms: C_10  and  N_6 
REMARK    7  A    between atoms: C_20  and  C_9 
REMARK    8  A    between atoms: C_21  and  C_10 
ROOT
ATOM      1  S   UNL d   1       0.946  -0.259   0.028  0.00  0.00     0.268 S 
ATOM      2  O   UNL d   1       2.104  -0.906   0.606  0.00  0.00    -0.200 OA
ATOM      3  O   UNL d   1      -0.132  -1.054  -0.527  0.00  0.00    -0.200 OA
ENDROOT
BRANCH   1   4
ATOM      4  C   UNL d   1       1.612   0.589  -1.405  0.00  0.00     0.121 A 
ATOM      5  C   UNL d   1       2.897   0.674  -1.912  0.00  0.00     0.057 A 
ATOM      6  C   UNL d   1       2.929   1.290  -3.201  0.00  0.00     0.072 A 
ATOM      7  C   UNL d   1       1.685   1.739  -3.592  0.00  0.00     0.074 A 
ATOM      8  S   UNL d   1       0.487   1.383  -2.425  0.00  0.00    -0.087 SA
BRANCH   6   9
ATOM      9  S   UNL d   1       4.353   1.422  -4.185  0.00  0.00     0.207 S 
ATOM     10  O   UNL d   1       4.135   2.626  -4.963  0.00  0.00    -0.217 OA
ATOM     11  O   UNL d   1       5.464   1.276  -3.268  0.00  0.00    -0.217 OA
BRANCH   9  12
ATOM     12  C   UNL d   1       4.323   0.018  -5.265  0.00  0.00     0.064 A 
ATOM     13  C   UNL d   1       4.280   0.203  -6.651  0.00  0.00     0.024 A 
ATOM     14  C   UNL d   1       4.283  -0.909  -7.495  0.00  0.00     0.002 A 
ATOM     15  C   UNL d   1       4.328  -2.195  -6.958  0.00  0.00     0.000 A 
ATOM     16  C   UNL d   1       4.375  -2.377  -5.574  0.00  0.00     0.002 A 
ATOM     17  C   UNL d   1       4.377  -1.271  -4.722  0.00  0.00     0.024 A 
ENDBRANCH   9  12
ENDBRANCH   6   9
ENDBRANCH   1   4
BRANCH   1  18
ATOM     18  N   UNL d   1       0.322   0.888   1.089  0.00  0.00    -0.295 N 
BRANCH  18  19
ATOM     19  C   UNL d   1      -1.109   1.243   0.976  0.00  0.00     0.192 C 
BRANCH  19  20
ATOM     20  C   UNL d   1      -2.111   0.145   1.297  0.00  0.00     0.027 A 
ATOM     21  N   UNL d   1      -2.044  -0.445   2.519  0.00  0.00    -0.368 N 
ATOM     22  C   UNL d   1      -2.948  -1.417   2.785  0.00  0.00     0.088 A 
ATOM     23  HN  UNL d   1      -1.343  -0.167   3.207  1.00  0.00     0.165 HD
ATOM     24  C   UNL d   1      -3.939  -1.818   1.903  0.00  0.00     0.017 A 
ATOM     25  C   UNL d   1      -4.004  -1.195   0.665  0.00  0.00     0.003 A 
ATOM     26  C   UNL d   1      -3.081  -0.202   0.355  0.00  0.00     0.027 A 
ENDBRANCH  19  20
ENDBRANCH  18  19
BRANCH  18  27
ATOM     27  C   UNL d   1       0.848   0.878   2.475  0.00  0.00     0.192 C 
BRANCH  27  28
ATOM     28  C   UNL d   1       2.324   1.232   2.605  0.00  0.00     0.027 A 
ATOM     29  N   UNL d   1       2.861   2.106   1.711  0.00  0.00    -0.368 N 
ATOM     30  C   UNL d   1       4.182   2.372   1.824  0.00  0.00     0.088 A 
ATOM     31  HN  UNL d   1       2.291   2.542   0.986  1.00  0.00     0.165 HD
ATOM     32  C   UNL d   1       5.000   1.830   2.801  0.00  0.00     0.017 A 
ATOM     33  C   UNL d   1       4.431   0.967   3.728  0.00  0.00     0.003 A 
ATOM     34  C   UNL d   1       3.075   0.666   3.636  0.00  0.00     0.027 A 
ENDBRANCH  27  28
ENDBRANCH  18  27
ENDBRANCH   1  18
TORSDOF 8
