REMARK  3 active torsions:
REMARK  status: ('A' for Active; 'I' for Inactive)
REMARK    1  A    between atoms: C_3  and  C_1 
REMARK    2  A    between atoms: C_15  and  N_2 
REMARK    3  A    between atoms: C_14  and  C_10 
ROOT
ATOM      1  C   UNL d   1      -0.096  -1.408   0.051  0.00  0.00     0.065 C 
ATOM      2  N   UNL d   1       1.053   0.481   0.036  0.00  0.00    -0.260 N 
ATOM      3  N   UNL d   1      -0.251   0.850   0.150  0.00  0.00    -0.297 N 
ATOM      4  HN  UNL d   1      -0.618   1.794   0.271  1.00  0.00     0.187 HD
ATOM      5  C   UNL d   1       1.193  -0.903   0.077  0.00  0.00     0.047 C 
ATOM      6  C   UNL d   1      -0.948  -0.287   0.071  0.00  0.00     0.039 C 
ATOM      7  C   UNL d   1       2.488  -1.624   0.211  0.00  0.00     0.071 C 
ATOM      8  C   UNL d   1      -2.433  -0.250   0.064  0.00  0.00     0.071 C 
ENDROOT
BRANCH   1   9
ATOM      9  C   UNL d   1      -0.477  -2.846   0.052  0.00  0.00     0.186 A 
ATOM     10  N   UNL d   1      -1.718  -3.283   0.001  0.00  0.00    -0.318 N 
ATOM     11  C   UNL d   1      -1.569  -4.654   0.030  0.00  0.00     0.138 A 
ATOM     12  HN  UNL d   1      -2.580  -2.740  -0.048  1.00  0.00     0.169 HD
ATOM     13  N   UNL d   1      -0.292  -5.059   0.108  0.00  0.00    -0.242 N 
ATOM     14  O   UNL d   1       0.428  -3.872   0.109  0.00  0.00    -0.217 OA
ATOM     15  HN  UNL d   1       0.064  -6.013   0.155  1.00  0.00     0.196 HD
BRANCH  11  16
ATOM     16  C   UNL d   1      -2.705  -5.564  -0.039  0.00  0.00     0.011 A 
ATOM     17  C   UNL d   1      -3.988  -5.068  -0.315  0.00  0.00     0.039 A 
ATOM     18  C   UNL d   1      -5.071  -5.941  -0.407  0.00  0.00     0.035 A 
ATOM     19 CL   UNL d   1      -6.637  -5.321  -0.763  0.00  0.00    -0.084 Cl
ATOM     20  C   UNL d   1      -4.897  -7.311  -0.221  0.00  0.00     0.024 A 
ATOM     21  C   UNL d   1      -3.629  -7.815   0.061  0.00  0.00     0.003 A 
ATOM     22  C   UNL d   1      -2.538  -6.946   0.150  0.00  0.00     0.015 A 
ENDBRANCH  11  16
ENDBRANCH   1   9
BRANCH   2  23
ATOM     23  C   UNL d   1       2.055   1.486  -0.079  0.00  0.00     0.056 A 
ATOM     24  C   UNL d   1       3.252   1.250  -0.766  0.00  0.00     0.031 A 
ATOM     25  C   UNL d   1       4.237   2.240  -0.817  0.00  0.00     0.002 A 
ATOM     26  C   UNL d   1       4.029   3.467  -0.189  0.00  0.00     0.000 A 
ATOM     27  C   UNL d   1       2.824   3.721   0.463  0.00  0.00     0.002 A 
ATOM     28  C   UNL d   1       1.829   2.743   0.502  0.00  0.00     0.031 A 
ENDBRANCH   2  23
TORSDOF 3
