REMARK  1 active torsions:
REMARK  status: ('A' for Active; 'I' for Inactive)
REMARK    1  A    between atoms: C_2  and  N_1 
ROOT
ATOM      1  C   UNL d   1       0.016   2.296   0.018  0.00  0.00     0.051 A 
ATOM      2  C   UNL d   1      -0.668   3.036   1.004  0.00  0.00    -0.033 A 
ATOM      3  C   UNL d   1       0.723   2.979  -0.989  0.00  0.00     0.032 A 
ATOM      4  C   UNL d   1      -0.664   4.443   0.928  0.00  0.00     0.028 A 
ATOM      5  C   UNL d   1       0.015   5.100  -0.097  0.00  0.00     0.011 A 
ATOM      6  C   UNL d   1       0.710   4.374  -1.056  0.00  0.00     0.021 A 
ATOM      7 BR   UNL d   1       0.009   6.988  -0.168  0.00  0.00    -0.051 Br
ATOM      8  C   UNL d   1      -1.335   2.420   2.205  0.00  0.00     0.050 C 
ENDROOT
BRANCH   1   9
ATOM      9  N   UNL d   1       0.017   0.887   0.007  0.00  0.00    -0.245 N 
ATOM     10  C   UNL d   1       1.129   0.113  -0.148  0.00  0.00     0.255 A 
ATOM     11  C   UNL d   1       0.680  -1.287  -0.130  0.00  0.00     0.080 A 
ATOM     12  O   UNL d   1       2.302   0.421  -0.251  0.00  0.00    -0.268 OA
ATOM     13  C   UNL d   1      -0.649  -1.291  -0.045  0.00  0.00     0.080 A 
ATOM     14  C   UNL d   1      -1.101   0.106   0.016  0.00  0.00     0.255 A 
ATOM     15  O   UNL d   1      -2.283   0.410   0.010  0.00  0.00    -0.268 OA
ENDBRANCH   1   9
TORSDOF 1
