REMARK  7 active torsions:
REMARK  status: ('A' for Active; 'I' for Inactive)
REMARK    1  A    between atoms: C1*_7  and  N_1 
REMARK    2  A    between atoms: N_16  and  C_3 
REMARK    3  A    between atoms: C2*_12  and  O2*_20 
REMARK    4  A    between atoms: N_19  and  C_13 
REMARK    5  A    between atoms: C3*_15  and  O3*_21 
REMARK    6  A    between atoms: C4*_17  and  C5*_22 
REMARK    7  A    between atoms: O5*_25  and  C5*_22 
ROOT
ATOM      1  N   UNL d   1       1.536  -1.310  -0.042  0.00  0.00    -0.135 N 
ATOM      2  C   UNL d   1       0.268  -0.788  -0.132  0.00  0.00     0.174 A 
ATOM      3  C   UNL d   1       2.414  -0.228  -0.006  0.00  0.00     0.687 A 
ATOM      4  C   UNL d   1       0.437   0.575  -0.091  0.00  0.00     0.163 A 
ATOM      5  N   UNL d   1       1.757   0.912  -0.031  0.00  0.00    -0.182 N 
ATOM      6  HN  UNL d   1       2.153   1.852  -0.010  1.00  0.00     0.184 HD
ATOM      7  N   UNL d   1      -0.899  -1.480  -0.147  0.00  0.00    -0.173 N 
ATOM      8  HN  UNL d   1      -0.943  -2.497  -0.213  1.00  0.00     0.186 HD
ATOM      9  C   UNL d   1      -0.748   1.405  -0.038  0.00  0.00     0.290 A 
ATOM     10  N   UNL d   1      -1.917   0.657  -0.027  0.00  0.00    -0.154 N 
ATOM     11  C   UNL d   1      -1.960  -0.721  -0.068  0.00  0.00     0.680 A 
ATOM     12  O   UNL d   1      -0.762   2.630   0.018  0.00  0.00    -0.265 OA
ATOM     13  H   UNL d   1      -2.764   1.186   0.082  0.00  0.00     0.187 HD
ENDROOT
BRANCH   1  14
ATOM     14  C1* UNL d   1       1.884  -2.711   0.124  0.00  0.00     0.279 C 
ATOM     15  C2* UNL d   1       2.011  -3.484  -1.198  0.00  0.00     0.199 C 
ATOM     16  C3* UNL d   1       0.939  -4.561  -1.130  0.00  0.00     0.182 C 
ATOM     17  C4* UNL d   1       0.609  -4.661   0.353  0.00  0.00     0.179 C 
ATOM     18  O4* UNL d   1       0.898  -3.383   0.941  0.00  0.00    -0.353 OA
BRANCH  15  19
ATOM     19  O2* UNL d   1       3.291  -4.122  -1.369  0.00  0.00    -0.388 OA
ATOM     20  H2* UNL d   1       3.451  -4.685  -0.587  0.00  0.00     0.210 HD
ENDBRANCH  15  19
BRANCH  16  21
ATOM     21  O3* UNL d   1       1.414  -5.817  -1.621  0.00  0.00    -0.390 OA
ATOM     22  H3* UNL d   1       2.186  -5.620  -2.189  0.00  0.00     0.210 HD
ENDBRANCH  16  21
BRANCH  17  23
ATOM     23  C5* UNL d   1      -0.855  -5.024   0.615  0.00  0.00     0.198 C 
BRANCH  23  24
ATOM     24  O5* UNL d   1      -1.741  -4.070   0.026  0.00  0.00    -0.398 OA
ATOM     25  H5* UNL d   1      -1.332  -3.192   0.213  0.00  0.00     0.209 HD
ENDBRANCH  23  24
ENDBRANCH  17  23
ENDBRANCH   1  14
BRANCH   3  26
ATOM     26  N   UNL d   1       3.765  -0.375   0.187  0.00  0.00    -0.217 N 
ATOM     27  C   UNL d   1       4.372   0.769   0.901  0.00  0.00     0.141 C 
ATOM     28  C   UNL d   1       5.822   0.521   1.319  0.00  0.00     0.020 C 
ATOM     29  C   UNL d   1       6.118  -0.919   1.729  0.00  0.00     0.002 C 
ATOM     30  C   UNL d   1       6.524  -1.780   0.533  0.00  0.00     0.002 C 
ATOM     31  C   UNL d   1       5.422  -2.058  -0.486  0.00  0.00     0.020 C 
ATOM     32  C   UNL d   1       4.565  -0.873  -0.939  0.00  0.00     0.141 C 
ENDBRANCH   3  26
BRANCH  11  33
ATOM     33  N   UNL d   1      -3.186  -1.295  -0.015  0.00  0.00    -0.234 N 
ATOM     34  H   UNL d   1      -3.967  -0.800  -0.425  0.00  0.00     0.174 HD
ATOM     35  H   UNL d   1      -3.186  -2.292  -0.232  0.00  0.00     0.174 HD
ENDBRANCH  11  33
TORSDOF 7
