REMARK  7 active torsions:
REMARK  status: ('A' for Active; 'I' for Inactive)
REMARK    1  A    between atoms: N_7  and  C_1 
REMARK    2  A    between atoms: N_9  and  C_1 
REMARK    3  A    between atoms: C_2  and  N_8 
REMARK    4  A    between atoms: C_3  and  C_4 
REMARK    5  A    between atoms: C_10  and  N_9 
REMARK    6  A    between atoms: O_28  and  C_16 
REMARK    7  A    between atoms: O_29  and  C_25 
ROOT
ATOM      1  N   UNL d   1       0.523   0.813   1.191  0.00  0.00    -0.355 N 
ATOM      2  N   UNL d   1      -0.353   1.771   3.701  0.00  0.00    -0.363 N 
ATOM      3  C   UNL d   1       0.969   2.128   1.701  0.00  0.00     0.145 C 
ATOM      4  C   UNL d   1      -0.693   0.256   1.831  0.00  0.00     0.145 C 
ATOM      5  C   UNL d   1       0.973   2.203   3.235  0.00  0.00     0.144 C 
ATOM      6  C   UNL d   1      -0.647   0.373   3.374  0.00  0.00     0.144 C 
ENDROOT
BRANCH   1   7
ATOM      7  C   UNL d   1       1.080   0.246   0.065  0.00  0.00     0.174 C 
ATOM      8  S   UNL d   1       2.725  -0.017  -0.100  0.00  0.00    -0.041 SA
BRANCH   7   9
ATOM      9  N   UNL d   1       0.244  -0.239  -0.903  0.00  0.00    -0.331 N 
ATOM     10  H   UNL d   1       0.674  -0.896  -1.546  0.00  0.00     0.168 HD
BRANCH   9  11
ATOM     11  C   UNL d   1      -0.961   0.333  -1.385  0.00  0.00     0.070 A 
ATOM     12  C   UNL d   1      -1.224   1.700  -1.186  0.00  0.00     0.069 A 
ATOM     13  C   UNL d   1      -2.365   2.310  -1.705  0.00  0.00     0.070 A 
ATOM     14  C   UNL d   1      -3.257   1.542  -2.450  0.00  0.00     0.039 A 
ATOM     15  C   UNL d   1      -2.991   0.193  -2.696  0.00  0.00     0.042 A 
ATOM     16  C   UNL d   1      -1.847  -0.418  -2.172  0.00  0.00     0.095 A 
BRANCH  13  17
ATOM     17  O   UNL d   1      -2.700   3.630  -1.577  0.00  0.00    -0.356 OA
ATOM     18  C   UNL d   1      -1.763   4.468  -0.905  0.00  0.00     0.210 C 
ENDBRANCH  13  17
BRANCH  16  19
ATOM     19  O   UNL d   1      -1.679  -1.723  -2.554  0.00  0.00    -0.354 OA
ATOM     20  C   UNL d   1      -1.304  -2.635  -1.526  0.00  0.00     0.210 C 
ENDBRANCH  16  19
ENDBRANCH   9  11
ENDBRANCH   7   9
ENDBRANCH   1   7
BRANCH   2  21
ATOM     21  C   UNL d   1      -0.961   2.366   4.785  0.00  0.00     0.125 A 
ATOM     22  N   UNL d   1      -1.348   1.563   5.806  0.00  0.00    -0.350 N 
ATOM     23  C   UNL d   1      -2.026   2.106   6.851  0.00  0.00     0.106 A 
ATOM     24  HN  UNL d   1      -1.134   0.566   5.791  1.00  0.00     0.166 HD
ATOM     25  C   UNL d   1      -2.366   3.446   6.941  0.00  0.00     0.065 A 
ATOM     26  C   UNL d   1      -1.972   4.273   5.895  0.00  0.00     0.045 A 
ATOM     27  C   UNL d   1      -1.274   3.742   4.807  0.00  0.00     0.078 A 
ATOM     28 CL   UNL d   1      -0.970   4.813   3.481  0.00  0.00    -0.080 Cl
BRANCH  25  29
ATOM     29  C   UNL d   1      -3.154   3.946   8.110  0.00  0.00     0.418 C 
ATOM     30  F   UNL d   1      -3.415   5.281   8.053  0.00  0.00    -0.166 F 
ATOM     31  F   UNL d   1      -4.365   3.335   8.220  0.00  0.00    -0.166 F 
ATOM     32  F   UNL d   1      -2.518   3.739   9.294  0.00  0.00    -0.166 F 
ENDBRANCH  25  29
ENDBRANCH   2  21
TORSDOF 7
