REMARK  6 active torsions:
REMARK  status: ('A' for Active; 'I' for Inactive)
REMARK    1  A    between atoms: C_2  and  C_1 
REMARK    2  A    between atoms: C_3  and  C_1 
REMARK    3  A    between atoms: C_4  and  C_1 
REMARK    4  A    between atoms: C_7  and  C_2 
REMARK    5  A    between atoms: C_5  and  C_3 
REMARK    6  A    between atoms: C_8  and  C_5 
ROOT
ATOM      1  C   UNL d   1       1.078  -0.087   0.241  0.00  0.00     0.108 C 
ENDROOT
BRANCH   1   2
ATOM      2  C   UNL d   1       0.868  -0.245   1.753  0.00  0.00     0.170 C 
ATOM      3  O   UNL d   1       0.621   0.734   2.467  0.00  0.00    -0.291 OA
BRANCH   2   4
ATOM      4  C   UNL d   1       1.038  -1.577   2.414  0.00  0.00     0.026 A 
ATOM      5  C   UNL d   1       0.812  -1.656   3.786  0.00  0.00     0.102 A 
ATOM      6  N   UNL d   1       0.974  -2.783   4.533  0.00  0.00    -0.374 N 
ATOM      7  C   UNL d   1       1.382  -3.888   3.880  0.00  0.00     0.087 A 
ATOM      8  HN  UNL d   1       0.794  -2.789   5.537  1.00  0.00     0.164 HD
ATOM      9  C   UNL d   1       1.626  -3.922   2.518  0.00  0.00     0.018 A 
ATOM     10  C   UNL d   1       1.446  -2.752   1.772  0.00  0.00     0.018 A 
ENDBRANCH   2   4
ENDBRANCH   1   2
BRANCH   1  11
ATOM     11  C   UNL d   1       0.386   1.189  -0.294  0.00  0.00     0.101 C 
BRANCH  11  12
ATOM     12  C   UNL d   1      -1.134   1.121  -0.225  0.00  0.00     0.160 C 
ATOM     13  O   UNL d   1      -1.719   0.112   0.163  0.00  0.00    -0.292 OA
BRANCH  12  14
ATOM     14  C   UNL d   1      -1.936   2.310  -0.683  0.00  0.00     0.010 A 
ATOM     15  C   UNL d   1      -1.345   3.425  -1.293  0.00  0.00     0.017 A 
ATOM     16  C   UNL d   1      -2.135   4.497  -1.734  0.00  0.00     0.025 A 
ATOM     17  C   UNL d   1      -3.517   4.460  -1.570  0.00  0.00     0.034 A 
ATOM     18  C   UNL d   1      -4.120   3.365  -0.959  0.00  0.00     0.025 A 
ATOM     19 CL   UNL d   1      -4.482   5.773  -2.126  0.00  0.00    -0.084 Cl
ATOM     20  C   UNL d   1      -3.332   2.293  -0.518  0.00  0.00     0.017 A 
ENDBRANCH  12  14
ENDBRANCH  11  12
ENDBRANCH   1  11
BRANCH   1  21
ATOM     21  C   UNL d   1       2.578   0.001   0.002  0.00  0.00    -0.006 A 
ATOM     22  S   UNL d   1       3.340  -1.046  -1.126  0.00  0.00    -0.106 SA
ATOM     23  C   UNL d   1       4.894  -0.451  -0.733  0.00  0.00     0.050 A 
ATOM     24  C   UNL d   1       4.837   0.573   0.184  0.00  0.00     0.008 A 
ATOM     25  C   UNL d   1       3.501   0.846   0.595  0.00  0.00     0.016 A 
ENDBRANCH   1  21
TORSDOF 6
