REMARK  9 active torsions:
REMARK  status: ('A' for Active; 'I' for Inactive)
REMARK    1  A    between atoms: C_2  and  S_1 
REMARK    2  A    between atoms: C_8  and  S_1 
REMARK    3  A    between atoms: C_12  and  C_2 
REMARK    4  A    between atoms: N_3  and  C_4 
REMARK       I    between atoms: C_5  and  N_3 
REMARK    5  A    between atoms: C_14  and  C_8 
REMARK    6  A    between atoms: C_9  and  O_10 
REMARK    7  A    between atoms: O_10  and  C_13 
REMARK    8  A    between atoms: C_13  and  C_12 
REMARK    9  A    between atoms: O_21  and  C_12 
ROOT
ATOM      1  C   UNL d   1       0.808   1.710   1.756  0.00  0.00     0.156 C 
ENDROOT
BRANCH   1   2
ATOM      2  C   UNL d   1       0.071   1.449   0.441  0.00  0.00     0.174 C 
BRANCH   2   3
ATOM      3  S   UNL d   1       0.476  -0.144  -0.254  0.00  0.00     0.150 S 
ATOM      4  O   UNL d   1       0.293  -1.123   0.801  0.00  0.00    -0.228 OA
ATOM      5  O   UNL d   1       1.756  -0.062  -0.927  0.00  0.00    -0.228 OA
BRANCH   3   6
ATOM      6  C   UNL d   1      -0.791  -0.475  -1.471  0.00  0.00     0.178 C 
BRANCH   6   7
ATOM      7  C   UNL d   1      -0.891   0.551  -2.575  0.00  0.00    -0.044 A 
ATOM      8  C   UNL d   1       0.185   0.844  -3.427  0.00  0.00     0.010 A 
ATOM      9  C   UNL d   1       0.018   1.693  -4.528  0.00  0.00     0.024 A 
ATOM     10  C   UNL d   1      -1.231   2.244  -4.798  0.00  0.00     0.034 A 
ATOM     11  C   UNL d   1      -2.313   1.960  -3.972  0.00  0.00     0.024 A 
ATOM     12 CL   UNL d   1      -1.444   3.253  -6.174  0.00  0.00    -0.084 Cl
ATOM     13  C   UNL d   1      -2.144   1.120  -2.867  0.00  0.00     0.010 A 
ENDBRANCH   6   7
ENDBRANCH   3   6
ENDBRANCH   2   3
ENDBRANCH   1   2
BRANCH   1  14
ATOM     14  C   UNL d   1       2.340   1.718   1.652  0.00  0.00     0.208 C 
BRANCH  14  15
ATOM     15  O   UNL d   1       2.709   2.781   0.774  0.00  0.00    -0.346 OA
BRANCH  15  16
ATOM     16  C   UNL d   1       3.603   2.544  -0.221  0.00  0.00     0.095 A 
ATOM     17  C   UNL d   1       3.474   3.260  -1.423  0.00  0.00     0.068 A 
ATOM     18  C   UNL d   1       4.294   2.898  -2.508  0.00  0.00     0.032 A 
ATOM     19  C   UNL d   1       5.267   1.906  -2.381  0.00  0.00     0.002 A 
ATOM     20  C   UNL d   1       5.447   1.269  -1.161  0.00  0.00     0.003 A 
ATOM     21  C   UNL d   1       4.625   1.592  -0.084  0.00  0.00     0.039 A 
BRANCH  17  22
ATOM     22  N   UNL d   1       2.567   4.324  -1.680  0.00  0.00    -0.325 N 
ATOM     23  C   UNL d   1       1.843   5.102  -0.789  0.00  0.00     0.218 C 
ATOM     24  O   UNL d   1       1.810   5.048   0.434  0.00  0.00    -0.274 OA
ATOM     25  C   UNL d   1       0.995   6.122  -1.511  0.00  0.00     0.117 C 
ATOM     26  H   UNL d   1       2.547   4.638  -2.641  0.00  0.00     0.169 HD
ENDBRANCH  17  22
ENDBRANCH  15  16
ENDBRANCH  14  15
ENDBRANCH   1  14
BRANCH   1  27
ATOM     27  O   UNL d   1       0.364   2.986   2.251  0.00  0.00    -0.393 OA
ATOM     28  H   UNL d   1       0.915   3.670   1.799  0.00  0.00     0.210 HD
ENDBRANCH   1  27
TORSDOF 9
