REMARK  7 active torsions:
REMARK  status: ('A' for Active; 'I' for Inactive)
REMARK    1  A    between atoms: C_2  and  C_1 
REMARK    2  A    between atoms: C_3  and  N_7 
REMARK    3  A    between atoms: C_11  and  C_3 
REMARK    4  A    between atoms: C_4  and  N_6 
REMARK    5  A    between atoms: N_8  and  C_4 
REMARK    6  A    between atoms: N_6  and  C_5 
REMARK    7  A    between atoms: N_7  and  N_8 
ROOT
ATOM      1  N   UNL d   1       1.543   0.569   1.105  0.00  0.00    -0.274 N 
ATOM      2  H   UNL d   1       0.695   0.492   0.553  0.00  0.00     0.189 HD
ENDROOT
BRANCH   1   3
ATOM      3  N   UNL d   1       1.501   1.649   2.021  0.00  0.00    -0.282 N 
ATOM      4  H   UNL d   1       0.968   1.494   2.883  0.00  0.00     0.188 HD
BRANCH   3   5
ATOM      5  C   UNL d   1       1.460   2.932   1.526  0.00  0.00     0.140 C 
ATOM      6  N   UNL d   1       1.975   3.237   0.370  0.00  0.00    -0.383 N 
ATOM      7  H   UNL d   1       2.404   2.365   0.032  0.00  0.00     0.157 HD
ATOM      8  HN  UNL d   1       1.956   4.143  -0.098  1.00  0.00     0.157 HD
BRANCH   5   9
ATOM      9  C   UNL d   1       0.809   3.980   2.385  0.00  0.00     0.077 A 
ATOM     10  N   UNL d   1       0.220   3.507   3.518  0.00  0.00    -0.363 N 
ATOM     11  C   UNL d   1      -0.364   4.432   4.318  0.00  0.00     0.088 A 
ATOM     12  HN  UNL d   1       0.218   2.514   3.750  1.00  0.00     0.165 HD
ATOM     13  C   UNL d   1      -0.392   5.789   4.038  0.00  0.00     0.017 A 
ATOM     14  C   UNL d   1       0.213   6.239   2.868  0.00  0.00     0.004 A 
ATOM     15  C   UNL d   1       0.829   5.320   2.021  0.00  0.00     0.033 A 
ENDBRANCH   5   9
ENDBRANCH   3   5
ENDBRANCH   1   3
BRANCH   1  16
ATOM     16  C   UNL d   1       2.134  -0.591   1.532  0.00  0.00     0.191 C 
ATOM     17  S   UNL d   1       3.119  -0.725   2.891  0.00  0.00    -0.039 SA
BRANCH  16  18
ATOM     18  N   UNL d   1       1.906  -1.755   0.864  0.00  0.00    -0.331 N 
ATOM     19  H   UNL d   1       2.267  -2.525   1.430  0.00  0.00     0.168 HD
BRANCH  18  20
ATOM     20  C   UNL d   1       1.373  -2.131  -0.389  0.00  0.00     0.049 A 
ATOM     21  C   UNL d   1       1.179  -3.512  -0.653  0.00  0.00     0.074 A 
ATOM     22  C   UNL d   1       0.744  -3.928  -1.930  0.00  0.00     0.018 A 
ATOM     23  C   UNL d   1       0.481  -3.003  -2.932  0.00  0.00     0.001 A 
ATOM     24  C   UNL d   1       0.651  -1.649  -2.667  0.00  0.00     0.002 A 
ATOM     25  C   UNL d   1       1.103  -1.217  -1.413  0.00  0.00     0.030 A 
BRANCH  21  26
ATOM     26  C   UNL d   1       1.390  -4.607   0.367  0.00  0.00     0.419 C 
ATOM     27  F   UNL d   1       1.818  -4.170   1.585  0.00  0.00    -0.166 F 
ATOM     28  F   UNL d   1       2.314  -5.524  -0.036  0.00  0.00    -0.166 F 
ATOM     29  F   UNL d   1       0.249  -5.312   0.612  0.00  0.00    -0.166 F 
ENDBRANCH  21  26
ENDBRANCH  18  20
ENDBRANCH  16  18
ENDBRANCH   1  16
TORSDOF 7
