REMARK  4 active torsions:
REMARK  status: ('A' for Active; 'I' for Inactive)
REMARK    1  A    between atoms: C_7  and  N_1 
REMARK    2  A    between atoms: C_8  and  C_4 
REMARK    3  A    between atoms: O_15  and  C_5 
REMARK    4  A    between atoms: O_16  and  C_8 
ROOT
ATOM      1  N   UNL d   1       0.846  -0.715   0.059  0.00  0.00    -0.234 N 
ATOM      2  N   UNL d   1       0.908   0.607   0.353  0.00  0.00    -0.286 N 
ATOM      3  HN  UNL d   1       1.718   1.131   0.686  1.00  0.00     0.188 HD
ATOM      4  C   UNL d   1      -0.328   1.078   0.111  0.00  0.00     0.128 C 
ATOM      5  C   UNL d   1      -0.466  -1.127  -0.162  0.00  0.00     0.164 C 
ATOM      6  C   UNL d   1      -1.219   0.021  -0.187  0.00  0.00     0.095 C 
ENDROOT
BRANCH   1   7
ATOM      7  C   UNL d   1       2.037  -1.489   0.011  0.00  0.00     0.062 A 
ATOM      8  C   UNL d   1       3.148  -1.085   0.766  0.00  0.00     0.055 A 
ATOM      9  C   UNL d   1       4.305  -1.865   0.764  0.00  0.00     0.037 A 
ATOM     10 CL   UNL d   1       5.640  -1.413   1.751  0.00  0.00    -0.084 Cl
ATOM     11  C   UNL d   1       4.386  -3.017  -0.014  0.00  0.00     0.048 A 
ATOM     12  C   UNL d   1       3.298  -3.384  -0.802  0.00  0.00     0.037 A 
ATOM     13  C   UNL d   1       2.122  -2.633  -0.793  0.00  0.00     0.055 A 
ATOM     14 CL   UNL d   1       3.403  -4.781  -1.801  0.00  0.00    -0.084 Cl
ENDBRANCH   1   7
BRANCH   5  15
ATOM     15  O   UNL d   1      -0.876  -2.389  -0.278  0.00  0.00    -0.345 OA
ATOM     16  H   UNL d   1      -0.242  -2.982   0.165  0.00  0.00     0.219 HD
ENDBRANCH   5  15
BRANCH   4  17
ATOM     17  C   UNL d   1      -0.678   2.506   0.178  0.00  0.00     0.311 C 
ATOM     18  O   UNL d   1      -1.825   2.918   0.021  0.00  0.00    -0.258 OA
BRANCH  17  19
ATOM     19  O   UNL d   1       0.400   3.314   0.406  0.00  0.00    -0.321 OA
ATOM     20  C   UNL d   1       0.097   4.709   0.425  0.00  0.00     0.213 C 
ENDBRANCH  17  19
ENDBRANCH   4  17
TORSDOF 4
