REMARK  5 active torsions:
REMARK  status: ('A' for Active; 'I' for Inactive)
REMARK    1  A    between atoms: C_7  and  C_1 
REMARK    2  A    between atoms: C_8  and  C_2 
REMARK    3  A    between atoms: C_12  and  N_3 
REMARK       I    between atoms: N_11  and  C_7 
REMARK    4  A    between atoms: N_9  and  C_13 
REMARK    5  A    between atoms: C_26  and  N_11 
ROOT
ATOM      1  C   UNL d   1      -0.268  -1.035   0.268  0.00  0.00     0.085 A 
ATOM      2  C   UNL d   1       1.044  -0.519   0.015  0.00  0.00     0.078 A 
ATOM      3  N   UNL d   1      -0.295   1.170  -0.014  0.00  0.00    -0.260 N 
ATOM      4  N   UNL d   1       0.987   0.796  -0.196  0.00  0.00    -0.292 N 
ATOM      5  HN  UNL d   1       1.766   1.405  -0.448  1.00  0.00     0.187 HD
ATOM      6  C   UNL d   1      -1.120   0.070   0.206  0.00  0.00     0.049 A 
ATOM      7  C   UNL d   1      -2.573   0.161   0.512  0.00  0.00     0.071 C 
ENDROOT
BRANCH   1   8
ATOM      8  C   UNL d   1      -0.585  -2.417   0.627  0.00  0.00     0.260 C 
ATOM      9  N   UNL d   1      -1.679  -2.960  -0.025  0.00  0.00    -0.323 N 
ATOM     10  H   UNL d   1      -2.233  -2.337  -0.595  0.00  0.00     0.169 HD
ATOM     11  O   UNL d   1       0.134  -3.012   1.419  0.00  0.00    -0.267 OA
BRANCH   9  12
ATOM     12  C   UNL d   1      -2.057  -4.327  -0.037  0.00  0.00     0.035 A 
ATOM     13  C   UNL d   1      -1.292  -5.351   0.533  0.00  0.00     0.029 A 
ATOM     14  C   UNL d   1      -1.688  -6.689   0.428  0.00  0.00     0.002 A 
ATOM     15  C   UNL d   1      -2.860  -7.022  -0.240  0.00  0.00     0.000 A 
ATOM     16  C   UNL d   1      -3.641  -6.014  -0.800  0.00  0.00     0.002 A 
ATOM     17  C   UNL d   1      -3.240  -4.675  -0.703  0.00  0.00     0.029 A 
ENDBRANCH   9  12
ENDBRANCH   1   8
BRANCH   2  18
ATOM     18  C   UNL d   1       2.333  -1.232  -0.083  0.00  0.00     0.015 A 
ATOM     19  C   UNL d   1       3.555  -0.694   0.373  0.00  0.00     0.048 A 
ATOM     20  C   UNL d   1       4.752  -1.416   0.238  0.00  0.00     0.048 A 
ATOM     21 CL   UNL d   1       3.700   0.844   1.163  0.00  0.00    -0.083 Cl
ATOM     22  C   UNL d   1       4.742  -2.684  -0.329  0.00  0.00     0.035 A 
ATOM     23  C   UNL d   1       3.553  -3.236  -0.788  0.00  0.00     0.025 A 
ATOM     24 CL   UNL d   1       6.206  -3.577  -0.460  0.00  0.00    -0.084 Cl
ATOM     25  C   UNL d   1       2.363  -2.508  -0.682  0.00  0.00     0.017 A 
ENDBRANCH   2  18
BRANCH   3  26
ATOM     26  C   UNL d   1      -0.587   2.568  -0.064  0.00  0.00     0.056 A 
ATOM     27  C   UNL d   1       0.430   3.476   0.297  0.00  0.00     0.034 A 
ATOM     28  C   UNL d   1       0.208   4.856   0.258  0.00  0.00     0.038 A 
ATOM     29  C   UNL d   1      -1.029   5.338  -0.173  0.00  0.00     0.103 A 
ATOM     30  C   UNL d   1      -2.046   4.447  -0.545  0.00  0.00     0.038 A 
ATOM     31  C   UNL d   1      -1.826   3.063  -0.483  0.00  0.00     0.034 A 
BRANCH  29  32
ATOM     32  N   UNL d   1      -1.262   6.784  -0.255  0.00  0.00    -0.116 N 
ATOM     33  O   UNL d   1      -2.361   7.169  -0.672  0.00  0.00    -0.532 OA
ATOM     34  O   UNL d   1      -0.339   7.540   0.097  0.00  0.00    -0.532 OA
ENDBRANCH  29  32
ENDBRANCH   3  26
TORSDOF 5
