REMARK  2 active torsions:
REMARK  status: ('A' for Active; 'I' for Inactive)
REMARK    1  A    between atoms: C_13  and  N_1 
REMARK    2  A    between atoms: C_7  and  C_2 
ROOT
ATOM      1  N   UNL d   1       0.850  -0.763   0.008  0.00  0.00    -0.307 N 
ATOM      2  C   UNL d   1       0.898   0.615  -0.009  0.00  0.00     0.141 A 
ATOM      3  N   UNL d   1      -0.273   1.191   0.025  0.00  0.00    -0.282 N 
ATOM      4  HN  UNL d   1      -0.477   2.190   0.057  1.00  0.00     0.188 HD
ATOM      5  C   UNL d   1      -0.496  -1.052  -0.052  0.00  0.00     0.194 A 
ATOM      6  N   UNL d   1      -1.159   0.162   0.009  0.00  0.00    -0.274 N 
ATOM      7  S   UNL d   1      -1.320  -2.483  -0.186  0.00  0.00    -0.039 SA
ATOM      8  H   UNL d   1      -2.161   0.307  -0.035  0.00  0.00     0.189 HD
ENDROOT
BRANCH   2   9
ATOM      9  C   UNL d   1       2.099   1.423  -0.038  0.00  0.00     0.050 C 
ATOM     10  S   UNL d   1       3.444   1.054  -1.036  0.00  0.00    -0.098 SA
ATOM     11  C   UNL d   1       4.338   2.389  -0.457  0.00  0.00     0.050 C 
ATOM     12  C   UNL d   1       3.591   3.177   0.387  0.00  0.00     0.009 C 
ATOM     13  C   UNL d   1       2.290   2.636   0.602  0.00  0.00     0.023 C 
ENDBRANCH   2   9
BRANCH   1  14
ATOM     14  C   UNL d   1       2.002  -1.669  -0.028  0.00  0.00     0.129 C 
ATOM     15  C   UNL d   1       1.883  -3.010   0.677  0.00  0.00     0.027 C 
ENDBRANCH   1  14
TORSDOF 2
