REMARK  3 active torsions:
REMARK  status: ('A' for Active; 'I' for Inactive)
REMARK    1  A    between atoms: N_7  and  C_2 
REMARK    2  A    between atoms: C_5  and  C_15 
REMARK    3  A    between atoms: N_9  and  N_7 
ROOT
ATOM      1  N   UNL d   1       2.693  -4.442   0.982  0.00  0.00    -0.313 N 
ATOM      2  HN  UNL d   1       3.302  -3.627   0.905  1.00  0.00     0.185 HD
ATOM      3  C   UNL d   1       1.592  -4.584   0.302  0.00  0.00     0.089 C 
ENDROOT
BRANCH   1   4
ATOM      4  N   UNL d   1       2.950  -5.509   1.817  0.00  0.00    -0.280 N 
ATOM      5  HN  UNL d   1       2.337  -6.323   1.844  1.00  0.00     0.189 HD
BRANCH   4   6
ATOM      6  C   UNL d   1       3.996  -5.433   2.558  0.00  0.00     0.162 A 
ATOM      7  N   UNL d   1       4.257  -6.452   3.408  0.00  0.00    -0.305 N 
ATOM      8  C   UNL d   1       5.344  -6.361   4.216  0.00  0.00     0.237 A 
ATOM      9  H   UNL d   1       3.629  -7.236   3.458  0.00  0.00     0.171 HD
ATOM     10  C   UNL d   1       6.109  -5.074   3.990  0.00  0.00     0.143 A 
ATOM     11  O   UNL d   1       5.641  -7.221   5.036  0.00  0.00    -0.272 OA
ATOM     12  C   UNL d   1       6.148  -4.249   5.263  0.00  0.00     0.031 C 
ATOM     13  S   UNL d   1       5.195  -4.190   2.679  0.00  0.00    -0.078 SA
ENDBRANCH   4   6
ENDBRANCH   1   4
BRANCH   3  14
ATOM     14  C   UNL d   1       0.611  -5.761   0.339  0.00  0.00    -0.006 C 
ATOM     15  C   UNL d   1       0.006  -5.946   1.753  0.00  0.00     0.019 C 
ATOM     16  C   UNL d   1      -1.019  -7.089   1.758  0.00  0.00    -0.013 C 
ATOM     17  C   UNL d   1      -2.152  -6.740   0.784  0.00  0.00     0.009 C 
ATOM     18  C   UNL d   1      -0.327  -8.389   1.312  0.00  0.00     0.009 C 
ATOM     19  C   UNL d   1      -1.591  -6.585  -0.638  0.00  0.00    -0.013 C 
ATOM     20  C   UNL d   1      -0.549  -5.454  -0.648  0.00  0.00     0.019 C 
ATOM     21  C   UNL d   1      -0.915  -7.897  -1.068  0.00  0.00     0.009 C 
ATOM     22  C   UNL d   1       0.238  -8.229  -0.110  0.00  0.00    -0.013 C 
ATOM     23  C   UNL d   1       1.266  -7.083  -0.127  0.00  0.00     0.019 C 
ENDBRANCH   3  14
TORSDOF 3
