REMARK  4 active torsions:
REMARK  status: ('A' for Active; 'I' for Inactive)
REMARK    1  A    between atoms: C3_4  and  C1_1 
REMARK    2  A    between atoms: C2_3  and  C4_6 
REMARK    3  A    between atoms: O2_10  and  C4_6 
REMARK    4  A    between atoms: O3_11  and  C6_8 
ROOT
ATOM      1  C1  <1> d   1      -0.012  -1.174  -0.394  0.00  0.00     0.319 C 
ATOM      2  N1  <1> d   1      -1.371  -0.726   0.009  0.00  0.00     0.117 N 
ATOM      3  C2  <1> d   1      -1.422   0.786  -0.061  0.00  0.00     0.328 C 
ATOM      4  S1  <1> d   1       1.128   0.139   0.082  0.00  0.00    -0.126 SA
ATOM      5  C5  <1> d   1      -0.058   1.436  -0.267  0.00  0.00     0.123 C 
ATOM      6  H3  <1> d   1      -1.405  -0.936   1.014  0.00  0.00     0.319 HD
ENDROOT
BRANCH   1   7
ATOM      7  C3  <1> d   1       0.290  -2.569   0.143  0.00  0.00     0.018 A 
ATOM      8  C6  <1> d   1      -0.541  -3.656  -0.190  0.00  0.00     0.074 A 
ATOM      9  C8  <1> d   1      -0.248  -4.963   0.199  0.00  0.00     0.037 A 
ATOM     10  C10 <1> d   1       0.886  -5.222   0.961  0.00  0.00     0.003 A 
ATOM     11  C9  <1> d   1       1.716  -4.170   1.332  0.00  0.00     0.001 A 
ATOM     12  C7  <1> d   1       1.423  -2.863   0.927  0.00  0.00     0.013 A 
BRANCH   8  13
ATOM     13  O3  <1> d   1      -1.695  -3.493  -0.905  0.00  0.00    -0.360 OA
ATOM     14  H7  <1> d   1      -2.005  -2.588  -0.734  0.00  0.00     0.217 HD
ENDBRANCH   8  13
ENDBRANCH   1   7
BRANCH   3  15
ATOM     15  C4  <1> d   1      -2.359   1.246  -1.177  0.00  0.00     0.175 C 
ATOM     16  O1  <1> d   1      -2.565   2.416  -1.465  0.00  0.00    -0.648 OA
BRANCH  15  17
ATOM     17  O2  <1> d   1      -2.951   0.216  -1.825  0.00  0.00    -0.775 OA
ATOM     18  H6  <1> d   1      -2.641  -0.611  -1.398  0.00  0.00     0.167 HD
ENDBRANCH  15  17
ENDBRANCH   3  15
TORSDOF 4
