REMARK  10 active torsions:
REMARK  status: ('A' for Active; 'I' for Inactive)
REMARK    1  A    between atoms: N_2  and  C_1 
REMARK    2  A    between atoms: C_4  and  C_8 
REMARK    3  A    between atoms: N_6  and  C_16 
REMARK    4  A    between atoms: C_10  and  N_6 
REMARK    5  A    between atoms: O_29  and  C_14 
REMARK    6  A    between atoms: N_26  and  C_17 
REMARK    7  A    between atoms: O_30  and  C_18 
REMARK    8  A    between atoms: C_31  and  N_26 
REMARK    9  A    between atoms: C_27  and  C_32 
REMARK   10  A    between atoms: C_32  and  C_31 
ROOT
ATOM      1  C   UNL d   1      -0.491  -6.632  -1.320  0.00  0.00     0.050 A 
ATOM      2  C   UNL d   1       0.177  -6.580   1.044  0.00  0.00     0.054 A 
ATOM      3  C   UNL d   1      -0.671  -7.026   0.014  0.00  0.00     0.047 A 
ATOM      4  C   UNL d   1       1.239  -5.693   0.727  0.00  0.00     0.035 A 
ATOM      5  C   UNL d   1       0.577  -5.784  -1.625  0.00  0.00     0.018 A 
ATOM      6  C   UNL d   1       1.436  -5.338  -0.620  0.00  0.00     0.026 A 
ENDROOT
BRANCH   4   7
ATOM      7  N   UNL d   1       2.151  -5.284   1.729  0.00  0.00    -0.291 NA
ATOM      8  H   UNL d   1       2.834  -6.033   1.865  0.00  0.00     0.127 HD
BRANCH   7   9
ATOM      9  C   UNL d   1       2.793  -3.979   1.539  0.00  0.00     0.097 C 
BRANCH   9  10
ATOM     10  C   UNL d   1       3.221  -3.404   2.891  0.00  0.00     0.053 C 
BRANCH  10  11
ATOM     11  C   UNL d   1       3.805  -2.020   2.734  0.00  0.00    -0.054 A 
ATOM     12  C   UNL d   1       2.968  -0.890   2.752  0.00  0.00     0.046 A 
ATOM     13  C   UNL d   1       3.480   0.403   2.564  0.00  0.00     0.102 A 
ATOM     14  C   UNL d   1       4.865   0.561   2.385  0.00  0.00     0.101 A 
ATOM     15  C   UNL d   1       5.693  -0.568   2.336  0.00  0.00     0.040 A 
ATOM     16  C   UNL d   1       5.171  -1.849   2.509  0.00  0.00     0.010 A 
BRANCH  13  17
ATOM     17  O   UNL d   1       2.698   1.525   2.506  0.00  0.00    -0.353 OA
ATOM     18  C   UNL d   1       1.290   1.371   2.622  0.00  0.00     0.210 C 
ENDBRANCH  13  17
BRANCH  14  19
ATOM     19  O   UNL d   1       5.539   1.738   2.178  0.00  0.00    -0.353 OA
ATOM     20  C   UNL d   1       5.057   2.873   2.890  0.00  0.00     0.210 C 
ENDBRANCH  14  19
ENDBRANCH  10  11
ENDBRANCH   9  10
ENDBRANCH   7   9
ENDBRANCH   4   7
BRANCH   2  21
ATOM     21  N   UNL d   1      -0.115  -7.095   2.327  0.00  0.00    -0.363 N 
ATOM     22  HN  UNL d   1      -0.445  -8.054   2.428  1.00  0.00     0.165 HD
BRANCH  21  23
ATOM     23  C   UNL d   1       0.036  -6.351   3.373  0.00  0.00     0.107 C 
ATOM     24  C   UNL d   1      -0.336  -6.852   4.677  0.00  0.00     0.022 A 
ATOM     25  S   UNL d   1       0.087  -5.958   6.074  0.00  0.00    -0.065 SA
ATOM     26  C   UNL d   1      -1.048  -7.992   4.998  0.00  0.00     0.023 A 
ATOM     27  C   UNL d   1      -0.712  -7.061   7.093  0.00  0.00     0.144 A 
ATOM     28  C   UNL d   1      -1.285  -8.105   6.401  0.00  0.00     0.045 A 
BRANCH  27  29
ATOM     29  N   UNL d   1      -0.751  -6.846   8.518  0.00  0.00    -0.108 N 
ATOM     30  O   UNL d   1      -1.394  -7.678   9.177  0.00  0.00    -0.531 OA
ATOM     31  O   UNL d   1      -0.158  -5.868   8.982  0.00  0.00    -0.531 OA
ENDBRANCH  27  29
ENDBRANCH  21  23
ENDBRANCH   2  21
BRANCH   1  32
ATOM     32  C   UNL d   1      -1.408  -7.109  -2.417  0.00  0.00     0.417 C 
ATOM     33  F   UNL d   1      -2.386  -7.953  -1.990  0.00  0.00    -0.166 F 
ATOM     34  F   UNL d   1      -2.047  -6.080  -3.040  0.00  0.00    -0.166 F 
ATOM     35  F   UNL d   1      -0.738  -7.777  -3.397  0.00  0.00    -0.166 F 
ENDBRANCH   1  32
TORSDOF 10
