REMARK  4 active torsions:
REMARK  status: ('A' for Active; 'I' for Inactive)
REMARK    1  A    between atoms: C_2  and  S_1 
REMARK    2  A    between atoms: N_3  and  S_1 
REMARK    3  A    between atoms: C_5  and  N_3 
REMARK    4  A    between atoms: C_4  and  C_7 
ROOT
ATOM      1  S   UNL d   1       1.129   0.005  -0.044  0.00  0.00     0.249 S 
ATOM      2  O   UNL d   1       0.625   0.835  -1.116  0.00  0.00    -0.205 OA
ATOM      3  O   UNL d   1       2.560  -0.157   0.113  0.00  0.00    -0.205 OA
ENDROOT
BRANCH   1   4
ATOM      4  C   UNL d   1       0.441  -1.629  -0.252  0.00  0.00     0.096 A 
ATOM      5  C   UNL d   1      -0.832  -1.848  -0.783  0.00  0.00     0.057 A 
ATOM      6  C   UNL d   1      -1.262  -3.163  -1.026  0.00  0.00     0.041 A 
ATOM      7 CL   UNL d   1      -1.978  -0.601  -1.109  0.00  0.00    -0.083 Cl
ATOM      8  C   UNL d   1      -0.444  -4.264  -0.723  0.00  0.00     0.049 A 
ATOM      9  C   UNL d   1       0.818  -4.030  -0.161  0.00  0.00     0.018 A 
ATOM     10  C   UNL d   1       1.262  -2.725   0.061  0.00  0.00     0.027 A 
BRANCH   8  11
ATOM     11  C   UNL d   1      -0.903  -5.680  -0.984  0.00  0.00     0.417 C 
ATOM     12  F   UNL d   1      -2.128  -5.757  -1.571  0.00  0.00    -0.166 F 
ATOM     13  F   UNL d   1      -0.051  -6.359  -1.800  0.00  0.00    -0.166 F 
ATOM     14  F   UNL d   1      -0.989  -6.412   0.161  0.00  0.00    -0.166 F 
ENDBRANCH   8  11
ENDBRANCH   1   4
BRANCH   1  15
ATOM     15  N   UNL d   1       0.454   0.565   1.383  0.00  0.00    -0.151 NA
ATOM     16  H   UNL d   1      -0.554   0.640   1.302  0.00  0.00     0.149 HD
BRANCH  15  17
ATOM     17  C   UNL d   1       0.805  -0.166   2.515  0.00  0.00     0.170 A 
ATOM     18  N   UNL d   1       1.971   0.107   3.103  0.00  0.00    -0.342 N 
ATOM     19  C   UNL d   1       2.247  -0.612   4.205  0.00  0.00     0.092 A 
ATOM     20  HN  UNL d   1       2.611   0.814   2.741  1.00  0.00     0.167 HD
ATOM     21  C   UNL d   1       1.411  -1.582   4.705  0.00  0.00     0.034 A 
ATOM     22  C   UNL d   1       0.248  -1.785   3.995  0.00  0.00     0.092 A 
ATOM     23  N   UNL d   1      -0.085  -1.089   2.889  0.00  0.00    -0.342 N 
ATOM     24  HN  UNL d   1      -0.952  -1.254   2.378  1.00  0.00     0.167 HD
ENDBRANCH  15  17
ENDBRANCH   1  15
TORSDOF 4
