REMARK  3 active torsions:
REMARK  status: ('A' for Active; 'I' for Inactive)
REMARK    1  A    between atoms: C_6  and  C_1 
REMARK       I    between atoms: N_10  and  C_6 
REMARK    2  A    between atoms: C_17  and  N_10 
REMARK    3  A    between atoms: C_12  and  C_17 
ROOT
ATOM      1  C   UNL d   1       1.251  -4.362  -1.911  0.00  0.00     0.254 C 
ATOM      2  N   UNL d   1       1.111  -4.439  -0.547  0.00  0.00    -0.354 N 
ATOM      3  O   UNL d   1       0.279  -4.330  -2.662  0.00  0.00    -0.268 OA
ATOM      4  H   UNL d   1       1.941  -4.476   0.033  0.00  0.00     0.162 HD
ENDROOT
BRANCH   2   5
ATOM      5  C   UNL d   1      -0.148  -4.156   0.120  0.00  0.00     0.157 C 
BRANCH   5   6
ATOM      6  C   UNL d   1      -1.198  -5.281   0.043  0.00  0.00     0.171 C 
ATOM      7  O   UNL d   1      -0.739  -6.468   0.721  0.00  0.00    -0.339 OA
ATOM      8  C   UNL d   1      -1.016  -6.474   2.063  0.00  0.00     0.102 A 
ATOM      9  C   UNL d   1      -0.492  -7.530   2.806  0.00  0.00     0.039 A 
ATOM     10  C   UNL d   1      -1.773  -5.485   2.699  0.00  0.00     0.102 A 
ATOM     11  C   UNL d   1      -0.682  -7.572   4.188  0.00  0.00     0.003 A 
ATOM     12  C   UNL d   1      -1.384  -6.549   4.829  0.00  0.00     0.003 A 
ATOM     13  C   UNL d   1      -1.928  -5.502   4.083  0.00  0.00     0.039 A 
ATOM     14  O   UNL d   1      -2.382  -4.463   2.015  0.00  0.00    -0.346 OA
ATOM     15  C   UNL d   1      -2.531  -4.814   0.632  0.00  0.00     0.209 C 
ENDBRANCH   5   6
ENDBRANCH   2   5
BRANCH   1  16
ATOM     16  C   UNL d   1       2.618  -4.297  -2.432  0.00  0.00     0.062 A 
ATOM     17  C   UNL d   1       3.778  -3.987  -1.747  0.00  0.00     0.091 A 
ATOM     18  S   UNL d   1       5.173  -3.942  -2.721  0.00  0.00    -0.065 SA
ATOM     19 CL   UNL d   1       3.991  -3.607  -0.075  0.00  0.00    -0.075 Cl
ATOM     20  C   UNL d   1       4.270  -4.319  -4.093  0.00  0.00     0.077 A 
ATOM     21  C   UNL d   1       2.934  -4.492  -3.831  0.00  0.00     0.050 A 
ATOM     22 CL   UNL d   1       5.042  -4.437  -5.620  0.00  0.00    -0.076 Cl
ENDBRANCH   1  16
TORSDOF 3
