REMARK  4 active torsions:
REMARK  status: ('A' for Active; 'I' for Inactive)
REMARK    1  A    between atoms: C_5  and  C_1 
REMARK    2  A    between atoms: C_8  and  C_3 
REMARK    3  A    between atoms: O_12  and  C_5 
REMARK    4  A    between atoms: O_16  and  C_13 
ROOT
ATOM      1  C   UNL d   1      -1.439   0.434   0.043  0.00  0.00     0.027 C 
ATOM      2  S   UNL d   1       0.293  -1.784   0.235  0.00  0.00    -0.124 SA
ATOM      3  C   UNL d   1       1.360  -0.444   0.045  0.00  0.00     0.011 C 
ATOM      4  C   UNL d   1      -0.397   1.282   0.055  0.00  0.00     0.015 C 
ATOM      5  C   UNL d   1       0.975   0.839  -0.004  0.00  0.00     0.020 C 
ATOM      6  C   UNL d   1      -1.345  -1.060   0.009  0.00  0.00     0.124 C 
ENDROOT
BRANCH   3   7
ATOM      7  C   UNL d   1       2.785  -0.791  -0.030  0.00  0.00    -0.019 A 
ATOM      8  C   UNL d   1       3.544  -0.908   1.140  0.00  0.00     0.015 A 
ATOM      9  C   UNL d   1       4.903  -1.231   1.075  0.00  0.00     0.037 A 
ATOM     10  C   UNL d   1       5.517  -1.438  -0.161  0.00  0.00     0.068 A 
ATOM     11  C   UNL d   1       4.758  -1.329  -1.329  0.00  0.00     0.037 A 
ATOM     12  C   UNL d   1       3.401  -1.005  -1.268  0.00  0.00     0.015 A 
BRANCH  10  13
ATOM     13  O   UNL d   1       6.835  -1.746  -0.357  0.00  0.00    -0.356 OA
ATOM     14  C   UNL d   1       7.646  -1.839   0.808  0.00  0.00     0.210 C 
ENDBRANCH  10  13
ENDBRANCH   3   7
BRANCH   1  15
ATOM     15  C   UNL d   1      -2.807   1.027   0.040  0.00  0.00     0.289 C 
ATOM     16  O   UNL d   1      -3.051   2.222   0.062  0.00  0.00    -0.260 OA
BRANCH  15  17
ATOM     17  O   UNL d   1      -3.730   0.031  -0.006  0.00  0.00    -0.323 OA
ATOM     18  C   UNL d   1      -5.088   0.466  -0.024  0.00  0.00     0.213 C 
ENDBRANCH  15  17
ENDBRANCH   1  15
TORSDOF 4
