REMARK  6 active torsions:
REMARK  status: ('A' for Active; 'I' for Inactive)
REMARK    1  A    between atoms: N_4  and  S_1 
REMARK    2  A    between atoms: C_7  and  S_1 
REMARK    3  A    between atoms: C_2  and  C_6 
REMARK    4  A    between atoms: C_3  and  C_5 
REMARK    5  A    between atoms: C_8  and  N_4 
REMARK    6  A    between atoms: N_23  and  C_22 
ROOT
ATOM      1  C   UNL d   1       0.064   4.420  -1.531  0.00  0.00     0.050 A 
ATOM      2  C   UNL d   1       2.332   3.923  -2.304  0.00  0.00     0.050 A 
ATOM      3  C   UNL d   1       0.819   2.123  -1.699  0.00  0.00     0.044 A 
ATOM      4  C   UNL d   1       1.322   4.848  -1.988  0.00  0.00     0.032 A 
ATOM      5  C   UNL d   1       2.074   2.554  -2.133  0.00  0.00     0.046 A 
ATOM      6  C   UNL d   1      -0.179   3.045  -1.399  0.00  0.00     0.046 A 
ENDROOT
BRANCH   3   7
ATOM      7  N   UNL d   1       0.573   0.737  -1.530  0.00  0.00    -0.281 N 
ATOM      8  H   UNL d   1      -0.306   0.361  -1.883  0.00  0.00     0.179 HD
BRANCH   7   9
ATOM      9  S   UNL d   1       1.039  -0.009  -0.086  0.00  0.00     0.263 S 
ATOM     10  O   UNL d   1       2.434   0.284   0.166  0.00  0.00    -0.200 OA
ATOM     11  O   UNL d   1       0.554  -1.370  -0.162  0.00  0.00    -0.200 OA
BRANCH   9  12
ATOM     12  C   UNL d   1       0.064   0.833   1.144  0.00  0.00     0.080 A 
ATOM     13  C   UNL d   1      -1.222   0.371   1.438  0.00  0.00     0.027 A 
ATOM     14  C   UNL d   1      -1.963   0.991   2.449  0.00  0.00     0.025 A 
ATOM     15  C   UNL d   1      -1.447   2.086   3.149  0.00  0.00     0.005 A 
ATOM     16  C   UNL d   1      -0.138   2.499   2.878  0.00  0.00     0.025 A 
ATOM     17  C   UNL d   1       0.616   1.888   1.872  0.00  0.00     0.027 A 
BRANCH  15  18
ATOM     18  N   UNL d   1      -2.126   2.590   4.262  0.00  0.00    -0.303 NA
ATOM     19  H   UNL d   1      -1.854   3.531   4.530  0.00  0.00     0.124 HD
ATOM     20  H   UNL d   1      -3.134   2.473   4.232  0.00  0.00     0.124 HD
ENDBRANCH  15  18
ENDBRANCH   9  12
ENDBRANCH   7   9
ENDBRANCH   3   7
BRANCH   2  21
ATOM     21  C   UNL d   1       3.667   4.381  -2.846  0.00  0.00     0.417 C 
ATOM     22  F   UNL d   1       3.758   5.735  -2.970  0.00  0.00    -0.166 F 
ATOM     23  F   UNL d   1       4.712   4.007  -2.061  0.00  0.00    -0.166 F 
ATOM     24  F   UNL d   1       3.921   3.879  -4.085  0.00  0.00    -0.166 F 
ENDBRANCH   2  21
BRANCH   1  25
ATOM     25  C   UNL d   1      -1.028   5.404  -1.188  0.00  0.00     0.417 C 
ATOM     26  F   UNL d   1      -0.670   6.702  -1.381  0.00  0.00    -0.166 F 
ATOM     27  F   UNL d   1      -2.149   5.207  -1.933  0.00  0.00    -0.166 F 
ATOM     28  F   UNL d   1      -1.419   5.310   0.112  0.00  0.00    -0.166 F 
ENDBRANCH   1  25
TORSDOF 6
