REMARK  5 active torsions:
REMARK  status: ('A' for Active; 'I' for Inactive)
REMARK    1  A    between atoms: C_2  and  S_1 
REMARK    2  A    between atoms: N_4  and  S_1 
REMARK    3  A    between atoms: N_3  and  C_11 
REMARK    4  A    between atoms: C_19  and  N_4 
REMARK    5  A    between atoms: C_20  and  C_19 
ROOT
ATOM      1  C   UNL d   1      -0.313  -5.955   2.942  0.00  0.00     0.030 A 
ATOM      2  C   UNL d   1       0.723  -6.028   2.000  0.00  0.00     0.030 A 
ATOM      3  C   UNL d   1      -0.903  -4.696   3.117  0.00  0.00     0.030 A 
ATOM      4  C   UNL d   1       0.553  -3.665   1.461  0.00  0.00    -0.040 A 
ATOM      5  C   UNL d   1       1.157  -4.910   1.276  0.00  0.00     0.011 A 
ATOM      6  C   UNL d   1      -0.485  -3.569   2.391  0.00  0.00     0.011 A 
ENDROOT
BRANCH   4   7
ATOM      7  C   UNL d   1       1.022  -2.461   0.682  0.00  0.00     0.170 C 
BRANCH   7   8
ATOM      8  N   UNL d   1       0.784  -2.621  -0.756  0.00  0.00    -0.311 N 
ATOM      9  H   UNL d   1       0.979  -3.540  -1.142  0.00  0.00     0.172 HD
BRANCH   8  10
ATOM     10  S   UNL d   1       1.303  -1.378  -1.753  0.00  0.00     0.259 S 
ATOM     11  O   UNL d   1       0.996  -1.765  -3.108  0.00  0.00    -0.201 OA
ATOM     12  O   UNL d   1       0.895  -0.115  -1.182  0.00  0.00    -0.201 OA
BRANCH  10  13
ATOM     13  C   UNL d   1       3.038  -1.346  -1.718  0.00  0.00     0.086 A 
ATOM     14  C   UNL d   1       3.817  -0.262  -1.210  0.00  0.00     0.033 A 
ATOM     15  C   UNL d   1       5.168  -0.508  -1.313  0.00  0.00     0.051 A 
ATOM     16  S   UNL d   1       5.494  -2.038  -2.012  0.00  0.00    -0.112 SA
ATOM     17  C   UNL d   1       3.824  -2.374  -2.194  0.00  0.00     0.074 A 
ENDBRANCH  10  13
ENDBRANCH   8  10
ENDBRANCH   7   8
ENDBRANCH   4   7
BRANCH   1  18
ATOM     18  N   UNL d   1      -0.744  -7.079   3.615  0.00  0.00    -0.378 N 
ATOM     19  C   UNL d   1      -2.090  -7.202   4.196  0.00  0.00     0.153 C 
ATOM     20  C   UNL d   1      -2.664  -8.610   3.887  0.00  0.00     0.291 C 
ATOM     21  N   UNL d   1      -1.771  -9.711   4.320  0.00  0.00     0.087 N 
ATOM     22  C   UNL d   1      -0.441  -9.528   3.696  0.00  0.00     0.291 C 
ATOM     23  C   UNL d   1      -2.337 -11.007   3.957  0.00  0.00     0.310 C 
ATOM     24  C   UNL d   1       0.175  -8.152   4.032  0.00  0.00     0.153 C 
ENDBRANCH   1  18
TORSDOF 5
