REMARK  3 active torsions:
REMARK  status: ('A' for Active; 'I' for Inactive)
REMARK    1  A    between atoms: N_7  and  C_1 
REMARK    2  A    between atoms: C_4  and  C_11 
REMARK    3  A    between atoms: C_11  and  N_10 
ROOT
ATOM      1  N   UNL d   1      -0.164   2.527   0.884  0.00  0.00     0.105 N 
ATOM      2  N   UNL d   1      -2.406   2.289   2.926  0.00  0.00     0.096 N 
ATOM      3  C   UNL d   1      -0.041   1.784   2.150  0.00  0.00     0.304 C 
ATOM      4  C   UNL d   1      -1.248   3.511   0.959  0.00  0.00     0.304 C 
ATOM      5  C   UNL d   1      -1.369   1.257   2.735  0.00  0.00     0.303 C 
ATOM      6  C   UNL d   1      -2.549   3.086   1.690  0.00  0.00     0.303 C 
ENDROOT
BRANCH   1   7
ATOM      7  C   UNL d   1      -0.092   1.728  -0.355  0.00  0.00     0.290 C 
ATOM      8  C   UNL d   1       1.252   0.989  -0.426  0.00  0.00    -0.009 A 
ATOM      9  C   UNL d   1       1.043  -0.407  -0.368  0.00  0.00    -0.017 A 
ATOM     10  C   UNL d   1       2.530   1.530  -0.464  0.00  0.00     0.010 A 
ATOM     11  C   UNL d   1       2.121  -1.276  -0.336  0.00  0.00     0.013 A 
ATOM     12  C   UNL d   1      -0.381  -0.666  -0.367  0.00  0.00    -0.017 C 
ATOM     13  C   UNL d   1       3.412  -0.737  -0.367  0.00  0.00     0.001 A 
ATOM     14  C   UNL d   1       3.614   0.652  -0.437  0.00  0.00     0.001 A 
ATOM     15  C   UNL d   1      -1.070   0.564  -0.480  0.00  0.00    -0.009 C 
ATOM     16  C   UNL d   1      -1.080  -1.859  -0.285  0.00  0.00     0.013 C 
ATOM     17  C   UNL d   1      -2.442   0.590  -0.676  0.00  0.00     0.010 C 
ATOM     18  C   UNL d   1      -3.148  -0.611  -0.593  0.00  0.00     0.001 C 
ATOM     19  C   UNL d   1      -2.475  -1.821  -0.369  0.00  0.00     0.001 C 
ENDBRANCH   1   7
BRANCH   2  20
ATOM     20  C   UNL d   1      -2.088   3.111   4.104  0.00  0.00     0.314 C 
BRANCH  20  21
ATOM     21  C   UNL d   1      -3.215   4.035   4.511  0.00  0.00     0.006 A 
ATOM     22  C   UNL d   1      -2.987   5.401   4.733  0.00  0.00     0.088 A 
ATOM     23  C   UNL d   1      -4.029   6.243   5.132  0.00  0.00     0.001 A 
ATOM     24  O   UNL d   1      -1.709   5.863   4.568  0.00  0.00    -0.325 OA
ATOM     25  C   UNL d   1      -3.752   7.699   5.348  0.00  0.00     0.212 C 
ATOM     26  C   UNL d   1      -5.320   5.723   5.291  0.00  0.00     0.036 A 
ATOM     27  O   UNL d   1      -2.374   7.893   5.639  0.00  0.00    -0.362 OA
ATOM     28  C   UNL d   1      -1.582   7.281   4.630  0.00  0.00     0.345 C 
ATOM     29  C   UNL d   1      -5.553   4.366   5.081  0.00  0.00     0.035 A 
ATOM     30  C   UNL d   1      -4.512   3.524   4.702  0.00  0.00     0.035 A 
ATOM     31 CL   UNL d   1      -7.138   3.729   5.291  0.00  0.00    -0.084 Cl
ENDBRANCH  20  21
ENDBRANCH   2  20
TORSDOF 3
