REMARK  5 active torsions:
REMARK  status: ('A' for Active; 'I' for Inactive)
REMARK    1  A    between atoms: C_10  and  C_3 
REMARK    2  A    between atoms: O_17  and  C_4 
REMARK    3  A    between atoms: C_7  and  C_11 
REMARK    4  A    between atoms: C_8  and  C_12 
REMARK    5  A    between atoms: C_16  and  O_17 
ROOT
ATOM      1  N   UNL d   1       1.066  -0.163  -0.918  0.00  0.00    -0.315 N 
ATOM      2  HN  UNL d   1       1.688  -0.219  -1.724  1.00  0.00     0.170 HD
ATOM      3  C   UNL d   1       1.134   0.795   0.096  0.00  0.00     0.124 A 
ATOM      4  C   UNL d   1       0.070  -0.981  -0.662  0.00  0.00     0.210 A 
ATOM      5  N   UNL d   1       0.259   0.714   1.107  0.00  0.00    -0.308 N 
ATOM      6  HN  UNL d   1       0.193   1.346   1.905  1.00  0.00     0.176 HD
ATOM      7  S   UNL d   1      -0.706  -0.618   0.816  0.00  0.00     0.032 SA
ENDROOT
BRANCH   3   8
ATOM      8  C   UNL d   1       2.129   1.872   0.006  0.00  0.00     0.010 A 
ATOM      9  C   UNL d   1       3.067   1.885  -1.039  0.00  0.00     0.031 A 
ATOM     10  C   UNL d   1       4.009   2.922  -1.162  0.00  0.00     0.049 A 
ATOM     11  C   UNL d   1       4.007   3.956  -0.214  0.00  0.00     0.032 A 
ATOM     12  C   UNL d   1       3.079   3.968   0.840  0.00  0.00     0.049 A 
ATOM     13  C   UNL d   1       2.150   2.918   0.941  0.00  0.00     0.031 A 
BRANCH  10  14
ATOM     14  C   UNL d   1       4.992   2.911  -2.310  0.00  0.00     0.417 C 
ATOM     15  F   UNL d   1       5.825   3.988  -2.320  0.00  0.00    -0.166 F 
ATOM     16  F   UNL d   1       5.798   1.814  -2.295  0.00  0.00    -0.166 F 
ATOM     17  F   UNL d   1       4.372   2.907  -3.522  0.00  0.00    -0.166 F 
ENDBRANCH  10  14
BRANCH  12  18
ATOM     18  C   UNL d   1       3.051   5.090   1.851  0.00  0.00     0.417 C 
ATOM     19  F   UNL d   1       3.980   6.057   1.613  0.00  0.00    -0.166 F 
ATOM     20  F   UNL d   1       1.849   5.728   1.883  0.00  0.00    -0.166 F 
ATOM     21  F   UNL d   1       3.281   4.654   3.119  0.00  0.00    -0.166 F 
ENDBRANCH  12  18
ENDBRANCH   3   8
BRANCH   4  22
ATOM     22  O   UNL d   1      -0.313  -1.987  -1.451  0.00  0.00    -0.286 OA
BRANCH  22  23
ATOM     23  C   UNL d   1      -0.064  -1.950  -2.805  0.00  0.00     0.081 A 
ATOM     24  C   UNL d   1       0.194  -3.168  -3.433  0.00  0.00     0.061 A 
ATOM     25  C   UNL d   1       0.416  -3.198  -4.812  0.00  0.00     0.038 A 
ATOM     26 CL   UNL d   1       0.739  -4.698  -5.589  0.00  0.00    -0.084 Cl
ATOM     27  C   UNL d   1       0.373  -2.027  -5.566  0.00  0.00     0.048 A 
ATOM     28  C   UNL d   1       0.095  -0.820  -4.933  0.00  0.00     0.038 A 
ATOM     29  C   UNL d   1      -0.137  -0.776  -3.559  0.00  0.00     0.061 A 
ATOM     30 CL   UNL d   1       0.027   0.634  -5.850  0.00  0.00    -0.084 Cl
ENDBRANCH  22  23
ENDBRANCH   4  22
TORSDOF 5
