REMARK  2 active torsions:
REMARK  status: ('A' for Active; 'I' for Inactive)
REMARK    1  A    between atoms: C_3  and  C_1 
REMARK       I    between atoms: N_10  and  C_3 
REMARK    2  A    between atoms: C_15  and  N_10 
ROOT
ATOM      1  C   UNL d   1      -0.478  -4.811  -0.868  0.00  0.00     0.258 C 
ATOM      2  N   UNL d   1      -0.130  -3.757  -0.040  0.00  0.00    -0.323 N 
ATOM      3  O   UNL d   1       0.308  -5.531  -1.475  0.00  0.00    -0.267 OA
ATOM      4  H   UNL d   1      -0.874  -3.317   0.495  0.00  0.00     0.169 HD
ENDROOT
BRANCH   1   5
ATOM      5  C   UNL d   1      -1.916  -5.115  -1.036  0.00  0.00     0.061 A 
ATOM      6  C   UNL d   1      -2.980  -4.373  -0.463  0.00  0.00     0.082 A 
ATOM      7  N   UNL d   1      -2.896  -3.302   0.350  0.00  0.00    -0.310 N 
ATOM      8  C   UNL d   1      -4.418  -4.766  -0.752  0.00  0.00     0.068 A 
ATOM      9  S   UNL d   1      -4.455  -2.835   0.692  0.00  0.00     0.068 SA
ATOM     10  HN  UNL d   1      -2.041  -2.862   0.690  1.00  0.00     0.176 HD
ATOM     11  N   UNL d   1      -5.316  -3.972  -0.151  0.00  0.00    -0.310 N 
ATOM     12  HN  UNL d   1      -6.331  -4.053  -0.202  1.00  0.00     0.176 HD
ATOM     13  C   UNL d   1      -4.729  -5.869  -1.583  0.00  0.00     0.032 A 
ATOM     14  C   UNL d   1      -3.640  -6.567  -2.122  0.00  0.00     0.003 A 
ATOM     15  C   UNL d   1      -2.299  -6.205  -1.861  0.00  0.00     0.019 A 
ENDBRANCH   1   5
BRANCH   2  16
ATOM     16  C   UNL d   1       1.168  -3.211   0.112  0.00  0.00     0.035 A 
ATOM     17  C   UNL d   1       2.241  -3.566  -0.713  0.00  0.00     0.037 A 
ATOM     18  C   UNL d   1       3.463  -2.936  -0.544  0.00  0.00    -0.050 A 
ATOM     19  C   UNL d   1       4.692  -3.113  -1.377  0.00  0.00     0.039 C 
ATOM     20  C   UNL d   1       3.645  -1.958   0.433  0.00  0.00    -0.052 A 
ATOM     21  C   UNL d   1       5.751  -2.428  -0.503  0.00  0.00     0.009 C 
ATOM     22  C   UNL d   1       5.019  -1.371   0.340  0.00  0.00     0.039 C 
ATOM     23  C   UNL d   1       2.603  -1.598   1.270  0.00  0.00     0.010 A 
ATOM     24  C   UNL d   1       1.361  -2.229   1.104  0.00  0.00     0.030 A 
ENDBRANCH   2  16
TORSDOF 2
