REMARK  5 active torsions:
REMARK  status: ('A' for Active; 'I' for Inactive)
REMARK    1  A    between atoms: C_3  and  N_1 
REMARK    2  A    between atoms: N_5  and  C_2 
REMARK       I    between atoms: C_4  and  N_6 
REMARK    3  A    between atoms: C_9  and  C_4 
REMARK    4  A    between atoms: N_6  and  N_5 
REMARK    5  A    between atoms: C_12  and  C_13 
ROOT
ATOM      1  N   UNL d   1      -0.544  -0.595   1.845  0.00  0.00    -0.185 NA
ATOM      2  H   UNL d   1      -0.124   0.313   1.625  0.00  0.00     0.154 HD
ENDROOT
BRANCH   1   3
ATOM      3  C   UNL d   1      -0.974  -1.231   0.654  0.00  0.00     0.126 A 
ATOM      4  C   UNL d   1      -2.102  -0.782  -0.054  0.00  0.00     0.078 A 
ATOM      5  C   UNL d   1      -2.388  -1.375  -1.296  0.00  0.00     0.035 A 
ATOM      6  C   UNL d   1      -1.574  -2.388  -1.788  0.00  0.00     0.019 A 
ATOM      7  C   UNL d   1      -0.505  -2.790  -1.016  0.00  0.00     0.089 A 
ATOM      8  N   UNL d   1      -0.203  -2.252   0.185  0.00  0.00    -0.354 N 
ATOM      9  HN  UNL d   1       0.585  -2.603   0.729  1.00  0.00     0.166 HD
BRANCH   4  10
ATOM     10  N   UNL d   1      -3.030   0.169   0.471  0.00  0.00    -0.330 N 
ATOM     11  C   UNL d   1      -3.919   0.929  -0.274  0.00  0.00     0.097 A 
ATOM     12  C   UNL d   1      -4.724   1.658   0.574  0.00  0.00     0.019 A 
ATOM     13  C   UNL d   1      -4.326   1.351   1.889  0.00  0.00     0.019 A 
ATOM     14  C   UNL d   1      -3.287   0.451   1.800  0.00  0.00     0.097 A 
ENDBRANCH   4  10
ENDBRANCH   1   3
BRANCH   1  15
ATOM     15  N   UNL d   1       0.316  -1.395   2.611  0.00  0.00    -0.281 N 
ATOM     16  C   UNL d   1       1.326  -0.800   3.342  0.00  0.00     0.266 C 
ATOM     17  O   UNL d   1       1.647   0.380   3.244  0.00  0.00    -0.266 OA
ATOM     18  H   UNL d   1       0.232  -2.395   2.472  0.00  0.00     0.184 HD
BRANCH  16  19
ATOM     19  C   UNL d   1       2.020  -1.716   4.294  0.00  0.00     0.033 A 
ATOM     20  C   UNL d   1       3.352  -1.491   4.642  0.00  0.00     0.017 A 
ATOM     21  C   UNL d   1       3.998  -2.356   5.541  0.00  0.00     0.009 A 
ATOM     22  C   UNL d   1       3.330  -3.455   6.119  0.00  0.00    -0.051 A 
ATOM     23  C   UNL d   1       1.979  -3.635   5.782  0.00  0.00     0.009 A 
ATOM     24  C   UNL d   1       1.332  -2.779   4.887  0.00  0.00     0.017 A 
BRANCH  22  25
ATOM     25  C   UNL d   1       4.070  -4.415   7.070  0.00  0.00    -0.024 C 
ATOM     26  C   UNL d   1       3.185  -5.567   7.603  0.00  0.00     0.019 C 
ATOM     27  C   UNL d   1       5.255  -5.064   6.324  0.00  0.00     0.019 C 
ATOM     28  C   UNL d   1       4.602  -3.648   8.299  0.00  0.00     0.019 C 
ENDBRANCH  22  25
ENDBRANCH  16  19
ENDBRANCH   1  15
TORSDOF 5
