REMARK  4 active torsions:
REMARK  status: ('A' for Active; 'I' for Inactive)
REMARK       I    between atoms: C_2  and  N_1 
REMARK    1  A    between atoms: O_17  and  C_2 
REMARK       I    between atoms: C_3  and  N_5 
REMARK    2  A    between atoms: C_4  and  C_3 
REMARK    3  A    between atoms: N_5  and  C_14 
REMARK    4  A    between atoms: C_18  and  O_17 
ROOT
ATOM      1  N   UNL d   1       1.437  -0.115   0.309  0.00  0.00    -0.328 N 
ATOM      2  C   UNL d   1       2.669  -0.140   0.944  0.00  0.00     0.362 C 
ATOM      3  C   UNL d   1       0.900   1.162  -0.126  0.00  0.00     0.130 C 
ATOM      4  C   UNL d   1       0.757  -1.302  -0.199  0.00  0.00     0.130 C 
ATOM      5  O   UNL d   1       3.308   0.865   1.227  0.00  0.00    -0.238 OA
ATOM      6  C   UNL d   1      -1.387   0.086  -0.264  0.00  0.00     0.087 C 
ATOM      7  C   UNL d   1      -0.569   1.275   0.253  0.00  0.00     0.045 C 
ATOM      8  C   UNL d   1      -0.738  -1.255   0.103  0.00  0.00     0.045 C 
ENDROOT
BRANCH   6   9
ATOM      9  N   UNL d   1      -1.623   0.213  -1.695  0.00  0.00    -0.350 N 
ATOM     10  C   UNL d   1      -2.836  -0.080  -2.283  0.00  0.00     0.275 C 
ATOM     11  O   UNL d   1      -3.766  -0.594  -1.668  0.00  0.00    -0.265 OA
ATOM     12  H   UNL d   1      -0.911   0.598  -2.307  0.00  0.00     0.163 HD
BRANCH  10  13
ATOM     13  C   UNL d   1      -2.916   0.309  -3.676  0.00  0.00     0.142 A 
ATOM     14  O   UNL d   1      -1.825   0.886  -4.279  0.00  0.00    -0.317 OA
ATOM     15  C   UNL d   1      -2.187   1.188  -5.553  0.00  0.00     0.143 A 
ATOM     16  C   UNL d   1      -3.489   0.814  -5.788  0.00  0.00     0.027 A 
ATOM     17  C   UNL d   1      -3.958   0.244  -4.581  0.00  0.00     0.045 A 
ENDBRANCH  10  13
ENDBRANCH   6   9
BRANCH   2  18
ATOM     18  O   UNL d   1       3.099  -1.405   1.196  0.00  0.00    -0.304 OA
BRANCH  18  19
ATOM     19  C   UNL d   1       4.440  -1.511   1.695  0.00  0.00     0.176 C 
ATOM     20  C   UNL d   1       5.396  -1.561   0.518  0.00  0.00     0.034 C 
ENDBRANCH  18  19
ENDBRANCH   2  18
TORSDOF 4
