REMARK  4 active torsions:
REMARK  status: ('A' for Active; 'I' for Inactive)
REMARK    1  A    between atoms: N_6  and  C_1 
REMARK    2  A    between atoms: C_3  and  C_2 
REMARK       I    between atoms: N_8  and  C_3 
REMARK    3  A    between atoms: C_21  and  N_8 
REMARK    4  A    between atoms: C_20  and  C_21 
ROOT
ATOM      1  C   UNL d   1       1.258   2.557   0.058  0.00  0.00     0.253 C 
ATOM      2  N   UNL d   1       0.482   3.692  -0.027  0.00  0.00    -0.353 N 
ATOM      3  O   UNL d   1       2.482   2.608   0.155  0.00  0.00    -0.268 OA
ATOM      4  H   UNL d   1      -0.519   3.654  -0.129  0.00  0.00     0.163 HD
ENDROOT
BRANCH   1   5
ATOM      5  C   UNL d   1       0.597   1.225   0.023  0.00  0.00     0.047 A 
ATOM      6  C   UNL d   1       1.415   0.096   0.044  0.00  0.00     0.022 A 
ATOM      7  C   UNL d   1       0.842  -1.171   0.001  0.00  0.00     0.043 A 
ATOM      8  C   UNL d   1      -0.544  -1.317  -0.069  0.00  0.00     0.082 A 
ATOM      9  N   UNL d   1      -1.352  -0.237  -0.052  0.00  0.00    -0.356 N 
ATOM     10  C   UNL d   1      -0.771   1.000  -0.014  0.00  0.00     0.106 A 
ATOM     11  HN  UNL d   1      -2.366  -0.340  -0.066  1.00  0.00     0.166 HD
BRANCH   8  12
ATOM     12  N   UNL d   1      -1.058  -2.613  -0.106  0.00  0.00    -0.265 NA
ATOM     13  C   UNL d   1      -2.477  -2.788   0.244  0.00  0.00     0.123 C 
ATOM     14  C   UNL d   1      -2.723  -4.299   0.450  0.00  0.00     0.182 C 
ATOM     15  O   UNL d   1      -2.373  -5.067  -0.720  0.00  0.00    -0.389 OA
ATOM     16  C   UNL d   1      -0.996  -4.849  -1.076  0.00  0.00     0.182 C 
ATOM     17  C   UNL d   1      -0.717  -3.361  -1.332  0.00  0.00     0.123 C 
ENDBRANCH   8  12
ENDBRANCH   1   5
BRANCH   2  18
ATOM     18  C   UNL d   1       1.086   5.009   0.033  0.00  0.00     0.161 C 
BRANCH  18  19
ATOM     19  C   UNL d   1       0.769   5.827  -1.194  0.00  0.00    -0.038 A 
ATOM     20  C   UNL d   1       1.179   5.387  -2.465  0.00  0.00     0.048 A 
ATOM     21  C   UNL d   1       0.904   6.190  -3.553  0.00  0.00     0.105 A 
ATOM     22  O   UNL d   1       1.226   5.917  -4.846  0.00  0.00    -0.323 OA
ATOM     23  C   UNL d   1       0.257   7.395  -3.419  0.00  0.00     0.105 A 
ATOM     24  C   UNL d   1       0.688   7.078  -5.511  0.00  0.00     0.352 A 
ATOM     25  O   UNL d   1       0.091   8.032  -4.609  0.00  0.00    -0.323 OA
ATOM     26  C   UNL d   1      -0.152   7.865  -2.191  0.00  0.00     0.040 A 
ATOM     27  C   UNL d   1       0.107   7.071  -1.069  0.00  0.00     0.012 A 
ENDBRANCH  18  19
ENDBRANCH   2  18
TORSDOF 4
