REMARK  2 active torsions:
REMARK  status: ('A' for Active; 'I' for Inactive)
REMARK    1  A    between atoms: C_4  and  C_1 
REMARK       I    between atoms: N_6  and  C_1 
REMARK    2  A    between atoms: C_13  and  N_6 
ROOT
ATOM      1  N   UNL d   1       1.546  -0.682   4.757  0.00  0.00    -0.196 NA
ATOM      2  C   UNL d   1       1.621  -0.847   3.609  0.00  0.00     0.078 C 
ATOM      3  C   UNL d   1       1.699  -1.013   2.149  0.00  0.00     0.247 C 
ENDROOT
BRANCH   3   4
ATOM      4  N   UNL d   1       0.987   0.041   1.447  0.00  0.00    -0.345 N 
ATOM      5  C   UNL d   1       0.893   0.026   0.073  0.00  0.00     0.252 C 
ATOM      6  O   UNL d   1       1.404  -0.843  -0.622  0.00  0.00    -0.268 OA
ATOM      7  H   UNL d   1       0.770   0.893   1.950  0.00  0.00     0.163 HD
BRANCH   5   8
ATOM      8  C   UNL d   1       0.148   1.159  -0.545  0.00  0.00     0.032 A 
ATOM      9  C   UNL d   1      -0.920   1.774   0.123  0.00  0.00     0.018 A 
ATOM     10  C   UNL d   1      -1.606   2.834  -0.477  0.00  0.00     0.025 A 
ATOM     11  C   UNL d   1      -1.230   3.274  -1.745  0.00  0.00     0.034 A 
ATOM     12  C   UNL d   1      -0.184   2.654  -2.427  0.00  0.00     0.025 A 
ATOM     13 CL   UNL d   1      -2.070   4.587  -2.473  0.00  0.00    -0.084 Cl
ATOM     14  C   UNL d   1       0.502   1.591  -1.831  0.00  0.00     0.018 A 
ENDBRANCH   5   8
ENDBRANCH   3   4
TORSDOF 2
