REMARK  2 active torsions:
REMARK  status: ('A' for Active; 'I' for Inactive)
REMARK       I    between atoms: N_6  and  C_1 
REMARK       I    between atoms: N_8  and  C_1 
REMARK    1  A    between atoms: C_2  and  C_3 
REMARK    2  A    between atoms: C_9  and  N_6 
ROOT
ATOM      1  C   UNL d   1       1.090   0.279   0.114  0.00  0.00     0.689 C 
ATOM      2  N   UNL d   1       0.368   1.355   0.223  0.00  0.00    -0.126 N 
ATOM      3  HN  UNL d   1      -0.641   1.275   0.100  1.00  0.00     0.197 HD
ATOM      4  N   UNL d   1       0.436  -0.925  -0.126  0.00  0.00    -0.190 N 
ATOM      5  C   UNL d   1       0.880   2.553   0.486  0.00  0.00     0.196 C 
ATOM      6  N   UNL d   1       2.466   0.108   0.241  0.00  0.00    -0.217 N 
ATOM      7  N   UNL d   1       1.308   3.607   0.706  0.00  0.00    -0.171 NA
ATOM      8  C   UNL d   1       3.205  -1.125  -0.043  0.00  0.00     0.141 C 
ATOM      9  C   UNL d   1       3.435   1.205   0.394  0.00  0.00     0.141 C 
ATOM     10  C   UNL d   1       4.819   0.556   0.369  0.00  0.00     0.022 C 
ATOM     11  C   UNL d   1       4.539  -0.903   0.656  0.00  0.00     0.022 C 
ATOM     12  H   UNL d   1       0.696  -1.653   0.531  0.00  0.00     0.184 HD
ENDROOT
BRANCH   4  13
ATOM     13  C   UNL d   1      -0.871  -1.056  -0.661  0.00  0.00     0.064 A 
ATOM     14  C   UNL d   1      -1.760  -2.073  -0.260  0.00  0.00     0.075 A 
ATOM     15  C   UNL d   1      -3.035  -2.164  -0.866  0.00  0.00     0.018 A 
ATOM     16  C   UNL d   1      -3.437  -1.258  -1.844  0.00  0.00     0.001 A 
ATOM     17  C   UNL d   1      -2.571  -0.249  -2.236  0.00  0.00     0.002 A 
ATOM     18  C   UNL d   1      -1.304  -0.160  -1.659  0.00  0.00     0.031 A 
BRANCH  14  19
ATOM     19  C   UNL d   1      -1.448  -3.075   0.821  0.00  0.00     0.419 C 
ATOM     20  F   UNL d   1      -0.209  -2.928   1.376  0.00  0.00    -0.166 F 
ATOM     21  F   UNL d   1      -2.327  -3.019   1.861  0.00  0.00    -0.166 F 
ATOM     22  F   UNL d   1      -1.492  -4.361   0.370  0.00  0.00    -0.166 F 
ENDBRANCH  14  19
ENDBRANCH   4  13
TORSDOF 2
