REMARK  8 active torsions:
REMARK  status: ('A' for Active; 'I' for Inactive)
REMARK       I    between atoms: N_2  and  C_1 
REMARK    1  A    between atoms: C_3  and  C_1 
REMARK    2  A    between atoms: C_4  and  N_2 
REMARK    3  A    between atoms: N_5  and  C_3 
REMARK    4  A    between atoms: C_11  and  N_5 
REMARK    5  A    between atoms: C_14  and  C_11 
REMARK    6  A    between atoms: C_16  and  C_12 
REMARK    7  A    between atoms: C_19  and  C_16 
REMARK    8  A    between atoms: C_20  and  C_19 
ROOT
ATOM      1  C   UNL d   1      -0.205  -1.069   1.103  0.00  0.00     0.283 C 
ATOM      2  N   UNL d   1       0.290  -1.296  -0.170  0.00  0.00    -0.321 N 
ATOM      3  O   UNL d   1      -0.222  -1.864   2.035  0.00  0.00    -0.265 OA
ATOM      4  H   UNL d   1      -0.060  -0.695  -0.908  0.00  0.00     0.169 HD
ENDROOT
BRANCH   1   5
ATOM      5  C   UNL d   1      -0.844   0.295   1.318  0.00  0.00     0.165 C 
ATOM      6  S   UNL d   1      -0.013   1.653   0.819  0.00  0.00    -0.055 SA
BRANCH   5   7
ATOM      7  N   UNL d   1      -2.057   0.401   1.951  0.00  0.00    -0.372 N 
ATOM      8  H   UNL d   1      -2.337   1.335   2.228  0.00  0.00     0.161 HD
BRANCH   7   9
ATOM      9  C   UNL d   1      -2.947  -0.690   2.309  0.00  0.00     0.159 C 
BRANCH   9  10
ATOM     10  C   UNL d   1      -4.394  -0.315   2.078  0.00  0.00    -0.041 A 
ATOM     11  C   UNL d   1      -4.769   0.567   1.050  0.00  0.00     0.009 A 
ATOM     12  C   UNL d   1      -6.110   0.880   0.829  0.00  0.00     0.001 A 
ATOM     13  C   UNL d   1      -7.098   0.303   1.623  0.00  0.00     0.000 A 
ATOM     14  C   UNL d   1      -6.743  -0.590   2.634  0.00  0.00     0.001 A 
ATOM     15  C   UNL d   1      -5.404  -0.898   2.858  0.00  0.00     0.009 A 
ENDBRANCH   9  10
ENDBRANCH   7   9
ENDBRANCH   5   7
ENDBRANCH   1   5
BRANCH   2  16
ATOM     16  C   UNL d   1       0.990  -2.457  -0.547  0.00  0.00     0.041 A 
ATOM     17  C   UNL d   1       2.066  -2.990   0.183  0.00  0.00    -0.035 A 
ATOM     18  C   UNL d   1       2.701  -4.152  -0.302  0.00  0.00     0.016 A 
ATOM     19  C   UNL d   1       2.695  -2.344   1.389  0.00  0.00     0.050 C 
ATOM     20  C   UNL d   1       2.293  -4.778  -1.487  0.00  0.00    -0.058 A 
ATOM     21  C   UNL d   1       1.222  -4.231  -2.196  0.00  0.00     0.009 A 
ATOM     22  C   UNL d   1       0.600  -3.062  -1.748  0.00  0.00     0.030 A 
BRANCH  20  23
ATOM     23  C   UNL d   1       3.013  -6.015  -1.972  0.00  0.00     0.038 C 
BRANCH  23  24
ATOM     24  C   UNL d   1       3.564  -5.917  -3.400  0.00  0.00     0.004 C 
BRANCH  24  25
ATOM     25  C   UNL d   1       4.589  -4.793  -3.578  0.00  0.00    -0.004 C 
ATOM     26  C   UNL d   1       5.123  -4.753  -5.001  0.00  0.00     0.005 C 
ENDBRANCH  24  25
ENDBRANCH  23  24
ENDBRANCH  20  23
ENDBRANCH   2  16
TORSDOF 8
