REMARK  6 active torsions:
REMARK  status: ('A' for Active; 'I' for Inactive)
REMARK    1  A    between atoms: N_2  and  C_4 
REMARK    2  A    between atoms: O_10  and  N_2 
REMARK    3  A    between atoms: N_7  and  C_5 
REMARK    4  A    between atoms: C_13  and  C_9 
REMARK    5  A    between atoms: C_14  and  C_13 
REMARK    6  A    between atoms: C_15  and  C_14 
ROOT
ATOM      1  C   UNL d   1       1.067  -0.062  -0.077  0.00  0.00    -0.035 A 
ATOM      2  C   UNL d   1       0.453   1.206   0.002  0.00  0.00     0.038 A 
ATOM      3  C   UNL d   1       0.268  -1.226  -0.083  0.00  0.00     0.016 A 
ATOM      4  C   UNL d   1      -0.952   1.252   0.046  0.00  0.00     0.030 A 
ATOM      5  C   UNL d   1      -1.128  -1.162  -0.017  0.00  0.00    -0.058 A 
ATOM      6  C   UNL d   1      -1.732   0.092   0.027  0.00  0.00     0.009 A 
ATOM      7  C   UNL d   1       2.558  -0.277  -0.091  0.00  0.00     0.050 C 
ENDROOT
BRANCH   2   8
ATOM      8  N   UNL d   1       1.219   2.377   0.131  0.00  0.00    -0.351 N 
ATOM      9  C   UNL d   1       0.815   3.598   0.578  0.00  0.00     0.204 C 
ATOM     10  H   UNL d   1       2.158   2.356  -0.239  0.00  0.00     0.166 HD
BRANCH   9  11
ATOM     11  N   UNL d   1       1.543   4.668   0.541  0.00  0.00    -0.265 N 
ATOM     12  HN  UNL d   1       2.490   4.730   0.169  1.00  0.00     0.194 HD
BRANCH  11  13
ATOM     13  O   UNL d   1       0.814   5.726   1.099  0.00  0.00    -0.289 OA
ATOM     14  H   UNL d   1       1.442   6.469   1.038  0.00  0.00     0.244 HD
ENDBRANCH  11  13
ENDBRANCH   9  11
ENDBRANCH   2   8
BRANCH   5  15
ATOM     15  C   UNL d   1      -1.963  -2.418   0.007  0.00  0.00     0.038 C 
BRANCH  15  16
ATOM     16  C   UNL d   1      -1.677  -3.341   1.199  0.00  0.00     0.004 C 
BRANCH  16  17
ATOM     17  C   UNL d   1      -2.012  -2.703   2.550  0.00  0.00    -0.004 C 
ATOM     18  C   UNL d   1      -1.733  -3.663   3.697  0.00  0.00     0.005 C 
ENDBRANCH  16  17
ENDBRANCH  15  16
ENDBRANCH   5  15
TORSDOF 6
