REMARK  5 active torsions:
REMARK  status: ('A' for Active; 'I' for Inactive)
REMARK    1  A    between atoms: C_11  and  N_6 
REMARK    2  A    between atoms: N_17  and  C_10 
REMARK    3  A    between atoms: C_12  and  C_11 
REMARK    4  A    between atoms: C_15  and  C_24 
REMARK    5  A    between atoms: N_19  and  N_17 
ROOT
ATOM      1  C   UNL d   1      -0.208  -0.804  -0.134  0.00  0.00     0.160 A 
ATOM      2  C   UNL d   1      -0.494   0.527  -0.112  0.00  0.00     0.165 A 
ATOM      3  N   UNL d   1      -1.315  -1.565  -0.155  0.00  0.00    -0.172 N 
ATOM      4  HN  UNL d   1      -1.363  -2.583  -0.198  1.00  0.00     0.186 HD
ATOM      5  N   UNL d   1       1.074  -1.289  -0.071  0.00  0.00    -0.287 N 
ATOM      6  N   UNL d   1      -1.873   0.594  -0.150  0.00  0.00    -0.168 N 
ATOM      7  N   UNL d   1       1.828   0.972  -0.029  0.00  0.00    -0.269 N 
ATOM      8  C   UNL d   1       2.142  -0.398  -0.018  0.00  0.00     0.332 A 
ATOM      9  C   UNL d   1       0.534   1.510  -0.010  0.00  0.00     0.282 A 
ATOM     10  C   UNL d   1      -2.325  -0.721  -0.109  0.00  0.00     0.701 A 
ATOM     11  O   UNL d   1       3.307  -0.802   0.046  0.00  0.00    -0.246 OA
ATOM     12  O   UNL d   1       0.312   2.712   0.105  0.00  0.00    -0.265 OA
ATOM     13  C   UNL d   1       1.344  -2.714  -0.027  0.00  0.00     0.163 C 
ATOM     14  C   UNL d   1       2.924   1.921   0.012  0.00  0.00     0.164 C 
ENDROOT
BRANCH  10  15
ATOM     15  N   UNL d   1      -3.629  -1.063   0.093  0.00  0.00    -0.132 N 
ATOM     16  H   UNL d   1      -4.309  -0.613  -0.525  0.00  0.00     0.205 HD
BRANCH  15  17
ATOM     17  N   UNL d   1      -4.022  -2.337   0.473  0.00  0.00    -0.297 N 
ATOM     18  C   UNL d   1      -3.332  -2.848   1.454  0.00  0.00     0.120 C 
ATOM     19  HN  UNL d   1      -4.789  -2.835   0.021  1.00  0.00     0.186 HD
BRANCH  18  20
ATOM     20  C   UNL d   1      -3.558  -4.208   1.993  0.00  0.00     0.003 A 
ATOM     21  C   UNL d   1      -2.824  -4.688   3.090  0.00  0.00     0.047 A 
ATOM     22  C   UNL d   1      -3.072  -5.969   3.595  0.00  0.00     0.048 A 
ATOM     23 CL   UNL d   1      -1.602  -3.760   3.890  0.00  0.00    -0.083 Cl
ATOM     24  C   UNL d   1      -4.045  -6.770   3.008  0.00  0.00     0.035 A 
ATOM     25  C   UNL d   1      -4.774  -6.307   1.913  0.00  0.00     0.025 A 
ATOM     26 CL   UNL d   1      -4.352  -8.340   3.640  0.00  0.00    -0.084 Cl
ATOM     27  C   UNL d   1      -4.530  -5.028   1.404  0.00  0.00     0.016 A 
ENDBRANCH  18  20
ENDBRANCH  15  17
ENDBRANCH  10  15
BRANCH   6  28
ATOM     28  C   UNL d   1      -2.682   1.803   0.001  0.00  0.00     0.188 C 
BRANCH  28  29
ATOM     29  C   UNL d   1      -3.007   2.457  -1.328  0.00  0.00    -0.018 A 
ATOM     30  C   UNL d   1      -4.174   2.177  -2.059  0.00  0.00     0.043 A 
ATOM     31  C   UNL d   1      -4.384   2.735  -3.326  0.00  0.00     0.048 A 
ATOM     32 CL   UNL d   1      -5.428   1.168  -1.434  0.00  0.00    -0.084 Cl
ATOM     33  C   UNL d   1      -3.439   3.596  -3.872  0.00  0.00     0.035 A 
ATOM     34  C   UNL d   1      -2.308   3.941  -3.145  0.00  0.00     0.024 A 
ATOM     35 CL   UNL d   1      -3.670   4.236  -5.450  0.00  0.00    -0.084 Cl
ATOM     36  C   UNL d   1      -2.101   3.383  -1.881  0.00  0.00     0.012 A 
ENDBRANCH  28  29
ENDBRANCH   6  28
TORSDOF 5
