REMARK  3 active torsions:
REMARK  status: ('A' for Active; 'I' for Inactive)
REMARK    1  A    between atoms: C_7  and  C_3 
REMARK    2  A    between atoms: C_15  and  C_4 
REMARK    3  A    between atoms: O_16  and  C_15 
ROOT
ATOM      1  N   UNL d   1       1.357  -0.510  -0.549  0.00  0.00    -0.351 N 
ATOM      2  HN  UNL d   1       2.175  -0.927  -0.994  1.00  0.00     0.166 HD
ATOM      3  C   UNL d   1       1.309   0.763  -0.002  0.00  0.00     0.049 A 
ATOM      4  C   UNL d   1       0.186  -1.103  -0.409  0.00  0.00     0.075 A 
ATOM      5  S   UNL d   1      -1.042  -0.156   0.329  0.00  0.00    -0.084 SA
ATOM      6  C   UNL d   1       0.078   1.129   0.508  0.00  0.00     0.082 A 
ENDROOT
BRANCH   3   7
ATOM      7  C   UNL d   1       2.482   1.629  -0.003  0.00  0.00    -0.007 A 
ATOM      8  C   UNL d   1       3.414   1.531  -1.046  0.00  0.00     0.039 A 
ATOM      9  C   UNL d   1       4.548   2.352  -1.069  0.00  0.00     0.056 A 
ATOM     10 CL   UNL d   1       5.639   2.180  -2.399  0.00  0.00    -0.083 Cl
ATOM     11  C   UNL d   1       4.765   3.274  -0.040  0.00  0.00     0.055 A 
ATOM     12  C   UNL d   1       3.847   3.369   1.008  0.00  0.00     0.026 A 
ATOM     13 CL   UNL d   1       6.141   4.318   0.000  0.00  0.00    -0.083 Cl
ATOM     14  C   UNL d   1       2.712   2.552   1.027  0.00  0.00     0.015 A 
ENDBRANCH   3   7
BRANCH   4  15
ATOM     15  C   UNL d   1      -0.105  -2.501  -0.862  0.00  0.00     0.229 C 
BRANCH  15  16
ATOM     16  O   UNL d   1       1.115  -3.244  -0.837  0.00  0.00    -0.394 OA
ATOM     17  H   UNL d   1       1.829  -2.589  -0.970  0.00  0.00     0.209 HD
ENDBRANCH  15  16
ENDBRANCH   4  15
TORSDOF 3
