REMARK  6 active torsions:
REMARK  status: ('A' for Active; 'I' for Inactive)
REMARK    1  A    between atoms: C_2  and  C_1 
REMARK    2  A    between atoms: C_3  and  C_1 
REMARK    3  A    between atoms: C_4  and  C_1 
REMARK    4  A    between atoms: C_8  and  C_2 
REMARK    5  A    between atoms: C_5  and  C_3 
REMARK    6  A    between atoms: C_11  and  C_5 
ROOT
ATOM      1  C   UNL d   1       1.106   0.055  -0.319  0.00  0.00     0.101 C 
ENDROOT
BRANCH   1   2
ATOM      2  C   UNL d   1       0.799   0.214  -1.815  0.00  0.00     0.169 C 
ATOM      3  O   UNL d   1       0.477  -0.753  -2.507  0.00  0.00    -0.292 OA
BRANCH   2   4
ATOM      4  C   UNL d   1       0.948   1.546  -2.473  0.00  0.00     0.026 A 
ATOM      5  C   UNL d   1       0.645   1.647  -3.828  0.00  0.00     0.102 A 
ATOM      6  N   UNL d   1       0.748   2.790  -4.554  0.00  0.00    -0.374 N 
ATOM      7  C   UNL d   1       1.173   3.888  -3.900  0.00  0.00     0.087 A 
ATOM      8  HN  UNL d   1       0.514   2.816  -5.547  1.00  0.00     0.164 HD
ATOM      9  C   UNL d   1       1.501   3.895  -2.553  0.00  0.00     0.018 A 
ATOM     10  C   UNL d   1       1.387   2.704  -1.831  0.00  0.00     0.018 A 
ENDBRANCH   2   4
ENDBRANCH   1   2
BRANCH   1  11
ATOM     11  C   UNL d   1       0.401  -1.193   0.260  0.00  0.00     0.101 C 
BRANCH  11  12
ATOM     12  C   UNL d   1      -1.112  -1.063   0.271  0.00  0.00     0.160 C 
ATOM     13  O   UNL d   1      -1.677  -0.018  -0.044  0.00  0.00    -0.292 OA
BRANCH  12  14
ATOM     14  C   UNL d   1      -1.927  -2.237   0.727  0.00  0.00     0.010 A 
ATOM     15  C   UNL d   1      -1.345  -3.369   1.316  0.00  0.00     0.017 A 
ATOM     16  C   UNL d   1      -2.148  -4.425   1.764  0.00  0.00     0.025 A 
ATOM     17  C   UNL d   1      -3.533  -4.358   1.622  0.00  0.00     0.034 A 
ATOM     18  C   UNL d   1      -4.123  -3.243   1.031  0.00  0.00     0.025 A 
ATOM     19 CL   UNL d   1      -4.514  -5.652   2.186  0.00  0.00    -0.084 Cl
ATOM     20  C   UNL d   1      -3.322  -2.185   0.586  0.00  0.00     0.017 A 
ENDBRANCH  12  14
ENDBRANCH  11  12
ENDBRANCH   1  11
BRANCH   1  21
ATOM     21  C   UNL d   1       2.609  -0.079  -0.075  0.00  0.00    -0.043 A 
ATOM     22  C   UNL d   1       3.370  -1.026  -0.785  0.00  0.00     0.047 A 
ATOM     23  C   UNL d   1       4.713  -1.142  -0.494  0.00  0.00     0.105 A 
ATOM     24  O   UNL d   1       5.578  -2.016  -1.075  0.00  0.00    -0.323 OA
ATOM     25  C   UNL d   1       5.317  -0.360   0.459  0.00  0.00     0.105 A 
ATOM     26  C   UNL d   1       6.795  -1.701  -0.369  0.00  0.00     0.352 A 
ATOM     27  O   UNL d   1       6.640  -0.640   0.597  0.00  0.00    -0.323 OA
ATOM     28  C   UNL d   1       4.610   0.581   1.175  0.00  0.00     0.040 A 
ATOM     29  C   UNL d   1       3.243   0.718   0.908  0.00  0.00     0.011 A 
ENDBRANCH   1  21
TORSDOF 6
