REMARK  5 active torsions:
REMARK  status: ('A' for Active; 'I' for Inactive)
REMARK    1  A    between atoms: C_2  and  S_1 
REMARK    2  A    between atoms: N_13  and  S_1 
REMARK    3  A    between atoms: C_3  and  C_7 
REMARK    4  A    between atoms: C_17  and  N_13 
REMARK    5  A    between atoms: C_18  and  N_13 
ROOT
ATOM      1  C   UNL d   1       0.594  -0.999   1.462  0.00  0.00     0.121 A 
ATOM      2  S   UNL d   1       1.035  -0.478   3.028  0.00  0.00    -0.074 SA
ATOM      3  C   UNL d   1       0.394  -1.869   3.770  0.00  0.00     0.033 A 
ATOM      4  C   UNL d   1      -0.051  -2.224   1.513  0.00  0.00     0.034 A 
ATOM      5  C   UNL d   1      -0.156  -2.731   2.844  0.00  0.00     0.023 A 
ENDROOT
BRANCH   1   6
ATOM      6  S   UNL d   1       1.131  -0.008   0.082  0.00  0.00     0.267 S 
ATOM      7  O   UNL d   1       0.656  -0.741  -1.073  0.00  0.00    -0.200 OA
ATOM      8  O   UNL d   1       2.555   0.187   0.276  0.00  0.00    -0.200 OA
BRANCH   6   9
ATOM      9  N   UNL d   1       0.379   1.541   0.030  0.00  0.00    -0.307 N 
BRANCH   9  10
ATOM     10  C   UNL d   1       0.397   2.383   1.255  0.00  0.00     0.131 C 
ATOM     11  C   UNL d   1       1.776   2.828   1.708  0.00  0.00     0.027 C 
ENDBRANCH   9  10
BRANCH   9  12
ATOM     12  C   UNL d   1       0.719   2.252  -1.247  0.00  0.00     0.131 C 
ATOM     13  C   UNL d   1       0.035   3.599  -1.416  0.00  0.00     0.027 C 
ENDBRANCH   9  12
ENDBRANCH   6   9
ENDBRANCH   1   6
BRANCH   3  14
ATOM     14  C   UNL d   1       0.459  -2.157   5.240  0.00  0.00     0.056 A 
ATOM     15  N   UNL d   1       0.076  -3.389   5.743  0.00  0.00    -0.353 N 
ATOM     16  C   UNL d   1       0.301  -3.432   7.039  0.00  0.00     0.047 A 
ATOM     17  HN  UNL d   1      -0.322  -4.149   5.191  1.00  0.00     0.166 HD
ATOM     18  C   UNL d   1       0.086  -4.633   7.891  0.00  0.00     0.076 C 
ATOM     19  S   UNL d   1       0.896  -1.980   7.739  0.00  0.00    -0.087 SA
ATOM     20  C   UNL d   1       0.917  -1.260   6.184  0.00  0.00     0.082 A 
ENDBRANCH   3  14
TORSDOF 5
