REMARK  3 active torsions:
REMARK  status: ('A' for Active; 'I' for Inactive)
REMARK    1  A    between atoms: C_7  and  C_2 
REMARK    2  A    between atoms: O_9  and  C_7 
REMARK    3  A    between atoms: C_11  and  O_9 
ROOT
ATOM      1  N   UNL d   1      -0.148  -0.598   0.239  0.00  0.00    -0.293 N 
ATOM      2  C   UNL d   1       2.246  -0.351   0.243  0.00  0.00     0.123 C 
ATOM      3  C   UNL d   1       1.062  -1.200   0.503  0.00  0.00     0.267 C 
ATOM      4  C   UNL d   1      -0.228   0.729  -0.069  0.00  0.00     0.149 C 
ATOM      5  N   UNL d   1       0.779   1.522  -0.183  0.00  0.00    -0.345 N 
ATOM      6  HN  UNL d   1       0.666   2.520  -0.357  1.00  0.00     0.167 HD
ATOM      7  C   UNL d   1       2.013   0.939  -0.056  0.00  0.00     0.113 C 
ATOM      8  S   UNL d   1      -1.868   1.234  -0.311  0.00  0.00    -0.092 SA
ATOM      9  O   UNL d   1       1.148  -2.353   0.912  0.00  0.00    -0.267 OA
ATOM     10  C   UNL d   1      -1.385  -1.340   0.194  0.00  0.00     0.145 C 
ATOM     11  C   UNL d   1      -2.560  -0.380   0.131  0.00  0.00     0.103 C 
ENDROOT
BRANCH   2  12
ATOM     12  C   UNL d   1       3.642  -0.827   0.177  0.00  0.00     0.305 C 
ATOM     13  O   UNL d   1       4.588  -0.093  -0.088  0.00  0.00    -0.259 OA
BRANCH  12  14
ATOM     14  O   UNL d   1       3.709  -2.203   0.349  0.00  0.00    -0.275 OA
BRANCH  14  15
ATOM     15  C   UNL d   1       4.884  -2.946   0.099  0.00  0.00     0.082 A 
ATOM     16  C   UNL d   1       6.172  -2.454   0.296  0.00  0.00     0.061 A 
ATOM     17  C   UNL d   1       7.263  -3.264  -0.017  0.00  0.00     0.038 A 
ATOM     18 CL   UNL d   1       8.861  -2.655   0.184  0.00  0.00    -0.084 Cl
ATOM     19  C   UNL d   1       7.078  -4.560  -0.495  0.00  0.00     0.048 A 
ATOM     20  C   UNL d   1       5.783  -5.051  -0.649  0.00  0.00     0.038 A 
ATOM     21  C   UNL d   1       4.681  -4.251  -0.350  0.00  0.00     0.061 A 
ATOM     22 CL   UNL d   1       5.544  -6.656  -1.222  0.00  0.00    -0.084 Cl
ENDBRANCH  14  15
ENDBRANCH  12  14
ENDBRANCH   2  12
TORSDOF 3
