REMARK  5 active torsions:
REMARK  status: ('A' for Active; 'I' for Inactive)
REMARK    1  A    between atoms: N_6  and  C_1 
REMARK    2  A    between atoms: C_2  and  C_3 
REMARK       I    between atoms: C_10  and  N_7 
REMARK    3  A    between atoms: C_8  and  S_11 
REMARK    4  A    between atoms: C_16  and  C_10 
REMARK    5  A    between atoms: S_11  and  C_16 
ROOT
ATOM      1  N   UNL d   1       0.691   2.051  -0.196  0.00  0.00    -0.363 N 
ATOM      2  N   UNL d   1       2.330   4.394  -0.161  0.00  0.00    -0.348 N 
ATOM      3  C   UNL d   1       3.270   5.428  -0.116  0.00  0.00     0.229 C 
ATOM      4  C   UNL d   1       1.366   2.475  -1.434  0.00  0.00     0.144 C 
ATOM      5  C   UNL d   1       0.212   3.208   0.576  0.00  0.00     0.144 C 
ATOM      6  C   UNL d   1       2.637   3.248  -1.032  0.00  0.00     0.145 C 
ATOM      7  C   UNL d   1       1.417   4.090   0.959  0.00  0.00     0.145 C 
ATOM      8  O   UNL d   1       4.270   5.417  -0.848  0.00  0.00    -0.273 OA
ENDROOT
BRANCH   3   9
ATOM      9  C   UNL d   1       2.992   6.652   0.750  0.00  0.00     0.182 C 
BRANCH   9  10
ATOM     10  S   UNL d   1       3.212   6.298   2.521  0.00  0.00    -0.120 SA
BRANCH  10  11
ATOM     11  C   UNL d   1       2.889   7.923   3.228  0.00  0.00     0.013 A 
ATOM     12  C   UNL d   1       1.582   8.451   3.345  0.00  0.00    -0.044 A 
ATOM     13  C   UNL d   1       1.384   9.636   4.084  0.00  0.00     0.014 A 
ATOM     14  C   UNL d   1       0.333   7.809   2.804  0.00  0.00     0.049 C 
ATOM     15  C   UNL d   1       2.444  10.298   4.702  0.00  0.00    -0.061 A 
ATOM     16  C   UNL d   1       3.737   9.803   4.534  0.00  0.00     0.014 A 
ATOM     17  C   UNL d   1       2.181  11.511   5.545  0.00  0.00     0.048 C 
ATOM     18  C   UNL d   1       3.977   8.630   3.796  0.00  0.00    -0.044 A 
ATOM     19  C   UNL d   1       5.403   8.147   3.693  0.00  0.00     0.049 C 
ENDBRANCH  10  11
ENDBRANCH   9  10
ENDBRANCH   3   9
BRANCH   1  20
ATOM     20  C   UNL d   1      -0.141   0.938  -0.232  0.00  0.00     0.125 A 
ATOM     21  N   UNL d   1      -1.424   1.099   0.183  0.00  0.00    -0.350 N 
ATOM     22  C   UNL d   1      -2.227   0.012   0.288  0.00  0.00     0.106 A 
ATOM     23  HN  UNL d   1      -1.780   2.027   0.413  1.00  0.00     0.166 HD
ATOM     24  C   UNL d   1      -1.831  -1.276  -0.018  0.00  0.00     0.065 A 
ATOM     25  C   UNL d   1      -0.521  -1.448  -0.462  0.00  0.00     0.045 A 
ATOM     26  C   UNL d   1       0.335  -0.349  -0.558  0.00  0.00     0.078 A 
ATOM     27 CL   UNL d   1       1.988  -0.696  -0.942  0.00  0.00    -0.080 Cl
BRANCH  24  28
ATOM     28  C   UNL d   1      -2.770  -2.421   0.182  0.00  0.00     0.418 C 
ATOM     29  F   UNL d   1      -2.284  -3.607  -0.278  0.00  0.00    -0.166 F 
ATOM     30  F   UNL d   1      -3.062  -2.625   1.498  0.00  0.00    -0.166 F 
ATOM     31  F   UNL d   1      -3.963  -2.238  -0.441  0.00  0.00    -0.166 F 
ENDBRANCH  24  28
ENDBRANCH   1  20
TORSDOF 5
