REMARK  4 active torsions:
REMARK  status: ('A' for Active; 'I' for Inactive)
REMARK    1  A    between atoms: C_7  and  N_1 
REMARK    2  A    between atoms: C_2  and  C_10 
REMARK    3  A    between atoms: N_3  and  C_9 
REMARK    4  A    between atoms: C_16  and  C_4 
ROOT
ATOM      1  C   UNL d   1      -2.957  -2.519   5.877  0.00  0.00     0.055 C 
ATOM      2  C   UNL d   1      -3.114  -1.880   4.695  0.00  0.00     0.034 C 
ATOM      3  C   UNL d   1      -3.247  -3.921   5.988  0.00  0.00     0.100 C 
ATOM      4  N   UNL d   1      -3.447  -5.061   6.099  0.00  0.00    -0.191 NA
ENDROOT
BRANCH   1   5
ATOM      5  C   UNL d   1      -2.452  -1.786   7.076  0.00  0.00    -0.015 A 
ATOM      6  C   UNL d   1      -2.734  -0.419   7.286  0.00  0.00     0.015 A 
ATOM      7  C   UNL d   1      -2.268   0.258   8.422  0.00  0.00     0.037 A 
ATOM      8  C   UNL d   1      -1.522  -0.432   9.380  0.00  0.00     0.102 A 
ATOM      9  C   UNL d   1      -1.240  -1.790   9.208  0.00  0.00     0.037 A 
ATOM     10  C   UNL d   1      -1.703  -2.455   8.065  0.00  0.00     0.015 A 
BRANCH   8  11
ATOM     11  N   UNL d   1      -1.038   0.271  10.576  0.00  0.00    -0.116 N 
ATOM     12  O   UNL d   1      -0.403  -0.386  11.413  0.00  0.00    -0.532 OA
ATOM     13  O   UNL d   1      -1.290   1.480  10.674  0.00  0.00    -0.532 OA
ENDBRANCH   8  11
ENDBRANCH   1   5
BRANCH   2  14
ATOM     14  C   UNL d   1      -3.639  -2.503   3.475  0.00  0.00    -0.035 A 
ATOM     15  C   UNL d   1      -5.008  -2.459   3.208  0.00  0.00     0.013 A 
ATOM     16  C   UNL d   1      -5.519  -3.079   2.063  0.00  0.00     0.030 A 
ATOM     17  C   UNL d   1      -4.694  -3.769   1.160  0.00  0.00     0.030 A 
ATOM     18  C   UNL d   1      -3.323  -3.796   1.445  0.00  0.00     0.030 A 
ATOM     19  C   UNL d   1      -2.796  -3.166   2.583  0.00  0.00     0.013 A 
BRANCH  17  20
ATOM     20  N   UNL d   1      -5.254  -4.413   0.073  0.00  0.00    -0.377 N 
ATOM     21  C   UNL d   1      -4.682  -5.636  -0.509  0.00  0.00     0.149 C 
ATOM     22  C   UNL d   1      -4.058  -5.354  -1.883  0.00  0.00     0.187 C 
ATOM     23  O   UNL d   1      -4.988  -4.703  -2.765  0.00  0.00    -0.388 OA
ATOM     24  C   UNL d   1      -5.419  -3.455  -2.196  0.00  0.00     0.187 C 
ATOM     25  C   UNL d   1      -6.125  -3.659  -0.845  0.00  0.00     0.149 C 
ENDBRANCH  17  20
ENDBRANCH   2  14
TORSDOF 4
