REMARK  2 active torsions:
REMARK  status: ('A' for Active; 'I' for Inactive)
REMARK       I    between atoms: N_2  and  C_1 
REMARK    1  A    between atoms: C_4  and  C_1 
REMARK    2  A    between atoms: C_3  and  N_2 
ROOT
ATOM      1  C   UNL d   1       1.186  -2.091  -1.094  0.00  0.00     0.040 A 
ATOM      2  C   UNL d   1       0.932  -2.684  -2.341  0.00  0.00    -0.035 A 
ATOM      3  C   UNL d   1       1.583  -3.892  -2.661  0.00  0.00     0.015 A 
ATOM      4  C   UNL d   1       2.078  -2.703  -0.204  0.00  0.00     0.030 A 
ATOM      5  C   UNL d   1       2.471  -4.506  -1.769  0.00  0.00    -0.061 A 
ATOM      6  C   UNL d   1       2.714  -3.900  -0.535  0.00  0.00     0.009 A 
ATOM      7  C   UNL d   1       0.059  -2.064  -3.396  0.00  0.00     0.050 C 
ATOM      8  C   UNL d   1       3.171  -5.773  -2.158  0.00  0.00     0.048 C 
ENDROOT
BRANCH   1   9
ATOM      9  N   UNL d   1       0.517  -0.907  -0.708  0.00  0.00    -0.326 N 
ATOM     10  C   UNL d   1       1.165   0.154  -0.097  0.00  0.00     0.229 C 
ATOM     11  O   UNL d   1       2.383   0.192   0.089  0.00  0.00    -0.272 OA
ATOM     12  H   UNL d   1      -0.361  -0.713  -1.163  0.00  0.00     0.169 HD
BRANCH  10  13
ATOM     13  C   UNL d   1       0.247   1.294   0.393  0.00  0.00     0.030 C 
ATOM     14  C   UNL d   1      -0.565   0.777   1.589  0.00  0.00     0.025 C 
ATOM     15  C   UNL d   1       1.131   2.472   0.856  0.00  0.00     0.025 C 
ATOM     16  C   UNL d   1      -0.702   1.806  -0.699  0.00  0.00     0.025 C 
ENDBRANCH  10  13
ENDBRANCH   1   9
TORSDOF 2
