REMARK  5 active torsions:
REMARK  status: ('A' for Active; 'I' for Inactive)
REMARK    1  A    between atoms: C_8  and  C_1 
REMARK    2  A    between atoms: O_14  and  C_3 
REMARK    3  A    between atoms: O_17  and  C_8 
REMARK    4  A    between atoms: C_18  and  O_14 
REMARK    5  A    between atoms: C_19  and  O_17 
ROOT
ATOM      1  C   UNL d   1       2.524   0.796  -0.046  0.00  0.00     0.089 A 
ATOM      2  C   UNL d   1       0.099   0.827   0.007  0.00  0.00     0.028 A 
ATOM      3  C   UNL d   1       1.336   1.529  -0.018  0.00  0.00     0.099 A 
ATOM      4  C   UNL d   1       0.131  -0.588  -0.026  0.00  0.00     0.046 A 
ATOM      5  N   UNL d   1       1.272  -1.279  -0.089  0.00  0.00    -0.364 N 
ATOM      6  HN  UNL d   1       1.268  -2.299  -0.129  1.00  0.00     0.165 HD
ATOM      7  C   UNL d   1      -1.159   1.469   0.059  0.00  0.00     0.060 A 
ATOM      8  C   UNL d   1       2.433  -0.587  -0.100  0.00  0.00     0.108 A 
ATOM      9  C   UNL d   1      -1.057  -1.305   0.011  0.00  0.00     0.057 A 
ATOM     10  C   UNL d   1      -2.335   0.727   0.087  0.00  0.00     0.139 A 
ATOM     11  C   UNL d   1      -2.289  -0.659   0.067  0.00  0.00     0.074 A 
ATOM     12  F   UNL d   1      -3.508   1.376   0.135  0.00  0.00    -0.204 F 
ATOM     13 CL   UNL d   1      -3.735  -1.591   0.112  0.00  0.00    -0.081 Cl
ENDROOT
BRANCH   1  14
ATOM     14  C   UNL d   1       3.895   1.313   0.037  0.00  0.00     0.297 C 
ATOM     15  O   UNL d   1       4.803   0.887  -0.655  0.00  0.00    -0.259 OA
BRANCH  14  16
ATOM     16  O   UNL d   1       3.993   2.176   1.073  0.00  0.00    -0.318 OA
BRANCH  16  17
ATOM     17  C   UNL d   1       5.325   2.551   1.454  0.00  0.00     0.174 C 
ATOM     18  C   UNL d   1       5.649   1.841   2.752  0.00  0.00     0.034 C 
ENDBRANCH  16  17
ENDBRANCH  14  16
ENDBRANCH   1  14
BRANCH   3  19
ATOM     19  O   UNL d   1       1.229   2.897   0.051  0.00  0.00    -0.349 OA
BRANCH  19  20
ATOM     20  C   UNL d   1       2.120   3.677  -0.748  0.00  0.00     0.171 C 
ATOM     21  C   UNL d   1       1.356   4.877  -1.280  0.00  0.00     0.034 C 
ENDBRANCH  19  20
ENDBRANCH   3  19
TORSDOF 5
