REMARK  4 active torsions:
REMARK  status: ('A' for Active; 'I' for Inactive)
REMARK    1  A    between atoms: C_2  and  N_1 
REMARK       I    between atoms: C_3  and  N_1 
REMARK    2  A    between atoms: C_12  and  C_8 
REMARK    3  A    between atoms: C_13  and  C_12 
REMARK    4  A    between atoms: C_14  and  C_13 
ROOT
ATOM      1  C   UNL d   1       0.376   1.137   0.408  0.00  0.00     0.040 A 
ATOM      2  C   UNL d   1       0.677   2.474   0.115  0.00  0.00    -0.035 A 
ATOM      3  C   UNL d   1      -0.135   3.486   0.654  0.00  0.00     0.016 A 
ATOM      4  C   UNL d   1      -0.728   0.828   1.211  0.00  0.00     0.030 A 
ATOM      5  C   UNL d   1      -1.235   3.186   1.469  0.00  0.00    -0.058 A 
ATOM      6  C   UNL d   1      -1.531   1.845   1.734  0.00  0.00     0.009 A 
ATOM      7  C   UNL d   1       1.777   2.887  -0.824  0.00  0.00     0.050 C 
ENDROOT
BRANCH   1   8
ATOM      8  N   UNL d   1       1.227   0.118  -0.039  0.00  0.00    -0.327 N 
ATOM      9  C   UNL d   1       0.900  -1.053  -0.664  0.00  0.00     0.218 C 
ATOM     10  O   UNL d   1       1.768  -1.901  -0.857  0.00  0.00    -0.274 OA
ATOM     11  C   UNL d   1      -0.496  -1.237  -1.209  0.00  0.00     0.117 C 
ATOM     12  H   UNL d   1       2.225   0.281   0.008  0.00  0.00     0.169 HD
ENDBRANCH   1   8
BRANCH   5  13
ATOM     13  C   UNL d   1      -2.083   4.304   2.025  0.00  0.00     0.038 C 
BRANCH  13  14
ATOM     14  C   UNL d   1      -2.156   4.353   3.555  0.00  0.00     0.004 C 
BRANCH  14  15
ATOM     15  C   UNL d   1      -0.794   4.557   4.223  0.00  0.00    -0.004 C 
ATOM     16  C   UNL d   1      -0.933   4.623   5.736  0.00  0.00     0.005 C 
ENDBRANCH  14  15
ENDBRANCH  13  14
ENDBRANCH   5  13
TORSDOF 4
