REMARK  5 active torsions:
REMARK  status: ('A' for Active; 'I' for Inactive)
REMARK    1  A    between atoms: N_5  and  C_1 
REMARK    2  A    between atoms: C_11  and  C_4 
REMARK       I    between atoms: C_8  and  N_5 
REMARK    3  A    between atoms: C_10  and  C_8 
REMARK    4  A    between atoms: N_9  and  C_13 
REMARK    5  A    between atoms: C_13  and  C_10 
ROOT
ATOM      1  C   UNL d   1      -1.286  -2.357  -0.263  0.00  0.00     0.151 A 
ATOM      2  N   UNL d   1      -2.030  -3.415  -0.078  0.00  0.00    -0.335 N 
ATOM      3  HN  UNL d   1      -1.674  -4.339   0.169  1.00  0.00     0.168 HD
ATOM      4  C   UNL d   1      -3.371  -3.108  -0.265  0.00  0.00     0.051 A 
ATOM      5  S   UNL d   1      -2.118  -0.914  -0.634  0.00  0.00    -0.063 SA
ATOM      6  C   UNL d   1      -3.603  -1.785  -0.598  0.00  0.00     0.083 A 
ENDROOT
BRANCH   1   7
ATOM      7  N   UNL d   1       0.078  -2.234  -0.218  0.00  0.00    -0.307 N 
ATOM      8  C   UNL d   1       0.899  -3.328  -0.064  0.00  0.00     0.225 C 
ATOM      9  O   UNL d   1       0.542  -4.492   0.104  0.00  0.00    -0.273 OA
ATOM     10  H   UNL d   1       0.459  -1.315  -0.390  0.00  0.00     0.171 HD
BRANCH   8  11
ATOM     11  C   UNL d   1       2.383  -3.001  -0.114  0.00  0.00     0.133 C 
BRANCH  11  12
ATOM     12  C   UNL d   1       2.845  -2.401   1.216  0.00  0.00     0.281 C 
BRANCH  12  13
ATOM     13  N   UNL d   1       4.300  -2.161   1.309  0.00  0.00     0.088 N 
ATOM     14  C   UNL d   1       5.109  -3.394   1.269  0.00  0.00     0.272 C 
ATOM     15  C   UNL d   1       5.115  -3.908   2.694  0.00  0.00     0.032 C 
ATOM     16  C   UNL d   1       5.245  -2.632   3.499  0.00  0.00     0.032 C 
ATOM     17  C   UNL d   1       4.630  -1.546   2.617  0.00  0.00     0.272 C 
ENDBRANCH  12  13
ENDBRANCH  11  12
ENDBRANCH   8  11
ENDBRANCH   1   7
BRANCH   4  18
ATOM     18  C   UNL d   1      -4.401  -4.140  -0.105  0.00  0.00    -0.009 A 
ATOM     19  C   UNL d   1      -4.008  -5.442   0.251  0.00  0.00     0.015 A 
ATOM     20  C   UNL d   1      -4.951  -6.459   0.433  0.00  0.00     0.024 A 
ATOM     21  C   UNL d   1      -6.303  -6.186   0.258  0.00  0.00     0.034 A 
ATOM     22  C   UNL d   1      -6.716  -4.906  -0.103  0.00  0.00     0.024 A 
ATOM     23 CL   UNL d   1      -7.468  -7.430   0.494  0.00  0.00    -0.084 Cl
ATOM     24  C   UNL d   1      -5.770  -3.888  -0.285  0.00  0.00     0.015 A 
ENDBRANCH   4  18
TORSDOF 5
