REMARK  8 active torsions:
REMARK  status: ('A' for Active; 'I' for Inactive)
REMARK    1  A    between atoms: C_9  and  N_1 
REMARK    2  A    between atoms: C_2  and  C_5 
REMARK       I    between atoms: N_3  and  C_2 
REMARK    3  A    between atoms: C_6  and  N_3 
REMARK    4  A    between atoms: C_12  and  N_3 
REMARK    5  A    between atoms: O_20  and  C_4 
REMARK    6  A    between atoms: O_21  and  C_7 
REMARK    7  A    between atoms: O_22  and  C_8 
REMARK    8  A    between atoms: C_10  and  C_12 
ROOT
ATOM      1  C   UNL d   1       0.589   3.924  -2.639  0.00  0.00     0.258 C 
ATOM      2  N   UNL d   1       0.045   5.137  -3.137  0.00  0.00    -0.309 N 
ATOM      3  O   UNL d   1       1.683   3.471  -2.985  0.00  0.00    -0.267 OA
ENDROOT
BRANCH   2   4
ATOM      4  C   UNL d   1       0.693   5.847  -4.241  0.00  0.00     0.040 A 
ATOM      5  C   UNL d   1       1.509   5.191  -5.170  0.00  0.00     0.072 A 
ATOM      6  C   UNL d   1       2.070   5.878  -6.247  0.00  0.00     0.118 A 
ATOM      7  F   UNL d   1       2.824   5.211  -7.131  0.00  0.00    -0.206 F 
ATOM      8  C   UNL d   1       1.845   7.232  -6.437  0.00  0.00     0.042 A 
ATOM      9  C   UNL d   1       1.046   7.911  -5.526  0.00  0.00     0.005 A 
ATOM     10  C   UNL d   1       0.483   7.229  -4.441  0.00  0.00     0.030 A 
ENDBRANCH   2   4
BRANCH   2  11
ATOM     11  C   UNL d   1      -1.219   5.716  -2.652  0.00  0.00     0.171 C 
BRANCH  11  12
ATOM     12  C   UNL d   1      -1.101   6.583  -1.409  0.00  0.00    -0.034 A 
ATOM     13  C   UNL d   1       0.122   6.873  -0.797  0.00  0.00     0.048 A 
ATOM     14  C   UNL d   1       0.186   7.392   0.509  0.00  0.00     0.104 A 
ATOM     15  C   UNL d   1      -1.006   7.710   1.206  0.00  0.00     0.135 A 
ATOM     16  C   UNL d   1      -2.243   7.497   0.550  0.00  0.00     0.104 A 
ATOM     17  C   UNL d   1      -2.267   6.954  -0.742  0.00  0.00     0.048 A 
BRANCH  14  18
ATOM     18  O   UNL d   1       1.393   7.434   1.167  0.00  0.00    -0.353 OA
ATOM     19  C   UNL d   1       2.542   7.693   0.360  0.00  0.00     0.210 C 
ENDBRANCH  14  18
BRANCH  15  20
ATOM     20  O   UNL d   1      -1.083   8.206   2.478  0.00  0.00    -0.351 OA
ATOM     21  C   UNL d   1       0.080   8.547   3.217  0.00  0.00     0.210 C 
ENDBRANCH  15  20
BRANCH  16  22
ATOM     22  O   UNL d   1      -3.521   7.673   1.011  0.00  0.00    -0.353 OA
ATOM     23  C   UNL d   1      -3.782   8.211   2.295  0.00  0.00     0.210 C 
ENDBRANCH  16  22
ENDBRANCH  11  12
ENDBRANCH   2  11
BRANCH   1  24
ATOM     24  C   UNL d   1      -0.090   3.065  -1.608  0.00  0.00     0.035 A 
ATOM     25  C   UNL d   1      -0.034   1.672  -1.796  0.00  0.00     0.053 A 
ATOM     26  C   UNL d   1      -0.478   0.802  -0.785  0.00  0.00     0.103 A 
ATOM     27  C   UNL d   1      -0.999   1.300   0.415  0.00  0.00     0.036 A 
ATOM     28  C   UNL d   1      -1.047   2.673   0.608  0.00  0.00     0.003 A 
ATOM     29  C   UNL d   1      -0.570   3.537  -0.383  0.00  0.00     0.017 A 
BRANCH  26  30
ATOM     30  N   UNL d   1      -0.355  -0.651  -0.957  0.00  0.00    -0.116 N 
ATOM     31  O   UNL d   1       0.100  -1.067  -2.037  0.00  0.00    -0.532 OA
ATOM     32  O   UNL d   1      -0.718  -1.378  -0.020  0.00  0.00    -0.532 OA
ENDBRANCH  26  30
ENDBRANCH   1  24
TORSDOF 8
