REMARK  4 active torsions:
REMARK  status: ('A' for Active; 'I' for Inactive)
REMARK    1  A    between atoms: C_6  and  C_1 
REMARK    2  A    between atoms: N_11  and  C_3 
REMARK       I    between atoms: N_9  and  C_10 
REMARK       I    between atoms: C_12  and  N_9 
REMARK       I    between atoms: C_10  and  N_11 
REMARK    3  A    between atoms: C_16  and  C_12 
REMARK    4  A    between atoms: N_19  and  C_13 
ROOT
ATOM      1  N   UNL d   1       2.654  -2.717   0.220  0.00  0.00    -0.275 N 
ATOM      2  C   UNL d   1       3.705  -3.609   0.165  0.00  0.00     0.329 C 
ATOM      3  N   UNL d   1       4.931  -3.083  -0.113  0.00  0.00    -0.287 N 
ATOM      4  C   UNL d   1       2.585  -1.404  -0.211  0.00  0.00     0.259 C 
ATOM      5  O   UNL d   1       3.432  -4.786   0.371  0.00  0.00    -0.247 OA
ATOM      6  O   UNL d   1       3.541  -0.770  -0.639  0.00  0.00    -0.267 OA
ATOM      7  H   UNL d   1       1.792  -3.204   0.422  0.00  0.00     0.173 HD
ATOM      8  H   UNL d   1       5.018  -2.074  -0.175  0.00  0.00     0.172 HD
ENDROOT
BRANCH   4   9
ATOM      9  C   UNL d   1       1.230  -0.785  -0.129  0.00  0.00     0.038 A 
ATOM     10  C   UNL d   1       0.360  -1.083   0.918  0.00  0.00     0.062 A 
ATOM     11  C   UNL d   1      -0.904  -0.484   0.973  0.00  0.00     0.146 A 
ATOM     12  F   UNL d   1      -1.647  -0.775   2.053  0.00  0.00    -0.204 F 
ATOM     13  C   UNL d   1      -1.377   0.420  -0.002  0.00  0.00     0.107 A 
ATOM     14  C   UNL d   1      -0.452   0.700  -1.035  0.00  0.00     0.146 A 
ATOM     15  C   UNL d   1       0.825   0.123  -1.101  0.00  0.00     0.062 A 
ATOM     16  F   UNL d   1      -0.780   1.532  -2.037  0.00  0.00    -0.204 F 
BRANCH  13  17
ATOM     17  N   UNL d   1      -2.631   1.027   0.097  0.00  0.00    -0.385 N 
ATOM     18  C   UNL d   1      -2.974   2.181  -0.731  0.00  0.00     0.149 C 
ATOM     19  C   UNL d   1      -3.780   0.295   0.631  0.00  0.00     0.149 C 
ENDBRANCH  13  17
ENDBRANCH   4   9
BRANCH   3  20
ATOM     20  C   UNL d   1       6.100  -3.788  -0.275  0.00  0.00     0.169 A 
ATOM     21  S   UNL d   1       6.147  -5.490  -0.395  0.00  0.00    -0.029 SA
ATOM     22  C   UNL d   1       7.840  -5.373  -0.669  0.00  0.00     0.177 A 
ATOM     23  N   UNL d   1       8.292  -4.132  -0.610  0.00  0.00    -0.288 N 
ATOM     24  N   UNL d   1       7.277  -3.215  -0.402  0.00  0.00    -0.279 N 
ATOM     25  HN  UNL d   1       9.275  -3.879  -0.707  1.00  0.00     0.187 HD
ATOM     26  HN  UNL d   1       7.425  -2.207  -0.354  1.00  0.00     0.189 HD
BRANCH  22  27
ATOM     27  C   UNL d   1       8.654  -6.594  -0.940  0.00  0.00     0.440 C 
ATOM     28  F   UNL d   1       7.924  -7.613  -1.475  0.00  0.00    -0.164 F 
ATOM     29  F   UNL d   1       9.666  -6.360  -1.819  0.00  0.00    -0.164 F 
ATOM     30  F   UNL d   1       9.228  -7.090   0.189  0.00  0.00    -0.164 F 
ENDBRANCH  22  27
ENDBRANCH   3  20
TORSDOF 4
