REMARK  4 active torsions:
REMARK  status: ('A' for Active; 'I' for Inactive)
REMARK    1  A    between atoms: N_4  and  N_1 
REMARK    2  A    between atoms: C_8  and  C_9 
REMARK    3  A    between atoms: O_18  and  C_10 
REMARK    4  A    between atoms: O_20  and  C_16 
ROOT
ATOM      1  N   UNL d   1       0.450  -1.716   0.480  0.00  0.00    -0.290 N 
ATOM      2  N   UNL d   1       0.255   1.257   0.444  0.00  0.00    -0.325 N 
ATOM      3  C   UNL d   1      -0.749  -0.997   0.240  0.00  0.00     0.077 A 
ATOM      4  C   UNL d   1      -0.855   0.411   0.279  0.00  0.00     0.063 A 
ATOM      5  C   UNL d   1       1.523   1.008  -0.012  0.00  0.00     0.223 C 
ATOM      6  C   UNL d   1       1.666  -0.081  -1.042  0.00  0.00     0.125 C 
ATOM      7  C   UNL d   1       1.540  -1.475  -0.479  0.00  0.00     0.158 C 
ATOM      8  O   UNL d   1       2.457   1.746   0.280  0.00  0.00    -0.273 OA
ATOM      9  C   UNL d   1      -1.927  -1.748   0.084  0.00  0.00     0.033 A 
ATOM     10  C   UNL d   1      -2.111   1.028   0.175  0.00  0.00     0.032 A 
ATOM     11  C   UNL d   1      -3.169  -1.128  -0.064  0.00  0.00     0.002 A 
ATOM     12  C   UNL d   1      -3.260   0.260  -0.022  0.00  0.00     0.002 A 
ATOM     13  H   UNL d   1       0.128   2.156   0.886  0.00  0.00     0.169 HD
ENDROOT
BRANCH   1  14
ATOM     14  N   UNL d   1       0.780  -1.772   1.817  0.00  0.00    -0.308 N 
ATOM     15  C   UNL d   1       1.460  -2.820   2.180  0.00  0.00     0.121 C 
ATOM     16  HN  UNL d   1       0.511  -1.041   2.476  1.00  0.00     0.186 HD
BRANCH  15  17
ATOM     17  C   UNL d   1       1.778  -3.095   3.600  0.00  0.00     0.014 A 
ATOM     18  C   UNL d   1       2.888  -3.811   4.072  0.00  0.00     0.082 A 
ATOM     19  C   UNL d   1       2.992  -4.064   5.459  0.00  0.00     0.074 A 
ATOM     20  C   UNL d   1       2.017  -3.645   6.364  0.00  0.00     0.070 A 
ATOM     21  C   UNL d   1       0.911  -2.955   5.881  0.00  0.00     0.038 A 
ATOM     22  C   UNL d   1       0.797  -2.673   4.518  0.00  0.00     0.018 A 
BRANCH  18  23
ATOM     23  O   UNL d   1       3.956  -4.356   3.417  0.00  0.00    -0.355 OA
ATOM     24  C   UNL d   1       4.208  -4.078   2.055  0.00  0.00     0.210 C 
ENDBRANCH  18  23
BRANCH  20  25
ATOM     25  O   UNL d   1       2.022  -3.860   7.714  0.00  0.00    -0.356 OA
ATOM     26  C   UNL d   1       3.195  -4.445   8.268  0.00  0.00     0.210 C 
ENDBRANCH  20  25
ENDBRANCH  15  17
ENDBRANCH   1  14
TORSDOF 4
