REMARK  5 active torsions:
REMARK  status: ('A' for Active; 'I' for Inactive)
REMARK    1  A    between atoms: C_5  and  C_1 
REMARK    2  A    between atoms: C_7  and  C_1 
REMARK    3  A    between atoms: N_2  and  C_12 
REMARK    4  A    between atoms: C_14  and  C_3 
REMARK    5  A    between atoms: C_6  and  C_5 
REMARK       I    between atoms: N_21  and  C_7 
ROOT
ATOM      1  C   UNL d   1      -0.908  -0.910  -0.988  0.00  0.00     0.114 C 
ATOM      2  C   UNL d   1      -1.676  -1.843  -1.734  0.00  0.00     0.105 C 
ATOM      3  N   UNL d   1      -2.365  -2.569  -2.325  0.00  0.00    -0.191 NA
ENDROOT
BRANCH   1   4
ATOM      4  C   UNL d   1       0.406  -1.060  -0.731  0.00  0.00     0.065 C 
BRANCH   4   5
ATOM      5  C   UNL d   1       1.168  -2.152  -1.229  0.00  0.00     0.077 A 
ATOM      6  O   UNL d   1       0.937  -2.757  -2.443  0.00  0.00    -0.310 OA
ATOM      7  C   UNL d   1       1.824  -3.776  -2.615  0.00  0.00     0.086 A 
ATOM      8  C   UNL d   1       2.652  -3.839  -1.516  0.00  0.00     0.041 A 
ATOM      9  C   UNL d   1       2.250  -2.797  -0.646  0.00  0.00     0.040 A 
BRANCH   7  10
ATOM     10  C   UNL d   1       1.714  -4.533  -3.861  0.00  0.00    -0.002 A 
ATOM     11  C   UNL d   1       0.692  -4.277  -4.792  0.00  0.00     0.017 A 
ATOM     12  C   UNL d   1       0.604  -4.999  -5.989  0.00  0.00     0.037 A 
ATOM     13  C   UNL d   1       1.547  -5.996  -6.263  0.00  0.00     0.102 A 
ATOM     14  C   UNL d   1       2.568  -6.274  -5.348  0.00  0.00     0.037 A 
ATOM     15  C   UNL d   1       2.644  -5.543  -4.157  0.00  0.00     0.017 A 
BRANCH  13  16
ATOM     16  N   UNL d   1       1.470  -6.754  -7.518  0.00  0.00    -0.116 N 
ATOM     17  O   UNL d   1       0.567  -6.463  -8.315  0.00  0.00    -0.532 OA
ATOM     18  O   UNL d   1       2.317  -7.639  -7.708  0.00  0.00    -0.532 OA
ENDBRANCH  13  16
ENDBRANCH   7  10
ENDBRANCH   4   5
ENDBRANCH   1   4
BRANCH   1  19
ATOM     19  C   UNL d   1      -1.581   0.290  -0.409  0.00  0.00     0.260 C 
ATOM     20  O   UNL d   1      -0.991   1.117   0.280  0.00  0.00    -0.267 OA
ATOM     21  N   UNL d   1      -2.907   0.450  -0.676  0.00  0.00    -0.365 N 
ATOM     22  H   UNL d   1      -3.473  -0.178  -1.237  0.00  0.00     0.159 HD
ATOM     23  H   UNL d   1      -3.366   1.267  -0.291  0.00  0.00     0.159 HD
ENDBRANCH   1  19
TORSDOF 5
