REMARK  6 active torsions:
REMARK  status: ('A' for Active; 'I' for Inactive)
REMARK    1  A    between atoms: C_6  and  C_1 
REMARK    2  A    between atoms: C_8  and  C_2 
REMARK    3  A    between atoms: C_12  and  N_3 
REMARK       I    between atoms: N_11  and  C_8 
REMARK    4  A    between atoms: C_9  and  C_13 
REMARK    5  A    between atoms: C_23  and  N_11 
REMARK    6  A    between atoms: C_24  and  C_23 
ROOT
ATOM      1  C   UNL d   1       1.124  -0.648   0.149  0.00  0.00     0.157 C 
ATOM      2  C   UNL d   1      -0.159  -1.150  -0.062  0.00  0.00     0.082 C 
ATOM      3  N   UNL d   1       1.021   0.739   0.116  0.00  0.00    -0.251 N 
ATOM      4  N   UNL d   1      -0.277   1.130   0.066  0.00  0.00    -0.303 N 
ATOM      5  HN  UNL d   1      -0.645   2.077   0.154  1.00  0.00     0.186 HD
ATOM      6  C   UNL d   1      -0.962   0.011  -0.123  0.00  0.00     0.127 C 
ENDROOT
BRANCH   2   7
ATOM      7  C   UNL d   1      -0.727  -2.486  -0.188  0.00  0.00     0.255 C 
ATOM      8  N   UNL d   1       0.009  -3.596   0.195  0.00  0.00    -0.353 N 
ATOM      9  H   UNL d   1       0.848  -3.486   0.750  0.00  0.00     0.163 HD
ATOM     10  O   UNL d   1      -1.884  -2.607  -0.588  0.00  0.00    -0.268 OA
BRANCH   8  11
ATOM     11  C   UNL d   1      -0.740  -4.835   0.291  0.00  0.00     0.161 C 
BRANCH  11  12
ATOM     12  C   UNL d   1      -0.019  -6.088   0.714  0.00  0.00    -0.040 A 
ATOM     13  C   UNL d   1      -0.791  -7.079   1.345  0.00  0.00     0.010 A 
ATOM     14  C   UNL d   1      -0.256  -8.326   1.669  0.00  0.00     0.013 A 
ATOM     15  C   UNL d   1       1.078  -8.637   1.379  0.00  0.00    -0.019 A 
ATOM     16  C   UNL d   1       1.847  -7.652   0.735  0.00  0.00     0.013 A 
ATOM     17  C   UNL d   1       1.306  -6.394   0.399  0.00  0.00     0.010 A 
BRANCH  15  18
ATOM     18  C   UNL d   1       1.638  -9.964   1.712  0.00  0.00     0.015 A 
ATOM     19  S   UNL d   1       1.126 -10.800   3.129  0.00  0.00    -0.101 SA
ATOM     20  C   UNL d   1       2.114 -12.149   2.794  0.00  0.00     0.050 A 
ATOM     21  C   UNL d   1       2.853 -11.972   1.652  0.00  0.00     0.008 A 
ATOM     22  C   UNL d   1       2.584 -10.712   1.029  0.00  0.00     0.020 A 
ENDBRANCH  15  18
ENDBRANCH  11  12
ENDBRANCH   8  11
ENDBRANCH   2   7
BRANCH   1  23
ATOM     23  C   UNL d   1       2.394  -1.319   0.441  0.00  0.00     0.435 C 
ATOM     24  F   UNL d   1       2.200  -2.566   0.939  0.00  0.00    -0.165 F 
ATOM     25  F   UNL d   1       3.160  -1.466  -0.666  0.00  0.00    -0.165 F 
ATOM     26  F   UNL d   1       3.137  -0.671   1.371  0.00  0.00    -0.165 F 
ENDBRANCH   1  23
BRANCH   3  27
ATOM     27  C   UNL d   1       2.017   1.760   0.170  0.00  0.00     0.057 A 
ATOM     28  C   UNL d   1       3.302   1.583  -0.351  0.00  0.00     0.031 A 
ATOM     29  C   UNL d   1       4.264   2.587  -0.197  0.00  0.00     0.002 A 
ATOM     30  C   UNL d   1       3.946   3.774   0.461  0.00  0.00     0.000 A 
ATOM     31  C   UNL d   1       2.652   3.983   0.927  0.00  0.00     0.002 A 
ATOM     32  C   UNL d   1       1.684   2.990   0.764  0.00  0.00     0.031 A 
ENDBRANCH   3  27
TORSDOF 6
