REMARK  4 active torsions:
REMARK  status: ('A' for Active; 'I' for Inactive)
REMARK    1  A    between atoms: N_12  and  N_3 
REMARK    2  A    between atoms: C_16  and  C_11 
REMARK    3  A    between atoms: C_17  and  C_15 
REMARK    4  A    between atoms: O_20  and  C_19 
ROOT
ATOM      1  C   UNL d   1      -0.203   0.687   0.026  0.00  0.00     0.072 A 
ATOM      2  C   UNL d   1      -0.041  -0.670   0.032  0.00  0.00     0.106 A 
ATOM      3  N   UNL d   1       2.182   0.730   0.066  0.00  0.00    -0.142 N 
ATOM      4  N   UNL d   1       2.208  -0.657   0.058  0.00  0.00    -0.217 N 
ATOM      5  HN  UNL d   1       3.104  -1.143   0.065  1.00  0.00     0.210 HD
ATOM      6  C   UNL d   1       0.993   1.494   0.043  0.00  0.00     0.295 A 
ATOM      7  N   UNL d   1       1.143  -1.322   0.041  0.00  0.00    -0.277 N 
ATOM      8  HN  UNL d   1       1.170  -2.342   0.035  1.00  0.00     0.189 HD
ATOM      9  C   UNL d   1      -1.573   1.076   0.004  0.00  0.00     0.040 A 
ATOM     10  S   UNL d   1      -1.532  -1.484   0.038  0.00  0.00    -0.069 SA
ATOM     11  C   UNL d   1      -2.432  -0.013   0.000  0.00  0.00     0.018 A 
ATOM     12  O   UNL d   1       0.929   2.721   0.045  0.00  0.00    -0.264 OA
ENDROOT
BRANCH   3  13
ATOM     13  N   UNL d   1       3.362   1.434   0.105  0.00  0.00    -0.286 N 
ATOM     14  C   UNL d   1       4.479   0.783   0.129  0.00  0.00     0.120 C 
ATOM     15  HN  UNL d   1       3.357   2.454   0.114  1.00  0.00     0.188 HD
BRANCH  14  16
ATOM     16  C   UNL d   1       5.769   1.501   0.173  0.00  0.00    -0.017 A 
ATOM     17  C   UNL d   1       5.798   2.902   0.213  0.00  0.00     0.049 A 
ATOM     18  C   UNL d   1       7.021   3.569   0.244  0.00  0.00     0.069 A 
ATOM     19  C   UNL d   1       8.205   2.827   0.234  0.00  0.00     0.037 A 
ATOM     20  C   UNL d   1       8.176   1.431   0.198  0.00  0.00     0.004 A 
ATOM     21  C   UNL d   1       6.954   0.762   0.169  0.00  0.00     0.013 A 
BRANCH  18  22
ATOM     22  O   UNL d   1       7.192   4.926   0.284  0.00  0.00    -0.356 OA
ATOM     23  C   UNL d   1       6.010   5.720   0.305  0.00  0.00     0.210 C 
ENDBRANCH  18  22
ENDBRANCH  14  16
ENDBRANCH   3  13
BRANCH  11  24
ATOM     24  C   UNL d   1      -3.906  -0.028  -0.003  0.00  0.00    -0.019 A 
ATOM     25  C   UNL d   1      -4.638  -1.071  -0.595  0.00  0.00     0.013 A 
ATOM     26  C   UNL d   1      -6.035  -1.066  -0.587  0.00  0.00     0.001 A 
ATOM     27  C   UNL d   1      -6.726  -0.015   0.007  0.00  0.00     0.000 A 
ATOM     28  C   UNL d   1      -6.021   1.033   0.592  0.00  0.00     0.001 A 
ATOM     29  C   UNL d   1      -4.623   1.026   0.587  0.00  0.00     0.013 A 
ENDBRANCH  11  24
TORSDOF 4
