REMARK  1 active torsions:
REMARK  status: ('A' for Active; 'I' for Inactive)
REMARK    1  A    between atoms: O_19  and  C_8 
ROOT
ATOM      1  C   UNL d   1      -0.704  -1.533  -0.980  0.00  0.00    -0.016 C 
ATOM      2  C   UNL d   1       1.681   1.405   1.430  0.00  0.00    -0.009 C 
ATOM      3  C   UNL d   1      -2.161  -1.097  -1.145  0.00  0.00    -0.068 C 
ATOM      4  C   UNL d   1       0.061  -0.488  -0.088  0.00  0.00     0.002 C 
ATOM      5  C   UNL d   1       0.615   2.003   0.454  0.00  0.00     0.001 C 
ATOM      6  C   UNL d   1      -0.201   1.000  -0.429  0.00  0.00    -0.004 C 
ATOM      7  C   UNL d   1      -3.212  -1.917  -0.974  0.00  0.00     0.053 C 
ATOM      8  C   UNL d   1       0.985   1.542   2.831  0.00  0.00     0.062 C 
ATOM      9  C   UNL d   1       2.193  -0.025   1.147  0.00  0.00     0.013 C 
ATOM     10  C   UNL d   1       1.574  -0.705  -0.060  0.00  0.00     0.007 C 
ATOM     11  C   UNL d   1      -0.638  -2.908  -0.242  0.00  0.00     0.022 C 
ATOM     12  C   UNL d   1      -1.705   1.283  -0.532  0.00  0.00     0.010 C 
ATOM     13  C   UNL d   1      -0.168   3.034   1.321  0.00  0.00     0.009 C 
ATOM     14  C   UNL d   1      -2.387   0.347  -1.522  0.00  0.00     0.035 C 
ATOM     15  C   UNL d   1      -3.039  -3.359  -0.690  0.00  0.00     0.149 C 
ATOM     16  C   UNL d   1       0.376   2.942   2.750  0.00  0.00     0.038 C 
ATOM     17  O   UNL d   1      -4.031  -4.060  -0.498  0.00  0.00    -0.293 OA
ATOM     18  C   UNL d   1      -1.648  -3.929  -0.742  0.00  0.00     0.084 C 
ATOM     19  C   UNL d   1      -0.068  -1.679  -2.378  0.00  0.00     0.020 C 
ATOM     20  C   UNL d   1       2.943   2.323   1.348  0.00  0.00     0.018 C 
ATOM     21  C   UNL d   1      -0.141   0.547   3.164  0.00  0.00     0.046 C 
ENDROOT
BRANCH   8  22
ATOM     22  O   UNL d   1       1.932   1.479   3.890  0.00  0.00    -0.389 OA
ATOM     23  H   UNL d   1       2.186   0.546   4.009  0.00  0.00     0.210 HD
ENDBRANCH   8  22
TORSDOF 1
