REMARK  6 active torsions:
REMARK  status: ('A' for Active; 'I' for Inactive)
REMARK    1  A    between atoms: C_8  and  N_1 
REMARK    2  A    between atoms: S_12  and  C_2 
REMARK    3  A    between atoms: O_21  and  C_3 
REMARK       I    between atoms: N_11  and  C_13 
REMARK    4  A    between atoms: C_14  and  N_11 
REMARK    5  A    between atoms: C_20  and  S_12 
REMARK    6  A    between atoms: C_13  and  C_20 
ROOT
ATOM      1  N   UNL d   1      -0.257  -1.347  -0.134  0.00  0.00    -0.254 N 
ATOM      2  C   UNL d   1       1.010  -0.785  -0.236  0.00  0.00     0.169 C 
ATOM      3  C   UNL d   1      -1.070  -0.226   0.018  0.00  0.00     0.245 C 
ATOM      4  N   UNL d   1       0.961   0.493   0.082  0.00  0.00    -0.276 N 
ATOM      5  HN  UNL d   1       1.765   1.106   0.218  1.00  0.00     0.189 HD
ATOM      6  N   UNL d   1      -0.349   0.854   0.197  0.00  0.00    -0.263 N 
ATOM      7  HN  UNL d   1      -0.702   1.792   0.387  1.00  0.00     0.190 HD
ENDROOT
BRANCH   2   8
ATOM      8  S   UNL d   1       2.479  -1.571  -0.681  0.00  0.00    -0.083 SA
BRANCH   8   9
ATOM      9  C   UNL d   1       3.609  -0.217  -1.085  0.00  0.00     0.185 C 
BRANCH   9  10
ATOM     10  C   UNL d   1       3.265   0.673  -2.283  0.00  0.00     0.231 C 
ATOM     11  N   UNL d   1       2.115   1.433  -2.131  0.00  0.00    -0.325 N 
ATOM     12  H   UNL d   1       1.688   1.382  -1.207  0.00  0.00     0.169 HD
ATOM     13  O   UNL d   1       4.088   0.813  -3.182  0.00  0.00    -0.272 OA
BRANCH  11  14
ATOM     14  C   UNL d   1       1.813   2.622  -2.841  0.00  0.00     0.056 A 
ATOM     15  C   UNL d   1       1.994   2.854  -4.211  0.00  0.00     0.060 A 
ATOM     16 CL   UNL d   1       2.295   1.594  -5.359  0.00  0.00    -0.082 Cl
ATOM     17  C   UNL d   1       1.770   4.135  -4.739  0.00  0.00     0.026 A 
ATOM     18  C   UNL d   1       1.333   5.178  -3.921  0.00  0.00     0.002 A 
ATOM     19  C   UNL d   1       1.070   4.934  -2.579  0.00  0.00     0.002 A 
ATOM     20  C   UNL d   1       1.291   3.660  -2.047  0.00  0.00     0.031 A 
ENDBRANCH  11  14
ENDBRANCH   9  10
ENDBRANCH   8   9
ENDBRANCH   2   8
BRANCH   1  21
ATOM     21  C   UNL d   1      -0.711  -2.702  -0.118  0.00  0.00     0.057 A 
ATOM     22  C   UNL d   1      -1.579  -3.119   0.935  0.00  0.00    -0.034 A 
ATOM     23  C   UNL d   1      -2.147  -4.407   0.897  0.00  0.00     0.015 A 
ATOM     24  C   UNL d   1      -1.948  -2.296   2.149  0.00  0.00     0.050 C 
ATOM     25  C   UNL d   1      -1.839  -5.310  -0.117  0.00  0.00    -0.061 A 
ATOM     26  C   UNL d   1      -0.946  -4.914  -1.111  0.00  0.00     0.015 A 
ATOM     27  C   UNL d   1      -2.470  -6.670  -0.135  0.00  0.00     0.048 C 
ATOM     28  C   UNL d   1      -0.400  -3.611  -1.158  0.00  0.00    -0.034 A 
ATOM     29  C   UNL d   1       0.435  -3.325  -2.375  0.00  0.00     0.050 C 
ENDBRANCH   1  21
BRANCH   3  30
ATOM     30  O   UNL d   1      -2.397  -0.201  -0.040  0.00  0.00    -0.331 OA
ATOM     31  H   UNL d   1      -2.712  -1.073  -0.331  0.00  0.00     0.221 HD
ENDBRANCH   3  30
TORSDOF 6
