REMARK  5 active torsions:
REMARK  status: ('A' for Active; 'I' for Inactive)
REMARK    1  A    between atoms: C_23  and  C_1 
REMARK    2  A    between atoms: C_7  and  O_10 
REMARK    3  A    between atoms: C_20  and  C_7 
REMARK    4  A    between atoms: O_10  and  C_8 
REMARK    5  A    between atoms: O_25  and  C_23 
ROOT
ATOM      1  C   UNL d   1      -0.671  -1.700  -0.762  0.00  0.00     0.009 C 
ATOM      2  C   UNL d   1       1.164   1.494   1.759  0.00  0.00    -0.013 C 
ATOM      3  C   UNL d   1      -2.132  -1.393  -1.120  0.00  0.00    -0.065 C 
ATOM      4  C   UNL d   1      -0.119  -0.559   0.169  0.00  0.00     0.005 C 
ATOM      5  C   UNL d   1       0.192   2.001   0.649  0.00  0.00     0.001 C 
ATOM      6  C   UNL d   1      -0.470   0.898  -0.244  0.00  0.00    -0.004 C 
ATOM      7  C   UNL d   1       0.259   1.612   3.026  0.00  0.00     0.140 C 
ATOM      8  C   UNL d   1      -3.114  -2.314  -1.072  0.00  0.00     0.053 C 
ATOM      9  C   UNL d   1       1.769   0.085   1.643  0.00  0.00     0.012 C 
ATOM     10  C   UNL d   1       1.389  -0.659   0.385  0.00  0.00     0.007 C 
ATOM     11  C   UNL d   1      -0.617  -3.030   0.066  0.00  0.00     0.024 C 
ATOM     12  C   UNL d   1      -1.976   1.033  -0.478  0.00  0.00     0.010 C 
ATOM     13  C   UNL d   1      -0.712   3.043   1.396  0.00  0.00     0.008 C 
ATOM     14  C   UNL d   1      -2.450   0.025  -1.525  0.00  0.00     0.036 C 
ATOM     15  C   UNL d   1      -2.863  -3.728  -0.740  0.00  0.00     0.149 C 
ATOM     16  C   UNL d   1      -0.284   3.024   2.880  0.00  0.00     0.034 C 
ATOM     17  O   UNL d   1      -3.800  -4.524  -0.716  0.00  0.00    -0.293 OA
ATOM     18  C   UNL d   1      -1.437  -4.164  -0.529  0.00  0.00     0.084 C 
ATOM     19  C   UNL d   1       2.377   2.473   1.755  0.00  0.00     0.018 C 
ENDROOT
BRANCH   7  20
ATOM     20  O   UNL d   1      -0.971   0.831   2.910  0.00  0.00    -0.311 OA
BRANCH  20  21
ATOM     21  C   UNL d   1      -1.340  -0.085   3.827  0.00  0.00     0.293 C 
ATOM     22  O   UNL d   1      -0.602  -0.714   4.562  0.00  0.00    -0.259 OA
BRANCH  21  23
ATOM     23  C   UNL d   1      -2.833  -0.176   3.827  0.00  0.00     0.039 A 
ATOM     24  C   UNL d   1      -3.463  -1.393   4.111  0.00  0.00     0.017 A 
ATOM     25  C   UNL d   1      -4.858  -1.454   4.224  0.00  0.00     0.001 A 
ATOM     26  C   UNL d   1      -5.630  -0.300   4.069  0.00  0.00     0.000 A 
ATOM     27  C   UNL d   1      -5.013   0.913   3.773  0.00  0.00     0.001 A 
ATOM     28  C   UNL d   1      -3.621   0.974   3.647  0.00  0.00     0.017 A 
ENDBRANCH  21  23
ENDBRANCH  20  21
ENDBRANCH   7  20
BRANCH   1  29
ATOM     29  C   UNL d   1       0.180  -1.912  -2.053  0.00  0.00     0.178 C 
BRANCH  29  30
ATOM     30  O   UNL d   1       0.439  -0.708  -2.759  0.00  0.00    -0.400 OA
ATOM     31  H   UNL d   1       1.070  -0.920  -3.467  0.00  0.00     0.209 HD
ENDBRANCH  29  30
ENDBRANCH   1  29
TORSDOF 5
