REMARK  8 active torsions:
REMARK  status: ('A' for Active; 'I' for Inactive)
REMARK    1  A    between atoms: C_14  and  C_1 
REMARK    2  A    between atoms: C_4  and  C_2 
REMARK    3  A    between atoms: C_3  and  C_4 
REMARK       I    between atoms: N_24  and  C_14 
REMARK    4  A    between atoms: O_30  and  C_15 
REMARK    5  A    between atoms: O_33  and  C_17 
REMARK    6  A    between atoms: C_35  and  N_24 
REMARK    7  A    between atoms: C_26  and  C_36 
REMARK    8  A    between atoms: C_36  and  C_35 
ROOT
ATOM      1  C   UNL d   1       0.349   2.014  -0.098  0.00  0.00     0.071 C 
ATOM      2  C   UNL d   1      -1.062   1.793  -0.258  0.00  0.00     0.056 C 
ATOM      3  C   UNL d   1       1.187   0.855  -0.136  0.00  0.00     0.074 C 
ATOM      4  C   UNL d   1      -1.556   0.507  -0.582  0.00  0.00     0.072 C 
ATOM      5  C   UNL d   1       0.644  -0.446  -0.260  0.00  0.00     0.080 C 
ATOM      6  C   UNL d   1      -0.725  -0.617  -0.495  0.00  0.00     0.080 C 
ATOM      7 CL   UNL d   1       2.940   0.938  -0.080  0.00  0.00    -0.081 Cl
ATOM      8 CL   UNL d   1      -3.194   0.292  -1.155  0.00  0.00    -0.081 Cl
ATOM      9 CL   UNL d   1      -1.405  -2.217  -0.620  0.00  0.00    -0.081 Cl
ATOM     10 CL   UNL d   1       1.664  -1.861  -0.129  0.00  0.00    -0.081 Cl
ENDROOT
BRANCH   1  11
ATOM     11  C   UNL d   1       1.025   3.367   0.171  0.00  0.00     0.254 C 
ATOM     12  O   UNL d   1       2.185   3.433   0.551  0.00  0.00    -0.268 OA
ATOM     13  N   UNL d   1       0.338   4.544  -0.006  0.00  0.00    -0.356 N 
ATOM     14  H   UNL d   1      -0.580   4.541  -0.440  0.00  0.00     0.162 HD
BRANCH  13  15
ATOM     15  C   UNL d   1       0.922   5.862   0.201  0.00  0.00     0.127 C 
BRANCH  15  16
ATOM     16  C   UNL d   1       0.005   6.770   1.030  0.00  0.00     0.058 C 
BRANCH  16  17
ATOM     17  C   UNL d   1      -0.302   6.311   2.442  0.00  0.00    -0.054 A 
ATOM     18  C   UNL d   1      -1.510   6.714   3.042  0.00  0.00     0.046 A 
ATOM     19  C   UNL d   1      -1.833   6.362   4.364  0.00  0.00     0.102 A 
ATOM     20  C   UNL d   1      -0.927   5.572   5.092  0.00  0.00     0.101 A 
ATOM     21  C   UNL d   1       0.287   5.196   4.508  0.00  0.00     0.040 A 
ATOM     22  C   UNL d   1       0.601   5.563   3.199  0.00  0.00     0.010 A 
BRANCH  19  23
ATOM     23  O   UNL d   1      -2.972   6.780   4.999  0.00  0.00    -0.353 OA
ATOM     24  C   UNL d   1      -3.863   7.627   4.288  0.00  0.00     0.210 C 
ENDBRANCH  19  23
BRANCH  20  25
ATOM     25  O   UNL d   1      -1.052   5.147   6.391  0.00  0.00    -0.353 OA
ATOM     26  C   UNL d   1      -2.368   4.859   6.843  0.00  0.00     0.210 C 
ENDBRANCH  20  25
ENDBRANCH  16  17
ENDBRANCH  15  16
ENDBRANCH  13  15
ENDBRANCH   1  11
BRANCH   2  27
ATOM     27  C   UNL d   1      -2.079   2.874  -0.117  0.00  0.00     0.196 C 
ATOM     28  O   UNL d   1      -1.852   3.856  -0.818  0.00  0.00    -0.287 OA
BRANCH  27  29
ATOM     29  C   UNL d   1      -3.365   2.813   0.716  0.00  0.00     0.028 C 
ATOM     30  C   UNL d   1      -4.435   3.687   0.333  0.00  0.00    -0.041 C 
ATOM     31  C   UNL d   1      -5.608   3.787   1.134  0.00  0.00    -0.049 C 
ATOM     32  C   UNL d   1      -4.388   4.533  -0.926  0.00  0.00     0.050 C 
ATOM     33  C   UNL d   1      -6.647   4.860   0.884  0.00  0.00     0.049 C 
ATOM     34  C   UNL d   1      -5.836   2.851   2.166  0.00  0.00    -0.049 C 
ATOM     35  C   UNL d   1      -4.843   1.898   2.481  0.00  0.00    -0.049 C 
ATOM     36  C   UNL d   1      -7.160   2.896   2.906  0.00  0.00     0.049 C 
ATOM     37  C   UNL d   1      -3.562   1.939   1.829  0.00  0.00    -0.041 C 
ATOM     38  C   UNL d   1      -5.168   0.837   3.517  0.00  0.00     0.049 C 
ATOM     39  C   UNL d   1      -2.512   1.002   2.374  0.00  0.00     0.050 C 
ENDBRANCH  27  29
ENDBRANCH   2  27
TORSDOF 8
