REMARK  4 active torsions:
REMARK  status: ('A' for Active; 'I' for Inactive)
REMARK    1  A    between atoms: C_3  and  C_1 
REMARK    2  A    between atoms: C_5  and  C_2 
REMARK       I    between atoms: N_4  and  C_3 
REMARK    3  A    between atoms: C_6  and  N_4 
REMARK    4  A    between atoms: N_19  and  C_9 
ROOT
ATOM      1  C   UNL d   1       1.724  -0.184   0.146  0.00  0.00     0.079 A 
ATOM      2  C   UNL d   1       0.803  -0.908  -0.594  0.00  0.00     0.136 A 
ATOM      3  N   UNL d   1      -0.543  -0.642  -0.516  0.00  0.00    -0.328 N 
ATOM      4  HN  UNL d   1      -1.211  -1.202  -1.047  1.00  0.00     0.168 HD
ATOM      5  C   UNL d   1      -0.963   0.355   0.260  0.00  0.00     0.155 A 
ATOM      6  N   UNL d   1      -0.162   1.072   1.037  0.00  0.00    -0.342 N 
ATOM      7  HN  UNL d   1      -0.523   1.790   1.665  1.00  0.00     0.167 HD
ATOM      8  C   UNL d   1       1.159   0.800   0.949  0.00  0.00     0.110 A 
ENDROOT
BRANCH   1   9
ATOM      9  C   UNL d   1       3.209  -0.209   0.141  0.00  0.00     0.260 C 
ATOM     10  N   UNL d   1       3.870  -1.416   0.023  0.00  0.00    -0.318 N 
ATOM     11  H   UNL d   1       3.376  -2.216  -0.356  0.00  0.00     0.169 HD
ATOM     12  O   UNL d   1       3.758   0.885   0.219  0.00  0.00    -0.267 OA
BRANCH  10  13
ATOM     13  C   UNL d   1       5.287  -1.547  -0.056  0.00  0.00     0.113 A 
ATOM     14  C   UNL d   1       6.215  -0.702   0.558  0.00  0.00     0.146 A 
ATOM     15  F   UNL d   1       5.835   0.244   1.428  0.00  0.00    -0.204 F 
ATOM     16  C   UNL d   1       7.588  -0.873   0.360  0.00  0.00     0.045 A 
ATOM     17  C   UNL d   1       8.060  -1.909  -0.446  0.00  0.00     0.006 A 
ATOM     18  C   UNL d   1       7.152  -2.793  -1.025  0.00  0.00     0.045 A 
ATOM     19  C   UNL d   1       5.786  -2.614  -0.813  0.00  0.00     0.146 A 
ATOM     20  F   UNL d   1       4.928  -3.473  -1.387  0.00  0.00    -0.204 F 
ENDBRANCH  10  13
ENDBRANCH   1   9
BRANCH   2  21
ATOM     21  C   UNL d   1       1.142  -2.021  -1.554  0.00  0.00     0.433 C 
ATOM     22  F   UNL d   1       2.469  -2.221  -1.768  0.00  0.00    -0.165 F 
ATOM     23  F   UNL d   1       0.677  -3.229  -1.114  0.00  0.00    -0.165 F 
ATOM     24  F   UNL d   1       0.607  -1.846  -2.794  0.00  0.00    -0.165 F 
ENDBRANCH   2  21
BRANCH   5  25
ATOM     25  N   UNL d   1      -2.303   0.648   0.257  0.00  0.00    -0.274 NA
ATOM     26  H   UNL d   1      -2.580   1.111   1.109  0.00  0.00     0.127 HD
ATOM     27  H   UNL d   1      -2.856  -0.133  -0.064  0.00  0.00     0.127 HD
ENDBRANCH   5  25
TORSDOF 4
