REMARK  3 active torsions:
REMARK  status: ('A' for Active; 'I' for Inactive)
REMARK    1  A    between atoms: C_5  and  C_1 
REMARK    2  A    between atoms: C_8  and  C_4 
REMARK       I    between atoms: N_9  and  C_5 
REMARK    3  A    between atoms: C_17  and  N_9 
ROOT
ATOM      1  C   UNL d   1       1.288   0.738  -0.146  0.00  0.00     0.108 A 
ATOM      2  N   UNL d   1       1.450  -0.635   0.087  0.00  0.00    -0.345 N 
ATOM      3  HN  UNL d   1       2.320  -1.083   0.376  1.00  0.00     0.167 HD
ATOM      4  C   UNL d   1       0.301  -1.262  -0.123  0.00  0.00     0.085 A 
ATOM      5  S   UNL d   1      -1.033  -0.225  -0.501  0.00  0.00    -0.081 SA
ATOM      6  C   UNL d   1       0.009   1.112  -0.512  0.00  0.00     0.087 A 
ENDROOT
BRANCH   1   7
ATOM      7  C   UNL d   1       2.356   1.738  -0.009  0.00  0.00     0.273 C 
ATOM      8  N   UNL d   1       3.595   1.215   0.325  0.00  0.00    -0.322 N 
ATOM      9  H   UNL d   1       3.662   0.206   0.298  0.00  0.00     0.169 HD
ATOM     10  O   UNL d   1       2.112   2.925  -0.196  0.00  0.00    -0.266 OA
BRANCH   8  11
ATOM     11  C   UNL d   1       4.730   1.968   0.707  0.00  0.00     0.035 A 
ATOM     12  C   UNL d   1       4.675   3.335   1.014  0.00  0.00     0.031 A 
ATOM     13  C   UNL d   1       5.804   4.016   1.481  0.00  0.00     0.026 A 
ATOM     14  C   UNL d   1       7.006   3.337   1.633  0.00  0.00     0.034 A 
ATOM     15  C   UNL d   1       7.091   1.988   1.299  0.00  0.00     0.026 A 
ATOM     16 CL   UNL d   1       8.380   4.163   2.254  0.00  0.00    -0.084 Cl
ATOM     17  C   UNL d   1       5.953   1.303   0.843  0.00  0.00     0.031 A 
ENDBRANCH   8  11
ENDBRANCH   1   7
BRANCH   4  18
ATOM     18  C   UNL d   1       0.078  -2.720  -0.053  0.00  0.00    -0.002 A 
ATOM     19  C   UNL d   1      -0.887  -3.344  -0.872  0.00  0.00     0.024 A 
ATOM     20  C   UNL d   1      -1.078  -4.710  -0.780  0.00  0.00    -0.022 A 
ATOM     21  C   UNL d   1      -1.975  -5.585  -1.565  0.00  0.00     0.068 C 
ATOM     22  C   UNL d   1      -0.321  -5.475   0.086  0.00  0.00     0.075 A 
ATOM     23  C   UNL d   1      -1.847  -6.861  -0.734  0.00  0.00     0.180 C 
ATOM     24  O   UNL d   1      -0.618  -6.811   0.034  0.00  0.00    -0.350 OA
ATOM     25  C   UNL d   1       0.649  -4.912   0.890  0.00  0.00     0.038 A 
ATOM     26  C   UNL d   1       0.845  -3.523   0.820  0.00  0.00     0.017 A 
ENDBRANCH   4  18
TORSDOF 3
