REMARK  4 active torsions:
REMARK  status: ('A' for Active; 'I' for Inactive)
REMARK    1  A    between atoms: N_14  and  N_5 
REMARK    2  A    between atoms: C_18  and  N_6 
REMARK    3  A    between atoms: N_12  and  C_16 
REMARK    4  A    between atoms: C_24  and  C_21 
ROOT
ATOM      1  C   UNL d   1      -0.163  -0.625   0.038  0.00  0.00     0.160 A 
ATOM      2  C   UNL d   1      -0.253   0.738   0.015  0.00  0.00     0.099 A 
ATOM      3  N   UNL d   1       0.989  -1.325   0.113  0.00  0.00    -0.267 N 
ATOM      4  HN  UNL d   1       0.977  -2.344   0.130  1.00  0.00     0.190 HD
ATOM      5  N   UNL d   1       2.105   0.701   0.154  0.00  0.00    -0.142 N 
ATOM      6  N   UNL d   1      -1.464  -1.108  -0.035  0.00  0.00    -0.238 N 
ATOM      7  N   UNL d   1       2.081  -0.694   0.163  0.00  0.00    -0.216 N 
ATOM      8  HN  UNL d   1       2.958  -1.211   0.211  1.00  0.00     0.210 HD
ATOM      9  C   UNL d   1       0.946   1.509   0.090  0.00  0.00     0.298 A 
ATOM     10  N   UNL d   1      -2.353  -0.065  -0.138  0.00  0.00    -0.302 N 
ATOM     11  HN  UNL d   1      -3.367  -0.122  -0.229  1.00  0.00     0.186 HD
ATOM     12  C   UNL d   1      -1.605   1.039  -0.091  0.00  0.00     0.129 A 
ATOM     13  O   UNL d   1       0.916   2.737   0.090  0.00  0.00    -0.264 OA
ENDROOT
BRANCH   5  14
ATOM     14  N   UNL d   1       3.301   1.374   0.201  0.00  0.00    -0.286 N 
ATOM     15  C   UNL d   1       4.414   0.722   0.247  0.00  0.00     0.120 C 
ATOM     16  HN  UNL d   1       3.310   2.394   0.199  1.00  0.00     0.188 HD
BRANCH  15  17
ATOM     17  C   UNL d   1       5.696   1.466   0.291  0.00  0.00    -0.019 A 
ATOM     18  C   UNL d   1       5.693   2.868   0.261  0.00  0.00     0.015 A 
ATOM     19  C   UNL d   1       6.894   3.578   0.302  0.00  0.00     0.037 A 
ATOM     20  C   UNL d   1       8.104   2.877   0.374  0.00  0.00     0.102 A 
ATOM     21  C   UNL d   1       8.114   1.473   0.405  0.00  0.00     0.037 A 
ATOM     22  C   UNL d   1       6.905   0.767   0.363  0.00  0.00     0.015 A 
BRANCH  20  23
ATOM     23  N   UNL d   1       9.371   3.621   0.418  0.00  0.00    -0.116 N 
ATOM     24  O   UNL d   1       9.314   4.860   0.395  0.00  0.00    -0.532 OA
ATOM     25  O   UNL d   1      10.420   2.965   0.475  0.00  0.00    -0.532 OA
ENDBRANCH  20  23
ENDBRANCH  15  17
ENDBRANCH   5  14
BRANCH   6  26
ATOM     26  C   UNL d   1      -1.954  -2.448  -0.007  0.00  0.00     0.058 A 
ATOM     27  C   UNL d   1      -1.106  -3.549   0.163  0.00  0.00     0.031 A 
ATOM     28  C   UNL d   1      -1.634  -4.845   0.202  0.00  0.00     0.002 A 
ATOM     29  C   UNL d   1      -3.005  -5.053   0.068  0.00  0.00     0.000 A 
ATOM     30  C   UNL d   1      -3.857  -3.967  -0.105  0.00  0.00     0.002 A 
ATOM     31  C   UNL d   1      -3.337  -2.671  -0.140  0.00  0.00     0.031 A 
ENDBRANCH   6  26
TORSDOF 4
