REMARK  4 active torsions:
REMARK  status: ('A' for Active; 'I' for Inactive)
REMARK       I    between atoms: N_2  and  C_1 
REMARK    1  A    between atoms: C_3  and  C_1 
REMARK    2  A    between atoms: C_15  and  N_2 
REMARK    3  A    between atoms: C_4  and  C_8 
REMARK    4  A    between atoms: C_16  and  C_15 
ROOT
ATOM      1  C   UNL d   1       0.246  -0.296   0.893  0.00  0.00     0.078 C 
ATOM      2  C   UNL d   1      -2.331  -1.624   0.054  0.00  0.00     0.018 C 
ATOM      3  C   UNL d   1       0.134  -1.821   0.773  0.00  0.00     0.015 C 
ATOM      4  C   UNL d   1      -1.099   0.428   1.026  0.00  0.00     0.015 C 
ATOM      5  C   UNL d   1      -0.966  -2.288  -0.177  0.00  0.00     0.010 C 
ATOM      6  C   UNL d   1      -2.203  -0.095   0.110  0.00  0.00     0.010 C 
ENDROOT
BRANCH   1   7
ATOM      7  C   UNL d   1       1.086   0.294  -0.239  0.00  0.00     0.222 C 
ATOM      8  N   UNL d   1       2.430   0.083  -0.081  0.00  0.00    -0.355 N 
ATOM      9  H   UNL d   1       2.797  -0.488   0.673  0.00  0.00     0.162 HD
ATOM     10  O   UNL d   1       0.615   0.904  -1.192  0.00  0.00    -0.273 OA
BRANCH   8  11
ATOM     11  C   UNL d   1       3.419   0.644  -0.973  0.00  0.00     0.179 C 
BRANCH  11  12
ATOM     12  C   UNL d   1       4.779   0.019  -0.746  0.00  0.00     0.026 A 
ATOM     13  N   UNL d   1       4.874  -0.974   0.184  0.00  0.00    -0.368 N 
ATOM     14  C   UNL d   1       6.082  -1.550   0.354  0.00  0.00     0.088 A 
ATOM     15  HN  UNL d   1       4.064  -1.269   0.729  1.00  0.00     0.165 HD
ATOM     16  C   UNL d   1       7.217  -1.181  -0.349  0.00  0.00     0.017 A 
ATOM     17  C   UNL d   1       7.108  -0.156  -1.281  0.00  0.00     0.003 A 
ATOM     18  C   UNL d   1       5.875   0.456  -1.486  0.00  0.00     0.027 A 
ENDBRANCH  11  12
ENDBRANCH   8  11
ENDBRANCH   1   7
BRANCH   2  19
ATOM     19  C   UNL d   1      -3.129  -2.227   1.207  0.00  0.00    -0.054 A 
ATOM     20  C   UNL d   1      -4.301  -2.950   0.919  0.00  0.00     0.009 A 
ATOM     21  C   UNL d   1      -5.081  -3.501   1.940  0.00  0.00     0.024 A 
ATOM     22  C   UNL d   1      -4.700  -3.338   3.266  0.00  0.00     0.034 A 
ATOM     23  C   UNL d   1      -3.542  -2.636   3.578  0.00  0.00     0.024 A 
ATOM     24 CL   UNL d   1      -5.664  -4.002   4.527  0.00  0.00    -0.084 Cl
ATOM     25  C   UNL d   1      -2.762  -2.090   2.554  0.00  0.00     0.009 A 
ENDBRANCH   2  19
TORSDOF 4
