REMARK  5 active torsions:
REMARK  status: ('A' for Active; 'I' for Inactive)
REMARK    1  A    between atoms: C_9  and  N_1 
REMARK    2  A    between atoms: C_7  and  C_2 
REMARK    3  A    between atoms: N_11  and  C_8 
REMARK    4  A    between atoms: C_10  and  N_11 
REMARK    5  A    between atoms: O_13  and  C_12 
ROOT
ATOM      1  N   UNL d   1       4.015   0.588   0.366  0.00  0.00    -0.225 N 
ATOM      2  C   UNL d   1       3.755  -0.768   0.137  0.00  0.00     0.139 C 
ATOM      3  N   UNL d   1       5.777  -0.314  -0.467  0.00  0.00    -0.007 NA
ATOM      4  N   UNL d   1       5.263   0.848  -0.109  0.00  0.00     0.001 NA
ATOM      5  N   UNL d   1       4.867  -1.317  -0.320  0.00  0.00    -0.270 N 
ATOM      6  HN  UNL d   1       5.016  -2.306  -0.524  1.00  0.00     0.185 HD
ENDROOT
BRANCH   2   7
ATOM      7  C   UNL d   1       2.458  -1.334   0.242  0.00  0.00     0.063 C 
ATOM      8  C   UNL d   1       2.240  -2.619   0.556  0.00  0.00     0.066 C 
BRANCH   8   9
ATOM      9  N   UNL d   1       3.119  -3.623   0.889  0.00  0.00    -0.267 NA
ATOM     10  H   UNL d   1       2.830  -4.538   0.536  0.00  0.00     0.133 HD
BRANCH   9  11
ATOM     11  C   UNL d   1       3.648  -3.841   2.192  0.00  0.00     0.045 A 
ATOM     12  C   UNL d   1       4.382  -5.019   2.452  0.00  0.00     0.089 A 
ATOM     13  C   UNL d   1       4.884  -5.294   3.726  0.00  0.00     0.038 A 
ATOM     14  C   UNL d   1       4.716  -4.368   4.753  0.00  0.00     0.003 A 
ATOM     15  C   UNL d   1       4.048  -3.171   4.502  0.00  0.00     0.002 A 
ATOM     16  C   UNL d   1       3.531  -2.905   3.229  0.00  0.00     0.026 A 
BRANCH  12  17
ATOM     17  O   UNL d   1       4.555  -6.000   1.504  0.00  0.00    -0.354 OA
ATOM     18  C   UNL d   1       5.374  -5.563   0.416  0.00  0.00     0.210 C 
ENDBRANCH  12  17
ENDBRANCH   9  11
ENDBRANCH   8   9
ENDBRANCH   2   7
BRANCH   1  19
ATOM     19  C   UNL d   1       3.259   1.631   0.978  0.00  0.00     0.056 A 
ATOM     20  C   UNL d   1       2.142   1.374   1.784  0.00  0.00     0.031 A 
ATOM     21  C   UNL d   1       1.434   2.432   2.366  0.00  0.00     0.002 A 
ATOM     22  C   UNL d   1       1.839   3.749   2.163  0.00  0.00     0.000 A 
ATOM     23  C   UNL d   1       2.961   4.015   1.384  0.00  0.00     0.002 A 
ATOM     24  C   UNL d   1       3.672   2.964   0.799  0.00  0.00     0.031 A 
ENDBRANCH   1  19
TORSDOF 5
