REMARK  5 active torsions:
REMARK  status: ('A' for Active; 'I' for Inactive)
REMARK    1  A    between atoms: C_6  and  C_1 
REMARK    2  A    between atoms: C_3  and  C_6 
REMARK    3  A    between atoms: C_11  and  C_4 
REMARK    4  A    between atoms: C_13  and  C_8 
REMARK    5  A    between atoms: O_17  and  C_15 
ROOT
ATOM      1  C   UNL d   1      -0.914  -3.710  -0.204  0.00  0.00     0.096 C 
ATOM      2  C   UNL d   1      -0.569  -4.994   0.038  0.00  0.00     0.038 C 
ATOM      3  C   UNL d   1      -2.302  -3.423  -0.336  0.00  0.00     0.103 C 
ATOM      4  N   UNL d   1      -3.446  -3.224  -0.409  0.00  0.00    -0.191 NA
ENDROOT
BRANCH   1   5
ATOM      5  C   UNL d   1       0.107  -2.628  -0.408  0.00  0.00     0.205 C 
ATOM      6  O   UNL d   1       1.252  -2.884  -0.767  0.00  0.00    -0.286 OA
BRANCH   5   7
ATOM      7  C   UNL d   1      -0.331  -1.248  -0.215  0.00  0.00     0.048 A 
ATOM      8  C   UNL d   1      -1.343  -0.698   0.631  0.00  0.00     0.056 A 
ATOM      9  C   UNL d   1      -1.351   0.667   0.438  0.00  0.00     0.086 A 
ATOM     10  O   UNL d   1      -0.377   1.002  -0.452  0.00  0.00    -0.314 OA
ATOM     11  C   UNL d   1       0.250  -0.146  -0.831  0.00  0.00     0.064 A 
ATOM     12  C   UNL d   1       1.361   0.041  -1.793  0.00  0.00     0.077 C 
BRANCH   9  13
ATOM     13  C   UNL d   1      -2.145   1.759   0.987  0.00  0.00    -0.002 A 
ATOM     14  C   UNL d   1      -1.657   3.073   1.014  0.00  0.00     0.014 A 
ATOM     15  C   UNL d   1      -2.401   4.099   1.605  0.00  0.00     0.001 A 
ATOM     16  C   UNL d   1      -3.647   3.824   2.165  0.00  0.00     0.000 A 
ATOM     17  C   UNL d   1      -4.156   2.529   2.123  0.00  0.00     0.001 A 
ATOM     18  C   UNL d   1      -3.410   1.504   1.537  0.00  0.00     0.014 A 
ENDBRANCH   9  13
ENDBRANCH   5   7
ENDBRANCH   1   5
BRANCH   2  19
ATOM     19  C   UNL d   1       0.777  -5.548   0.198  0.00  0.00    -0.032 A 
ATOM     20  C   UNL d   1       1.490  -5.994  -0.924  0.00  0.00     0.048 A 
ATOM     21  C   UNL d   1       2.748  -6.579  -0.772  0.00  0.00     0.069 A 
ATOM     22  C   UNL d   1       3.295  -6.702   0.508  0.00  0.00     0.037 A 
ATOM     23  C   UNL d   1       2.595  -6.248   1.627  0.00  0.00     0.004 A 
ATOM     24  C   UNL d   1       1.334  -5.674   1.474  0.00  0.00     0.011 A 
BRANCH  21  25
ATOM     25  O   UNL d   1       3.529  -7.073  -1.782  0.00  0.00    -0.356 OA
ATOM     26  C   UNL d   1       2.999  -6.981  -3.099  0.00  0.00     0.210 C 
ENDBRANCH  21  25
ENDBRANCH   2  19
TORSDOF 5
