REMARK  2 active torsions:
REMARK  status: ('A' for Active; 'I' for Inactive)
REMARK    1  A    between atoms: C_5  and  C_3 
REMARK    2  A    between atoms: C_6  and  C_7 
ROOT
ATOM      1  N   UNL d   1      -1.188   1.327  -0.010  0.00  0.00    -0.351 N 
ATOM      2  HN  UNL d   1      -1.201   2.347  -0.018  1.00  0.00     0.166 HD
ATOM      3  C   UNL d   1       1.185   1.388  -0.015  0.00  0.00     0.075 A 
ATOM      4  C   UNL d   1      -0.012   0.678  -0.007  0.00  0.00     0.058 A 
ATOM      5  C   UNL d   1      -2.360   0.638  -0.001  0.00  0.00     0.117 A 
ATOM      6  C   UNL d   1       0.035  -0.734   0.003  0.00  0.00    -0.009 A 
ATOM      7  C   UNL d   1      -2.385  -0.751   0.007  0.00  0.00     0.035 A 
ATOM      8  C   UNL d   1      -1.176  -1.440   0.008  0.00  0.00     0.016 A 
ATOM      9  C   UNL d   1       2.418   0.700  -0.007  0.00  0.00     0.018 A 
ATOM     10  C   UNL d   1       2.459  -0.689   0.004  0.00  0.00     0.002 A 
ATOM     11  C   UNL d   1       1.268  -1.407   0.008  0.00  0.00     0.014 A 
ENDROOT
BRANCH   3  12
ATOM     12  C   UNL d   1       1.211   2.895  -0.037  0.00  0.00     0.419 C 
ATOM     13  F   UNL d   1       0.016   3.544  -0.022  0.00  0.00    -0.166 F 
ATOM     14  F   UNL d   1       1.907   3.400   1.025  0.00  0.00    -0.166 F 
ATOM     15  F   UNL d   1       1.862   3.367  -1.143  0.00  0.00    -0.166 F 
ENDBRANCH   3  12
BRANCH   5  16
ATOM     16  C   UNL d   1      -3.669   1.416  -0.000  0.00  0.00     0.432 C 
ATOM     17  F   UNL d   1      -3.517   2.771   0.012  0.00  0.00    -0.165 F 
ATOM     18  F   UNL d   1      -4.439   1.139  -1.093  0.00  0.00    -0.165 F 
ATOM     19  F   UNL d   1      -4.449   1.121   1.081  0.00  0.00    -0.165 F 
ENDBRANCH   5  16
TORSDOF 2
