REMARK  5 active torsions:
REMARK  status: ('A' for Active; 'I' for Inactive)
REMARK    1  A    between atoms: S_2  and  C_1 
REMARK    2  A    between atoms: N_15  and  S_2 
REMARK    3  A    between atoms: C_19  and  N_3 
REMARK    4  A    between atoms: C_13  and  C_16 
REMARK    5  A    between atoms: C_16  and  N_15 
ROOT
ATOM      1  C   UNL d   1      -0.809   3.075   2.739  0.00  0.00     0.193 C 
ENDROOT
BRANCH   1   2
ATOM      2  C   UNL d   1      -0.265   3.826   3.910  0.00  0.00     0.069 A 
ATOM      3  N   UNL d   1       0.604   4.836   3.794  0.00  0.00    -0.280 N 
ATOM      4  N   UNL d   1       0.860   5.166   5.092  0.00  0.00    -0.197 N 
ATOM      5  HN  UNL d   1       0.982   5.256   2.944  1.00  0.00     0.189 HD
ATOM      6  N   UNL d   1       0.142   4.474   6.026  0.00  0.00    -0.282 N 
ATOM      7  C   UNL d   1      -0.591   3.645   5.269  0.00  0.00     0.049 A 
ATOM      8  HN  UNL d   1       0.159   4.566   7.041  1.00  0.00     0.189 HD
ATOM      9  C   UNL d   1      -1.604   2.719   5.825  0.00  0.00     0.072 C 
BRANCH   4  10
ATOM     10  C   UNL d   1       1.778   6.204   5.412  0.00  0.00     0.074 A 
ATOM     11  C   UNL d   1       2.364   6.941   4.369  0.00  0.00     0.033 A 
ATOM     12  C   UNL d   1       3.250   7.980   4.649  0.00  0.00     0.002 A 
ATOM     13  C   UNL d   1       3.570   8.282   5.970  0.00  0.00     0.000 A 
ATOM     14  C   UNL d   1       3.003   7.545   7.013  0.00  0.00     0.002 A 
ATOM     15  C   UNL d   1       2.103   6.508   6.741  0.00  0.00     0.033 A 
ENDBRANCH   4  10
ENDBRANCH   1   2
BRANCH   1  16
ATOM     16  N   UNL d   1      -0.269   3.623   1.495  0.00  0.00    -0.310 N 
ATOM     17  H   UNL d   1      -0.214   4.639   1.472  0.00  0.00     0.172 HD
BRANCH  16  18
ATOM     18  S   UNL d   1      -0.788   2.895   0.086  0.00  0.00     0.263 S 
ATOM     19  O   UNL d   1      -0.724   1.471   0.275  0.00  0.00    -0.200 OA
ATOM     20  O   UNL d   1      -0.131   3.567  -1.013  0.00  0.00    -0.200 OA
BRANCH  18  21
ATOM     21  C   UNL d   1      -2.452   3.297  -0.125  0.00  0.00     0.126 A 
ATOM     22  C   UNL d   1      -3.568   2.424  -0.163  0.00  0.00     0.047 A 
ATOM     23  N   UNL d   1      -4.706   3.113  -0.336  0.00  0.00    -0.302 N 
ATOM     24  C   UNL d   1      -3.688   0.950  -0.018  0.00  0.00     0.071 C 
ATOM     25  N   UNL d   1      -4.324   4.395  -0.428  0.00  0.00    -0.299 N 
ATOM     26  HN  UNL d   1      -5.654   2.742  -0.386  1.00  0.00     0.186 HD
ATOM     27  C   UNL d   1      -2.978   4.578  -0.255  0.00  0.00     0.049 A 
ATOM     28  C   UNL d   1      -5.348   5.390  -0.658  0.00  0.00     0.177 C 
ATOM     29  C   UNL d   1      -2.340   5.920  -0.253  0.00  0.00     0.071 C 
ENDBRANCH  18  21
ENDBRANCH  16  18
ENDBRANCH   1  16
TORSDOF 5
