REMARK  4 active torsions:
REMARK  status: ('A' for Active; 'I' for Inactive)
REMARK    1  A    between atoms: C_5  and  N_1 
REMARK    2  A    between atoms: N_3  and  C_4 
REMARK    3  A    between atoms: C_8  and  C_13 
REMARK    4  A    between atoms: C_18  and  C_8 
ROOT
ATOM      1  C   UNL d   1      -0.410  -3.330  -1.054  0.00  0.00     0.073 A 
ATOM      2  C   UNL d   1      -1.336  -2.949  -2.057  0.00  0.00     0.051 A 
ATOM      3  C   UNL d   1       0.307  -1.023  -0.758  0.00  0.00     0.104 A 
ATOM      4  C   UNL d   1      -0.179  -4.699  -0.685  0.00  0.00     0.102 C 
ATOM      5  N   UNL d   1       0.024  -5.794  -0.345  0.00  0.00    -0.191 NA
ATOM      6  C   UNL d   1       0.389  -2.370  -0.399  0.00  0.00     0.061 A 
ATOM      7  C   UNL d   1      -1.367  -1.576  -2.394  0.00  0.00     0.033 A 
ATOM      8  C   UNL d   1      -0.559  -0.621  -1.770  0.00  0.00     0.038 A 
ENDROOT
BRANCH   2   9
ATOM      9  N   UNL d   1      -2.215  -3.806  -2.701  0.00  0.00    -0.380 N 
ATOM     10  C   UNL d   1      -2.502  -3.659  -4.134  0.00  0.00     0.123 C 
ATOM     11  C   UNL d   1      -4.013  -3.522  -4.325  0.00  0.00     0.032 C 
ATOM     12  C   UNL d   1      -4.799  -4.676  -3.680  0.00  0.00     0.064 C 
ATOM     13  C   UNL d   1      -4.361  -4.884  -2.227  0.00  0.00     0.032 C 
ATOM     14  C   UNL d   1      -2.840  -4.969  -2.064  0.00  0.00     0.123 C 
BRANCH  12  15
ATOM     15  C   UNL d   1      -4.662  -5.967  -4.490  0.00  0.00     0.163 C 
ATOM     16  O   UNL d   1      -3.672  -6.188  -5.187  0.00  0.00    -0.292 OA
BRANCH  15  17
ATOM     17  C   UNL d   1      -5.742  -7.002  -4.454  0.00  0.00     0.010 A 
ATOM     18  C   UNL d   1      -6.891  -6.884  -3.665  0.00  0.00     0.015 A 
ATOM     19  C   UNL d   1      -7.871  -7.882  -3.700  0.00  0.00     0.001 A 
ATOM     20  C   UNL d   1      -7.708  -8.999  -4.519  0.00  0.00     0.000 A 
ATOM     21  C   UNL d   1      -6.564  -9.129  -5.300  0.00  0.00     0.001 A 
ATOM     22  C   UNL d   1      -5.585  -8.135  -5.267  0.00  0.00     0.015 A 
ENDBRANCH  15  17
ENDBRANCH  12  15
ENDBRANCH   2   9
BRANCH   3  23
ATOM     23  N   UNL d   1       1.128  -0.025  -0.064  0.00  0.00    -0.116 N 
ATOM     24  O   UNL d   1       1.847  -0.420   0.866  0.00  0.00    -0.532 OA
ATOM     25  O   UNL d   1       1.049   1.151  -0.443  0.00  0.00    -0.532 OA
ENDBRANCH   3  23
TORSDOF 4
