REMARK  1 active torsions:
REMARK  status: ('A' for Active; 'I' for Inactive)
REMARK    1  A    between atoms: N_9  and  N_6 
ROOT
ATOM      1  C   UNL d   1      -1.892   0.870   0.036  0.00  0.00     0.123 A 
ATOM      2  C   UNL d   1      -2.491  -0.548   0.013  0.00  0.00     0.274 A 
ATOM      3  N   UNL d   1      -1.409  -1.404   0.011  0.00  0.00    -0.321 N 
ATOM      4  C   UNL d   1      -0.443   0.683  -0.007  0.00  0.00     0.024 A 
ATOM      5  C   UNL d   1      -0.215  -0.691  -0.004  0.00  0.00     0.047 A 
ATOM      6  N   UNL d   1      -2.491   2.019   0.095  0.00  0.00    -0.318 N 
ATOM      7  HN  UNL d   1      -1.973   2.896   0.038  1.00  0.00     0.180 HD
ATOM      8  O   UNL d   1      -3.669  -0.827  -0.043  0.00  0.00    -0.266 OA
ATOM      9  C   UNL d   1       0.585   1.604  -0.013  0.00  0.00     0.016 A 
ATOM     10  C   UNL d   1       1.064  -1.206  -0.010  0.00  0.00     0.030 A 
ATOM     11  C   UNL d   1       1.888   1.099  -0.016  0.00  0.00     0.001 A 
ATOM     12  C   UNL d   1       2.125  -0.292  -0.014  0.00  0.00     0.002 A 
ATOM     13  H   UNL d   1      -1.503  -2.408  -0.004  0.00  0.00     0.169 HD
ENDROOT
BRANCH   6  14
ATOM     14  N   UNL d   1      -3.833   1.999   0.238  0.00  0.00    -0.249 NA
ATOM     15  H   UNL d   1      -4.268   2.831  -0.161  0.00  0.00     0.143 HD
ATOM     16  H   UNL d   1      -4.301   1.168  -0.140  0.00  0.00     0.143 HD
ENDBRANCH   6  14
TORSDOF 1
