REMARK  4 active torsions:
REMARK  status: ('A' for Active; 'I' for Inactive)
REMARK    1  A    between atoms: C_2  and  C_1 
REMARK       I    between atoms: N_5  and  C_1 
REMARK    2  A    between atoms: C_3  and  C_4 
REMARK    3  A    between atoms: O_10  and  C_3 
REMARK    4  A    between atoms: C_8  and  N_5 
ROOT
ATOM      1  C   UNL d   1       0.903  -0.076  -0.006  0.00  0.00     0.245 C 
ATOM      2  N   UNL d   1       0.139   1.056   0.177  0.00  0.00    -0.324 N 
ATOM      3  O   UNL d   1       0.500  -1.225  -0.150  0.00  0.00    -0.268 OA
ATOM      4  H   UNL d   1       0.609   1.952   0.146  0.00  0.00     0.169 HD
ENDROOT
BRANCH   2   5
ATOM      5  C   UNL d   1      -1.255   1.098   0.400  0.00  0.00     0.035 A 
ATOM      6  C   UNL d   1      -2.031  -0.039   0.645  0.00  0.00     0.031 A 
ATOM      7  C   UNL d   1      -3.401   0.073   0.903  0.00  0.00     0.026 A 
ATOM      8  C   UNL d   1      -4.005   1.326   0.909  0.00  0.00     0.034 A 
ATOM      9  C   UNL d   1      -3.249   2.468   0.660  0.00  0.00     0.026 A 
ATOM     10 CL   UNL d   1      -5.687   1.463   1.236  0.00  0.00    -0.084 Cl
ATOM     11  C   UNL d   1      -1.876   2.354   0.413  0.00  0.00     0.031 A 
ENDBRANCH   2   5
BRANCH   1  12
ATOM     12  C   UNL d   1       2.359   0.211  -0.026  0.00  0.00     0.081 C 
ATOM     13  C   UNL d   1       3.207  -0.817  -0.192  0.00  0.00     0.086 C 
BRANCH  13  14
ATOM     14  C   UNL d   1       4.653  -0.565  -0.158  0.00  0.00     0.165 C 
ATOM     15  O   UNL d   1       5.153   0.536  -0.007  0.00  0.00    -0.647 OA
BRANCH  14  16
ATOM     16  O   UNL d   1       5.370  -1.696  -0.305  0.00  0.00    -0.773 OA
ATOM     17  H   UNL d   1       4.853  -2.516  -0.409  0.00  0.00     0.167 HD
ENDBRANCH  14  16
ENDBRANCH  13  14
ENDBRANCH   1  12
TORSDOF 4
