REMARK  6 active torsions:
REMARK  status: ('A' for Active; 'I' for Inactive)
REMARK    1  A    between atoms: C_2  and  C_1 
REMARK       I    between atoms: N_7  and  C_2 
REMARK    2  A    between atoms: C_12  and  C_5 
REMARK    3  A    between atoms: C_9  and  N_7 
REMARK    4  A    between atoms: C_21  and  C_15 
REMARK    5  A    between atoms: C_22  and  C_21 
REMARK    6  A    between atoms: C_23  and  C_22 
ROOT
ATOM      1  C   UNL d   1       0.310  -2.681  -0.142  0.00  0.00     0.261 C 
ATOM      2  N   UNL d   1      -0.681  -3.634   0.035  0.00  0.00    -0.322 N 
ATOM      3  O   UNL d   1       0.136  -1.579  -0.649  0.00  0.00    -0.267 OA
ATOM      4  H   UNL d   1      -0.474  -4.324   0.741  0.00  0.00     0.169 HD
ENDROOT
BRANCH   1   5
ATOM      5  C   UNL d   1       1.614  -3.049   0.402  0.00  0.00     0.093 A 
ATOM      6  C   UNL d   1       2.688  -2.184   0.824  0.00  0.00     0.083 A 
ATOM      7  N   UNL d   1       3.762  -2.915   1.169  0.00  0.00    -0.259 N 
ATOM      8  O   UNL d   1       3.404  -4.228   1.053  0.00  0.00    -0.241 OA
ATOM      9  HN  UNL d   1       4.671  -2.558   1.461  1.00  0.00     0.195 HD
ATOM     10  C   UNL d   1       2.122  -4.322   0.622  0.00  0.00     0.090 A 
ATOM     11  C   UNL d   1       1.627  -5.708   0.500  0.00  0.00     0.080 C 
BRANCH   6  12
ATOM     12  C   UNL d   1       2.751  -0.725   0.993  0.00  0.00    -0.006 A 
ATOM     13  C   UNL d   1       3.975  -0.050   0.837  0.00  0.00     0.014 A 
ATOM     14  C   UNL d   1       4.084   1.317   1.110  0.00  0.00     0.001 A 
ATOM     15  C   UNL d   1       2.968   2.032   1.536  0.00  0.00     0.000 A 
ATOM     16  C   UNL d   1       1.746   1.381   1.687  0.00  0.00     0.001 A 
ATOM     17  C   UNL d   1       1.640   0.012   1.425  0.00  0.00     0.014 A 
ENDBRANCH   6  12
ENDBRANCH   1   5
BRANCH   2  18
ATOM     18  C   UNL d   1      -2.050  -3.570  -0.324  0.00  0.00     0.041 C 
ATOM     19  C   UNL d   1      -2.625  -2.821  -1.363  0.00  0.00    -0.035 C 
ATOM     20  C   UNL d   1      -4.034  -2.742  -1.446  0.00  0.00     0.016 C 
ATOM     21  C   UNL d   1      -1.861  -2.104  -2.441  0.00  0.00     0.050 C 
ATOM     22  C   UNL d   1      -4.872  -3.449  -0.579  0.00  0.00    -0.058 C 
ATOM     23  C   UNL d   1      -4.286  -4.310   0.348  0.00  0.00     0.009 C 
ATOM     24  C   UNL d   1      -2.897  -4.365   0.472  0.00  0.00     0.030 C 
BRANCH  22  25
ATOM     25  C   UNL d   1      -6.370  -3.277  -0.634  0.00  0.00     0.038 C 
BRANCH  25  26
ATOM     26  C   UNL d   1      -6.973  -2.712   0.662  0.00  0.00     0.004 C 
BRANCH  26  27
ATOM     27  C   UNL d   1      -6.451  -1.314   1.013  0.00  0.00    -0.004 C 
ATOM     28  C   UNL d   1      -7.086  -0.788   2.291  0.00  0.00     0.005 C 
ENDBRANCH  26  27
ENDBRANCH  25  26
ENDBRANCH  22  25
ENDBRANCH   2  18
TORSDOF 6
