REMARK  2 active torsions:
REMARK  status: ('A' for Active; 'I' for Inactive)
REMARK    1  A    between atoms: N_8  and  N_2 
REMARK    2  A    between atoms: C_9  and  N_8 
ROOT
ATOM      1  C   UNL d   1       1.281   0.223   1.032  0.00  0.00     0.209 C 
ATOM      2  N   UNL d   1       0.616   1.339   1.016  0.00  0.00    -0.282 N 
ATOM      3  HN  UNL d   1      -0.244   1.430   1.558  1.00  0.00     0.188 HD
ATOM      4  N   UNL d   1       0.287  -1.667   2.510  0.00  0.00    -0.189 NA
ATOM      5  N   UNL d   1       3.444  -0.059  -0.371  0.00  0.00    -0.189 NA
ATOM      6  C   UNL d   1       0.718  -0.808   1.856  0.00  0.00     0.130 C 
ATOM      7  C   UNL d   1       2.482   0.056   0.272  0.00  0.00     0.130 C 
ENDROOT
BRANCH   2   8
ATOM      8  N   UNL d   1       1.069   2.392   0.272  0.00  0.00    -0.299 N 
ATOM      9  H   UNL d   1       1.610   2.254  -0.586  0.00  0.00     0.187 HD
BRANCH   8  10
ATOM     10  C   UNL d   1       0.291   3.572   0.255  0.00  0.00     0.054 A 
ATOM     11  C   UNL d   1      -0.816   3.747   1.096  0.00  0.00     0.073 A 
ATOM     12  C   UNL d   1      -1.511   4.955   1.110  0.00  0.00     0.121 A 
ATOM     13  F   UNL d   1      -2.574   5.091   1.913  0.00  0.00    -0.206 F 
ATOM     14  C   UNL d   1      -1.119   6.017   0.312  0.00  0.00     0.084 A 
ATOM     15  C   UNL d   1      -0.011   5.855  -0.505  0.00  0.00     0.121 A 
ATOM     16  C   UNL d   1       0.700   4.655  -0.534  0.00  0.00     0.073 A 
ATOM     17  F   UNL d   1       0.389   6.873  -1.280  0.00  0.00    -0.206 F 
ENDBRANCH   8  10
ENDBRANCH   2   8
TORSDOF 2
