REMARK  14 active torsions:
REMARK  status: ('A' for Active; 'I' for Inactive)
REMARK    1  A    between atoms: C_2  and  S_1 
REMARK    2  A    between atoms: N_6  and  S_1 
REMARK    3  A    between atoms: C_14  and  C_4 
REMARK    4  A    between atoms: C_5  and  N_6 
REMARK    5  A    between atoms: O_24  and  C_14 
REMARK    6  A    between atoms: O_25  and  C_16 
REMARK    7  A    between atoms: O_26  and  C_19 
REMARK    8  A    between atoms: C_29  and  O_24 
REMARK    9  A    between atoms: C_31  and  O_25 
REMARK   10  A    between atoms: C_30  and  O_26 
REMARK   11  A    between atoms: O_27  and  C_33 
REMARK   12  A    between atoms: O_28  and  C_32 
REMARK   13  A    between atoms: C_32  and  C_30 
REMARK   14  A    between atoms: C_33  and  C_31 
ROOT
ATOM      1  C   UNL d   1       2.085  -2.888  -0.423  0.00  0.00     0.069 A 
ATOM      2  C   UNL d   1       0.751  -2.701  -0.039  0.00  0.00     0.061 A 
ATOM      3  C   UNL d   1       2.487  -4.136  -0.907  0.00  0.00     0.059 A 
ATOM      4  C   UNL d   1      -0.140  -3.789  -0.081  0.00  0.00     0.071 A 
ATOM      5  C   UNL d   1       1.593  -5.210  -1.016  0.00  0.00     0.103 A 
ATOM      6  C   UNL d   1       0.266  -5.045  -0.572  0.00  0.00     0.104 A 
ENDROOT
BRANCH   2   7
ATOM      7  N   UNL d   1       0.307  -1.412   0.384  0.00  0.00    -0.279 N 
ATOM      8  H   UNL d   1       1.035  -0.742   0.657  0.00  0.00     0.179 HD
BRANCH   7   9
ATOM      9  S   UNL d   1      -1.016  -0.649  -0.303  0.00  0.00     0.265 S 
ATOM     10  O   UNL d   1      -2.205  -1.338   0.164  0.00  0.00    -0.200 OA
ATOM     11  O   UNL d   1      -0.850   0.768  -0.064  0.00  0.00    -0.200 OA
BRANCH   9  12
ATOM     12  C   UNL d   1      -0.919  -0.900  -2.035  0.00  0.00     0.110 A 
ATOM     13  C   UNL d   1       0.144  -0.459  -2.837  0.00  0.00     0.108 A 
ATOM     14  C   UNL d   1       0.101  -0.590  -4.294  0.00  0.00     0.086 A 
ATOM     15  N   UNL d   1       1.309   0.117  -2.514  0.00  0.00    -0.238 N 
ATOM     16  N   UNL d   1       1.232  -0.083  -4.798  0.00  0.00    -0.239 N 
ATOM     17  C   UNL d   1      -0.992  -1.159  -4.976  0.00  0.00     0.034 A 
ATOM     18  O   UNL d   1       1.972   0.342  -3.710  0.00  0.00    -0.156 OA
ATOM     19  HN  UNL d   1       1.494  -0.023  -5.782  1.00  0.00     0.197 HD
ATOM     20  C   UNL d   1      -2.031  -1.616  -4.147  0.00  0.00     0.004 A 
ATOM     21  C   UNL d   1      -1.997  -1.494  -2.735  0.00  0.00     0.028 A 
ATOM     22  HN  UNL d   1       1.642   0.345  -1.577  1.00  0.00     0.197 HD
ENDBRANCH   9  12
ENDBRANCH   7   9
ENDBRANCH   2   7
BRANCH   1  23
ATOM     23  C   UNL d   1       3.129  -1.826  -0.448  0.00  0.00     0.295 C 
ATOM     24  O   UNL d   1       4.082  -1.863  -1.212  0.00  0.00    -0.259 OA
BRANCH  23  25
ATOM     25  O   UNL d   1       2.904  -0.875   0.492  0.00  0.00    -0.318 OA
BRANCH  25  26
ATOM     26  C   UNL d   1       3.818   0.236   0.465  0.00  0.00     0.174 C 
ATOM     27  C   UNL d   1       5.107  -0.076   1.206  0.00  0.00     0.034 C 
ENDBRANCH  25  26
ENDBRANCH  23  25
ENDBRANCH   1  23
BRANCH   6  28
ATOM     28  O   UNL d   1      -0.555  -6.144  -0.670  0.00  0.00    -0.346 OA
BRANCH  28  29
ATOM     29  C   UNL d   1      -1.896  -6.026  -0.185  0.00  0.00     0.201 C 
BRANCH  29  30
ATOM     30  C   UNL d   1      -2.626  -7.361  -0.358  0.00  0.00     0.193 C 
BRANCH  30  31
ATOM     31  O   UNL d   1      -3.977  -7.220   0.089  0.00  0.00    -0.394 OA
ATOM     32  C   UNL d   1      -4.713  -8.430  -0.050  0.00  0.00     0.201 C 
ENDBRANCH  30  31
ENDBRANCH  29  30
ENDBRANCH  28  29
ENDBRANCH   6  28
BRANCH   5  33
ATOM     33  O   UNL d   1       1.954  -6.431  -1.555  0.00  0.00    -0.346 OA
BRANCH  33  34
ATOM     34  C   UNL d   1       3.277  -6.476  -2.102  0.00  0.00     0.201 C 
BRANCH  34  35
ATOM     35  C   UNL d   1       3.588  -7.790  -2.802  0.00  0.00     0.193 C 
BRANCH  35  36
ATOM     36  O   UNL d   1       4.936  -7.691  -3.272  0.00  0.00    -0.394 OA
ATOM     37  C   UNL d   1       5.371  -8.856  -3.949  0.00  0.00     0.201 C 
ENDBRANCH  35  36
ENDBRANCH  34  35
ENDBRANCH  33  34
ENDBRANCH   5  33
TORSDOF 14
