REMARK  2 active torsions:
REMARK  status: ('A' for Active; 'I' for Inactive)
REMARK    1  A    between atoms: C_12  and  C_3 
REMARK    2  A    between atoms: C_16  and  C_11 
ROOT
ATOM      1  N   UNL d   1       0.138  -0.439   0.062  0.00  0.00    -0.239 N 
ATOM      2  C   UNL d   1       0.406   0.889   0.129  0.00  0.00     0.175 A 
ATOM      3  C   UNL d   1       1.371  -1.058   0.022  0.00  0.00     0.141 A 
ATOM      4  C   UNL d   1      -1.194  -0.790   0.011  0.00  0.00     0.272 A 
ATOM      5  C   UNL d   1      -1.993   0.476   0.053  0.00  0.00     0.077 A 
ATOM      6  N   UNL d   1       2.293  -0.094   0.070  0.00  0.00    -0.282 N 
ATOM      7  HN  UNL d   1       3.302  -0.247   0.058  1.00  0.00     0.188 HD
ATOM      8  N   UNL d   1       1.681   1.135   0.139  0.00  0.00    -0.277 N 
ATOM      9  HN  UNL d   1       2.133   2.048   0.187  1.00  0.00     0.189 HD
ATOM     10  S   UNL d   1      -0.976   1.895   0.139  0.00  0.00    -0.046 SA
ATOM     11  C   UNL d   1      -3.334   0.477  -0.004  0.00  0.00     0.036 C 
ATOM     12  O   UNL d   1      -1.590  -1.938  -0.073  0.00  0.00    -0.266 OA
ENDROOT
BRANCH   3  13
ATOM     13  C   UNL d   1       1.718  -2.476  -0.121  0.00  0.00     0.010 A 
ATOM     14  C   UNL d   1       2.951  -2.789  -0.730  0.00  0.00     0.017 A 
ATOM     15  C   UNL d   1       3.381  -4.110  -0.879  0.00  0.00     0.025 A 
ATOM     16  C   UNL d   1       2.580  -5.145  -0.418  0.00  0.00     0.034 A 
ATOM     17  C   UNL d   1       1.365  -4.863   0.205  0.00  0.00     0.025 A 
ATOM     18 CL   UNL d   1       3.095  -6.775  -0.602  0.00  0.00    -0.084 Cl
ATOM     19  C   UNL d   1       0.942  -3.535   0.362  0.00  0.00     0.017 A 
ENDBRANCH   3  13
BRANCH  11  20
ATOM     20  C   UNL d   1      -4.133   1.708  -0.061  0.00  0.00    -0.035 A 
ATOM     21  C   UNL d   1      -4.452   2.260  -1.308  0.00  0.00     0.011 A 
ATOM     22  C   UNL d   1      -5.114   3.487  -1.386  0.00  0.00     0.001 A 
ATOM     23  C   UNL d   1      -5.465   4.165  -0.220  0.00  0.00     0.000 A 
ATOM     24  C   UNL d   1      -5.165   3.613   1.025  0.00  0.00     0.001 A 
ATOM     25  C   UNL d   1      -4.502   2.385   1.107  0.00  0.00     0.011 A 
ENDBRANCH  11  20
TORSDOF 2
