REMARK  7 active torsions:
REMARK  status: ('A' for Active; 'I' for Inactive)
REMARK    1  A    between atoms: C_14  and  N_9 
REMARK    2  A    between atoms: N_13  and  C_18 
REMARK    3  A    between atoms: C_16  and  N_13 
REMARK    4  A    between atoms: C_17  and  N_13 
REMARK    5  A    between atoms: C_18  and  C_14 
REMARK    6  A    between atoms: C_20  and  C_16 
REMARK    7  A    between atoms: C_19  and  C_17 
ROOT
ATOM      1  C   UNL d   1       0.895   3.486   0.123  0.00  0.00     0.293 C 
ENDROOT
BRANCH   1   2
ATOM      2  N   UNL d   1       1.462   4.832  -0.136  0.00  0.00     0.098 N 
BRANCH   2   3
ATOM      3  C   UNL d   1       2.110   4.918  -1.467  0.00  0.00     0.311 C 
BRANCH   3   4
ATOM      4  C   UNL d   1       2.693   6.289  -1.767  0.00  0.00    -0.030 A 
ATOM      5  C   UNL d   1       3.728   6.807  -0.975  0.00  0.00     0.009 A 
ATOM      6  C   UNL d   1       4.178   8.114  -1.164  0.00  0.00     0.001 A 
ATOM      7  C   UNL d   1       3.606   8.914  -2.152  0.00  0.00     0.000 A 
ATOM      8  C   UNL d   1       2.599   8.401  -2.967  0.00  0.00     0.001 A 
ATOM      9  C   UNL d   1       2.148   7.093  -2.781  0.00  0.00     0.009 A 
ENDBRANCH   3   4
ENDBRANCH   2   3
BRANCH   2  10
ATOM     10  C   UNL d   1       0.386   5.854  -0.043  0.00  0.00     0.311 C 
BRANCH  10  11
ATOM     11  C   UNL d   1      -0.323   5.911   1.292  0.00  0.00    -0.030 A 
ATOM     12  C   UNL d   1       0.371   6.284   2.452  0.00  0.00     0.009 A 
ATOM     13  C   UNL d   1      -0.294   6.356   3.676  0.00  0.00     0.001 A 
ATOM     14  C   UNL d   1      -1.653   6.056   3.753  0.00  0.00     0.000 A 
ATOM     15  C   UNL d   1      -2.349   5.678   2.606  0.00  0.00     0.001 A 
ATOM     16  C   UNL d   1      -1.689   5.606   1.381  0.00  0.00     0.009 A 
ENDBRANCH  10  11
ENDBRANCH   2  10
ENDBRANCH   1   2
BRANCH   1  17
ATOM     17  C   UNL d   1       1.873   2.301   0.106  0.00  0.00     0.160 C 
BRANCH  17  18
ATOM     18  N   UNL d   1       1.175   1.043   0.334  0.00  0.00    -0.334 N 
ATOM     19  C   UNL d   1       0.950   0.397   1.516  0.00  0.00     0.149 A 
ATOM     20  C   UNL d   1       0.291  -0.753   1.173  0.00  0.00     0.145 A 
ATOM     21  C   UNL d   1       1.273   0.715   2.864  0.00  0.00     0.280 A 
ATOM     22  N   UNL d   1      -0.081  -1.688   2.115  0.00  0.00    -0.288 N 
ATOM     23  N   UNL d   1       0.077  -0.832  -0.169  0.00  0.00    -0.336 N 
ATOM     24  C   UNL d   1       0.213  -1.442   3.454  0.00  0.00     0.330 A 
ATOM     25  C   UNL d   1      -0.702  -2.943   1.751  0.00  0.00     0.163 C 
ATOM     26  N   UNL d   1       0.838  -0.246   3.752  0.00  0.00    -0.273 N 
ATOM     27  O   UNL d   1      -0.047  -2.228   4.363  0.00  0.00    -0.246 OA
ATOM     28  H   UNL d   1       1.050  -0.088   4.724  0.00  0.00     0.173 HD
ATOM     29  C   UNL d   1       0.610   0.271  -0.652  0.00  0.00     0.185 A 
ATOM     30  HN  UNL d   1      -0.391  -1.577  -0.684  1.00  0.00     0.168 HD
ATOM     31  O   UNL d   1       1.877   1.715   3.228  0.00  0.00    -0.265 OA
ENDBRANCH  17  18
ENDBRANCH   1  17
TORSDOF 7
