REMARK  2 active torsions:
REMARK  status: ('A' for Active; 'I' for Inactive)
REMARK    1  A    between atoms: S_7  and  C_1 
REMARK    2  A    between atoms: C_9  and  S_7 
ROOT
ATOM      1  C   UNL d   1      -0.525  -1.817  -0.072  0.00  0.00     0.024 A 
ATOM      2  C   UNL d   1      -1.769  -1.326  -0.029  0.00  0.00     0.102 A 
ATOM      3  C   UNL d   1      -2.057   0.111  -0.031  0.00  0.00     0.289 A 
ATOM      4  C   UNL d   1       0.619  -0.891  -0.052  0.00  0.00     0.015 A 
ATOM      5  O   UNL d   1      -0.976   0.969  -0.086  0.00  0.00    -0.275 OA
ATOM      6  C   UNL d   1       0.345   0.480  -0.070  0.00  0.00     0.091 A 
ATOM      7  O   UNL d   1      -3.214   0.514   0.001  0.00  0.00    -0.260 OA
ATOM      8  C   UNL d   1       1.968  -1.272   0.001  0.00  0.00     0.015 A 
ATOM      9  C   UNL d   1       1.351   1.448  -0.053  0.00  0.00     0.038 A 
ATOM     10  C   UNL d   1       2.990  -0.312   0.026  0.00  0.00     0.001 A 
ATOM     11  C   UNL d   1       2.681   1.047  -0.005  0.00  0.00     0.003 A 
ENDROOT
BRANCH   1  12
ATOM     12  S   UNL d   1      -0.276  -3.535  -0.058  0.00  0.00    -0.089 SA
BRANCH  12  13
ATOM     13  C   UNL d   1      -0.150  -3.861  -1.810  0.00  0.00     0.005 A 
ATOM     14  C   UNL d   1       1.035  -4.406  -2.320  0.00  0.00     0.020 A 
ATOM     15  C   UNL d   1       1.141  -4.730  -3.676  0.00  0.00     0.025 A 
ATOM     16  C   UNL d   1       0.060  -4.514  -4.527  0.00  0.00     0.034 A 
ATOM     17  C   UNL d   1      -1.128  -3.978  -4.032  0.00  0.00     0.025 A 
ATOM     18 CL   UNL d   1       0.185  -4.926  -6.192  0.00  0.00    -0.084 Cl
ATOM     19  C   UNL d   1      -1.234  -3.659  -2.674  0.00  0.00     0.020 A 
ENDBRANCH  12  13
ENDBRANCH   1  12
TORSDOF 2
