REMARK  1 active torsions:
REMARK  status: ('A' for Active; 'I' for Inactive)
REMARK       I    between atoms: N_3  and  C_1 
REMARK       I    between atoms: N_4  and  C_1 
REMARK    1  A    between atoms: C_2  and  N_3 
ROOT
ATOM      1  C   UNL d   1       0.993  -0.084   0.158  0.00  0.00     0.322 C 
ATOM      2  N   UNL d   1       0.479   0.199  -1.087  0.00  0.00    -0.307 N 
ATOM      3  N   UNL d   1       0.174  -0.888   0.944  0.00  0.00    -0.334 N 
ATOM      4  O   UNL d   1       2.054   0.375   0.575  0.00  0.00    -0.247 OA
ATOM      5  C   UNL d   1      -0.972  -1.675   0.479  0.00  0.00     0.128 C 
ATOM      6  C   UNL d   1       0.541  -1.097   2.342  0.00  0.00     0.128 C 
ATOM      7  C   UNL d   1       0.816  -2.573   2.614  0.00  0.00     0.024 C 
ATOM      8  C   UNL d   1      -0.745  -3.165   0.731  0.00  0.00     0.024 C 
ATOM      9  C   UNL d   1      -0.385  -3.435   2.199  0.00  0.00    -0.015 C 
ATOM     10  C   UNL d   1      -0.094  -4.915   2.425  0.00  0.00     0.010 C 
ATOM     11  H   UNL d   1      -0.522   0.296  -1.103  0.00  0.00     0.170 HD
ENDROOT
BRANCH   2  12
ATOM     12  C   UNL d   1       1.160   1.000  -2.002  0.00  0.00     0.054 A 
ATOM     13  C   UNL d   1       0.507   2.042  -2.755  0.00  0.00     0.008 A 
ATOM     14  C   UNL d   1       1.407   2.693  -3.600  0.00  0.00     0.017 A 
ATOM     15  C   UNL d   1      -0.829   2.520  -2.705  0.00  0.00     0.015 A 
ATOM     16  C   UNL d   1       1.006   3.777  -4.405  0.00  0.00     0.020 A 
ATOM     17  S   UNL d   1       2.982   2.011  -3.485  0.00  0.00    -0.099 SA
ATOM     18  C   UNL d   1      -0.315   4.226  -4.329  0.00  0.00     0.001 A 
ATOM     19  C   UNL d   1      -1.224   3.610  -3.483  0.00  0.00     0.001 A 
ATOM     20  C   UNL d   1       2.507   0.899  -2.289  0.00  0.00     0.081 A 
ENDBRANCH   2  12
TORSDOF 1
