REMARK  11 active torsions:
REMARK  status: ('A' for Active; 'I' for Inactive)
REMARK    1  A    between atoms: C_3  and  N_15 
REMARK    2  A    between atoms: N_16  and  C_4 
REMARK    3  A    between atoms: N_15  and  C_22 
REMARK    4  A    between atoms: C_21  and  N_16 
REMARK    5  A    between atoms: C_24  and  C_21 
REMARK    6  A    between atoms: C_22  and  C_23 
REMARK    7  A    between atoms: C_23  and  C_28 
REMARK    8  A    between atoms: C_25  and  C_24 
REMARK    9  A    between atoms: C_26  and  C_25 
REMARK   10  A    between atoms: C_27  and  C_26 
REMARK   11  A    between atoms: C_28  and  C_27 
ROOT
ATOM      1  C   UNL d   1      -2.212   7.504   1.744  0.00  0.00     0.000 C 
ENDROOT
BRANCH   1   2
ATOM      2  C   UNL d   1      -2.458   6.029   1.470  0.00  0.00     0.002 C 
BRANCH   2   3
ATOM      3  C   UNL d   1      -1.173   5.336   1.018  0.00  0.00     0.020 C 
BRANCH   3   4
ATOM      4  C   UNL d   1      -1.470   3.872   0.746  0.00  0.00     0.119 C 
BRANCH   4   5
ATOM      5  N   UNL d   1      -0.284   3.149   0.341  0.00  0.00    -0.393 N 
ATOM      6  H   UNL d   1       0.600   3.658   0.342  0.00  0.00     0.159 HD
BRANCH   5   7
ATOM      7  C   UNL d   1      -0.234   1.813  -0.014  0.00  0.00     0.009 C 
ATOM      8  C   UNL d   1       0.901   1.226  -0.418  0.00  0.00     0.074 C 
ATOM      9  C   UNL d   1       0.946  -0.205  -0.800  0.00  0.00     0.151 C 
ATOM     10  O   UNL d   1       2.026  -0.709  -1.108  0.00  0.00    -0.293 OA
ATOM     11  C   UNL d   1      -0.324  -1.025  -0.737  0.00  0.00     0.092 C 
ATOM     12  C   UNL d   1      -1.591  -0.175  -0.905  0.00  0.00    -0.036 C 
ATOM     13  C   UNL d   1      -2.831  -1.021  -0.565  0.00  0.00     0.015 C 
ATOM     14  C   UNL d   1      -1.734   0.321  -2.360  0.00  0.00     0.015 C 
ATOM     15  C   UNL d   1      -1.528   1.019   0.065  0.00  0.00     0.066 C 
ENDBRANCH   5   7
ENDBRANCH   4   5
ENDBRANCH   3   4
ENDBRANCH   2   3
ENDBRANCH   1   2
BRANCH   1  16
ATOM     16  C   UNL d   1      -3.483   8.194   2.236  0.00  0.00     0.000 C 
BRANCH  16  17
ATOM     17  C   UNL d   1      -3.283   9.701   2.428  0.00  0.00     0.002 C 
BRANCH  17  18
ATOM     18  C   UNL d   1      -2.844  10.453   1.164  0.00  0.00     0.020 C 
BRANCH  18  19
ATOM     19  C   UNL d   1      -3.848  10.261   0.035  0.00  0.00     0.119 C 
BRANCH  19  20
ATOM     20  N   UNL d   1      -3.446  10.948  -1.177  0.00  0.00    -0.393 N 
ATOM     21  H   UNL d   1      -2.452  11.149  -1.276  0.00  0.00     0.159 HD
BRANCH  20  22
ATOM     22  C   UNL d   1      -4.180  10.970  -2.353  0.00  0.00     0.009 C 
ATOM     23  C   UNL d   1      -3.719  11.572  -3.463  0.00  0.00     0.074 C 
ATOM     24  C   UNL d   1      -4.526  11.638  -4.703  0.00  0.00     0.151 C 
ATOM     25  O   UNL d   1      -4.029  12.143  -5.712  0.00  0.00    -0.293 OA
ATOM     26  C   UNL d   1      -5.914  11.035  -4.721  0.00  0.00     0.092 C 
ATOM     27  C   UNL d   1      -6.551  10.944  -3.327  0.00  0.00    -0.036 C 
ATOM     28  C   UNL d   1      -5.547  10.301  -2.356  0.00  0.00     0.066 C 
ATOM     29  C   UNL d   1      -7.812  10.064  -3.396  0.00  0.00     0.015 C 
ATOM     30  C   UNL d   1      -6.967  12.338  -2.812  0.00  0.00     0.015 C 
ENDBRANCH  20  22
ENDBRANCH  19  20
ENDBRANCH  18  19
ENDBRANCH  17  18
ENDBRANCH  16  17
ENDBRANCH   1  16
TORSDOF 11
