REMARK  9 active torsions:
REMARK  status: ('A' for Active; 'I' for Inactive)
REMARK    1  A    between atoms: C_2  and  N_1 
REMARK    2  A    between atoms: C_3  and  O_12 
REMARK    3  A    between atoms: C_4  and  O_22 
REMARK       I    between atoms: N_10  and  C_4 
REMARK    4  A    between atoms: S_21  and  C_6 
REMARK    5  A    between atoms: C_19  and  N_10 
REMARK    6  A    between atoms: O_12  and  C_20 
REMARK    7  A    between atoms: C_28  and  S_21 
REMARK    8  A    between atoms: O_22  and  C_29 
REMARK    9  A    between atoms: C_29  and  C_28 
ROOT
ATOM      1  C   UNL d   1      -0.152  -0.856  -1.338  0.00  0.00     0.121 A 
ATOM      2  N   UNL d   1       3.095  -1.702  -4.851  0.00  0.00    -0.191 NA
ATOM      3  C   UNL d   1       0.482  -1.118  -0.116  0.00  0.00     0.033 A 
ATOM      4  C   UNL d   1       2.545  -1.546  -3.845  0.00  0.00     0.099 C 
ATOM      5  C   UNL d   1       0.513  -0.987  -2.573  0.00  0.00     0.060 A 
ATOM      6  C   UNL d   1       1.852  -1.367  -2.593  0.00  0.00     0.047 A 
ATOM      7  C   UNL d   1       1.839  -1.470  -0.155  0.00  0.00     0.022 A 
ATOM      8  C   UNL d   1       2.519  -1.590  -1.380  0.00  0.00     0.024 A 
ENDROOT
BRANCH   1   9
ATOM      9  N   UNL d   1      -1.534  -0.418  -1.376  0.00  0.00    -0.114 N 
ATOM     10  O   UNL d   1      -1.797   0.668  -0.841  0.00  0.00    -0.532 OA
ATOM     11  O   UNL d   1      -2.329  -1.127  -2.005  0.00  0.00    -0.532 OA
ENDBRANCH   1   9
BRANCH   3  12
ATOM     12  S   UNL d   1      -0.355  -1.228   1.463  0.00  0.00    -0.125 SA
BRANCH  12  13
ATOM     13  C   UNL d   1       0.025   0.421   2.147  0.00  0.00     0.106 C 
BRANCH  13  14
ATOM     14  C   UNL d   1      -0.583   0.590   3.539  0.00  0.00     0.191 C 
BRANCH  14  15
ATOM     15  O   UNL d   1      -0.033  -0.235   4.577  0.00  0.00    -0.303 OA
BRANCH  15  16
ATOM     16  C   UNL d   1       1.185   0.114   5.047  0.00  0.00     0.365 C 
ATOM     17  N   UNL d   1       1.332   0.048   6.410  0.00  0.00    -0.303 N 
ATOM     18  H   UNL d   1       2.261   0.334   6.692  0.00  0.00     0.171 HD
ATOM     19  O   UNL d   1       2.097   0.533   4.342  0.00  0.00    -0.238 OA
BRANCH  17  20
ATOM     20  C   UNL d   1       0.357  -0.031   7.427  0.00  0.00     0.037 A 
ATOM     21  C   UNL d   1      -0.985  -0.357   7.227  0.00  0.00     0.032 A 
ATOM     22  C   UNL d   1      -1.915  -0.288   8.277  0.00  0.00     0.039 A 
ATOM     23  C   UNL d   1      -1.506   0.060   9.558  0.00  0.00     0.078 A 
ATOM     24  C   UNL d   1      -0.159   0.367   9.768  0.00  0.00     0.039 A 
ATOM     25  C   UNL d   1       0.765   0.313   8.719  0.00  0.00     0.032 A 
BRANCH  23  26
ATOM     26  O   UNL d   1      -2.277   0.141  10.675  0.00  0.00    -0.255 OA
BRANCH  26  27
ATOM     27  C   UNL d   1      -3.587  -0.402  10.678  0.00  0.00     0.530 C 
ATOM     28  F   UNL d   1      -3.725  -1.472   9.869  0.00  0.00    -0.144 F 
ATOM     29  F   UNL d   1      -3.873  -0.805  11.937  0.00  0.00    -0.144 F 
ATOM     30  F   UNL d   1      -4.484   0.544  10.325  0.00  0.00    -0.144 F 
ENDBRANCH  26  27
ENDBRANCH  23  26
ENDBRANCH  17  20
ENDBRANCH  15  16
ENDBRANCH  14  15
ENDBRANCH  13  14
ENDBRANCH  12  13
ENDBRANCH   3  12
TORSDOF 9
