REMARK  3 active torsions:
REMARK  status: ('A' for Active; 'I' for Inactive)
REMARK    1  A    between atoms: C_10  and  N_1 
REMARK    2  A    between atoms: C_3  and  C_12 
REMARK       I    between atoms: N_6  and  C_3 
REMARK    3  A    between atoms: C_7  and  N_6 
ROOT
ATOM      1  C   UNL d   1      -1.851   2.052   4.482  0.00  0.00     0.252 C 
ATOM      2  N   UNL d   1      -3.235   2.163   4.418  0.00  0.00    -0.352 N 
ATOM      3  O   UNL d   1      -1.237   1.176   3.893  0.00  0.00    -0.268 OA
ATOM      4  H   UNL d   1      -3.651   3.043   4.689  0.00  0.00     0.163 HD
ENDROOT
BRANCH   1   5
ATOM      5  C   UNL d   1      -1.077   3.103   5.237  0.00  0.00     0.032 A 
ATOM      6  C   UNL d   1      -1.661   4.018   6.122  0.00  0.00     0.019 A 
ATOM      7  C   UNL d   1      -0.862   4.927   6.840  0.00  0.00     0.037 A 
ATOM      8  C   UNL d   1       0.533   4.926   6.668  0.00  0.00     0.102 A 
ATOM      9  C   UNL d   1       1.126   4.043   5.762  0.00  0.00     0.037 A 
ATOM     10  C   UNL d   1       0.321   3.143   5.053  0.00  0.00     0.019 A 
BRANCH   8  11
ATOM     11  N   UNL d   1       1.378   5.838   7.455  0.00  0.00    -0.116 N 
ATOM     12  O   UNL d   1       2.594   5.871   7.199  0.00  0.00    -0.532 OA
ATOM     13  O   UNL d   1       0.828   6.522   8.328  0.00  0.00    -0.532 OA
ENDBRANCH   8  11
ENDBRANCH   1   5
BRANCH   2  14
ATOM     14  C   UNL d   1      -3.949   1.564   3.271  0.00  0.00     0.088 C 
ATOM     15  C   UNL d   1      -5.501   1.602   3.422  0.00  0.00     0.061 C 
ATOM     16  C   UNL d   1      -6.122   2.978   3.058  0.00  0.00     0.225 C 
ATOM     17  C   UNL d   1      -6.462   3.251   1.571  0.00  0.00     0.038 C 
ATOM     18  N   UNL d   1      -5.032   3.924   3.329  0.00  0.00     0.093 N 
ATOM     19  C   UNL d   1      -5.221   3.909   0.964  0.00  0.00     0.038 C 
ATOM     20  C   UNL d   1      -4.212   3.802   2.094  0.00  0.00     0.225 C 
ATOM     21  C   UNL d   1      -3.587   2.370   2.017  0.00  0.00     0.061 C 
ATOM     22  C   UNL d   1      -5.530   5.239   3.690  0.00  0.00     0.310 C 
ENDBRANCH   2  14
TORSDOF 3
