REMARK  2 active torsions:
REMARK  status: ('A' for Active; 'I' for Inactive)
REMARK    1  A    between atoms: O_12  and  C_6 
REMARK    2  A    between atoms: C_13  and  O_12 
ROOT
ATOM      1  C   UNL d   1      -0.549   0.531   0.068  0.00  0.00     0.006 C 
ATOM      2  C   UNL d   1       1.800   2.439  -0.101  0.00  0.00    -0.013 C 
ATOM      3  C   UNL d   1      -1.807  -0.315  -0.357  0.00  0.00     0.024 C 
ATOM      4  C   UNL d   1       2.004   0.918  -0.412  0.00  0.00     0.001 C 
ATOM      5  C   UNL d   1       0.738   0.059  -0.660  0.00  0.00    -0.004 C 
ATOM      6  C   UNL d   1       2.904   2.762   0.962  0.00  0.00     0.140 C 
ATOM      7  C   UNL d   1       0.424   2.786   0.497  0.00  0.00     0.012 C 
ATOM      8  C   UNL d   1      -0.721   2.041  -0.164  0.00  0.00     0.007 C 
ATOM      9  C   UNL d   1      -3.031  -0.037   0.545  0.00  0.00     0.136 C 
ATOM     10  C   UNL d   1       3.016   0.430   0.631  0.00  0.00     0.008 C 
ATOM     11  C   UNL d   1       0.981  -1.439  -0.429  0.00  0.00     0.006 C 
ATOM     12  C   UNL d   1      -1.491  -1.823  -0.112  0.00  0.00     0.001 C 
ATOM     13  C   UNL d   1       3.923   1.643   0.801  0.00  0.00     0.034 C 
ATOM     14  C   UNL d   1      -0.223  -2.283  -0.837  0.00  0.00     0.006 C 
ATOM     15  O   UNL d   1      -3.040   0.814   1.432  0.00  0.00    -0.297 OA
ATOM     16  C   UNL d   1       1.996   3.239  -1.408  0.00  0.00     0.018 C 
ATOM     17  C   UNL d   1      -2.216   0.001  -1.814  0.00  0.00     0.024 C 
ATOM     18  C   UNL d   1      -4.263  -0.887   0.288  0.00  0.00     0.079 C 
ATOM     19  C   UNL d   1      -3.916  -2.364   0.385  0.00  0.00     0.008 C 
ATOM     20  C   UNL d   1      -2.683  -2.744  -0.436  0.00  0.00     0.006 C 
ENDROOT
BRANCH   6  21
ATOM     21  O   UNL d   1       3.501   4.046   0.787  0.00  0.00    -0.316 OA
BRANCH  21  22
ATOM     22  C   UNL d   1       2.935   5.051   1.514  0.00  0.00     0.255 C 
ATOM     23  O   UNL d   1       2.062   4.920   2.361  0.00  0.00    -0.266 OA
ATOM     24  C   UNL d   1       3.536   6.373   1.152  0.00  0.00     0.126 C 
ENDBRANCH  21  22
ENDBRANCH   6  21
TORSDOF 2
