REMARK  6 active torsions:
REMARK  status: ('A' for Active; 'I' for Inactive)
REMARK    1  A    between atoms: N_6  and  C_1 
REMARK    2  A    between atoms: C_8  and  C_2 
REMARK    3  A    between atoms: O_13  and  C_8 
REMARK    4  A    between atoms: C_10  and  C_9 
REMARK    5  A    between atoms: O_16  and  C_12 
REMARK    6  A    between atoms: C_20  and  O_13 
ROOT
ATOM      1  C   UNL d   1       2.262  -0.030   0.014  0.00  0.00     0.091 A 
ATOM      2  C   UNL d   1       1.389   1.073   0.017  0.00  0.00     0.080 A 
ATOM      3  S   UNL d   1       1.369  -1.532   0.140  0.00  0.00    -0.075 SA
ATOM      4  C   UNL d   1       0.035   0.630   0.075  0.00  0.00    -0.026 A 
ATOM      5  C   UNL d   1      -0.083  -0.725   0.118  0.00  0.00    -0.008 A 
ATOM      6  C   UNL d   1      -1.302   1.282   0.105  0.00  0.00     0.041 C 
ATOM      7  C   UNL d   1      -1.478  -1.214   0.166  0.00  0.00     0.047 C 
ATOM      8  C   UNL d   1      -2.257   0.086  -0.197  0.00  0.00     0.010 C 
ENDROOT
BRANCH   1   9
ATOM      9  N   UNL d   1       3.628  -0.009   0.011  0.00  0.00    -0.359 N 
ATOM     10  C   UNL d   1       4.281  -0.927  -0.626  0.00  0.00     0.103 C 
ATOM     11  HN  UNL d   1       4.130   0.727   0.508  1.00  0.00     0.166 HD
BRANCH  10  12
ATOM     12  C   UNL d   1       5.760  -0.915  -0.652  0.00  0.00     0.012 A 
ATOM     13  C   UNL d   1       6.505   0.129  -0.091  0.00  0.00     0.077 A 
ATOM     14  C   UNL d   1       7.896   0.095  -0.127  0.00  0.00     0.037 A 
ATOM     15  C   UNL d   1       8.552  -0.978  -0.732  0.00  0.00     0.003 A 
ATOM     16  C   UNL d   1       7.814  -2.018  -1.300  0.00  0.00     0.001 A 
ATOM     17  C   UNL d   1       6.418  -1.990  -1.261  0.00  0.00     0.015 A 
BRANCH  13  18
ATOM     18  O   UNL d   1       5.937   1.224   0.503  0.00  0.00    -0.360 OA
ATOM     19  H   UNL d   1       4.960   1.114   0.458  0.00  0.00     0.217 HD
ENDBRANCH  13  18
ENDBRANCH  10  12
ENDBRANCH   1   9
BRANCH   2  20
ATOM     20  C   UNL d   1       1.789   2.476  -0.072  0.00  0.00     0.296 C 
ATOM     21  O   UNL d   1       0.972   3.394  -0.135  0.00  0.00    -0.259 OA
BRANCH  20  22
ATOM     22  O   UNL d   1       3.137   2.660  -0.166  0.00  0.00    -0.318 OA
BRANCH  22  23
ATOM     23  C   UNL d   1       3.562   3.904  -0.735  0.00  0.00     0.174 C 
ATOM     24  C   UNL d   1       3.592   3.738  -2.245  0.00  0.00     0.034 C 
ENDBRANCH  22  23
ENDBRANCH  20  22
ENDBRANCH   2  20
TORSDOF 6
