REMARK  6 active torsions:
REMARK  status: ('A' for Active; 'I' for Inactive)
REMARK    1  A    between atoms: S_10  and  C_2 
REMARK    2  A    between atoms: C_9  and  C_13 
REMARK       I    between atoms: N_11  and  C_9 
REMARK    3  A    between atoms: C_13  and  S_10 
REMARK    4  A    between atoms: C_14  and  N_11 
REMARK    5  A    between atoms: C_15  and  C_14 
REMARK    6  A    between atoms: O_21  and  C_16 
ROOT
ATOM      1  C   UNL d   1       4.933   3.760   0.015  0.00  0.00     0.227 C 
ATOM      2  N   UNL d   1       6.098   3.041  -0.129  0.00  0.00    -0.356 N 
ATOM      3  O   UNL d   1       3.846   3.210   0.199  0.00  0.00    -0.273 OA
ATOM      4  H   UNL d   1       6.979   3.541  -0.122  0.00  0.00     0.162 HD
ENDROOT
BRANCH   1   5
ATOM      5  C   UNL d   1       5.045   5.282   0.006  0.00  0.00     0.184 C 
BRANCH   5   6
ATOM      6  S   UNL d   1       6.537   5.875  -0.838  0.00  0.00    -0.096 SA
BRANCH   6   7
ATOM      7  C   UNL d   1       6.281   7.609  -0.845  0.00  0.00     0.115 A 
ATOM      8  S   UNL d   1       7.415   8.657  -1.598  0.00  0.00    -0.045 SA
ATOM      9  C   UNL d   1       6.444   9.984  -1.170  0.00  0.00     0.103 A 
ATOM     10  C   UNL d   1       5.316   9.552  -0.476  0.00  0.00     0.067 A 
ATOM     11  N   UNL d   1       6.771  11.254  -1.488  0.00  0.00    -0.358 N 
ATOM     12  C   UNL d   1       4.412  10.543  -0.056  0.00  0.00     0.034 A 
ATOM     13  N   UNL d   1       5.235   8.179  -0.288  0.00  0.00    -0.343 N 
ATOM     14  C   UNL d   1       4.704  11.874  -0.363  0.00  0.00     0.019 A 
ATOM     15  C   UNL d   1       5.867  12.162  -1.062  0.00  0.00     0.089 A 
ATOM     16  HN  UNL d   1       4.485   7.691   0.202  1.00  0.00     0.167 HD
ATOM     17  HN  UNL d   1       7.617  11.503  -2.000  1.00  0.00     0.166 HD
ENDBRANCH   6   7
ENDBRANCH   5   6
ENDBRANCH   1   5
BRANCH   2  18
ATOM     18  C   UNL d   1       6.117   1.596  -0.058  0.00  0.00     0.161 C 
BRANCH  18  19
ATOM     19  C   UNL d   1       7.278   0.971  -0.796  0.00  0.00    -0.040 A 
ATOM     20  C   UNL d   1       7.811  -0.247  -0.345  0.00  0.00     0.011 A 
ATOM     21  C   UNL d   1       8.838  -0.893  -1.047  0.00  0.00     0.037 A 
ATOM     22  C   UNL d   1       9.347  -0.334  -2.217  0.00  0.00     0.068 A 
ATOM     23  C   UNL d   1       8.816   0.873  -2.677  0.00  0.00     0.037 A 
ATOM     24  C   UNL d   1       7.784   1.514  -1.984  0.00  0.00     0.011 A 
BRANCH  22  25
ATOM     25  O   UNL d   1      10.341  -0.857  -2.997  0.00  0.00    -0.356 OA
ATOM     26  C   UNL d   1      10.866  -2.120  -2.613  0.00  0.00     0.210 C 
ENDBRANCH  22  25
ENDBRANCH  18  19
ENDBRANCH   2  18
TORSDOF 6
