REMARK  6 active torsions:
REMARK  status: ('A' for Active; 'I' for Inactive)
REMARK    1  A    between atoms: C_8  and  C_3 
REMARK    2  A    between atoms: C_11  and  C_4 
REMARK    3  A    between atoms: C_17  and  C_11 
REMARK    4  A    between atoms: O_15  and  C_12 
REMARK    5  A    between atoms: C_23  and  O_15 
REMARK    6  A    between atoms: C_24  and  C_23 
ROOT
ATOM      1  C   UNL d   1      -4.429   1.569   1.163  0.00  0.00     0.068 A 
ATOM      2  C   UNL d   1      -5.221   2.021   0.097  0.00  0.00     0.090 A 
ATOM      3  C   UNL d   1      -3.036   1.723   1.134  0.00  0.00     0.034 A 
ATOM      4  C   UNL d   1      -2.405   2.306   0.027  0.00  0.00    -0.052 A 
ATOM      5  C   UNL d   1      -4.585   2.589  -1.013  0.00  0.00     0.039 A 
ATOM      6 CL   UNL d   1      -5.134   0.808   2.546  0.00  0.00    -0.081 Cl
ATOM      7  C   UNL d   1      -3.195   2.742  -1.043  0.00  0.00     0.010 A 
ENDROOT
BRANCH   4   8
ATOM      8  C   UNL d   1      -0.902   2.440  -0.034  0.00  0.00     0.083 C 
BRANCH   8   9
ATOM      9  C   UNL d   1      -0.382   3.767   0.441  0.00  0.00     0.018 A 
ATOM     10  C   UNL d   1       0.034   3.890   1.858  0.00  0.00     0.266 A 
ATOM     11  N   UNL d   1       0.524   5.114   2.239  0.00  0.00    -0.266 N 
ATOM     12  O   UNL d   1      -0.052   2.948   2.641  0.00  0.00    -0.266 OA
ATOM     13  N   UNL d   1       0.711   6.199   1.426  0.00  0.00    -0.297 N 
ATOM     14  H   UNL d   1       0.827   5.214   3.203  0.00  0.00     0.190 HD
ATOM     15  C   UNL d   1       0.390   6.067   0.168  0.00  0.00     0.066 A 
ATOM     16  HN  UNL d   1       1.087   7.075   1.788  1.00  0.00     0.187 HD
ATOM     17  C   UNL d   1      -0.201   4.815  -0.374  0.00  0.00     0.045 A 
BRANCH  15  18
ATOM     18  C   UNL d   1       0.611   7.199  -0.720  0.00  0.00     0.033 A 
ATOM     19  S   UNL d   1       0.914   6.983  -2.397  0.00  0.00    -0.100 SA
ATOM     20  C   UNL d   1       1.052   8.661  -2.670  0.00  0.00     0.050 A 
ATOM     21  C   UNL d   1       0.895   9.385  -1.510  0.00  0.00     0.008 A 
ATOM     22  C   UNL d   1       0.664   8.541  -0.385  0.00  0.00     0.021 A 
ENDBRANCH  15  18
ENDBRANCH   8   9
ENDBRANCH   4   8
BRANCH   2  23
ATOM     23  O   UNL d   1      -6.586   1.873   0.199  0.00  0.00    -0.345 OA
BRANCH  23  24
ATOM     24  C   UNL d   1      -7.356   2.701  -0.675  0.00  0.00     0.214 C 
BRANCH  24  25
ATOM     25  C   UNL d   1      -8.809   2.782  -0.267  0.00  0.00    -0.034 A 
ATOM     26  C   UNL d   1      -9.487   4.005  -0.400  0.00  0.00     0.009 A 
ATOM     27  C   UNL d   1     -10.848   4.102  -0.115  0.00  0.00     0.001 A 
ATOM     28  C   UNL d   1     -11.550   2.974   0.299  0.00  0.00     0.000 A 
ATOM     29  C   UNL d   1     -10.890   1.752   0.432  0.00  0.00     0.001 A 
ATOM     30  C   UNL d   1      -9.526   1.653   0.148  0.00  0.00     0.009 A 
ENDBRANCH  24  25
ENDBRANCH  23  24
ENDBRANCH   2  23
TORSDOF 6
