REMARK  5 active torsions:
REMARK  status: ('A' for Active; 'I' for Inactive)
REMARK    1  A    between atoms: C_5  and  C_2 
REMARK    2  A    between atoms: C_6  and  C_3 
REMARK    3  A    between atoms: C_4  and  C_9 
REMARK    4  A    between atoms: O_11  and  C_5 
REMARK    5  A    between atoms: C_15  and  O_11 
ROOT
ATOM      1  C   UNL d   1      -0.110   2.701  -0.327  0.00  0.00     0.305 C 
ATOM      2  O   UNL d   1       0.666   3.635  -0.485  0.00  0.00    -0.258 OA
ENDROOT
BRANCH   1   3
ATOM      3  C   UNL d   1       0.288   1.300  -0.286  0.00  0.00     0.081 A 
ATOM      4  S   UNL d   1      -0.810   0.023   0.020  0.00  0.00    -0.083 SA
ATOM      5  C   UNL d   1       0.425  -1.175   0.033  0.00  0.00     0.023 A 
ATOM      6  C   UNL d   1       1.646  -0.602  -0.276  0.00  0.00     0.022 A 
ATOM      7  C   UNL d   1       1.570   0.812  -0.450  0.00  0.00     0.026 A 
BRANCH   5   8
ATOM      8  C   UNL d   1       0.149  -2.563   0.359  0.00  0.00     0.021 A 
ATOM      9  S   UNL d   1       1.425  -3.697   0.599  0.00  0.00    -0.101 SA
ATOM     10  C   UNL d   1       0.346  -4.957   0.996  0.00  0.00     0.050 A 
ATOM     11  C   UNL d   1      -0.965  -4.550   0.928  0.00  0.00     0.008 A 
ATOM     12  C   UNL d   1      -1.078  -3.177   0.553  0.00  0.00     0.021 A 
ENDBRANCH   5   8
ENDBRANCH   1   3
BRANCH   1  13
ATOM     13  O   UNL d   1      -1.489   2.837  -0.142  0.00  0.00    -0.275 OA
BRANCH  13  14
ATOM     14  C   UNL d   1      -2.091   4.092   0.098  0.00  0.00     0.080 A 
ATOM     15  C   UNL d   1      -1.504   5.071   0.901  0.00  0.00     0.053 A 
ATOM     16  C   UNL d   1      -2.222   6.236   1.218  0.00  0.00     0.050 A 
ATOM     17  C   UNL d   1      -3.523   6.395   0.714  0.00  0.00     0.016 A 
ATOM     18  C   UNL d   1      -4.101   5.411  -0.089  0.00  0.00     0.004 A 
ATOM     19  C   UNL d   1      -3.387   4.253  -0.392  0.00  0.00     0.037 A 
BRANCH  16  20
ATOM     20  C   UNL d   1      -1.635   7.291   2.125  0.00  0.00     0.417 C 
ATOM     21  F   UNL d   1      -0.354   7.036   2.509  0.00  0.00    -0.166 F 
ATOM     22  F   UNL d   1      -1.615   8.525   1.550  0.00  0.00    -0.166 F 
ATOM     23  F   UNL d   1      -2.347   7.430   3.278  0.00  0.00    -0.166 F 
ENDBRANCH  16  20
ENDBRANCH  13  14
ENDBRANCH   1  13
TORSDOF 5
