REMARK  3 active torsions:
REMARK  status: ('A' for Active; 'I' for Inactive)
REMARK    1  A    between atoms: C_5  and  C_4 
REMARK    2  A    between atoms: C_11  and  N_6 
REMARK    3  A    between atoms: C_10  and  C_12 
ROOT
ATOM      1  C   UNL d   1      -3.199   1.169  -1.125  0.00  0.00     0.040 A 
ATOM      2  N   UNL d   1      -2.690   2.108  -2.031  0.00  0.00    -0.322 N 
ATOM      3  C   UNL d   1      -3.570   3.182  -2.031  0.00  0.00     0.097 A 
ATOM      4  C   UNL d   1      -4.430   1.620  -0.680  0.00  0.00     0.031 A 
ATOM      5  C   UNL d   1      -4.655   2.891  -1.239  0.00  0.00     0.020 A 
ENDROOT
BRANCH   1   6
ATOM      6  C   UNL d   1      -2.482   0.009  -0.728  0.00  0.00     0.054 C 
ATOM      7  C   UNL d   1      -1.568  -0.012   0.264  0.00  0.00     0.116 C 
ATOM      8  C   UNL d   1      -1.207   1.145   1.099  0.00  0.00     0.302 C 
ATOM      9  C   UNL d   1      -0.890  -1.297   0.492  0.00  0.00     0.302 C 
ATOM     10  O   UNL d   1       0.033   1.100   1.629  0.00  0.00    -0.280 OA
ATOM     11  O   UNL d   1      -1.955   2.080   1.345  0.00  0.00    -0.259 OA
ATOM     12  C   UNL d   1       0.918   0.048   1.256  0.00  0.00     0.175 C 
ATOM     13  O   UNL d   1       0.274  -1.222   1.170  0.00  0.00    -0.280 OA
ATOM     14  C   UNL d   1       1.630   0.378  -0.058  0.00  0.00     0.080 C 
ATOM     15  C   UNL d   1       1.952  -0.056   2.378  0.00  0.00     0.080 C 
ATOM     16  O   UNL d   1      -1.329  -2.370   0.096  0.00  0.00    -0.259 OA
ENDBRANCH   1   6
BRANCH   2  17
ATOM     17  C   UNL d   1      -1.522   2.037  -2.856  0.00  0.00     0.039 A 
ATOM     18  C   UNL d   1      -1.041   0.809  -3.329  0.00  0.00     0.031 A 
ATOM     19  C   UNL d   1       0.066   0.761  -4.184  0.00  0.00     0.018 A 
ATOM     20  C   UNL d   1       0.712   1.936  -4.588  0.00  0.00     0.048 A 
ATOM     21  C   UNL d   1       0.234   3.164  -4.110  0.00  0.00     0.018 A 
ATOM     22  C   UNL d   1      -0.876   3.216  -3.258  0.00  0.00     0.031 A 
BRANCH  20  23
ATOM     23  C   UNL d   1       1.887   1.897  -5.536  0.00  0.00     0.417 C 
ATOM     24  F   UNL d   1       2.215   0.639  -5.943  0.00  0.00    -0.166 F 
ATOM     25  F   UNL d   1       1.663   2.610  -6.674  0.00  0.00    -0.166 F 
ATOM     26  F   UNL d   1       3.018   2.416  -4.984  0.00  0.00    -0.166 F 
ENDBRANCH  20  23
ENDBRANCH   2  17
TORSDOF 3
