REMARK  3 active torsions:
REMARK  status: ('A' for Active; 'I' for Inactive)
REMARK    1  A    between atoms: C_2  and  S_1 
REMARK    2  A    between atoms: C_6  and  S_1 
REMARK    3  A    between atoms: C_5  and  C_3 
ROOT
ATOM      1  C   UNL d   1       0.420  -1.678  -0.402  0.00  0.00     0.140 C 
ATOM      2  C   UNL d   1      -0.368  -2.203   0.555  0.00  0.00     0.049 C 
ATOM      3  C   UNL d   1       1.049  -0.412  -0.293  0.00  0.00     0.111 C 
ATOM      4  N   UNL d   1       1.524   0.641  -0.181  0.00  0.00    -0.191 NA
ENDROOT
BRANCH   1   5
ATOM      5  S   UNL d   1       0.786  -2.626  -1.819  0.00  0.00     0.193 S 
ATOM      6  O   UNL d   1       0.506  -4.024  -1.528  0.00  0.00    -0.221 OA
ATOM      7  O   UNL d   1       2.116  -2.269  -2.283  0.00  0.00    -0.221 OA
BRANCH   5   8
ATOM      8  C   UNL d   1      -0.404  -2.091  -3.098  0.00  0.00     0.058 C 
ATOM      9  C   UNL d   1      -0.296  -0.585  -3.373  0.00  0.00     0.031 C 
ATOM     10  C   UNL d   1      -0.066  -2.847  -4.399  0.00  0.00     0.031 C 
ATOM     11  C   UNL d   1      -1.839  -2.442  -2.682  0.00  0.00     0.031 C 
ENDBRANCH   5   8
ENDBRANCH   1   5
BRANCH   2  12
ATOM     12  C   UNL d   1      -0.693  -1.513   1.811  0.00  0.00     0.005 A 
ATOM     13  C   UNL d   1      -1.782  -0.634   1.886  0.00  0.00     0.129 A 
ATOM     14  C   UNL d   1      -2.075   0.055   3.057  0.00  0.00     0.085 A 
ATOM     15  F   UNL d   1      -2.558  -0.442   0.808  0.00  0.00    -0.205 F 
ATOM     16  C   UNL d   1      -1.265  -0.138   4.168  0.00  0.00     0.119 A 
ATOM     17  C   UNL d   1      -0.180  -1.008   4.124  0.00  0.00     0.043 A 
ATOM     18  F   UNL d   1      -1.530   0.525   5.301  0.00  0.00    -0.206 F 
ATOM     19  C   UNL d   1       0.110  -1.699   2.944  0.00  0.00     0.017 A 
ENDBRANCH   2  12
TORSDOF 3
