REMARK  9 active torsions:
REMARK  status: ('A' for Active; 'I' for Inactive)
REMARK    1  A    between atoms: C1*_3  and  N_1 
REMARK    2  A    between atoms: N_18  and  C_2 
REMARK    3  A    between atoms: C2*_8  and  O2*_25 
REMARK    4  A    between atoms: C3*_10  and  O3*_27 
REMARK    5  A    between atoms: C4*_11  and  C5*_30 
REMARK    6  A    between atoms: C_12  and  C_24 
REMARK    7  A    between atoms: N_26  and  C_15 
REMARK    8  A    between atoms: N_19  and  N_18 
REMARK    9  A    between atoms: O5*_31  and  C5*_30 
ROOT
ATOM      1  N   UNL d   1       1.580   1.133  -0.128  0.00  0.00    -0.134 N 
ATOM      2  C   UNL d   1       2.395   0.025  -0.003  0.00  0.00     0.703 C 
ATOM      3  C   UNL d   1       0.284   0.698   0.011  0.00  0.00     0.158 A 
ATOM      4  N   UNL d   1       1.677  -1.082   0.032  0.00  0.00    -0.182 N 
ATOM      5  HN  UNL d   1       2.026  -2.040   0.053  1.00  0.00     0.184 HD
ATOM      6  C   UNL d   1       0.370  -0.680   0.035  0.00  0.00     0.137 A 
ATOM      7  N   UNL d   1      -0.834   1.440   0.057  0.00  0.00    -0.336 N 
ATOM      8  HN  UNL d   1      -0.852   2.460   0.043  1.00  0.00     0.168 HD
ATOM      9  C   UNL d   1      -0.840  -1.391   0.058  0.00  0.00     0.131 A 
ATOM     10  N   UNL d   1      -1.996  -0.693   0.125  0.00  0.00    -0.337 N 
ATOM     11  HN  UNL d   1      -2.895  -1.173   0.172  1.00  0.00     0.168 HD
ATOM     12  C   UNL d   1      -1.929   0.655   0.127  0.00  0.00     0.183 A 
ENDROOT
BRANCH   2  13
ATOM     13  N   UNL d   1       3.748   0.129   0.038  0.00  0.00    -0.132 N 
ATOM     14  H   UNL d   1       4.164   1.056  -0.098  0.00  0.00     0.205 HD
BRANCH  13  15
ATOM     15  N   UNL d   1       4.519  -0.957  -0.238  0.00  0.00    -0.297 N 
ATOM     16  C   UNL d   1       5.785  -0.734  -0.372  0.00  0.00     0.122 C 
ATOM     17  HN  UNL d   1       4.121  -1.891  -0.334  1.00  0.00     0.186 HD
BRANCH  16  18
ATOM     18  C   UNL d   1       6.699  -1.819  -0.768  0.00  0.00     0.024 A 
ATOM     19  C   UNL d   1       6.360  -2.724  -1.787  0.00  0.00     0.047 A 
ATOM     20 CL   UNL d   1       4.938  -2.580  -2.764  0.00  0.00    -0.083 Cl
ATOM     21  C   UNL d   1       7.230  -3.771  -2.115  0.00  0.00     0.025 A 
ATOM     22  C   UNL d   1       8.444  -3.913  -1.448  0.00  0.00     0.003 A 
ATOM     23  C   UNL d   1       8.801  -3.000  -0.457  0.00  0.00     0.025 A 
ATOM     24  C   UNL d   1       7.934  -1.952  -0.119  0.00  0.00     0.047 A 
ATOM     25 CL   UNL d   1       8.452  -0.877   1.133  0.00  0.00    -0.083 Cl
ENDBRANCH  16  18
ENDBRANCH  13  15
ENDBRANCH   2  13
BRANCH   1  26
ATOM     26  C1* UNL d   1       1.941   2.522  -0.361  0.00  0.00     0.279 C 
ATOM     27  C2* UNL d   1       1.212   3.206  -1.528  0.00  0.00     0.199 C 
ATOM     28  C3* UNL d   1       2.082   2.833  -2.716  0.00  0.00     0.182 C 
ATOM     29  C4* UNL d   1       3.480   2.904  -2.117  0.00  0.00     0.179 C 
ATOM     30  O4* UNL d   1       3.354   2.625  -0.698  0.00  0.00    -0.353 OA
BRANCH  27  31
ATOM     31  O2* UNL d   1       1.212   4.646  -1.404  0.00  0.00    -0.388 OA
ATOM     32  H2* UNL d   1       2.012   4.919  -0.918  0.00  0.00     0.210 HD
ENDBRANCH  27  31
BRANCH  28  33
ATOM     33  O3* UNL d   1       1.928   3.738  -3.803  0.00  0.00    -0.390 OA
ATOM     34  H3* UNL d   1       1.450   4.517  -3.450  0.00  0.00     0.210 HD
ENDBRANCH  28  33
BRANCH  29  35
ATOM     35  C5* UNL d   1       4.446   1.922  -2.787  0.00  0.00     0.198 C 
BRANCH  35  36
ATOM     36  O5* UNL d   1       5.729   1.981  -2.160  0.00  0.00    -0.398 OA
ATOM     37  H5* UNL d   1       6.072   2.883  -2.278  0.00  0.00     0.209 HD
ENDBRANCH  35  36
ENDBRANCH  29  35
ENDBRANCH   1  26
BRANCH   9  38
ATOM     38  N   UNL d   1      -0.902  -2.777   0.017  0.00  0.00    -0.383 N 
ATOM     39  H   UNL d   1      -0.029  -3.227   0.275  0.00  0.00     0.157 HD
ATOM     40  H   UNL d   1      -1.762  -3.145   0.397  0.00  0.00     0.157 HD
ENDBRANCH   9  38
TORSDOF 9
