REMARK  5 active torsions:
REMARK  status: ('A' for Active; 'I' for Inactive)
REMARK    1  A    between atoms: C_2  and  S_1 
REMARK    2  A    between atoms: N_7  and  S_1 
REMARK       I    between atoms: C_5  and  N_4 
REMARK    3  A    between atoms: O_19  and  C_5 
REMARK    4  A    between atoms: C_15  and  N_7 
REMARK    5  A    between atoms: C_20  and  O_19 
ROOT
ATOM      1  N   UNL d   1      -1.331  -0.976  -4.214  0.00  0.00    -0.328 N 
ATOM      2  C   UNL d   1      -2.259  -0.751  -5.221  0.00  0.00     0.362 C 
ATOM      3  C   UNL d   1      -0.810   0.189  -3.523  0.00  0.00     0.130 C 
ATOM      4  C   UNL d   1      -1.217  -2.252  -3.512  0.00  0.00     0.130 C 
ATOM      5  O   UNL d   1      -2.506   0.358  -5.674  0.00  0.00    -0.238 OA
ATOM      6  C   UNL d   1       0.814  -1.279  -2.284  0.00  0.00     0.096 C 
ATOM      7  C   UNL d   1       0.638  -0.023  -3.130  0.00  0.00     0.045 C 
ATOM      8  C   UNL d   1       0.198  -2.497  -2.988  0.00  0.00     0.045 C 
ENDROOT
BRANCH   6   9
ATOM      9  N   UNL d   1       0.252  -1.152  -0.923  0.00  0.00    -0.310 N 
ATOM     10  H   UNL d   1      -0.735  -1.353  -0.775  0.00  0.00     0.172 HD
BRANCH   9  11
ATOM     11  S   UNL d   1       0.868  -0.009   0.150  0.00  0.00     0.265 S 
ATOM     12  O   UNL d   1       0.583  -0.483   1.484  0.00  0.00    -0.200 OA
ATOM     13  O   UNL d   1       2.200   0.362  -0.265  0.00  0.00    -0.200 OA
BRANCH  11  14
ATOM     14  C   UNL d   1      -0.101   1.476  -0.016  0.00  0.00     0.121 A 
ATOM     15  S   UNL d   1      -1.772   1.332   0.354  0.00  0.00    -0.064 SA
ATOM     16  C   UNL d   1      -2.028   2.980   0.070  0.00  0.00     0.075 A 
ATOM     17 CL   UNL d   1      -3.592   3.651   0.294  0.00  0.00    -0.076 Cl
ATOM     18  C   UNL d   1      -0.902   3.650  -0.331  0.00  0.00     0.033 A 
ATOM     19  C   UNL d   1       0.224   2.771  -0.386  0.00  0.00     0.035 A 
ENDBRANCH  11  14
ENDBRANCH   9  11
ENDBRANCH   6   9
BRANCH   2  20
ATOM     20  O   UNL d   1      -2.900  -1.886  -5.608  0.00  0.00    -0.304 OA
BRANCH  20  21
ATOM     21  C   UNL d   1      -4.051  -1.669  -6.437  0.00  0.00     0.176 C 
ATOM     22  C   UNL d   1      -5.244  -1.379  -5.542  0.00  0.00     0.034 C 
ENDBRANCH  20  21
ENDBRANCH   2  20
TORSDOF 5
