REMARK  3 active torsions:
REMARK  status: ('A' for Active; 'I' for Inactive)
REMARK    1  A    between atoms: N_7  and  N_1 
REMARK    2  A    between atoms: C_11  and  C_2 
REMARK    3  A    between atoms: C_16  and  C_10 
ROOT
ATOM      1  N   UNL d   1       0.935  -0.734  -0.086  0.00  0.00    -0.211 N 
ATOM      2  C   UNL d   1       0.936   0.640  -0.032  0.00  0.00     0.154 A 
ATOM      3  C   UNL d   1      -0.399  -1.100   0.035  0.00  0.00     0.214 A 
ATOM      4  N   UNL d   1      -0.259   1.169   0.028  0.00  0.00    -0.281 N 
ATOM      5  HN  UNL d   1      -0.501   2.159   0.066  1.00  0.00     0.188 HD
ATOM      6  N   UNL d   1      -1.111   0.100   0.028  0.00  0.00    -0.273 N 
ATOM      7  S   UNL d   1      -1.143  -2.573   0.226  0.00  0.00    -0.037 SA
ATOM      8  H   UNL d   1      -2.109   0.209   0.161  0.00  0.00     0.189 HD
ENDROOT
BRANCH   1   9
ATOM      9  N   UNL d   1       2.055  -1.495   0.081  0.00  0.00    -0.300 N 
ATOM     10  C   UNL d   1       2.110  -2.636  -0.525  0.00  0.00     0.120 C 
ATOM     11  HN  UNL d   1       2.826  -1.174   0.666  1.00  0.00     0.186 HD
BRANCH  10  12
ATOM     12  C   UNL d   1       3.300  -3.497  -0.418  0.00  0.00    -0.004 A 
ATOM     13  C   UNL d   1       3.322  -4.714  -1.081  0.00  0.00     0.100 A 
ATOM     14  N   UNL d   1       4.392  -5.545  -1.084  0.00  0.00    -0.374 N 
ATOM     15  C   UNL d   1       5.480  -5.138  -0.392  0.00  0.00     0.087 A 
ATOM     16  HN  UNL d   1       4.378  -6.434  -1.584  1.00  0.00     0.164 HD
ATOM     17  C   UNL d   1       5.547  -3.941   0.307  0.00  0.00     0.018 A 
ATOM     18  C   UNL d   1       4.433  -3.106   0.294  0.00  0.00     0.015 A 
ENDBRANCH  10  12
ENDBRANCH   1   9
BRANCH   2  19
ATOM     19  C   UNL d   1       2.171   1.457  -0.038  0.00  0.00     0.014 A 
ATOM     20  C   UNL d   1       3.345   1.042  -0.663  0.00  0.00     0.032 A 
ATOM     21  C   UNL d   1       4.441   1.885  -0.624  0.00  0.00     0.088 A 
ATOM     22  N   UNL d   1       4.434   3.097  -0.030  0.00  0.00    -0.375 N 
ATOM     23  C   UNL d   1       3.278   3.488   0.546  0.00  0.00     0.088 A 
ATOM     24  HN  UNL d   1       5.264   3.689  -0.017  1.00  0.00     0.164 HD
ATOM     25  C   UNL d   1       2.131   2.715   0.566  0.00  0.00     0.032 A 
ENDBRANCH   2  19
TORSDOF 3
