REMARK  2 active torsions:
REMARK  status: ('A' for Active; 'I' for Inactive)
REMARK    1  A    between atoms: N_11  and  N_2 
REMARK    2  A    between atoms: C_14  and  N_11 
ROOT
ATOM      1  N   UNL d   1      -0.360   8.054   0.046  0.00  0.00    -0.191 NA
ATOM      2  C   UNL d   1      -1.191   7.250   0.151  0.00  0.00     0.099 C 
ATOM      3  C   UNL d   1      -2.219   6.262   0.283  0.00  0.00     0.046 A 
ATOM      4  C   UNL d   1      -2.885   3.914   0.289  0.00  0.00     0.049 A 
ATOM      5  C   UNL d   1      -1.901   4.905   0.164  0.00  0.00     0.053 A 
ATOM      6  C   UNL d   1      -4.528   5.672   0.671  0.00  0.00     0.004 A 
ATOM      7  C   UNL d   1      -3.539   6.644   0.535  0.00  0.00     0.023 A 
ATOM      8  C   UNL d   1      -4.202   4.318   0.548  0.00  0.00     0.031 A 
ENDROOT
BRANCH   4   9
ATOM      9  N   UNL d   1      -2.576   2.552   0.174  0.00  0.00    -0.300 N 
ATOM     10  H   UNL d   1      -3.339   1.869   0.229  0.00  0.00     0.187 HD
BRANCH   9  11
ATOM     11  N   UNL d   1      -1.284   2.165   0.079  0.00  0.00    -0.296 N 
ATOM     12  C   UNL d   1      -1.006   0.892   0.015  0.00  0.00     0.109 A 
ATOM     13  C   UNL d   1       0.420   0.472  -0.032  0.00  0.00     0.006 A 
ATOM     14  C   UNL d   1      -2.061  -0.213   0.016  0.00  0.00     0.200 A 
ATOM     15  C   UNL d   1       0.743  -0.890   0.009  0.00  0.00    -0.023 A 
ATOM     16  C   UNL d   1       1.438   1.437  -0.076  0.00  0.00     0.015 A 
ATOM     17  C   UNL d   1       2.092  -1.271   0.034  0.00  0.00     0.012 A 
ATOM     18  C   UNL d   1      -0.297  -1.919   0.027  0.00  0.00     0.016 A 
ATOM     19  C   UNL d   1       3.103  -0.305   0.005  0.00  0.00     0.001 A 
ATOM     20  C   UNL d   1       2.776   1.046  -0.059  0.00  0.00     0.001 A 
ATOM     21  C   UNL d   1      -1.598  -1.616   0.020  0.00  0.00     0.058 A 
ATOM     22  O   UNL d   1      -3.260   0.040   0.025  0.00  0.00    -0.286 OA
ATOM     23  HN  UNL d   1      -0.537   2.859   0.058  1.00  0.00     0.187 HD
ENDBRANCH   9  11
ENDBRANCH   4   9
TORSDOF 2
