REMARK  3 active torsions:
REMARK  status: ('A' for Active; 'I' for Inactive)
REMARK    1  A    between atoms: C_4  and  C_2 
REMARK    2  A    between atoms: S_8  and  C_4 
REMARK    3  A    between atoms: C_14  and  S_8 
ROOT
ATOM      1  S   UNL d   1      -0.742  -0.117   0.857  0.00  0.00    -0.085 SA
ATOM      2  C   UNL d   1       0.204   1.211   0.319  0.00  0.00     0.063 C 
ATOM      3  C   UNL d   1       0.368  -1.277   0.265  0.00  0.00     0.022 C 
ATOM      4  C   UNL d   1       0.050  -2.684   0.255  0.00  0.00     0.021 A 
ATOM      5  C   UNL d   1       1.425   0.760  -0.158  0.00  0.00     0.025 C 
ATOM      6  C   UNL d   1       1.514  -0.663  -0.200  0.00  0.00     0.022 C 
ATOM      7  S   UNL d   1       0.475  -3.668  -1.090  0.00  0.00    -0.101 SA
ATOM      8  C   UNL d   1      -0.635  -3.418   1.206  0.00  0.00     0.021 A 
ATOM      9  C   UNL d   1      -0.281  -5.043  -0.417  0.00  0.00     0.050 A 
ATOM     10  C   UNL d   1      -0.825  -4.779   0.819  0.00  0.00     0.008 A 
ENDROOT
BRANCH   2  11
ATOM     11  C   UNL d   1      -0.223   2.611   0.373  0.00  0.00     0.230 C 
ATOM     12  O   UNL d   1       0.532   3.541   0.115  0.00  0.00    -0.279 OA
BRANCH  11  13
ATOM     13  S   UNL d   1      -1.933   2.872   0.729  0.00  0.00    -0.047 SA
BRANCH  13  14
ATOM     14  C   UNL d   1      -2.175   4.602   1.062  0.00  0.00     0.008 A 
ATOM     15  C   UNL d   1      -1.191   5.476   1.531  0.00  0.00     0.021 A 
ATOM     16  C   UNL d   1      -1.499   6.813   1.817  0.00  0.00     0.025 A 
ATOM     17  C   UNL d   1      -2.801   7.277   1.661  0.00  0.00     0.034 A 
ATOM     18  C   UNL d   1      -3.800   6.418   1.218  0.00  0.00     0.025 A 
ATOM     19 CL   UNL d   1      -3.179   8.914   2.027  0.00  0.00    -0.084 Cl
ATOM     20  C   UNL d   1      -3.486   5.089   0.918  0.00  0.00     0.021 A 
ENDBRANCH  13  14
ENDBRANCH  11  13
ENDBRANCH   2  11
TORSDOF 3
