REMARK  6 active torsions:
REMARK  status: ('A' for Active; 'I' for Inactive)
REMARK    1  A    between atoms: C_10  and  N_1 
REMARK    2  A    between atoms: C_4  and  C_11 
REMARK       I    between atoms: N_9  and  C_4 
REMARK       I    between atoms: C_5  and  N_8 
REMARK    3  A    between atoms: C_12  and  C_5 
REMARK    4  A    between atoms: N_8  and  N_9 
REMARK    5  A    between atoms: C_26  and  C_23 
REMARK    6  A    between atoms: C_27  and  C_26 
ROOT
ATOM      1  C   UNL d   1       5.831  -3.688  -0.173  0.00  0.00     0.270 C 
ATOM      2  N   UNL d   1       6.677  -3.624   0.919  0.00  0.00    -0.263 N 
ATOM      3  O   UNL d   1       6.093  -4.392  -1.148  0.00  0.00    -0.266 OA
ATOM      4  H   UNL d   1       6.508  -3.111   1.782  0.00  0.00     0.190 HD
ENDROOT
BRANCH   1   5
ATOM      5  C   UNL d   1       4.569  -2.886  -0.138  0.00  0.00     0.033 A 
ATOM      6  C   UNL d   1       4.141  -2.193   0.993  0.00  0.00     0.019 A 
ATOM      7  C   UNL d   1       2.894  -1.555   0.998  0.00  0.00     0.031 A 
ATOM      8  C   UNL d   1       2.107  -1.467  -0.156  0.00  0.00     0.039 A 
ATOM      9  C   UNL d   1       2.557  -2.126  -1.305  0.00  0.00     0.031 A 
ATOM     10  C   UNL d   1       3.754  -2.862  -1.281  0.00  0.00     0.019 A 
BRANCH   8  11
ATOM     11  N   UNL d   1       0.896  -0.690  -0.147  0.00  0.00    -0.320 N 
ATOM     12  C   UNL d   1      -0.269  -0.915  -0.898  0.00  0.00     0.013 A 
ATOM     13  C   UNL d   1      -1.181   0.082  -0.601  0.00  0.00     0.027 A 
ATOM     14  C   UNL d   1      -0.560  -2.074  -1.795  0.00  0.00     0.068 C 
ATOM     15  C   UNL d   1      -0.613   0.920   0.361  0.00  0.00     0.027 A 
ATOM     16  C   UNL d   1       0.664   0.462   0.626  0.00  0.00     0.013 A 
ATOM     17  C   UNL d   1       1.626   1.160   1.534  0.00  0.00     0.068 C 
ENDBRANCH   8  11
ENDBRANCH   1   5
BRANCH   2  18
ATOM     18  N   UNL d   1       7.798  -4.470   0.936  0.00  0.00    -0.263 N 
ATOM     19  C   UNL d   1       8.513  -4.589   2.113  0.00  0.00     0.270 C 
ATOM     20  O   UNL d   1       8.259  -3.909   3.092  0.00  0.00    -0.266 OA
ATOM     21  H   UNL d   1       7.966  -4.986   0.072  0.00  0.00     0.190 HD
BRANCH  19  22
ATOM     22  C   UNL d   1       9.608  -5.619   2.156  0.00  0.00     0.033 A 
ATOM     23  C   UNL d   1       9.822  -6.574   1.153  0.00  0.00     0.017 A 
ATOM     24  C   UNL d   1      10.791  -7.576   1.321  0.00  0.00     0.008 A 
ATOM     25  C   UNL d   1      11.565  -7.641   2.487  0.00  0.00    -0.058 A 
ATOM     26  C   UNL d   1      11.392  -6.651   3.460  0.00  0.00     0.008 A 
ATOM     27  C   UNL d   1      10.420  -5.657   3.300  0.00  0.00     0.017 A 
BRANCH  25  28
ATOM     28  C   UNL d   1      12.549  -8.767   2.701  0.00  0.00     0.038 C 
BRANCH  28  29
ATOM     29  C   UNL d   1      12.268  -9.615   3.953  0.00  0.00     0.000 C 
ATOM     30  C   UNL d   1      10.924 -10.330   3.907  0.00  0.00     0.005 C 
ENDBRANCH  28  29
ENDBRANCH  25  28
ENDBRANCH  19  22
ENDBRANCH   2  18
TORSDOF 6
