REMARK  6 active torsions:
REMARK  status: ('A' for Active; 'I' for Inactive)
REMARK    1  A    between atoms: C_9  and  N_1 
REMARK    2  A    between atoms: C_4  and  N_10 
REMARK    3  A    between atoms: N_11  and  C_4 
REMARK    4  A    between atoms: C_5  and  C_13 
REMARK       I    between atoms: N_8  and  C_5 
REMARK    5  A    between atoms: N_10  and  N_8 
REMARK    6  A    between atoms: C_19  and  N_11 
ROOT
ATOM      1  C   UNL d   1       5.660  -3.729  -0.219  0.00  0.00     0.270 C 
ATOM      2  N   UNL d   1       5.621  -5.035  -0.669  0.00  0.00    -0.264 N 
ATOM      3  O   UNL d   1       6.698  -3.254   0.221  0.00  0.00    -0.266 OA
ATOM      4  H   UNL d   1       6.484  -5.562  -0.555  0.00  0.00     0.190 HD
ENDROOT
BRANCH   1   5
ATOM      5  C   UNL d   1       4.422  -2.914  -0.230  0.00  0.00     0.033 A 
ATOM      6  C   UNL d   1       4.201  -2.042   0.840  0.00  0.00     0.019 A 
ATOM      7  C   UNL d   1       3.017  -1.300   0.907  0.00  0.00     0.031 A 
ATOM      8  C   UNL d   1       2.066  -1.385  -0.118  0.00  0.00     0.039 A 
ATOM      9  C   UNL d   1       2.319  -2.223  -1.214  0.00  0.00     0.031 A 
ATOM     10  C   UNL d   1       3.493  -2.982  -1.270  0.00  0.00     0.019 A 
BRANCH   8  11
ATOM     11  N   UNL d   1       0.865  -0.607  -0.065  0.00  0.00    -0.320 N 
ATOM     12  C   UNL d   1      -0.406  -1.003  -0.504  0.00  0.00     0.013 A 
ATOM     13  C   UNL d   1      -1.280   0.053  -0.318  0.00  0.00     0.027 A 
ATOM     14  C   UNL d   1      -0.797  -2.353  -1.005  0.00  0.00     0.068 C 
ATOM     15  C   UNL d   1      -0.570   1.102   0.277  0.00  0.00     0.027 A 
ATOM     16  C   UNL d   1       0.745   0.701   0.422  0.00  0.00     0.013 A 
ATOM     17  C   UNL d   1       1.852   1.568   0.921  0.00  0.00     0.068 C 
ENDBRANCH   8  11
ENDBRANCH   1   5
BRANCH   2  18
ATOM     18  N   UNL d   1       4.453  -5.794  -0.791  0.00  0.00    -0.273 N 
ATOM     19  H   UNL d   1       3.635  -5.509  -0.260  0.00  0.00     0.189 HD
BRANCH  18  20
ATOM     20  C   UNL d   1       4.308  -6.720  -1.793  0.00  0.00     0.191 C 
ATOM     21  S   UNL d   1       5.307  -6.853  -3.126  0.00  0.00    -0.039 SA
BRANCH  20  22
ATOM     22  N   UNL d   1       3.264  -7.597  -1.690  0.00  0.00    -0.332 N 
ATOM     23  H   UNL d   1       3.121  -8.117  -2.552  0.00  0.00     0.168 HD
BRANCH  22  24
ATOM     24  C   UNL d   1       2.687  -8.193  -0.544  0.00  0.00     0.034 A 
ATOM     25  C   UNL d   1       3.038  -7.890   0.772  0.00  0.00     0.030 A 
ATOM     26  C   UNL d   1       2.546  -8.654   1.835  0.00  0.00     0.009 A 
ATOM     27  C   UNL d   1       1.710  -9.746   1.602  0.00  0.00    -0.062 A 
ATOM     28  C   UNL d   1       1.319 -10.027   0.292  0.00  0.00     0.009 A 
ATOM     29  C   UNL d   1       1.319 -10.634   2.744  0.00  0.00     0.048 C 
ATOM     30  C   UNL d   1       1.796  -9.251  -0.770  0.00  0.00     0.030 A 
ENDBRANCH  22  24
ENDBRANCH  20  22
ENDBRANCH  18  20
ENDBRANCH   2  18
TORSDOF 6
