REMARK  4 active torsions:
REMARK  status: ('A' for Active; 'I' for Inactive)
REMARK    1  A    between atoms: C_12  and  N_1 
REMARK    2  A    between atoms: N_2  and  C_8 
REMARK    3  A    between atoms: C_15  and  C_4 
REMARK    4  A    between atoms: C_18  and  C_12 
ROOT
ATOM      1  N   UNL d   1       4.298  -5.227   0.043  0.00  0.00    -0.192 NA
ATOM      2  C   UNL d   1       3.921  -4.129   0.037  0.00  0.00     0.087 C 
ATOM      3  C   UNL d   1       2.165  -2.461   0.025  0.00  0.00     0.024 C 
ATOM      4  C   UNL d   1       3.471  -2.783   0.029  0.00  0.00     0.094 C 
ENDROOT
BRANCH   3   5
ATOM      5  C   UNL d   1       1.621  -1.137  -0.008  0.00  0.00    -0.007 A 
ATOM      6  C   UNL d   1       2.341   0.038  -0.017  0.00  0.00     0.104 A 
ATOM      7  N   UNL d   1       1.456   1.091  -0.068  0.00  0.00    -0.351 N 
ATOM      8  C   UNL d   1       0.158   0.615  -0.135  0.00  0.00     0.045 A 
ATOM      9  C   UNL d   1       0.236  -0.783  -0.043  0.00  0.00     0.005 A 
ATOM     10  C   UNL d   1      -1.072   1.286  -0.259  0.00  0.00     0.033 A 
ATOM     11  C   UNL d   1      -0.965  -1.528  -0.008  0.00  0.00     0.050 A 
ATOM     12  C   UNL d   1      -2.195  -0.856  -0.095  0.00  0.00     0.103 A 
ATOM     13  C   UNL d   1      -2.250   0.531  -0.242  0.00  0.00     0.038 A 
BRANCH   7  14
ATOM     14  C   UNL d   1       1.862   2.493   0.042  0.00  0.00     0.167 C 
BRANCH  14  15
ATOM     15  C   UNL d   1       2.150   3.098  -1.307  0.00  0.00    -0.040 A 
ATOM     16  C   UNL d   1       1.166   3.834  -1.982  0.00  0.00     0.009 A 
ATOM     17  C   UNL d   1       1.400   4.319  -3.269  0.00  0.00     0.001 A 
ATOM     18  C   UNL d   1       2.626   4.088  -3.890  0.00  0.00     0.000 A 
ATOM     19  C   UNL d   1       3.627   3.393  -3.215  0.00  0.00     0.001 A 
ATOM     20  C   UNL d   1       3.393   2.903  -1.929  0.00  0.00     0.009 A 
ENDBRANCH  14  15
ENDBRANCH   7  14
BRANCH  12  21
ATOM     21  N   UNL d   1      -3.442  -1.629  -0.014  0.00  0.00    -0.116 N 
ATOM     22  O   UNL d   1      -3.352  -2.857   0.128  0.00  0.00    -0.532 OA
ATOM     23  O   UNL d   1      -4.513  -1.007  -0.082  0.00  0.00    -0.532 OA
ENDBRANCH  12  21
ENDBRANCH   3   5
TORSDOF 4
