REMARK  5 active torsions:
REMARK  status: ('A' for Active; 'I' for Inactive)
REMARK    1  A    between atoms: C_7  and  C_3 
REMARK    2  A    between atoms: C_14  and  C_4 
REMARK    3  A    between atoms: C_11  and  O_13 
REMARK    4  A    between atoms: O_21  and  C_12 
REMARK    5  A    between atoms: O_13  and  C_14 
ROOT
ATOM      1  N   UNL d   1       1.258   0.205  -0.186  0.00  0.00    -0.321 N 
ATOM      2  HN  UNL d   1       2.262   0.370  -0.117  1.00  0.00     0.169 HD
ATOM      3  C   UNL d   1       0.617  -0.941  -0.220  0.00  0.00     0.184 A 
ATOM      4  C   UNL d   1       0.244   1.124  -0.268  0.00  0.00     0.128 A 
ATOM      5  N   UNL d   1      -0.987   0.597  -0.302  0.00  0.00    -0.245 N 
ATOM      6  HN  UNL d   1      -1.884   1.082  -0.335  1.00  0.00     0.196 HD
ATOM      7  O   UNL d   1      -0.745  -0.779  -0.282  0.00  0.00    -0.217 OA
ENDROOT
BRANCH   4   8
ATOM      8  C   UNL d   1       0.494   2.585  -0.123  0.00  0.00     0.254 C 
BRANCH   8   9
ATOM      9  O   UNL d   1       0.413   3.305  -1.364  0.00  0.00    -0.342 OA
BRANCH   9  10
ATOM     10  C   UNL d   1       0.670   4.650  -1.262  0.00  0.00     0.091 A 
ATOM     11  C   UNL d   1       1.303   5.295  -2.340  0.00  0.00     0.069 A 
ATOM     12  C   UNL d   1       1.570   6.669  -2.293  0.00  0.00     0.050 A 
ATOM     13 CL   UNL d   1       1.794   4.421  -3.747  0.00  0.00    -0.081 Cl
ATOM     14  C   UNL d   1       1.195   7.403  -1.175  0.00  0.00     0.035 A 
ATOM     15  C   UNL d   1       0.546   6.788  -0.109  0.00  0.00     0.026 A 
ATOM     16 CL   UNL d   1       1.516   9.093  -1.106  0.00  0.00    -0.084 Cl
ATOM     17  C   UNL d   1       0.276   5.418  -0.158  0.00  0.00     0.040 A 
ENDBRANCH   9  10
ENDBRANCH   8   9
ENDBRANCH   4   8
BRANCH   3  18
ATOM     18  C   UNL d   1       1.103  -2.308  -0.077  0.00  0.00     0.051 A 
ATOM     19  C   UNL d   1       2.251  -2.840  -0.689  0.00  0.00     0.082 A 
ATOM     20  C   UNL d   1       2.629  -4.166  -0.387  0.00  0.00     0.038 A 
ATOM     21  C   UNL d   1       1.902  -4.964   0.493  0.00  0.00     0.003 A 
ATOM     22  C   UNL d   1       0.762  -4.453   1.089  0.00  0.00     0.001 A 
ATOM     23  C   UNL d   1       0.368  -3.144   0.804  0.00  0.00     0.018 A 
BRANCH  19  24
ATOM     24  O   UNL d   1       3.125  -2.313  -1.599  0.00  0.00    -0.355 OA
ATOM     25  C   UNL d   1       3.036  -0.974  -2.046  0.00  0.00     0.210 C 
ENDBRANCH  19  24
ENDBRANCH   3  18
TORSDOF 5
