REMARK  6 active torsions:
REMARK  status: ('A' for Active; 'I' for Inactive)
REMARK    1  A    between atoms: C_7  and  C_1 
REMARK    2  A    between atoms: N_4  and  C_15 
REMARK    3  A    between atoms: C_14  and  C_6 
REMARK       I    between atoms: N_16  and  C_7 
REMARK    4  A    between atoms: C_15  and  C_18 
REMARK    5  A    between atoms: N_21  and  N_16 
REMARK       I    between atoms: C_17  and  N_21 
REMARK    6  A    between atoms: C_18  and  C_17 
ROOT
ATOM      1  C   UNL d   1      -1.863  -4.399  -0.001  0.00  0.00     0.237 C 
ATOM      2  N   UNL d   1      -2.740  -3.969   0.978  0.00  0.00    -0.267 N 
ATOM      3  O   UNL d   1      -1.492  -3.689  -0.931  0.00  0.00    -0.272 OA
ATOM      4  H   UNL d   1      -2.801  -4.448   1.880  0.00  0.00     0.190 HD
ENDROOT
BRANCH   2   5
ATOM      5  N   UNL d   1      -3.170  -2.631   0.953  0.00  0.00    -0.260 N 
ATOM      6  C   UNL d   1      -3.911  -2.137   2.016  0.00  0.00     0.313 C 
ATOM      7  O   UNL d   1      -4.217  -2.863   2.967  0.00  0.00    -0.262 OA
ATOM      8  H   UNL d   1      -2.922  -2.061   0.142  0.00  0.00     0.190 HD
BRANCH   6   9
ATOM      9  C   UNL d   1      -4.259  -0.737   1.918  0.00  0.00     0.241 A 
ATOM     10  N   UNL d   1      -3.912   0.115   0.973  0.00  0.00    -0.314 N 
ATOM     11  C   UNL d   1      -4.423   1.304   1.452  0.00  0.00     0.145 A 
ATOM     12  HN  UNL d   1      -3.397  -0.060   0.109  1.00  0.00     0.170 HD
ATOM     13  N   UNL d   1      -5.100   1.191   2.605  0.00  0.00    -0.241 N 
ATOM     14  O   UNL d   1      -4.991  -0.164   2.917  0.00  0.00    -0.212 OA
ATOM     15  HN  UNL d   1      -5.580   1.923   3.129  1.00  0.00     0.196 HD
BRANCH  11  16
ATOM     16  C   UNL d   1      -4.200   2.622   0.775  0.00  0.00     0.050 A 
ATOM     17  S   UNL d   1      -3.357   2.795  -0.701  0.00  0.00    -0.098 SA
ATOM     18  C   UNL d   1      -3.530   4.497  -0.675  0.00  0.00     0.050 A 
ATOM     19  C   UNL d   1      -4.221   4.928   0.435  0.00  0.00     0.009 A 
ATOM     20  C   UNL d   1      -4.618   3.841   1.271  0.00  0.00     0.023 A 
ENDBRANCH  11  16
ENDBRANCH   6   9
ENDBRANCH   2   5
BRANCH   1  21
ATOM     21  C   UNL d   1      -1.477  -5.857   0.127  0.00  0.00     0.125 C 
BRANCH  21  22
ATOM     22  C   UNL d   1       0.027  -6.076   0.002  0.00  0.00     0.144 C 
BRANCH  22  23
ATOM     23  N   UNL d   1       0.851  -5.496   1.045  0.00  0.00    -0.290 N 
ATOM     24  C   UNL d   1       0.545  -5.340   2.385  0.00  0.00     0.372 A 
ATOM     25  O   UNL d   1       1.645  -4.862   3.109  0.00  0.00    -0.259 OA
ATOM     26  O   UNL d   1      -0.540  -5.568   2.907  0.00  0.00    -0.237 OA
ATOM     27  C   UNL d   1       2.631  -4.790   2.140  0.00  0.00     0.107 A 
ATOM     28  C   UNL d   1       2.188  -5.187   0.896  0.00  0.00     0.073 A 
ATOM     29  C   UNL d   1       3.930  -4.379   2.352  0.00  0.00     0.040 A 
ATOM     30  C   UNL d   1       3.024  -5.220  -0.202  0.00  0.00     0.039 A 
ATOM     31  C   UNL d   1       4.353  -4.805  -0.023  0.00  0.00    -0.060 A 
ATOM     32  C   UNL d   1       4.795  -4.382   1.253  0.00  0.00     0.009 A 
ATOM     33  C   UNL d   1       5.311  -4.789  -1.179  0.00  0.00     0.048 C 
ENDBRANCH  22  23
ENDBRANCH  21  22
ENDBRANCH   1  21
TORSDOF 6
