REMARK  5 active torsions:
REMARK  status: ('A' for Active; 'I' for Inactive)
REMARK       I    between atoms: N_2  and  C_1 
REMARK    1  A    between atoms: C_3  and  C_1 
REMARK       I    between atoms: C_4  and  N_2 
REMARK       I    between atoms: N_6  and  C_4 
REMARK       I    between atoms: C_5  and  N_7 
REMARK    2  A    between atoms: C_13  and  C_5 
REMARK    3  A    between atoms: N_7  and  N_6 
REMARK    4  A    between atoms: C_12  and  C_13 
REMARK    5  A    between atoms: O_18  and  C_16 
ROOT
ATOM      1  C   UNL d   1       0.504  -3.248  -3.349  0.00  0.00     0.261 C 
ATOM      2  N   UNL d   1       0.271  -2.320  -2.347  0.00  0.00    -0.274 N 
ATOM      3  C   UNL d   1       1.123  -1.545  -1.614  0.00  0.00     0.341 C 
ATOM      4  N   UNL d   1       2.466  -1.710  -1.802  0.00  0.00    -0.249 N 
ATOM      5  O   UNL d   1       1.610  -3.585  -3.748  0.00  0.00    -0.267 OA
ATOM      6  O   UNL d   1       0.661  -0.759  -0.789  0.00  0.00    -0.245 OA
ATOM      7  H   UNL d   1      -0.689  -2.116  -2.103  0.00  0.00     0.173 HD
ATOM      8  H   UNL d   1       2.835  -2.175  -2.635  0.00  0.00     0.192 HD
ENDROOT
BRANCH   4   9
ATOM      9  N   UNL d   1       3.303  -0.831  -1.101  0.00  0.00    -0.266 N 
ATOM     10  C   UNL d   1       4.663  -0.837  -1.317  0.00  0.00     0.240 C 
ATOM     11  O   UNL d   1       5.221  -1.563  -2.137  0.00  0.00    -0.272 OA
ATOM     12  H   UNL d   1       2.889  -0.390  -0.280  0.00  0.00     0.190 HD
BRANCH  10  13
ATOM     13  C   UNL d   1       5.409   0.176  -0.466  0.00  0.00     0.143 C 
BRANCH  13  14
ATOM     14  C   UNL d   1       5.784  -0.335   0.904  0.00  0.00    -0.047 A 
ATOM     15  C   UNL d   1       6.654  -1.431   1.039  0.00  0.00     0.044 A 
ATOM     16  C   UNL d   1       7.030  -1.893   2.303  0.00  0.00     0.068 A 
ATOM     17  C   UNL d   1       6.532  -1.254   3.440  0.00  0.00     0.037 A 
ATOM     18  C   UNL d   1       5.675  -0.161   3.322  0.00  0.00     0.003 A 
ATOM     19  C   UNL d   1       5.304   0.299   2.059  0.00  0.00     0.007 A 
BRANCH  16  20
ATOM     20  O   UNL d   1       7.872  -2.940   2.558  0.00  0.00    -0.356 OA
ATOM     21  C   UNL d   1       8.408  -3.619   1.429  0.00  0.00     0.210 C 
ENDBRANCH  16  20
ENDBRANCH  13  14
ENDBRANCH  10  13
ENDBRANCH   4   9
BRANCH   1  22
ATOM     22  C   UNL d   1      -0.736  -3.913  -3.850  0.00  0.00     0.054 A 
ATOM     23  C   UNL d   1      -1.933  -3.218  -4.086  0.00  0.00     0.049 A 
ATOM     24 CL   UNL d   1      -2.035  -1.491  -4.089  0.00  0.00    -0.083 Cl
ATOM     25  C   UNL d   1      -3.114  -3.921  -4.340  0.00  0.00     0.025 A 
ATOM     26  C   UNL d   1      -3.102  -5.313  -4.394  0.00  0.00     0.002 A 
ATOM     27  C   UNL d   1      -1.902  -6.006  -4.236  0.00  0.00     0.001 A 
ATOM     28  C   UNL d   1      -0.719  -5.310  -3.971  0.00  0.00     0.019 A 
ENDBRANCH   1  22
TORSDOF 5
