REMARK  2 active torsions:
REMARK  status: ('A' for Active; 'I' for Inactive)
REMARK    1  A    between atoms: C_5  and  C_1 
REMARK    2  A    between atoms: C_10  and  N_2 
ROOT
ATOM      1  C   UNL d   1      -0.148  -1.313   0.083  0.00  0.00     0.149 A 
ATOM      2  N   UNL d   1       1.067  -0.717   0.150  0.00  0.00    -0.238 N 
ATOM      3  N   UNL d   1      -1.136  -0.490   0.203  0.00  0.00    -0.238 N 
ATOM      4  HN  UNL d   1      -2.131  -0.712   0.173  1.00  0.00     0.196 HD
ATOM      5  C   UNL d   1       0.814   0.595   0.389  0.00  0.00     0.395 A 
ATOM      6  O   UNL d   1      -0.546   0.790   0.386  0.00  0.00    -0.179 OA
ATOM      7  O   UNL d   1       1.617   1.501   0.562  0.00  0.00    -0.235 OA
ENDROOT
BRANCH   1   8
ATOM      8  C   UNL d   1      -0.355  -2.777   0.035  0.00  0.00     0.032 A 
ATOM      9  C   UNL d   1      -1.299  -3.368  -0.816  0.00  0.00     0.049 A 
ATOM     10  C   UNL d   1      -1.519  -4.749  -0.766  0.00  0.00     0.048 A 
ATOM     11 CL   UNL d   1      -2.192  -2.472  -1.993  0.00  0.00    -0.083 Cl
ATOM     12  C   UNL d   1      -0.793  -5.539   0.124  0.00  0.00     0.035 A 
ATOM     13  C   UNL d   1       0.143  -4.962   0.977  0.00  0.00     0.025 A 
ATOM     14 CL   UNL d   1      -1.056  -7.237   0.173  0.00  0.00    -0.084 Cl
ATOM     15  C   UNL d   1       0.348  -3.582   0.949  0.00  0.00     0.018 A 
ENDBRANCH   1   8
BRANCH   2  16
ATOM     16  C   UNL d   1       2.357  -1.265   0.003  0.00  0.00     0.061 A 
ATOM     17  C   UNL d   1       3.423  -0.833   0.796  0.00  0.00     0.117 A 
ATOM     18  N   UNL d   1       4.666  -1.373   0.767  0.00  0.00    -0.373 N 
ATOM     19  C   UNL d   1       4.882  -2.357  -0.129  0.00  0.00     0.088 A 
ATOM     20  HN  UNL d   1       5.403  -1.050   1.393  1.00  0.00     0.164 HD
ATOM     21  C   UNL d   1       3.913  -2.825  -0.998  0.00  0.00     0.019 A 
ATOM     22  C   UNL d   1       2.634  -2.273  -0.927  0.00  0.00     0.033 A 
ENDBRANCH   2  16
TORSDOF 2
