REMARK  4 active torsions:
REMARK  status: ('A' for Active; 'I' for Inactive)
REMARK    1  A    between atoms: C_8  and  N_3 
REMARK    2  A    between atoms: C_10  and  C_8 
REMARK       I    between atoms: N_19  and  C_10 
REMARK    3  A    between atoms: C_12  and  C_18 
REMARK    4  A    between atoms: N_13  and  N_19 
ROOT
ATOM      1  N   UNL d   1      -0.787   0.704  -0.443  0.00  0.00    -0.248 N 
ATOM      2  C   UNL d   1      -1.555  -0.400  -0.573  0.00  0.00     0.117 A 
ATOM      3  N   UNL d   1      -2.943   1.195  -0.637  0.00  0.00    -0.232 N 
ATOM      4  C   UNL d   1      -1.672   1.765  -0.402  0.00  0.00     0.350 A 
ATOM      5  N   UNL d   1      -2.837  -0.175  -0.672  0.00  0.00    -0.281 N 
ATOM      6  HN  UNL d   1      -3.588  -0.860  -0.755  1.00  0.00     0.188 HD
ATOM      7  C   UNL d   1       0.618   0.714  -0.282  0.00  0.00     0.062 A 
ATOM      8  S   UNL d   1       0.616  -1.919  -1.253  0.00  0.00    -0.120 SA
ATOM      9  C   UNL d   1      -0.994  -1.783  -0.459  0.00  0.00     0.158 C 
ATOM     10  C   UNL d   1       1.366  -0.446  -0.574  0.00  0.00     0.028 A 
ATOM     11  O   UNL d   1      -1.463   2.944  -0.165  0.00  0.00    -0.244 OA
ATOM     12  C   UNL d   1       1.306   1.856   0.153  0.00  0.00     0.031 A 
ATOM     13  C   UNL d   1       2.758  -0.454  -0.405  0.00  0.00     0.021 A 
ATOM     14  C   UNL d   1       2.694   1.836   0.330  0.00  0.00     0.002 A 
ATOM     15  C   UNL d   1       3.418   0.680   0.057  0.00  0.00     0.002 A 
ENDROOT
BRANCH   3  16
ATOM     16  C   UNL d   1      -4.178   1.873  -0.286  0.00  0.00     0.258 C 
BRANCH  16  17
ATOM     17  C   UNL d   1      -5.478   1.422  -0.957  0.00  0.00     0.256 C 
ATOM     18  N   UNL d   1      -5.352   0.343  -1.817  0.00  0.00    -0.269 N 
ATOM     19  H   UNL d   1      -4.403   0.055  -2.060  0.00  0.00     0.190 HD
ATOM     20  O   UNL d   1      -6.537   2.000  -0.705  0.00  0.00    -0.270 OA
BRANCH  18  21
ATOM     21  N   UNL d   1      -6.354  -0.205  -2.586  0.00  0.00    -0.308 N 
ATOM     22  C   UNL d   1      -7.551  -0.242  -2.083  0.00  0.00     0.126 C 
ATOM     23  HN  UNL d   1      -6.163  -0.570  -3.519  1.00  0.00     0.186 HD
BRANCH  22  24
ATOM     24  C   UNL d   1      -8.663  -0.780  -2.833  0.00  0.00     0.021 A 
ATOM     25  S   UNL d   1     -10.175  -0.963  -2.049  0.00  0.00    -0.101 SA
ATOM     26  C   UNL d   1     -10.898  -1.626  -3.450  0.00  0.00     0.050 A 
ATOM     27  C   UNL d   1     -10.012  -1.696  -4.502  0.00  0.00     0.008 A 
ATOM     28  C   UNL d   1      -8.719  -1.206  -4.146  0.00  0.00     0.021 A 
ENDBRANCH  22  24
ENDBRANCH  18  21
ENDBRANCH  16  17
ENDBRANCH   3  16
TORSDOF 4
