REMARK  4 active torsions:
REMARK  status: ('A' for Active; 'I' for Inactive)
REMARK       I    between atoms: C_2  and  N_1 
REMARK       I    between atoms: C_6  and  N_1 
REMARK    1  A    between atoms: C_7  and  C_2 
REMARK    2  A    between atoms: N_10  and  C_3 
REMARK       I    between atoms: N_11  and  C_6 
REMARK    3  A    between atoms: C_19  and  N_11 
REMARK    4  A    between atoms: C_18  and  C_19 
ROOT
ATOM      1  N   UNL d   1       1.092  -0.073  -0.017  0.00  0.00    -0.275 N 
ATOM      2  C   UNL d   1       0.291  -0.504  -1.057  0.00  0.00     0.259 C 
ATOM      3  C   UNL d   1       0.711   0.604   1.120  0.00  0.00     0.323 C 
ATOM      4  N   UNL d   1      -0.590   0.991   1.178  0.00  0.00    -0.339 N 
ATOM      5  O   UNL d   1      -0.933  -0.391  -1.071  0.00  0.00    -0.267 OA
ATOM      6  O   UNL d   1       1.538   0.831   1.998  0.00  0.00    -0.247 OA
ATOM      7  H   UNL d   1       2.069  -0.319   0.007  0.00  0.00     0.173 HD
ATOM      8  H   UNL d   1      -1.202   0.666   0.432  0.00  0.00     0.164 HD
ENDROOT
BRANCH   2   9
ATOM      9  C   UNL d   1       0.970  -1.165  -2.203  0.00  0.00     0.038 A 
ATOM     10  C   UNL d   1       0.233  -2.066  -2.971  0.00  0.00     0.062 A 
ATOM     11  C   UNL d   1       0.802  -2.665  -4.098  0.00  0.00     0.146 A 
ATOM     12  F   UNL d   1       0.005  -3.479  -4.810  0.00  0.00    -0.204 F 
ATOM     13  C   UNL d   1       2.121  -2.404  -4.521  0.00  0.00     0.107 A 
ATOM     14  C   UNL d   1       2.830  -1.493  -3.709  0.00  0.00     0.146 A 
ATOM     15  C   UNL d   1       2.279  -0.878  -2.576  0.00  0.00     0.062 A 
ATOM     16  F   UNL d   1       4.112  -1.196  -3.983  0.00  0.00    -0.204 F 
BRANCH  13  17
ATOM     17  N   UNL d   1       2.674  -2.982  -5.657  0.00  0.00    -0.385 N 
ATOM     18  C   UNL d   1       2.263  -4.294  -6.143  0.00  0.00     0.149 C 
ATOM     19  C   UNL d   1       3.688  -2.297  -6.451  0.00  0.00     0.149 C 
ENDBRANCH  13  17
ENDBRANCH   2   9
BRANCH   4  20
ATOM     20  C   UNL d   1      -1.176   1.662   2.311  0.00  0.00     0.164 C 
BRANCH  20  21
ATOM     21  C   UNL d   1      -1.910   2.898   1.885  0.00  0.00    -0.025 A 
ATOM     22  C   UNL d   1      -1.272   4.135   1.873  0.00  0.00     0.096 A 
ATOM     23  N   UNL d   1      -1.863   5.293   1.500  0.00  0.00    -0.375 N 
ATOM     24  C   UNL d   1      -3.151   5.215   1.105  0.00  0.00     0.087 A 
ATOM     25  HN  UNL d   1      -1.361   6.180   1.516  1.00  0.00     0.164 HD
ATOM     26  C   UNL d   1      -3.873   4.034   1.063  0.00  0.00     0.018 A 
ATOM     27  C   UNL d   1      -3.240   2.858   1.455  0.00  0.00     0.011 A 
ENDBRANCH  20  21
ENDBRANCH   4  20
TORSDOF 4
