REMARK  6 active torsions:
REMARK  status: ('A' for Active; 'I' for Inactive)
REMARK    1  A    between atoms: C_10  and  N_1 
REMARK    2  A    between atoms: C_13  and  C_6 
REMARK    3  A    between atoms: N_9  and  C_11 
REMARK    4  A    between atoms: C_21  and  C_13 
REMARK    5  A    between atoms: N_22  and  N_15 
REMARK    6  A    between atoms: C_23  and  N_22 
ROOT
ATOM      1  N   UNL d   1      -0.487  -0.964  -1.014  0.00  0.00    -0.227 N 
ATOM      2  N   UNL d   1       0.685  -0.268   0.654  0.00  0.00    -0.226 N 
ATOM      3  HN  UNL d   1       1.481  -0.043   1.251  1.00  0.00     0.210 HD
ATOM      4  N   UNL d   1       0.770  -0.904  -0.498  0.00  0.00    -0.220 N 
ATOM      5  HN  UNL d   1       1.618  -1.279  -0.923  1.00  0.00     0.210 HD
ATOM      6  C   UNL d   1      -1.340  -0.391  -0.070  0.00  0.00     0.125 A 
ATOM      7  N   UNL d   1      -0.606   0.048   0.938  0.00  0.00    -0.271 N 
ATOM      8  HN  UNL d   1      -0.943   0.531   1.770  1.00  0.00     0.190 HD
ENDROOT
BRANCH   6   9
ATOM      9  C   UNL d   1      -2.814  -0.271  -0.092  0.00  0.00     0.126 C 
BRANCH   9  10
ATOM     10  C   UNL d   1      -3.442  -1.606   0.197  0.00  0.00     0.087 C 
ATOM     11  N   UNL d   1      -4.286  -2.131  -0.634  0.00  0.00    -0.315 N 
ATOM     12  HN  UNL d   1      -4.520  -1.697  -1.527  1.00  0.00     0.185 HD
BRANCH  11  13
ATOM     13  N   UNL d   1      -4.835  -3.302  -0.226  0.00  0.00    -0.301 N 
ATOM     14  H   UNL d   1      -4.419  -3.854   0.522  0.00  0.00     0.187 HD
BRANCH  13  15
ATOM     15  C   UNL d   1      -5.694  -4.013  -1.088  0.00  0.00     0.048 A 
ATOM     16  C   UNL d   1      -6.077  -3.521  -2.344  0.00  0.00     0.033 A 
ATOM     17  C   UNL d   1      -6.975  -4.225  -3.157  0.00  0.00     0.038 A 
ATOM     18  C   UNL d   1      -7.521  -5.428  -2.699  0.00  0.00     0.103 A 
ATOM     19  C   UNL d   1      -7.181  -5.922  -1.436  0.00  0.00     0.038 A 
ATOM     20  C   UNL d   1      -6.277  -5.209  -0.638  0.00  0.00     0.033 A 
BRANCH  18  21
ATOM     21  N   UNL d   1      -8.462  -6.175  -3.546  0.00  0.00    -0.116 N 
ATOM     22  O   UNL d   1      -8.721  -5.713  -4.666  0.00  0.00    -0.532 OA
ATOM     23  O   UNL d   1      -8.940  -7.223  -3.091  0.00  0.00    -0.532 OA
ENDBRANCH  18  21
ENDBRANCH  13  15
ENDBRANCH  11  13
ENDBRANCH   9  10
ENDBRANCH   6   9
BRANCH   1  24
ATOM     24  C   UNL d   1      -0.688  -1.536  -2.304  0.00  0.00     0.059 A 
ATOM     25  C   UNL d   1       0.407  -2.146  -2.950  0.00  0.00     0.033 A 
ATOM     26  C   UNL d   1       0.275  -2.697  -4.229  0.00  0.00     0.021 A 
ATOM     27  C   UNL d   1      -0.952  -2.642  -4.878  0.00  0.00     0.011 A 
ATOM     28  C   UNL d   1      -2.045  -2.049  -4.255  0.00  0.00     0.021 A 
ATOM     29 BR   UNL d   1      -1.138  -3.360  -6.615  0.00  0.00    -0.051 Br
ATOM     30  C   UNL d   1      -1.914  -1.498  -2.973  0.00  0.00     0.033 A 
ENDBRANCH   1  24
TORSDOF 6
