REMARK  5 active torsions:
REMARK  status: ('A' for Active; 'I' for Inactive)
REMARK    1  A    between atoms: C_9  and  C_1 
REMARK    2  A    between atoms: O_7  and  C_2 
REMARK    3  A    between atoms: S_3  and  O_7 
REMARK    4  A    between atoms: C_12  and  S_3 
REMARK    5  A    between atoms: C_15  and  C_9 
ROOT
ATOM      1  C   UNL d   1      -1.446  -1.510   0.219  0.00  0.00     0.050 A 
ATOM      2  C   UNL d   1      -0.133  -1.812   0.247  0.00  0.00     0.114 A 
ATOM      3  C   UNL d   1      -1.885  -0.084   0.115  0.00  0.00     0.257 A 
ATOM      4  N   UNL d   1      -0.908   0.895   0.016  0.00  0.00    -0.317 N 
ATOM      5  C   UNL d   1       0.889  -0.743   0.231  0.00  0.00     0.026 A 
ATOM      6  C   UNL d   1       0.483   0.588   0.047  0.00  0.00     0.050 A 
ATOM      7  O   UNL d   1      -3.090   0.182   0.110  0.00  0.00    -0.267 OA
ATOM      8  C   UNL d   1      -1.334   2.287  -0.040  0.00  0.00     0.159 C 
ATOM      9  C   UNL d   1       2.262  -0.992   0.386  0.00  0.00     0.016 A 
ATOM     10  C   UNL d   1       1.457   1.598  -0.075  0.00  0.00     0.031 A 
ATOM     11  C   UNL d   1       3.221   0.010   0.243  0.00  0.00     0.001 A 
ATOM     12  C   UNL d   1       2.817   1.308  -0.003  0.00  0.00     0.002 A 
ENDROOT
BRANCH   2  13
ATOM     13  O   UNL d   1       0.282  -3.128   0.414  0.00  0.00    -0.227 OA
BRANCH  13  14
ATOM     14  S   UNL d   1       1.087  -4.003  -0.721  0.00  0.00     0.303 S 
ATOM     15  O   UNL d   1       0.380  -5.253  -0.914  0.00  0.00    -0.193 OA
ATOM     16  O   UNL d   1       1.433  -3.156  -1.845  0.00  0.00    -0.193 OA
BRANCH  14  17
ATOM     17  C   UNL d   1       2.611  -4.424   0.123  0.00  0.00     0.086 A 
ATOM     18  C   UNL d   1       2.564  -4.684   1.497  0.00  0.00     0.026 A 
ATOM     19  C   UNL d   1       3.753  -4.800   2.216  0.00  0.00     0.002 A 
ATOM     20  C   UNL d   1       4.979  -4.670   1.563  0.00  0.00     0.000 A 
ATOM     21  C   UNL d   1       5.023  -4.435   0.187  0.00  0.00     0.002 A 
ATOM     22  C   UNL d   1       3.838  -4.310  -0.542  0.00  0.00     0.026 A 
ENDBRANCH  14  17
ENDBRANCH  13  14
ENDBRANCH   2  13
BRANCH   1  23
ATOM     23  C   UNL d   1      -2.559  -2.534   0.180  0.00  0.00     0.085 C 
BRANCH  23  24
ATOM     24  C   UNL d   1      -3.130  -2.928   1.526  0.00  0.00    -0.054 A 
ATOM     25  C   UNL d   1      -4.090  -2.130   2.168  0.00  0.00     0.007 A 
ATOM     26  C   UNL d   1      -4.654  -2.529   3.382  0.00  0.00     0.001 A 
ATOM     27  C   UNL d   1      -4.269  -3.731   3.970  0.00  0.00     0.000 A 
ATOM     28  C   UNL d   1      -3.314  -4.531   3.346  0.00  0.00     0.001 A 
ATOM     29  C   UNL d   1      -2.745  -4.131   2.134  0.00  0.00     0.007 A 
ENDBRANCH  23  24
ENDBRANCH   1  23
TORSDOF 5
