REMARK  3 active torsions:
REMARK  status: ('A' for Active; 'I' for Inactive)
REMARK    1  A    between atoms: O_4  and  C_1 
REMARK    2  A    between atoms: C_5  and  C_1 
REMARK    3  A    between atoms: N_2  and  O_4 
ROOT
ATOM      1  C   UNL d   1       1.011   0.442  -1.440  0.00  0.00     0.315 C 
ATOM      2  O   UNL d   1       1.137  -0.737  -1.733  0.00  0.00    -0.257 OA
ENDROOT
BRANCH   1   3
ATOM      3  O   UNL d   1       0.240   0.934  -0.429  0.00  0.00    -0.195 OA
BRANCH   3   4
ATOM      4  N   UNL d   1      -1.108   0.749  -0.779  0.00  0.00    -0.266 N 
ATOM      5  C   UNL d   1      -1.913   1.009   0.204  0.00  0.00     0.010 C 
ATOM      6  C   UNL d   1      -1.519   1.411   1.610  0.00  0.00     0.054 C 
ATOM      7  C   UNL d   1      -3.400   0.895  -0.043  0.00  0.00     0.054 C 
ATOM      8  C   UNL d   1      -2.125   0.407   2.589  0.00  0.00     0.006 C 
ATOM      9  C   UNL d   1      -3.630   0.210   2.375  0.00  0.00     0.001 C 
ATOM     10  C   UNL d   1      -3.969  -0.135   0.923  0.00  0.00     0.006 C 
ATOM     11  HN  UNL d   1      -1.418   0.444  -1.702  1.00  0.00     0.194 HD
ENDBRANCH   3   4
ENDBRANCH   1   3
BRANCH   1  12
ATOM     12  C   UNL d   1       1.705   1.551  -2.154  0.00  0.00     0.041 A 
ATOM     13  C   UNL d   1       2.418   1.244  -3.322  0.00  0.00     0.019 A 
ATOM     14  C   UNL d   1       3.062   2.254  -4.043  0.00  0.00     0.025 A 
ATOM     15  C   UNL d   1       2.997   3.573  -3.595  0.00  0.00     0.034 A 
ATOM     16  C   UNL d   1       2.289   3.891  -2.438  0.00  0.00     0.025 A 
ATOM     17 CL   UNL d   1       3.794   4.817  -4.476  0.00  0.00    -0.084 Cl
ATOM     18  C   UNL d   1       1.642   2.883  -1.717  0.00  0.00     0.019 A 
ENDBRANCH   1  12
TORSDOF 3
