REMARK  2 active torsions:
REMARK  status: ('A' for Active; 'I' for Inactive)
REMARK    1  A    between atoms: C_8  and  N_1 
REMARK    2  A    between atoms: C_10  and  C_5 
ROOT
ATOM      1  N   UNL d   1       2.325  -0.655  -0.019  0.00  0.00    -0.220 N 
ATOM      2  N   UNL d   1       2.298   0.719   0.073  0.00  0.00    -0.289 N 
ATOM      3  HN  UNL d   1       3.174   1.237   0.147  1.00  0.00     0.188 HD
ATOM      4  C   UNL d   1       1.172  -1.446   0.040  0.00  0.00     0.278 C 
ATOM      5  C   UNL d   1       1.168   1.363   0.067  0.00  0.00     0.070 C 
ATOM      6  C   UNL d   1      -0.114  -0.725   0.012  0.00  0.00     0.046 A 
ATOM      7  C   UNL d   1      -0.136   0.663  -0.060  0.00  0.00     0.009 A 
ATOM      8  O   UNL d   1       1.127  -2.671   0.109  0.00  0.00    -0.265 OA
ATOM      9  C   UNL d   1      -1.313  -1.457  -0.013  0.00  0.00     0.018 A 
ATOM     10  C   UNL d   1      -1.363   1.307  -0.269  0.00  0.00     0.015 A 
ATOM     11  C   UNL d   1      -2.558   0.580  -0.288  0.00  0.00     0.001 A 
ATOM     12  C   UNL d   1      -2.535  -0.802  -0.141  0.00  0.00     0.001 A 
ENDROOT
BRANCH   1  13
ATOM     13  C   UNL d   1       3.643  -1.209  -0.157  0.00  0.00     0.060 A 
ATOM     14  C   UNL d   1       3.861  -2.481  -0.710  0.00  0.00     0.031 A 
ATOM     15  C   UNL d   1       5.152  -3.002  -0.851  0.00  0.00     0.002 A 
ATOM     16  C   UNL d   1       6.253  -2.263  -0.431  0.00  0.00     0.000 A 
ATOM     17  C   UNL d   1       6.065  -0.996   0.113  0.00  0.00     0.002 A 
ATOM     18  C   UNL d   1       4.773  -0.470   0.235  0.00  0.00     0.031 A 
ENDBRANCH   1  13
BRANCH   5  19
ATOM     19  C   UNL d   1       1.255   2.856   0.181  0.00  0.00    -0.007 A 
ATOM     20  C   UNL d   1       2.297   3.514  -0.487  0.00  0.00     0.014 A 
ATOM     21  C   UNL d   1       2.399   4.907  -0.440  0.00  0.00     0.001 A 
ATOM     22  C   UNL d   1       1.460   5.651   0.272  0.00  0.00     0.000 A 
ATOM     23  C   UNL d   1       0.446   5.002   0.973  0.00  0.00     0.001 A 
ATOM     24  C   UNL d   1       0.360   3.607   0.953  0.00  0.00     0.014 A 
ENDBRANCH   5  19
TORSDOF 2
