REMARK  6 active torsions:
REMARK  status: ('A' for Active; 'I' for Inactive)
REMARK    1  A    between atoms: C_12  and  C_2 
REMARK    2  A    between atoms: C_11  and  C_3 
REMARK    3  A    between atoms: S_5  and  C_11 
REMARK    4  A    between atoms: C_13  and  S_5 
REMARK    5  A    between atoms: O_23  and  C_12 
REMARK    6  A    between atoms: C_28  and  O_23 
ROOT
ATOM      1  C   UNL d   1      -0.540   0.655   0.143  0.00  0.00     0.062 A 
ATOM      2  C   UNL d   1      -1.974   0.785   0.121  0.00  0.00     0.086 A 
ATOM      3  C   UNL d   1      -2.475  -0.511   0.100  0.00  0.00     0.085 A 
ATOM      4  C   UNL d   1      -0.282  -0.713   0.135  0.00  0.00     0.132 A 
ATOM      5  O   UNL d   1      -1.448  -1.411   0.113  0.00  0.00    -0.309 OA
ATOM      6  C   UNL d   1       0.575   1.519   0.110  0.00  0.00     0.172 A 
ATOM      7  C   UNL d   1       1.001  -1.259   0.111  0.00  0.00     0.192 A 
ATOM      8  C   UNL d   1       1.869   0.993   0.078  0.00  0.00     0.197 A 
ATOM      9  C   UNL d   1       2.077  -0.378   0.081  0.00  0.00     0.199 A 
ATOM     10  F   UNL d   1       0.424   2.849   0.064  0.00  0.00    -0.202 F 
ATOM     11  F   UNL d   1       1.199  -2.582   0.085  0.00  0.00    -0.200 F 
ATOM     12  F   UNL d   1       2.917   1.827   0.019  0.00  0.00    -0.199 F 
ATOM     13  F   UNL d   1       3.328  -0.856   0.028  0.00  0.00    -0.199 F 
ENDROOT
BRANCH   3  14
ATOM     14  C   UNL d   1      -3.839  -1.106  -0.000  0.00  0.00     0.211 C 
BRANCH  14  15
ATOM     15  S   UNL d   1      -4.515  -1.323   1.640  0.00  0.00     0.181 S 
ATOM     16  O   UNL d   1      -3.696  -2.262   2.383  0.00  0.00    -0.222 OA
ATOM     17  O   UNL d   1      -4.827  -0.019   2.200  0.00  0.00    -0.222 OA
BRANCH  15  18
ATOM     18  C   UNL d   1      -6.075  -2.147   1.340  0.00  0.00     0.059 A 
ATOM     19  C   UNL d   1      -6.129  -3.546   1.354  0.00  0.00     0.025 A 
ATOM     20  C   UNL d   1      -7.359  -4.193   1.186  0.00  0.00     0.025 A 
ATOM     21  C   UNL d   1      -8.522  -3.442   1.017  0.00  0.00     0.034 A 
ATOM     22  C   UNL d   1      -8.469  -2.047   1.015  0.00  0.00     0.025 A 
ATOM     23 CL   UNL d   1     -10.034  -4.240   0.827  0.00  0.00    -0.084 Cl
ATOM     24  C   UNL d   1      -7.243  -1.393   1.182  0.00  0.00     0.025 A 
ENDBRANCH  15  18
ENDBRANCH  14  15
ENDBRANCH   3  14
BRANCH   2  25
ATOM     25  C   UNL d   1      -2.771   1.997   0.035  0.00  0.00     0.296 C 
ATOM     26  O   UNL d   1      -3.895   2.012  -0.447  0.00  0.00    -0.259 OA
BRANCH  25  27
ATOM     27  O   UNL d   1      -2.087   3.087   0.465  0.00  0.00    -0.318 OA
BRANCH  27  28
ATOM     28  C   UNL d   1      -2.573   4.371   0.049  0.00  0.00     0.174 C 
ATOM     29  C   UNL d   1      -1.830   4.769  -1.214  0.00  0.00     0.034 C 
ENDBRANCH  27  28
ENDBRANCH  25  27
ENDBRANCH   2  25
TORSDOF 6
