REMARK  3 active torsions:
REMARK  status: ('A' for Active; 'I' for Inactive)
REMARK       I    between atoms: N_3  and  C_1 
REMARK       I    between atoms: N_5  and  C_1 
REMARK       I    between atoms: C_2  and  N_4 
REMARK    1  A    between atoms: O_6  and  C_2 
REMARK    2  A    between atoms: C_12  and  N_5 
REMARK    3  A    between atoms: C_11  and  O_6 
ROOT
ATOM      1  C   UNL d   1       0.802  -0.111   0.100  0.00  0.00     0.322 C 
ATOM      2  C   UNL d   1      -2.757  -2.827  -2.937  0.00  0.00     0.363 C 
ATOM      3  N   UNL d   1       0.231  -0.678  -1.045  0.00  0.00    -0.332 N 
ATOM      4  N   UNL d   1      -2.197  -2.313  -1.773  0.00  0.00    -0.326 N 
ATOM      5  N   UNL d   1       0.387   1.164   0.414  0.00  0.00    -0.309 N 
ATOM      6  O   UNL d   1       1.621  -0.750   0.758  0.00  0.00    -0.247 OA
ATOM      7  O   UNL d   1      -3.190  -2.115  -3.836  0.00  0.00    -0.238 OA
ATOM      8  C   UNL d   1      -2.215  -0.862  -1.553  0.00  0.00     0.148 C 
ATOM      9  C   UNL d   1      -0.882  -0.166  -1.859  0.00  0.00     0.147 C 
ATOM     10  C   UNL d   1      -0.088  -3.122  -0.614  0.00  0.00     0.040 C 
ATOM     11  C   UNL d   1       0.653  -2.036  -1.389  0.00  0.00     0.129 C 
ATOM     12  C   UNL d   1      -1.618  -3.135  -0.714  0.00  0.00     0.129 C 
ATOM     13  H   UNL d   1      -0.271   1.606  -0.195  0.00  0.00     0.170 HD
ENDROOT
BRANCH   5  14
ATOM     14  C   UNL d   1       0.801   1.960   1.512  0.00  0.00     0.036 A 
ATOM     15  C   UNL d   1       1.774   1.583   2.442  0.00  0.00     0.029 A 
ATOM     16  C   UNL d   1       2.106   2.422   3.512  0.00  0.00     0.002 A 
ATOM     17  C   UNL d   1       1.470   3.651   3.667  0.00  0.00     0.000 A 
ATOM     18  C   UNL d   1       0.509   4.047   2.742  0.00  0.00     0.002 A 
ATOM     19  C   UNL d   1       0.181   3.209   1.669  0.00  0.00     0.029 A 
ENDBRANCH   5  14
BRANCH   2  20
ATOM     20  O   UNL d   1      -2.794  -4.184  -2.953  0.00  0.00    -0.294 OA
BRANCH  20  21
ATOM     21  C   UNL d   1      -3.437  -4.907  -4.040  0.00  0.00     0.061 C 
ATOM     22  C   UNL d   1      -2.762  -4.617  -5.385  0.00  0.00     0.046 C 
ATOM     23  C   UNL d   1      -3.243  -6.396  -3.708  0.00  0.00     0.046 C 
ATOM     24  C   UNL d   1      -4.944  -4.620  -4.087  0.00  0.00     0.046 C 
ENDBRANCH  20  21
ENDBRANCH   2  20
TORSDOF 3
