REMARK  5 active torsions:
REMARK  status: ('A' for Active; 'I' for Inactive)
REMARK    1  A    between atoms: C_13  and  C_3 
REMARK    2  A    between atoms: C_15  and  N_6 
REMARK    3  A    between atoms: C_14  and  C_11 
REMARK    4  A    between atoms: C_18  and  C_13 
REMARK    5  A    between atoms: C_19  and  C_14 
ROOT
ATOM      1  N   UNL d   1      -0.305   0.588   0.033  0.00  0.00    -0.062 N 
ATOM      2  C   UNL d   1      -0.001  -0.767   0.155  0.00  0.00     0.730 A 
ATOM      3  C   UNL d   1      -1.687   0.710  -0.115  0.00  0.00     0.212 A 
ATOM      4  N   UNL d   1       1.169  -1.296   0.289  0.00  0.00    -0.151 N 
ATOM      5  HN  UNL d   1       1.330  -2.301   0.348  1.00  0.00     0.188 HD
ATOM      6  N   UNL d   1      -1.258  -1.371   0.052  0.00  0.00    -0.083 N 
ATOM      7  N   UNL d   1      -2.305  -0.466  -0.141  0.00  0.00    -0.259 N 
ATOM      8  HN  UNL d   1      -3.298  -0.660  -0.271  1.00  0.00     0.190 HD
ATOM      9  N   UNL d   1       0.663   1.568  -0.064  0.00  0.00    -0.276 N 
ATOM     10  HN  UNL d   1       0.446   2.550  -0.231  1.00  0.00     0.188 HD
ATOM     11  C   UNL d   1       1.886   1.119   0.081  0.00  0.00     0.099 A 
ATOM     12  C   UNL d   1       2.170  -0.366   0.344  0.00  0.00     0.284 A 
ATOM     13  O   UNL d   1       3.322  -0.676   0.626  0.00  0.00    -0.265 OA
ENDROOT
BRANCH   3  14
ATOM     14  C   UNL d   1      -2.465   1.998  -0.166  0.00  0.00     0.229 C 
ATOM     15  O   UNL d   1      -2.102   2.926   0.547  0.00  0.00    -0.283 OA
BRANCH  14  16
ATOM     16  C   UNL d   1      -3.707   2.093  -0.978  0.00  0.00     0.018 A 
ATOM     17  C   UNL d   1      -4.726   2.960  -0.554  0.00  0.00     0.015 A 
ATOM     18  C   UNL d   1      -5.919   3.050  -1.274  0.00  0.00     0.001 A 
ATOM     19  C   UNL d   1      -6.095   2.287  -2.428  0.00  0.00     0.000 A 
ATOM     20  C   UNL d   1      -5.079   1.436  -2.863  0.00  0.00     0.001 A 
ATOM     21  C   UNL d   1      -3.886   1.337  -2.142  0.00  0.00     0.015 A 
ENDBRANCH  14  16
ENDBRANCH   3  14
BRANCH   6  22
ATOM     22  C   UNL d   1      -1.470  -2.769   0.046  0.00  0.00     0.074 A 
ATOM     23  C   UNL d   1      -0.650  -3.615   0.813  0.00  0.00     0.032 A 
ATOM     24  C   UNL d   1      -0.736  -5.002   0.719  0.00  0.00     0.002 A 
ATOM     25  C   UNL d   1      -1.661  -5.574  -0.144  0.00  0.00     0.000 A 
ATOM     26  C   UNL d   1      -2.522  -4.758  -0.878  0.00  0.00     0.002 A 
ATOM     27  C   UNL d   1      -2.442  -3.363  -0.770  0.00  0.00     0.032 A 
ENDBRANCH   6  22
BRANCH  11  28
ATOM     28  C   UNL d   1       3.095   2.014  -0.023  0.00  0.00     0.103 C 
BRANCH  28  29
ATOM     29  C   UNL d   1       3.649   2.078  -1.427  0.00  0.00    -0.052 A 
ATOM     30  C   UNL d   1       3.265   3.120  -2.280  0.00  0.00     0.009 A 
ATOM     31  C   UNL d   1       3.765   3.193  -3.582  0.00  0.00     0.024 A 
ATOM     32  C   UNL d   1       4.645   2.216  -4.043  0.00  0.00     0.034 A 
ATOM     33  C   UNL d   1       5.032   1.169  -3.211  0.00  0.00     0.024 A 
ATOM     34 CL   UNL d   1       5.252   2.306  -5.650  0.00  0.00    -0.084 Cl
ATOM     35  C   UNL d   1       4.537   1.100  -1.905  0.00  0.00     0.009 A 
ENDBRANCH  28  29
ENDBRANCH  11  28
TORSDOF 5
