REMARK  4 active torsions:
REMARK  status: ('A' for Active; 'I' for Inactive)
REMARK       I    between atoms: N_2  and  C_1 
REMARK    1  A    between atoms: C_4  and  C_1 
REMARK    2  A    between atoms: C_5  and  N_2 
REMARK    3  A    between atoms: S_7  and  C_3 
REMARK    4  A    between atoms: C_12  and  S_7 
ROOT
ATOM      1  C   UNL d   1       0.501  -2.477  -2.332  0.00  0.00     0.101 A 
ATOM      2  C   UNL d   1       1.034  -2.074  -1.099  0.00  0.00     0.069 A 
ATOM      3  N   UNL d   1       1.074  -3.459  -3.082  0.00  0.00    -0.358 N 
ATOM      4  HN  UNL d   1       0.680  -3.734  -3.981  1.00  0.00     0.166 HD
ATOM      5  C   UNL d   1       2.196  -2.696  -0.637  0.00  0.00     0.034 A 
ATOM      6  C   UNL d   1       2.183  -4.054  -2.591  0.00  0.00     0.089 A 
ATOM      7  C   UNL d   1       2.775  -3.713  -1.389  0.00  0.00     0.019 A 
ENDROOT
BRANCH   2   8
ATOM      8  N   UNL d   1       0.510  -1.001  -0.338  0.00  0.00    -0.320 N 
ATOM      9  C   UNL d   1      -0.482  -1.260   0.611  0.00  0.00     0.257 C 
ATOM     10  O   UNL d   1      -1.015  -2.353   0.751  0.00  0.00    -0.267 OA
ATOM     11  H   UNL d   1       1.197  -0.332  -0.015  0.00  0.00     0.169 HD
BRANCH   9  12
ATOM     12  C   UNL d   1      -0.820  -0.092   1.501  0.00  0.00     0.043 A 
ATOM     13  C   UNL d   1      -1.255  -0.242   2.859  0.00  0.00    -0.010 A 
ATOM     14  C   UNL d   1      -1.540   0.938   3.597  0.00  0.00    -0.025 A 
ATOM     15  C   UNL d   1      -1.425  -1.474   3.542  0.00  0.00     0.013 A 
ATOM     16  C   UNL d   1      -1.978   0.860   4.933  0.00  0.00     0.012 A 
ATOM     17  C   UNL d   1      -1.399   2.200   3.006  0.00  0.00     0.012 A 
ATOM     18  C   UNL d   1      -2.151  -0.368   5.562  0.00  0.00     0.001 A 
ATOM     19  C   UNL d   1      -1.875  -1.534   4.870  0.00  0.00     0.001 A 
ATOM     20  C   UNL d   1      -0.997   2.329   1.681  0.00  0.00     0.002 A 
ATOM     21  C   UNL d   1      -0.719   1.193   0.932  0.00  0.00     0.018 A 
ENDBRANCH   9  12
ENDBRANCH   2   8
BRANCH   1  22
ATOM     22  S   UNL d   1      -0.780  -1.553  -3.159  0.00  0.00    -0.070 SA
BRANCH  22  23
ATOM     23  C   UNL d   1      -2.299  -2.406  -2.784  0.00  0.00     0.007 A 
ATOM     24  C   UNL d   1      -3.486  -1.676  -2.937  0.00  0.00     0.019 A 
ATOM     25  C   UNL d   1      -4.731  -2.265  -2.704  0.00  0.00     0.008 A 
ATOM     26  C   UNL d   1      -4.817  -3.605  -2.320  0.00  0.00    -0.062 A 
ATOM     27  C   UNL d   1      -3.635  -4.337  -2.159  0.00  0.00     0.008 A 
ATOM     28  C   UNL d   1      -6.158  -4.223  -2.058  0.00  0.00     0.048 C 
ATOM     29  C   UNL d   1      -2.387  -3.745  -2.398  0.00  0.00     0.019 A 
ENDBRANCH  22  23
ENDBRANCH   1  22
TORSDOF 4
