REMARK  4 active torsions:
REMARK  status: ('A' for Active; 'I' for Inactive)
REMARK       I    between atoms: N_2  and  C_1 
REMARK       I    between atoms: N_4  and  C_1 
REMARK    1  A    between atoms: C_3  and  N_2 
REMARK    2  A    between atoms: C_13  and  N_4 
REMARK    3  A    between atoms: C_14  and  C_13 
REMARK    4  A    between atoms: C_15  and  C_14 
ROOT
ATOM      1  C   UNL d   1       0.998  -0.066  -0.051  0.00  0.00     0.322 C 
ATOM      2  N   UNL d   1       0.341   1.095  -0.400  0.00  0.00    -0.309 N 
ATOM      3  N   UNL d   1       0.245  -0.952   0.713  0.00  0.00    -0.338 N 
ATOM      4  O   UNL d   1       2.178  -0.290  -0.319  0.00  0.00    -0.247 OA
ATOM      5  C   UNL d   1      -1.209  -1.034   0.679  0.00  0.00     0.154 C 
ATOM      6  H   UNL d   1      -0.340   1.394   0.281  0.00  0.00     0.170 HD
ENDROOT
BRANCH   2   7
ATOM      7  C   UNL d   1       0.911   2.102  -1.210  0.00  0.00     0.039 A 
ATOM      8  C   UNL d   1       1.756   1.806  -2.285  0.00  0.00     0.053 A 
ATOM      9  C   UNL d   1       2.311   2.841  -3.040  0.00  0.00     0.037 A 
ATOM     10 CL   UNL d   1       3.332   2.470  -4.377  0.00  0.00    -0.084 Cl
ATOM     11  C   UNL d   1       2.046   4.169  -2.728  0.00  0.00     0.048 A 
ATOM     12  C   UNL d   1       1.196   4.459  -1.665  0.00  0.00     0.037 A 
ATOM     13  C   UNL d   1       0.606   3.435  -0.921  0.00  0.00     0.053 A 
ATOM     14 CL   UNL d   1       0.884   6.099  -1.245  0.00  0.00    -0.084 Cl
ENDBRANCH   2   7
BRANCH   3  15
ATOM     15  C   UNL d   1       0.944  -2.098   1.307  0.00  0.00     0.133 C 
BRANCH  15  16
ATOM     16  C   UNL d   1       1.879  -1.701   2.454  0.00  0.00     0.077 C 
BRANCH  16  17
ATOM     17  C   UNL d   1       2.538  -2.919   3.049  0.00  0.00     0.010 A 
ATOM     18  N   UNL d   1       1.917  -3.500   4.105  0.00  0.00    -0.369 N 
ATOM     19  C   UNL d   1       2.493  -4.605   4.630  0.00  0.00     0.088 A 
ATOM     20  HN  UNL d   1       1.052  -3.119   4.488  1.00  0.00     0.165 HD
ATOM     21  C   UNL d   1       3.656  -5.176   4.143  0.00  0.00     0.017 A 
ATOM     22  C   UNL d   1       4.273  -4.575   3.053  0.00  0.00     0.003 A 
ATOM     23  C   UNL d   1       3.709  -3.431   2.495  0.00  0.00     0.025 A 
ENDBRANCH  16  17
ENDBRANCH  15  16
ENDBRANCH   3  15
TORSDOF 4
