REMARK  1 active torsions:
REMARK  status: ('A' for Active; 'I' for Inactive)
REMARK    1  A    between atoms: N_7  and  C_3 
ROOT
ATOM      1  N   UNL d   1      -0.115  -1.082   0.001  0.00  0.00    -0.321 N 
ATOM      2  HN  UNL d   1      -0.212  -2.098   0.001  1.00  0.00     0.169 HD
ATOM      3  C   UNL d   1       1.054  -0.513   0.007  0.00  0.00     0.154 A 
ATOM      4  C   UNL d   1      -1.215  -0.256  -0.005  0.00  0.00     0.151 A 
ATOM      5  S   UNL d   1       1.103   1.255   0.005  0.00  0.00    -0.014 SA
ATOM      6  S   UNL d   1      -0.910   1.482   0.010  0.00  0.00    -0.020 SA
ATOM      7  S   UNL d   1      -2.794  -0.832  -0.025  0.00  0.00    -0.052 SA
ENDROOT
BRANCH   3   8
ATOM      8  N   UNL d   1       2.237  -1.234   0.013  0.00  0.00    -0.370 N 
ATOM      9  C   UNL d   1       3.580  -0.669   0.019  0.00  0.00     0.151 C 
ATOM     10  C   UNL d   1       2.216  -2.695   0.018  0.00  0.00     0.151 C 
ENDBRANCH   3   8
TORSDOF 1
