REMARK  4 active torsions:
REMARK  status: ('A' for Active; 'I' for Inactive)
REMARK    1  A    between atoms: C_5  and  C_1 
REMARK    2  A    between atoms: C_11  and  C_6 
REMARK    3  A    between atoms: O_23  and  C_8 
REMARK    4  A    between atoms: O_25  and  C_22 
ROOT
ATOM      1  C   UNL d   1      -1.403   1.849  -0.088  0.00  0.00     0.024 C 
ATOM      2  N   UNL d   1      -0.308   1.688  -0.772  0.00  0.00    -0.358 N 
ATOM      3  HN  UNL d   1      -0.143   2.255  -1.603  1.00  0.00     0.166 HD
ATOM      4  S   UNL d   1      -1.201  -1.363  -0.567  0.00  0.00    -0.118 SA
ATOM      5  C   UNL d   1      -2.240  -0.457   0.649  0.00  0.00     0.091 C 
ATOM      6  C   UNL d   1      -1.750   0.941   1.091  0.00  0.00     0.078 C 
ATOM      7  C   UNL d   1       0.652   0.734  -0.375  0.00  0.00     0.049 A 
ATOM      8  C   UNL d   1       0.403  -0.644  -0.241  0.00  0.00     0.028 A 
ATOM      9  C   UNL d   1       1.935   1.226  -0.109  0.00  0.00     0.031 A 
ATOM     10  C   UNL d   1       1.441  -1.496   0.154  0.00  0.00     0.021 A 
ATOM     11  C   UNL d   1       2.712  -0.987   0.434  0.00  0.00     0.002 A 
ATOM     12  C   UNL d   1       2.958   0.377   0.302  0.00  0.00     0.002 A 
ENDROOT
BRANCH   1  13
ATOM     13  C   UNL d   1      -2.290   3.014  -0.478  0.00  0.00     0.020 A 
ATOM     14  C   UNL d   1      -2.014   3.741  -1.653  0.00  0.00     0.080 A 
ATOM     15  C   UNL d   1      -2.716   4.904  -1.973  0.00  0.00     0.074 A 
ATOM     16  C   UNL d   1      -3.710   5.387  -1.126  0.00  0.00     0.070 A 
ATOM     17  C   UNL d   1      -4.032   4.656   0.017  0.00  0.00     0.038 A 
ATOM     18  C   UNL d   1      -3.330   3.479   0.338  0.00  0.00     0.019 A 
BRANCH  14  19
ATOM     19  O   UNL d   1      -1.039   3.385  -2.550  0.00  0.00    -0.360 OA
ATOM     20  H   UNL d   1      -0.545   2.632  -2.153  0.00  0.00     0.217 HD
ENDBRANCH  14  19
BRANCH  16  21
ATOM     21  O   UNL d   1      -4.278   6.565  -1.519  0.00  0.00    -0.356 OA
ATOM     22  C   UNL d   1      -5.139   7.212  -0.591  0.00  0.00     0.210 C 
ENDBRANCH  16  21
ENDBRANCH   1  13
BRANCH   5  23
ATOM     23  C   UNL d   1      -3.705  -0.342   0.237  0.00  0.00    -0.041 A 
ATOM     24  C   UNL d   1      -4.662  -0.260   1.268  0.00  0.00     0.048 A 
ATOM     25  C   UNL d   1      -5.910   0.219   0.951  0.00  0.00     0.105 A 
ATOM     26  O   UNL d   1      -6.873   0.563   1.849  0.00  0.00    -0.323 OA
ATOM     27  C   UNL d   1      -6.268   0.521  -0.342  0.00  0.00     0.105 A 
ATOM     28  C   UNL d   1      -7.734   1.344   0.993  0.00  0.00     0.352 C 
ATOM     29  O   UNL d   1      -7.501   1.093  -0.408  0.00  0.00    -0.323 OA
ATOM     30  C   UNL d   1      -5.407   0.328  -1.397  0.00  0.00     0.040 A 
ATOM     31  C   UNL d   1      -4.105  -0.085  -1.099  0.00  0.00     0.011 A 
ENDBRANCH   5  23
TORSDOF 4
