REMARK  6 active torsions:
REMARK  status: ('A' for Active; 'I' for Inactive)
REMARK    1  A    between atoms: C_10  and  N_1 
REMARK    2  A    between atoms: S_9  and  C_5 
REMARK    3  A    between atoms: C_17  and  S_9 
REMARK    4  A    between atoms: C_12  and  C_17 
REMARK    5  A    between atoms: O_18  and  C_12 
REMARK    6  A    between atoms: C_21  and  O_18 
ROOT
ATOM      1  N   UNL d   1      -0.347  -1.339  -0.044  0.00  0.00    -0.273 N 
ATOM      2  C   UNL d   1       0.881  -0.685   0.017  0.00  0.00     0.163 A 
ATOM      3  N   UNL d   1       0.695   0.620   0.064  0.00  0.00    -0.281 N 
ATOM      4  HN  UNL d   1       1.428   1.326   0.145  1.00  0.00     0.188 HD
ATOM      5  C   UNL d   1      -1.262  -0.296  -0.077  0.00  0.00     0.168 A 
ATOM      6  N   UNL d   1      -0.646   0.863  -0.014  0.00  0.00    -0.278 N 
ATOM      7  HN  UNL d   1      -1.090   1.781  -0.021  1.00  0.00     0.189 HD
ATOM      8  C   UNL d   1       2.183  -1.278  -0.051  0.00  0.00     0.120 A 
ATOM      9  O   UNL d   1       2.463  -2.418  -0.763  0.00  0.00    -0.319 OA
ATOM     10  C   UNL d   1       3.355  -0.837   0.543  0.00  0.00     0.043 A 
ATOM     11  C   UNL d   1       3.777  -2.706  -0.595  0.00  0.00     0.142 A 
ATOM     12  C   UNL d   1       4.371  -1.766   0.212  0.00  0.00     0.027 A 
ENDROOT
BRANCH   5  13
ATOM     13  S   UNL d   1      -2.994  -0.452   0.003  0.00  0.00    -0.082 SA
BRANCH  13  14
ATOM     14  C   UNL d   1      -3.494   1.044  -0.904  0.00  0.00     0.193 C 
BRANCH  14  15
ATOM     15  C   UNL d   1      -2.914   1.075  -2.303  0.00  0.00     0.268 C 
ATOM     16  O   UNL d   1      -2.552   0.103  -2.954  0.00  0.00    -0.264 OA
BRANCH  15  17
ATOM     17  O   UNL d   1      -2.870   2.369  -2.740  0.00  0.00    -0.321 OA
BRANCH  17  18
ATOM     18  C   UNL d   1      -2.121   2.591  -3.944  0.00  0.00     0.174 C 
ATOM     19  C   UNL d   1      -0.662   2.805  -3.584  0.00  0.00     0.034 C 
ENDBRANCH  17  18
ENDBRANCH  15  17
ENDBRANCH  14  15
ENDBRANCH  13  14
ENDBRANCH   5  13
BRANCH   1  20
ATOM     20  C   UNL d   1      -0.591  -2.743  -0.017  0.00  0.00     0.043 A 
ATOM     21  C   UNL d   1       0.192  -3.576   0.798  0.00  0.00     0.030 A 
ATOM     22  C   UNL d   1      -0.029  -4.955   0.816  0.00  0.00     0.002 A 
ATOM     23  C   UNL d   1      -1.039  -5.510   0.034  0.00  0.00     0.000 A 
ATOM     24  C   UNL d   1      -1.825  -4.688  -0.771  0.00  0.00     0.002 A 
ATOM     25  C   UNL d   1      -1.602  -3.309  -0.802  0.00  0.00     0.030 A 
ENDBRANCH   1  20
TORSDOF 6
