REMARK  5 active torsions:
REMARK  status: ('A' for Active; 'I' for Inactive)
REMARK    1  A    between atoms: S_2  and  C_3 
REMARK    2  A    between atoms: C_8  and  S_2 
REMARK    3  A    between atoms: O_19  and  C_6 
REMARK    4  A    between atoms: C_7  and  C_9 
REMARK    5  A    between atoms: C_15  and  C_8 
ROOT
ATOM      1  S   UNL d   1       2.537   0.581  -1.279  0.00  0.00     0.155 S 
ATOM      2  O   UNL d   1       2.864   1.995  -1.336  0.00  0.00    -0.227 OA
ATOM      3  O   UNL d   1       3.541  -0.387  -0.882  0.00  0.00    -0.227 OA
ENDROOT
BRANCH   1   4
ATOM      4  C   UNL d   1       1.210   0.471  -0.103  0.00  0.00     0.152 C 
ATOM      5  C   UNL d   1       1.758   0.751   1.300  0.00  0.00     0.162 C 
ATOM      6  S   UNL d   1       1.044  -0.464   2.371  0.00  0.00     0.148 S 
ATOM      7  C   UNL d   1      -0.222  -0.997   1.254  0.00  0.00     0.173 C 
ATOM      8  O   UNL d   1       1.986  -1.557   2.508  0.00  0.00    -0.228 OA
ATOM      9  O   UNL d   1       0.429   0.191   3.504  0.00  0.00    -0.228 OA
ATOM     10  C   UNL d   1       0.429  -0.846  -0.112  0.00  0.00     0.151 C 
BRANCH  10  11
ATOM     11  O   UNL d   1       1.208  -1.992  -0.417  0.00  0.00    -0.393 OA
ATOM     12  H   UNL d   1       1.866  -2.179   0.289  0.00  0.00     0.210 HD
ENDBRANCH  10  11
ENDBRANCH   1   4
BRANCH   1  13
ATOM     13  C   UNL d   1       1.833   0.101  -2.867  0.00  0.00     0.179 C 
BRANCH  13  14
ATOM     14  C   UNL d   1       2.918   0.236  -3.908  0.00  0.00    -0.043 A 
ATOM     15  C   UNL d   1       3.802  -0.828  -4.152  0.00  0.00     0.024 A 
ATOM     16  C   UNL d   1       4.881  -0.684  -5.039  0.00  0.00     0.048 A 
ATOM     17  C   UNL d   1       5.057   0.540  -5.701  0.00  0.00     0.016 A 
ATOM     18  C   UNL d   1       4.176   1.598  -5.478  0.00  0.00     0.001 A 
ATOM     19  C   UNL d   1       3.114   1.448  -4.586  0.00  0.00     0.008 A 
BRANCH  16  20
ATOM     20  C   UNL d   1       5.867  -1.805  -5.261  0.00  0.00     0.417 C 
ATOM     21  F   UNL d   1       5.562  -2.946  -4.582  0.00  0.00    -0.166 F 
ATOM     22  F   UNL d   1       5.955  -2.167  -6.572  0.00  0.00    -0.166 F 
ATOM     23  F   UNL d   1       7.132  -1.471  -4.883  0.00  0.00    -0.166 F 
ENDBRANCH  16  20
ENDBRANCH  13  14
ENDBRANCH   1  13
TORSDOF 5
