REMARK  2 active torsions:
REMARK  status: ('A' for Active; 'I' for Inactive)
REMARK    1  A    between atoms: O_8  and  C_4 
REMARK    2  A    between atoms: C_6  and  O_8 
REMARK       I    between atoms: N_9  and  C_6 
ROOT
ATOM      1  C   UNL d   1      -0.659   1.411  -0.192  0.00  0.00     0.250 A 
ATOM      2  N   UNL d   1      -1.430   0.247  -0.026  0.00  0.00    -0.323 N 
ATOM      3  C   UNL d   1       0.820   1.244  -0.136  0.00  0.00     0.112 A 
ATOM      4  C   UNL d   1       1.336   0.045   0.156  0.00  0.00     0.088 A 
ATOM      5  C   UNL d   1      -0.852  -0.989   0.269  0.00  0.00     0.013 A 
ATOM      6  C   UNL d   1       0.477  -1.074   0.427  0.00  0.00     0.062 A 
ATOM      7  O   UNL d   1      -1.123   2.527  -0.405  0.00  0.00    -0.268 OA
ATOM      8  C   UNL d   1      -2.878   0.374  -0.141  0.00  0.00     0.159 C 
ATOM      9  C   UNL d   1      -1.675  -2.243   0.373  0.00  0.00     0.068 C 
ENDROOT
BRANCH   4  10
ATOM     10  O   UNL d   1       2.691  -0.339   0.161  0.00  0.00    -0.261 OA
BRANCH  10  11
ATOM     11  C   UNL d   1       3.749   0.332  -0.378  0.00  0.00     0.367 C 
ATOM     12  N   UNL d   1       4.891  -0.463  -0.411  0.00  0.00    -0.336 N 
ATOM     13  C   UNL d   1       4.867  -1.892  -0.125  0.00  0.00     0.154 C 
ATOM     14  C   UNL d   1       6.104   0.051  -1.014  0.00  0.00     0.154 C 
ATOM     15  O   UNL d   1       3.703   1.483  -0.804  0.00  0.00    -0.238 OA
ENDBRANCH  10  11
ENDBRANCH   4  10
TORSDOF 2
