REMARK  8 active torsions:
REMARK  status: ('A' for Active; 'I' for Inactive)
REMARK    1  A    between atoms: C_8  and  C_2 
REMARK    2  A    between atoms: C_12  and  N_4 
REMARK    3  A    between atoms: O_20  and  C_8 
REMARK    4  A    between atoms: O_22  and  C_13 
REMARK    5  A    between atoms: O_23  and  C_15 
REMARK    6  A    between atoms: C_27  and  O_20 
REMARK    7  A    between atoms: C_28  and  O_22 
REMARK    8  A    between atoms: C_29  and  O_23 
ROOT
ATOM      1  N   UNL d   1      -2.468   1.358   0.366  0.00  0.00    -0.334 N 
ATOM      2  C   UNL d   1      -3.161   2.272   1.244  0.00  0.00     0.197 C 
ATOM      3  C   UNL d   1      -1.119   1.903   0.335  0.00  0.00     0.244 C 
ATOM      4  N   UNL d   1      -1.076   2.547   1.670  0.00  0.00    -0.262 N 
ATOM      5  N   UNL d   1      -2.366   2.939   2.027  0.00  0.00    -0.276 N 
ATOM      6  HN  UNL d   1      -2.629   3.608   2.750  1.00  0.00     0.189 HD
ATOM      7  C   UNL d   1      -0.020   0.957  -0.010  0.00  0.00    -0.005 A 
ATOM      8  C   UNL d   1      -0.230  -0.416  -0.160  0.00  0.00    -0.044 A 
ATOM      9  C   UNL d   1       1.270   1.494  -0.148  0.00  0.00     0.051 A 
ATOM     10  C   UNL d   1      -2.725  -0.081   0.461  0.00  0.00     0.132 C 
ATOM     11  C   UNL d   1       2.372   0.677  -0.362  0.00  0.00     0.102 A 
ATOM     12  C   UNL d   1       0.894  -1.253  -0.313  0.00  0.00     0.047 A 
ATOM     13  C   UNL d   1       2.194  -0.715  -0.374  0.00  0.00     0.102 A 
ATOM     14  C   UNL d   1      -1.643  -0.950  -0.214  0.00  0.00     0.059 C 
ENDROOT
BRANCH   4  15
ATOM     15  C   UNL d   1      -0.337   2.049   2.759  0.00  0.00     0.053 A 
ATOM     16  C   UNL d   1       0.221   2.968   3.656  0.00  0.00     0.033 A 
ATOM     17  C   UNL d   1       1.038   2.549   4.717  0.00  0.00     0.026 A 
ATOM     18  C   UNL d   1       1.298   1.196   4.899  0.00  0.00     0.034 A 
ATOM     19  C   UNL d   1       0.708   0.258   4.059  0.00  0.00     0.026 A 
ATOM     20 CL   UNL d   1       2.336   0.674   6.164  0.00  0.00    -0.084 Cl
ATOM     21  C   UNL d   1      -0.122   0.685   3.018  0.00  0.00     0.033 A 
ENDBRANCH   4  15
BRANCH   2  22
ATOM     22  C   UNL d   1      -4.662   2.488   1.199  0.00  0.00     0.329 C 
ATOM     23  O   UNL d   1      -5.446   1.607   0.919  0.00  0.00    -0.256 OA
BRANCH  22  24
ATOM     24  O   UNL d   1      -4.896   3.801   1.428  0.00  0.00    -0.316 OA
BRANCH  24  25
ATOM     25  C   UNL d   1      -6.245   4.283   1.370  0.00  0.00     0.175 C 
ATOM     26  C   UNL d   1      -6.397   5.167   0.147  0.00  0.00     0.034 C 
ENDBRANCH  24  25
ENDBRANCH  22  24
ENDBRANCH   2  22
BRANCH  11  27
ATOM     27  O   UNL d   1       3.645   1.169  -0.520  0.00  0.00    -0.349 OA
BRANCH  27  28
ATOM     28  C   UNL d   1       3.740   2.523  -0.973  0.00  0.00     0.171 C 
ATOM     29  C   UNL d   1       5.158   2.797  -1.431  0.00  0.00     0.034 C 
ENDBRANCH  27  28
ENDBRANCH  11  27
BRANCH  13  30
ATOM     30  O   UNL d   1       3.344  -1.448  -0.494  0.00  0.00    -0.349 OA
BRANCH  30  31
ATOM     31  C   UNL d   1       3.311  -2.827  -0.142  0.00  0.00     0.171 C 
ATOM     32  C   UNL d   1       4.750  -3.304  -0.032  0.00  0.00     0.034 C 
ENDBRANCH  30  31
ENDBRANCH  13  30
TORSDOF 8
