REMARK  6 active torsions:
REMARK  status: ('A' for Active; 'I' for Inactive)
REMARK    1  A    between atoms: C_2  and  C_1 
REMARK    2  A    between atoms: N_6  and  C_2 
REMARK    3  A    between atoms: C_3  and  C_5 
REMARK    4  A    between atoms: C_4  and  C_7 
REMARK    5  A    between atoms: C_10  and  N_6 
REMARK    6  A    between atoms: O_21  and  N_8 
ROOT
ATOM      1  C   UNL d   1       1.330   2.641  -0.051  0.00  0.00     0.117 C 
ATOM      2  N   UNL d   1       2.623   2.742  -0.139  0.00  0.00    -0.257 N 
ATOM      3  HN  UNL d   1       3.233   1.980  -0.433  1.00  0.00     0.195 HD
ENDROOT
BRANCH   1   4
ATOM      4  C   UNL d   1       0.781   1.258  -0.280  0.00  0.00     0.035 A 
ATOM      5  C   UNL d   1      -0.295   0.680   0.410  0.00  0.00     0.064 A 
ATOM      6  C   UNL d   1      -0.704  -0.618   0.037  0.00  0.00     0.034 A 
ATOM      7  C   UNL d   1      -0.019  -1.292  -0.958  0.00  0.00     0.088 A 
ATOM      8  N   UNL d   1       1.039  -0.773  -1.605  0.00  0.00    -0.374 N 
ATOM      9  C   UNL d   1       1.414   0.483  -1.252  0.00  0.00     0.103 A 
ATOM     10  HN  UNL d   1       1.536  -1.297  -2.325  1.00  0.00     0.164 HD
BRANCH   5  11
ATOM     11  C   UNL d   1      -1.038   1.333   1.538  0.00  0.00     0.418 C 
ATOM     12  F   UNL d   1      -0.362   2.317   2.195  0.00  0.00    -0.166 F 
ATOM     13  F   UNL d   1      -2.214   1.888   1.134  0.00  0.00    -0.166 F 
ATOM     14  F   UNL d   1      -1.378   0.439   2.515  0.00  0.00    -0.166 F 
ENDBRANCH   5  11
ENDBRANCH   1   4
BRANCH   1  15
ATOM     15  N   UNL d   1       0.409   3.631   0.259  0.00  0.00    -0.243 NA
ATOM     16  H   UNL d   1       0.277   3.690   1.269  0.00  0.00     0.135 HD
BRANCH  15  17
ATOM     17  C   UNL d   1       0.414   4.949  -0.272  0.00  0.00     0.014 A 
ATOM     18  C   UNL d   1      -0.209   5.973   0.455  0.00  0.00     0.040 A 
ATOM     19  C   UNL d   1      -0.277   7.290  -0.035  0.00  0.00     0.049 A 
ATOM     20  C   UNL d   1       0.263   7.567  -1.299  0.00  0.00     0.016 A 
ATOM     21  C   UNL d   1       0.844   6.551  -2.053  0.00  0.00     0.003 A 
ATOM     22  C   UNL d   1       0.905   5.247  -1.547  0.00  0.00     0.024 A 
BRANCH  19  23
ATOM     23  C   UNL d   1      -0.922   8.387   0.772  0.00  0.00     0.417 C 
ATOM     24  F   UNL d   1      -1.309   7.990   2.018  0.00  0.00    -0.166 F 
ATOM     25  F   UNL d   1      -0.096   9.452   0.963  0.00  0.00    -0.166 F 
ATOM     26  F   UNL d   1      -2.042   8.883   0.176  0.00  0.00    -0.166 F 
ENDBRANCH  19  23
ENDBRANCH  15  17
ENDBRANCH   1  15
BRANCH   2  27
ATOM     27  O   UNL d   1       3.083   4.016   0.215  0.00  0.00    -0.289 OA
ATOM     28  H   UNL d   1       4.039   3.953   0.038  0.00  0.00     0.244 HD
ENDBRANCH   2  27
TORSDOF 6
