REMARK  6 active torsions:
REMARK  status: ('A' for Active; 'I' for Inactive)
REMARK       I    between atoms: N_2  and  C_1 
REMARK    1  A    between atoms: C_9  and  C_1 
REMARK    2  A    between atoms: C_3  and  N_2 
REMARK    3  A    between atoms: O_13  and  C_6 
REMARK    4  A    between atoms: O_14  and  C_8 
REMARK    5  A    between atoms: C_11  and  C_9 
REMARK    6  A    between atoms: C_15  and  C_9 
ROOT
ATOM      1  C   UNL d   1       1.115   0.066  -0.075  0.00  0.00     0.230 C 
ATOM      2  N   UNL d   1       0.400   0.095  -1.275  0.00  0.00    -0.324 N 
ATOM      3  O   UNL d   1       2.341   0.004  -0.013  0.00  0.00    -0.272 OA
ATOM      4  H   UNL d   1      -0.367   0.754  -1.257  0.00  0.00     0.169 HD
ENDROOT
BRANCH   2   5
ATOM      5  C   UNL d   1       1.126   0.052  -2.491  0.00  0.00     0.071 A 
ATOM      6  C   UNL d   1       1.446   1.257  -3.123  0.00  0.00     0.071 A 
ATOM      7  C   UNL d   1       2.221   1.285  -4.295  0.00  0.00     0.092 A 
ATOM      8  C   UNL d   1       2.638   0.064  -4.844  0.00  0.00     0.070 A 
ATOM      9  C   UNL d   1       2.276  -1.149  -4.226  0.00  0.00     0.065 A 
ATOM     10 CL   UNL d   1       3.587  -0.113  -6.279  0.00  0.00    -0.081 Cl
ATOM     11  C   UNL d   1       1.526  -1.170  -3.046  0.00  0.00     0.096 A 
BRANCH   7  12
ATOM     12  O   UNL d   1       2.437   2.571  -4.704  0.00  0.00    -0.354 OA
ATOM     13  C   UNL d   1       3.214   2.849  -5.855  0.00  0.00     0.210 C 
ENDBRANCH   7  12
BRANCH  11  14
ATOM     14  O   UNL d   1       1.070  -2.307  -2.436  0.00  0.00    -0.354 OA
ATOM     15  C   UNL d   1       1.761  -3.514  -2.730  0.00  0.00     0.210 C 
ENDBRANCH  11  14
ENDBRANCH   2   5
BRANCH   1  16
ATOM     16  C   UNL d   1       0.220   0.206   1.173  0.00  0.00     0.111 C 
BRANCH  16  17
ATOM     17  C   UNL d   1       0.413  -0.949   2.155  0.00  0.00    -0.045 A 
ATOM     18  C   UNL d   1       1.675  -1.253   2.692  0.00  0.00     0.008 A 
ATOM     19  C   UNL d   1       1.823  -2.256   3.650  0.00  0.00     0.001 A 
ATOM     20  C   UNL d   1       0.712  -2.965   4.093  0.00  0.00     0.000 A 
ATOM     21  C   UNL d   1      -0.548  -2.680   3.567  0.00  0.00     0.001 A 
ATOM     22  C   UNL d   1      -0.700  -1.682   2.605  0.00  0.00     0.008 A 
ENDBRANCH  16  17
BRANCH  16  23
ATOM     23  C   UNL d   1       0.460   1.537   1.915  0.00  0.00     0.014 C 
ATOM     24  C   UNL d   1       0.066   2.768   1.114  0.00  0.00     0.006 C 
ENDBRANCH  16  23
ENDBRANCH   1  16
TORSDOF 6
