REMARK  4 active torsions:
REMARK  status: ('A' for Active; 'I' for Inactive)
REMARK    1  A    between atoms: C_2  and  N_1 
REMARK       I    between atoms: C_3  and  N_1 
REMARK    2  A    between atoms: C_9  and  C_3 
REMARK    3  A    between atoms: O_6  and  C_9 
REMARK    4  A    between atoms: C_7  and  O_6 
ROOT
ATOM      1  N   UNL d   1       1.207  -0.177   0.080  0.00  0.00    -0.324 N 
ATOM      2  C   UNL d   1       2.491   0.155   0.496  0.00  0.00     0.251 C 
ATOM      3  O   UNL d   1       3.115  -0.418   1.384  0.00  0.00    -0.270 OA
ATOM      4  H   UNL d   1       0.980   0.083  -0.870  0.00  0.00     0.169 HD
ENDROOT
BRANCH   2   5
ATOM      5  C   UNL d   1       3.124   1.264  -0.380  0.00  0.00     0.217 C 
ATOM      6  C   UNL d   1       4.561   1.547   0.043  0.00  0.00     0.050 C 
BRANCH   5   7
ATOM      7  O   UNL d   1       2.414   2.500  -0.269  0.00  0.00    -0.335 OA
BRANCH   7   8
ATOM      8  C   UNL d   1       1.486   2.828  -1.219  0.00  0.00     0.091 A 
ATOM      9  C   UNL d   1       0.381   3.592  -0.807  0.00  0.00     0.069 A 
ATOM     10  C   UNL d   1      -0.624   3.947  -1.713  0.00  0.00     0.050 A 
ATOM     11 CL   UNL d   1       0.210   4.116   0.831  0.00  0.00    -0.081 Cl
ATOM     12  C   UNL d   1      -0.511   3.552  -3.043  0.00  0.00     0.035 A 
ATOM     13  C   UNL d   1       0.606   2.844  -3.476  0.00  0.00     0.026 A 
ATOM     14 CL   UNL d   1      -1.754   3.947  -4.162  0.00  0.00    -0.084 Cl
ATOM     15  C   UNL d   1       1.613   2.497  -2.569  0.00  0.00     0.040 A 
ENDBRANCH   7   8
ENDBRANCH   5   7
ENDBRANCH   2   5
BRANCH   1  16
ATOM     16  C   UNL d   1       0.391  -1.180   0.654  0.00  0.00     0.046 A 
ATOM     17  C   UNL d   1       0.148  -1.275   2.039  0.00  0.00    -0.034 A 
ATOM     18  C   UNL d   1      -0.752  -2.253   2.511  0.00  0.00     0.015 A 
ATOM     19  C   UNL d   1       0.711  -0.351   3.087  0.00  0.00     0.050 C 
ATOM     20  C   UNL d   1      -1.440  -3.104   1.644  0.00  0.00    -0.061 A 
ATOM     21  C   UNL d   1      -1.194  -3.003   0.276  0.00  0.00     0.015 A 
ATOM     22  C   UNL d   1      -2.427  -4.094   2.186  0.00  0.00     0.048 C 
ATOM     23  C   UNL d   1      -0.277  -2.065  -0.231  0.00  0.00    -0.034 A 
ATOM     24  C   UNL d   1      -0.042  -2.068  -1.720  0.00  0.00     0.050 C 
ENDBRANCH   1  16
TORSDOF 4
