REMARK  5 active torsions:
REMARK  status: ('A' for Active; 'I' for Inactive)
REMARK    1  A    between atoms: C_2  and  C_1 
REMARK       I    between atoms: N_5  and  C_2 
REMARK    2  A    between atoms: C_4  and  C_3 
REMARK    3  A    between atoms: C_12  and  N_5 
REMARK    4  A    between atoms: O_19  and  C_10 
REMARK    5  A    between atoms: C_16  and  C_12 
ROOT
ATOM      1  C   UNL d   1       0.384   1.224   0.049  0.00  0.00     0.062 A 
ATOM      2  C   UNL d   1       0.215   0.180   0.972  0.00  0.00     0.069 A 
ATOM      3  C   UNL d   1      -0.067   1.028  -1.249  0.00  0.00     0.108 A 
ATOM      4  N   UNL d   1      -0.756  -0.059  -1.668  0.00  0.00    -0.346 N 
ATOM      5  HN  UNL d   1      -1.108  -0.136  -2.622  1.00  0.00     0.167 HD
ATOM      6  C   UNL d   1      -0.477  -0.969   0.539  0.00  0.00     0.073 A 
ATOM      7  C   UNL d   1      -0.954  -1.032  -0.758  0.00  0.00     0.142 A 
ENDROOT
BRANCH   1   8
ATOM      8  C   UNL d   1       1.118   2.473   0.341  0.00  0.00     0.255 C 
ATOM      9  N   UNL d   1       0.528   3.720   0.103  0.00  0.00    -0.348 N 
ATOM     10  C   UNL d   1      -0.858   3.951  -0.302  0.00  0.00     0.153 C 
ATOM     11  O   UNL d   1       2.261   2.328   0.765  0.00  0.00    -0.267 OA
BRANCH   9  12
ATOM     12  C   UNL d   1       1.279   4.912   0.517  0.00  0.00     0.164 C 
BRANCH  12  13
ATOM     13  C   UNL d   1       1.792   5.820  -0.584  0.00  0.00    -0.040 A 
ATOM     14  C   UNL d   1       1.956   5.419  -1.917  0.00  0.00     0.010 A 
ATOM     15  C   UNL d   1       2.497   6.299  -2.864  0.00  0.00     0.024 A 
ATOM     16  C   UNL d   1       2.894   7.580  -2.483  0.00  0.00     0.034 A 
ATOM     17  C   UNL d   1       2.752   7.993  -1.163  0.00  0.00     0.024 A 
ATOM     18 CL   UNL d   1       3.570   8.654  -3.645  0.00  0.00    -0.084 Cl
ATOM     19  C   UNL d   1       2.207   7.116  -0.221  0.00  0.00     0.010 A 
ENDBRANCH  12  13
ENDBRANCH   9  12
ENDBRANCH   1   8
BRANCH   2  20
ATOM     20  C   UNL d   1       0.722   0.173   2.387  0.00  0.00     0.418 C 
ATOM     21  F   UNL d   1       1.250   1.326   2.860  0.00  0.00    -0.166 F 
ATOM     22  F   UNL d   1      -0.284  -0.133   3.263  0.00  0.00    -0.166 F 
ATOM     23  F   UNL d   1       1.663  -0.796   2.586  0.00  0.00    -0.166 F 
ENDBRANCH   2  20
BRANCH   7  24
ATOM     24  O   UNL d   1      -1.652  -2.170  -1.100  0.00  0.00    -0.341 OA
ATOM     25  C   UNL d   1      -2.249  -2.090  -2.390  0.00  0.00     0.211 C 
ENDBRANCH   7  24
TORSDOF 5
