REMARK  8 active torsions:
REMARK  status: ('A' for Active; 'I' for Inactive)
REMARK    1  A    between atoms: C_7  and  C_1 
REMARK    2  A    between atoms: C_2  and  C_5 
REMARK    3  A    between atoms: C_3  and  C_4 
REMARK    4  A    between atoms: C_8  and  O_18 
REMARK       I    between atoms: N_10  and  C_8 
REMARK    5  A    between atoms: C_16  and  N_10 
REMARK    6  A    between atoms: C_26  and  C_14 
REMARK    7  A    between atoms: O_18  and  C_26 
REMARK    8  A    between atoms: O_27  and  C_19 
ROOT
ATOM      1  C   UNL d   1       0.064   1.130   0.187  0.00  0.00     0.086 A 
ATOM      2  O   UNL d   1      -0.801   0.124   0.504  0.00  0.00    -0.312 OA
ATOM      3  C   UNL d   1       1.322   0.599  -0.024  0.00  0.00     0.040 A 
ATOM      4  C   UNL d   1      -0.084  -1.034   0.549  0.00  0.00     0.078 A 
ATOM      5  C   UNL d   1       1.229  -0.792   0.218  0.00  0.00     0.038 A 
ENDROOT
BRANCH   1   6
ATOM      6  C   UNL d   1      -0.491   2.480   0.200  0.00  0.00    -0.001 A 
ATOM      7  C   UNL d   1      -1.841   2.714   0.504  0.00  0.00     0.030 A 
ATOM      8  C   UNL d   1      -2.359   4.018   0.595  0.00  0.00     0.049 A 
ATOM      9  C   UNL d   1      -1.505   5.105   0.357  0.00  0.00     0.032 A 
ATOM     10  C   UNL d   1      -0.152   4.900   0.045  0.00  0.00     0.049 A 
ATOM     11  C   UNL d   1       0.337   3.586  -0.036  0.00  0.00     0.030 A 
BRANCH   8  12
ATOM     12  C   UNL d   1      -3.810   4.222   0.964  0.00  0.00     0.417 C 
ATOM     13  F   UNL d   1      -4.140   5.529   1.159  0.00  0.00    -0.166 F 
ATOM     14  F   UNL d   1      -4.662   3.758   0.010  0.00  0.00    -0.166 F 
ATOM     15  F   UNL d   1      -4.148   3.577   2.115  0.00  0.00    -0.166 F 
ENDBRANCH   8  12
BRANCH  10  16
ATOM     16  C   UNL d   1       0.790   6.057  -0.183  0.00  0.00     0.417 C 
ATOM     17  F   UNL d   1       0.212   7.275   0.005  0.00  0.00    -0.166 F 
ATOM     18  F   UNL d   1       1.864   6.019   0.653  0.00  0.00    -0.166 F 
ATOM     19  F   UNL d   1       1.297   6.073  -1.448  0.00  0.00    -0.166 F 
ENDBRANCH  10  16
ENDBRANCH   1   6
BRANCH   4  20
ATOM     20  C   UNL d   1      -0.816  -2.239   0.989  0.00  0.00     0.245 C 
BRANCH  20  21
ATOM     21  O   UNL d   1      -1.391  -1.888   2.251  0.00  0.00    -0.297 OA
BRANCH  21  22
ATOM     22  C   UNL d   1      -1.059  -2.659   3.304  0.00  0.00     0.365 C 
ATOM     23  N   UNL d   1      -1.799  -2.241   4.372  0.00  0.00    -0.300 N 
ATOM     24  H   UNL d   1      -2.058  -1.270   4.295  0.00  0.00     0.171 HD
ATOM     25  O   UNL d   1      -0.277  -3.598   3.279  0.00  0.00    -0.238 OA
BRANCH  23  26
ATOM     26  C   UNL d   1      -2.848  -3.053   4.860  0.00  0.00     0.070 A 
ATOM     27  C   UNL d   1      -4.056  -2.451   5.254  0.00  0.00     0.095 A 
ATOM     28  C   UNL d   1      -5.097  -3.243   5.751  0.00  0.00     0.039 A 
ATOM     29  C   UNL d   1      -4.953  -4.626   5.824  0.00  0.00     0.003 A 
ATOM     30  C   UNL d   1      -3.763  -5.229   5.412  0.00  0.00     0.002 A 
ATOM     31  C   UNL d   1      -2.715  -4.444   4.933  0.00  0.00     0.032 A 
BRANCH  27  32
ATOM     32  O   UNL d   1      -4.258  -1.094   5.257  0.00  0.00    -0.354 OA
ATOM     33  C   UNL d   1      -4.314  -0.500   3.957  0.00  0.00     0.210 C 
ENDBRANCH  27  32
ENDBRANCH  23  26
ENDBRANCH  21  22
ENDBRANCH  20  21
ENDBRANCH   4  20
TORSDOF 8
