REMARK  8 active torsions:
REMARK  status: ('A' for Active; 'I' for Inactive)
REMARK    1  A    between atoms: S_2  and  C_1 
REMARK    2  A    between atoms: N_8  and  S_2 
REMARK    3  A    between atoms: C_5  and  C_3 
REMARK    4  A    between atoms: S_4  and  C_9 
REMARK    5  A    between atoms: N_15  and  S_4 
REMARK    6  A    between atoms: O_20  and  C_5 
REMARK    7  A    between atoms: C_19  and  N_8 
REMARK    8  A    between atoms: C_21  and  C_19 
ROOT
ATOM      1  N   UNL d   1       3.812   1.346   1.441  0.00  0.00    -0.211 NA
ATOM      2  H   UNL d   1       4.735   1.780   1.409  0.00  0.00     0.140 HD
ENDROOT
BRANCH   1   3
ATOM      3  S   UNL d   1       3.009   1.558  -0.016  0.00  0.00     0.243 S 
ATOM      4  O   UNL d   1       1.834   0.715  -0.002  0.00  0.00    -0.206 OA
ATOM      5  O   UNL d   1       3.973   1.520  -1.089  0.00  0.00    -0.206 OA
BRANCH   3   6
ATOM      6  C   UNL d   1       2.385   3.181  -0.048  0.00  0.00     0.098 A 
ATOM      7  C   UNL d   1       3.127   4.350   0.054  0.00  0.00     0.102 A 
ATOM      8  S   UNL d   1       2.077   5.726   0.030  0.00  0.00    -0.094 SA
ATOM      9  C   UNL d   1       0.675   4.769  -0.094  0.00  0.00     0.052 A 
ATOM     10  C   UNL d   1       0.974   3.430  -0.137  0.00  0.00     0.033 A 
BRANCH   7  11
ATOM     11  C   UNL d   1       4.551   4.624   0.179  0.00  0.00     0.301 C 
ATOM     12  O   UNL d   1       5.071   5.734   0.139  0.00  0.00    -0.259 OA
BRANCH  11  13
ATOM     13  O   UNL d   1       5.263   3.484   0.406  0.00  0.00    -0.322 OA
ATOM     14  C   UNL d   1       6.681   3.682   0.419  0.00  0.00     0.213 C 
ENDBRANCH  11  13
ENDBRANCH   7  11
ENDBRANCH   3   6
ENDBRANCH   1   3
BRANCH   1  15
ATOM     15  C   UNL d   1       3.030   1.625   2.650  0.00  0.00     0.143 C 
BRANCH  15  16
ATOM     16  C   UNL d   1       3.837   1.322   3.886  0.00  0.00    -0.044 A 
ATOM     17  C   UNL d   1       4.717   2.280   4.412  0.00  0.00     0.010 A 
ATOM     18  C   UNL d   1       5.501   1.980   5.526  0.00  0.00     0.025 A 
ATOM     19  C   UNL d   1       5.413   0.711   6.105  0.00  0.00     0.074 A 
ATOM     20  C   UNL d   1       4.527  -0.245   5.607  0.00  0.00     0.025 A 
ATOM     21  C   UNL d   1       3.750   0.059   4.490  0.00  0.00     0.010 A 
BRANCH  19  22
ATOM     22  S   UNL d   1       6.444   0.307   7.481  0.00  0.00     0.239 S 
ATOM     23  O   UNL d   1       6.887   1.527   8.120  0.00  0.00    -0.206 OA
ATOM     24  O   UNL d   1       5.854  -0.787   8.219  0.00  0.00    -0.206 OA
BRANCH  22  25
ATOM     25  N   UNL d   1       7.789  -0.324   6.702  0.00  0.00    -0.225 NA
ATOM     26  H   UNL d   1       8.609   0.251   6.892  0.00  0.00     0.136 HD
ATOM     27  H   UNL d   1       7.903  -1.309   6.939  0.00  0.00     0.136 HD
ENDBRANCH  22  25
ENDBRANCH  19  22
ENDBRANCH  15  16
ENDBRANCH   1  15
TORSDOF 8
