REMARK  4 active torsions:
REMARK  status: ('A' for Active; 'I' for Inactive)
REMARK    1  A    between atoms: C_15  and  C_1 
REMARK    2  A    between atoms: C_5  and  C_16 
REMARK    3  A    between atoms: C_26  and  C_14 
REMARK       I    between atoms: C_16  and  N_21 
REMARK    4  A    between atoms: N_21  and  C_26 
ROOT
ATOM      1  C   UNL d   1       4.961   1.475   0.125  0.00  0.00     0.252 C 
ATOM      2  N   UNL d   1       3.732   0.862   0.076  0.00  0.00    -0.351 N 
ATOM      3  O   UNL d   1       5.115   2.689   0.049  0.00  0.00    -0.268 OA
ATOM      4  H   UNL d   1       3.628  -0.140  -0.031  0.00  0.00     0.163 HD
ENDROOT
BRANCH   2   5
ATOM      5  C   UNL d   1       2.526   1.643  -0.040  0.00  0.00     0.180 C 
BRANCH   5   6
ATOM      6  C   UNL d   1       1.312   0.762  -0.042  0.00  0.00     0.034 A 
ATOM      7  N   UNL d   1       1.420  -0.633   0.028  0.00  0.00    -0.351 N 
ATOM      8  C   UNL d   1       0.217  -1.190   0.019  0.00  0.00     0.091 A 
ATOM      9  HN  UNL d   1       2.299  -1.147   0.078  1.00  0.00     0.166 HD
ATOM     10  S   UNL d   1      -1.090  -0.071  -0.087  0.00  0.00    -0.081 SA
ATOM     11  C   UNL d   1       0.013   1.228  -0.112  0.00  0.00     0.078 A 
BRANCH   8  12
ATOM     12  C   UNL d   1       0.025  -2.625   0.099  0.00  0.00     0.038 A 
ATOM     13  S   UNL d   1      -1.524  -3.379   0.044  0.00  0.00    -0.099 SA
ATOM     14  C   UNL d   1      -0.863  -4.946   0.192  0.00  0.00     0.050 A 
ATOM     15  C   UNL d   1       0.508  -4.916   0.283  0.00  0.00     0.008 A 
ATOM     16  C   UNL d   1       1.018  -3.583   0.229  0.00  0.00     0.022 A 
ENDBRANCH   8  12
ENDBRANCH   5   6
ENDBRANCH   2   5
BRANCH   1  17
ATOM     17  C   UNL d   1       6.145   0.578   0.250  0.00  0.00     0.034 A 
ATOM     18  C   UNL d   1       6.019  -0.632   0.964  0.00  0.00     0.049 A 
ATOM     19  C   UNL d   1       7.177  -1.440   1.016  0.00  0.00     0.067 A 
ATOM     20  N   UNL d   1       7.270  -2.632   1.627  0.00  0.00    -0.310 N 
ATOM     21  C   UNL d   1       8.462  -1.009   0.356  0.00  0.00     0.067 A 
ATOM     22  S   UNL d   1       8.824  -3.165   1.378  0.00  0.00     0.068 SA
ATOM     23  HN  UNL d   1       6.534  -3.114   2.141  1.00  0.00     0.176 HD
ATOM     24  N   UNL d   1       9.449  -1.906   0.491  0.00  0.00    -0.310 N 
ATOM     25  HN  UNL d   1      10.397  -1.831   0.122  1.00  0.00     0.176 HD
ATOM     26  C   UNL d   1       8.549   0.230  -0.319  0.00  0.00     0.033 A 
ATOM     27  C   UNL d   1       7.368   1.001  -0.343  0.00  0.00     0.019 A 
ENDBRANCH   1  17
TORSDOF 4
