REMARK  4 active torsions:
REMARK  status: ('A' for Active; 'I' for Inactive)
REMARK       I    between atoms: N_2  and  C_1 
REMARK    1  A    between atoms: C_7  and  C_1 
REMARK    2  A    between atoms: C_4  and  N_2 
REMARK    3  A    between atoms: C_3  and  O_8 
REMARK    4  A    between atoms: O_8  and  C_9 
ROOT
ATOM      1  C   UNL d   1       1.131  -0.226   2.429  0.00  0.00     0.052 A 
ATOM      2  C   UNL d   1       0.693  -1.037   3.485  0.00  0.00     0.040 A 
ATOM      3  C   UNL d   1       1.277  -0.935   4.752  0.00  0.00     0.058 A 
ATOM      4  C   UNL d   1       2.274   0.011   5.001  0.00  0.00     0.079 A 
ATOM      5  C   UNL d   1       2.149   0.700   2.683  0.00  0.00     0.034 A 
ATOM      6 BR   UNL d   1      -0.672  -2.337   3.238  0.00  0.00    -0.049 Br
ATOM      7  C   UNL d   1       2.722   0.817   3.958  0.00  0.00     0.039 A 
ENDROOT
BRANCH   1   8
ATOM      8  N   UNL d   1       0.525  -0.352   1.154  0.00  0.00    -0.322 N 
ATOM      9  C   UNL d   1       1.095   0.024  -0.044  0.00  0.00     0.256 C 
ATOM     10  O   UNL d   1       2.240   0.432  -0.215  0.00  0.00    -0.267 OA
ATOM     11  H   UNL d   1      -0.309  -0.929   1.118  0.00  0.00     0.169 HD
BRANCH   9  12
ATOM     12  C   UNL d   1       0.238  -0.163  -1.236  0.00  0.00     0.032 A 
ATOM     13  C   UNL d   1      -1.052   0.380  -1.283  0.00  0.00     0.018 A 
ATOM     14  C   UNL d   1      -1.799   0.280  -2.458  0.00  0.00     0.025 A 
ATOM     15  C   UNL d   1      -1.261  -0.370  -3.573  0.00  0.00     0.034 A 
ATOM     16  C   UNL d   1       0.018  -0.922  -3.525  0.00  0.00     0.025 A 
ATOM     17 CL   UNL d   1      -2.176  -0.467  -5.027  0.00  0.00    -0.084 Cl
ATOM     18  C   UNL d   1       0.774  -0.813  -2.355  0.00  0.00     0.018 A 
ENDBRANCH   9  12
ENDBRANCH   1   8
BRANCH   4  19
ATOM     19  O   UNL d   1       2.719   0.032   6.289  0.00  0.00    -0.255 OA
BRANCH  19  20
ATOM     20  C   UNL d   1       3.349   1.212   6.764  0.00  0.00     0.530 C 
ATOM     21  F   UNL d   1       2.797   2.333   6.254  0.00  0.00    -0.144 F 
ATOM     22  F   UNL d   1       3.207   1.256   8.107  0.00  0.00    -0.144 F 
ATOM     23  F   UNL d   1       4.667   1.188   6.477  0.00  0.00    -0.144 F 
ENDBRANCH  19  20
ENDBRANCH   4  19
TORSDOF 4
