REMARK  3 active torsions:
REMARK  status: ('A' for Active; 'I' for Inactive)
REMARK    1  A    between atoms: C_7  and  C_1 
REMARK    2  A    between atoms: C_2  and  C_17 
REMARK       I    between atoms: N_16  and  C_7 
REMARK    3  A    between atoms: C_17  and  N_16 
ROOT
ATOM      1  C   UNL d   1       0.136  -3.175   1.458  0.00  0.00     0.256 C 
ATOM      2  N   UNL d   1      -0.353  -3.708   0.270  0.00  0.00    -0.345 N 
ATOM      3  O   UNL d   1       0.484  -3.889   2.405  0.00  0.00    -0.267 OA
ATOM      4  C   UNL d   1      -1.111  -2.961  -0.729  0.00  0.00     0.153 C 
ENDROOT
BRANCH   2   5
ATOM      5  C   UNL d   1      -0.342  -5.165   0.120  0.00  0.00     0.202 C 
BRANCH   5   6
ATOM      6  C   UNL d   1      -1.713  -5.768   0.255  0.00  0.00     0.102 A 
ATOM      7  N   UNL d   1      -2.712  -5.545  -0.586  0.00  0.00    -0.343 N 
ATOM      8  C   UNL d   1      -3.709  -6.417  -0.240  0.00  0.00     0.060 A 
ATOM      9  HN  UNL d   1      -2.733  -4.860  -1.341  1.00  0.00     0.167 HD
ATOM     10  C   UNL d   1      -4.956  -6.632  -0.847  0.00  0.00     0.032 A 
ATOM     11  C   UNL d   1      -3.340  -7.180   0.860  0.00  0.00     0.062 A 
ATOM     12  C   UNL d   1      -5.792  -7.632  -0.337  0.00  0.00     0.002 A 
ATOM     13  C   UNL d   1      -5.401  -8.392   0.766  0.00  0.00     0.002 A 
ATOM     14  C   UNL d   1      -4.168  -8.177   1.397  0.00  0.00     0.032 A 
ATOM     15  N   UNL d   1      -2.078  -6.724   1.183  0.00  0.00    -0.338 N 
ATOM     16  C   UNL d   1      -1.297  -7.254   2.275  0.00  0.00     0.158 C 
ENDBRANCH   5   6
ENDBRANCH   2   5
BRANCH   1  17
ATOM     17  C   UNL d   1       0.218  -1.721   1.683  0.00  0.00     0.061 A 
ATOM     18  C   UNL d   1       0.903  -0.821   0.828  0.00  0.00     0.082 A 
ATOM     19  N   UNL d   1       1.548  -1.086  -0.325  0.00  0.00    -0.310 N 
ATOM     20  C   UNL d   1       0.984   0.648   1.195  0.00  0.00     0.068 A 
ATOM     21  S   UNL d   1       2.110   0.356  -0.914  0.00  0.00     0.068 SA
ATOM     22  HN  UNL d   1       1.668  -2.004  -0.754  1.00  0.00     0.176 HD
ATOM     23  N   UNL d   1       1.617   1.397   0.279  0.00  0.00    -0.310 N 
ATOM     24  HN  UNL d   1       1.765   2.406   0.310  1.00  0.00     0.176 HD
ATOM     25  C   UNL d   1       0.432   1.141   2.405  0.00  0.00     0.032 A 
ATOM     26  C   UNL d   1      -0.174   0.189   3.239  0.00  0.00     0.003 A 
ATOM     27  C   UNL d   1      -0.275  -1.180   2.897  0.00  0.00     0.019 A 
ENDBRANCH   1  17
TORSDOF 3
