REMARK  5 active torsions:
REMARK  status: ('A' for Active; 'I' for Inactive)
REMARK       I    between atoms: C_2  and  N_1 
REMARK    1  A    between atoms: C_3  and  N_1 
REMARK    2  A    between atoms: C_6  and  C_2 
REMARK    3  A    between atoms: N_8  and  C_3 
REMARK       I    between atoms: C_4  and  N_7 
REMARK    4  A    between atoms: C_5  and  C_4 
REMARK    5  A    between atoms: N_7  and  N_8 
ROOT
ATOM      1  N   UNL d   1       3.665  -0.695  -0.823  0.00  0.00    -0.273 N 
ATOM      2  H   UNL d   1       3.503  -0.821  -1.825  0.00  0.00     0.189 HD
ENDROOT
BRANCH   1   3
ATOM      3  N   UNL d   1       5.003  -0.623  -0.465  0.00  0.00    -0.264 N 
ATOM      4  C   UNL d   1       5.983  -0.780  -1.420  0.00  0.00     0.271 C 
ATOM      5  O   UNL d   1       5.760  -0.991  -2.606  0.00  0.00    -0.266 OA
ATOM      6  H   UNL d   1       5.228  -0.778   0.520  0.00  0.00     0.190 HD
BRANCH   4   7
ATOM      7  C   UNL d   1       7.368  -0.673  -0.900  0.00  0.00     0.049 A 
ATOM      8  C   UNL d   1       8.382  -1.408  -1.494  0.00  0.00     0.104 A 
ATOM      9  N   UNL d   1       9.675  -1.358  -1.089  0.00  0.00    -0.374 N 
ATOM     10  C   UNL d   1       9.962  -0.526  -0.061  0.00  0.00     0.087 A 
ATOM     11  HN  UNL d   1      10.398  -1.921  -1.538  1.00  0.00     0.164 HD
ATOM     12  C   UNL d   1       9.019   0.256   0.584  0.00  0.00     0.018 A 
ATOM     13  C   UNL d   1       7.696   0.179   0.157  0.00  0.00     0.020 A 
ENDBRANCH   4   7
ENDBRANCH   1   3
BRANCH   1  14
ATOM     14  C   UNL d   1       2.677  -0.109  -0.100  0.00  0.00     0.193 C 
ATOM     15  S   UNL d   1       1.219   0.246  -0.848  0.00  0.00    -0.039 SA
BRANCH  14  16
ATOM     16  N   UNL d   1       2.795   0.199   1.236  0.00  0.00    -0.299 N 
ATOM     17  C   UNL d   1       3.777  -0.013   2.198  0.00  0.00     0.253 C 
ATOM     18  O   UNL d   1       4.833  -0.613   2.005  0.00  0.00    -0.268 OA
ATOM     19  H   UNL d   1       1.938   0.608   1.579  0.00  0.00     0.171 HD
BRANCH  17  20
ATOM     20  C   UNL d   1       3.474   0.492   3.584  0.00  0.00     0.002 C 
ATOM     21  C   UNL d   1       2.663   1.546   3.813  0.00  0.00    -0.019 C 
ATOM     22  C   UNL d   1       2.321   2.110   5.161  0.00  0.00     0.036 C 
ATOM     23  C   UNL d   1       4.229  -0.206   4.686  0.00  0.00     0.054 C 
ENDBRANCH  17  20
ENDBRANCH  14  16
ENDBRANCH   1  14
TORSDOF 5
