REMARK  4 active torsions:
REMARK  status: ('A' for Active; 'I' for Inactive)
REMARK    1  A    between atoms: N_8  and  C_1 
REMARK    2  A    between atoms: N_7  and  C_2 
REMARK    3  A    between atoms: N_11  and  N_8 
REMARK    4  A    between atoms: C_9  and  C_10 
REMARK       I    between atoms: C_10  and  N_11 
ROOT
ATOM      1  N   UNL d   1       1.513  -2.433  -0.141  0.00  0.00    -0.279 N 
ATOM      2  H   UNL d   1       2.497  -2.281   0.119  0.00  0.00     0.189 HD
ENDROOT
BRANCH   1   3
ATOM      3  C   UNL d   1       0.594  -1.425  -0.080  0.00  0.00     0.172 A 
ATOM      4  C   UNL d   1      -0.791  -1.339  -0.257  0.00  0.00     0.173 A 
ATOM      5  C   UNL d   1      -1.114   0.039  -0.079  0.00  0.00     0.059 A 
ATOM      6  C   UNL d   1      -2.408   0.771  -0.163  0.00  0.00     0.072 C 
ATOM      7  N   UNL d   1      -0.024   0.761   0.198  0.00  0.00    -0.299 N 
ATOM      8  N   UNL d   1       0.986  -0.126   0.191  0.00  0.00    -0.278 N 
ATOM      9  HN  UNL d   1       0.030   1.764   0.376  1.00  0.00     0.187 HD
ATOM     10  C   UNL d   1       2.303   0.398   0.479  0.00  0.00     0.179 C 
BRANCH   4  11
ATOM     11  N   UNL d   1      -1.711  -2.399  -0.579  0.00  0.00    -0.110 N 
ATOM     12  O   UNL d   1      -1.258  -3.528  -0.806  0.00  0.00    -0.532 OA
ATOM     13  O   UNL d   1      -2.915  -2.122  -0.607  0.00  0.00    -0.532 OA
ENDBRANCH   4  11
ENDBRANCH   1   3
BRANCH   1  14
ATOM     14  N   UNL d   1       1.180  -3.776   0.066  0.00  0.00    -0.264 N 
ATOM     15  C   UNL d   1       2.143  -4.603   0.623  0.00  0.00     0.276 C 
ATOM     16  O   UNL d   1       3.249  -4.177   0.945  0.00  0.00    -0.266 OA
ATOM     17  H   UNL d   1       0.332  -4.127  -0.387  0.00  0.00     0.190 HD
BRANCH  15  18
ATOM     18  C   UNL d   1       1.762  -6.022   0.831  0.00  0.00     0.110 A 
ATOM     19  C   UNL d   1       0.766  -6.648   0.080  0.00  0.00     0.135 A 
ATOM     20  F   UNL d   1       0.133  -5.994  -0.903  0.00  0.00    -0.205 F 
ATOM     21  C   UNL d   1       0.399  -7.975   0.316  0.00  0.00     0.043 A 
ATOM     22  C   UNL d   1       1.041  -8.707   1.312  0.00  0.00     0.006 A 
ATOM     23  C   UNL d   1       2.047  -8.102   2.063  0.00  0.00     0.043 A 
ATOM     24  C   UNL d   1       2.401  -6.772   1.821  0.00  0.00     0.135 A 
ATOM     25  F   UNL d   1       3.351  -6.233   2.598  0.00  0.00    -0.205 F 
ENDBRANCH  15  18
ENDBRANCH   1  14
TORSDOF 4
