REMARK  7 active torsions:
REMARK  status: ('A' for Active; 'I' for Inactive)
REMARK    1  A    between atoms: S_9  and  C_1 
REMARK    2  A    between atoms: C_8  and  N_2 
REMARK    3  A    between atoms: C_11  and  C_3 
REMARK    4  A    between atoms: C_12  and  S_9 
REMARK    5  A    between atoms: C_10  and  C_12 
REMARK    6  A    between atoms: O_21  and  C_11 
REMARK    7  A    between atoms: C_29  and  O_21 
ROOT
ATOM      1  C   UNL d   1      -0.358  -1.276  -0.104  0.00  0.00     0.129 A 
ATOM      2  N   UNL d   1       0.906  -0.690   0.029  0.00  0.00    -0.233 N 
ATOM      3  C   UNL d   1      -1.235  -0.208  -0.002  0.00  0.00     0.160 A 
ATOM      4  N   UNL d   1       0.757   0.641   0.261  0.00  0.00    -0.234 N 
ATOM      5  HN  UNL d   1       1.511   1.294   0.476  1.00  0.00     0.209 HD
ATOM      6  N   UNL d   1      -0.522   0.950   0.165  0.00  0.00    -0.278 N 
ATOM      7  HN  UNL d   1      -0.913   1.891   0.207  1.00  0.00     0.189 HD
ENDROOT
BRANCH   1   8
ATOM      8  S   UNL d   1      -0.582  -3.004  -0.207  0.00  0.00    -0.103 SA
BRANCH   8   9
ATOM      9  C   UNL d   1      -2.009  -3.314  -1.268  0.00  0.00     0.124 C 
BRANCH   9  10
ATOM     10  C   UNL d   1      -2.078  -2.823  -2.699  0.00  0.00     0.012 A 
ATOM     11  C   UNL d   1      -1.043  -2.167  -3.374  0.00  0.00     0.125 A 
ATOM     12  F   UNL d   1       0.115  -1.880  -2.771  0.00  0.00    -0.205 F 
ATOM     13  C   UNL d   1      -1.144  -1.785  -4.714  0.00  0.00     0.043 A 
ATOM     14  C   UNL d   1      -2.294  -2.066  -5.437  0.00  0.00     0.005 A 
ATOM     15  C   UNL d   1      -3.347  -2.716  -4.806  0.00  0.00     0.024 A 
ATOM     16  C   UNL d   1      -3.242  -3.087  -3.457  0.00  0.00     0.044 A 
ATOM     17 CL   UNL d   1      -4.613  -3.903  -2.778  0.00  0.00    -0.084 Cl
ENDBRANCH   9  10
ENDBRANCH   8   9
ENDBRANCH   1   8
BRANCH   2  18
ATOM     18  C   UNL d   1       2.226  -1.229  -0.016  0.00  0.00     0.062 A 
ATOM     19  C   UNL d   1       2.552  -2.345  -0.795  0.00  0.00     0.055 A 
ATOM     20  C   UNL d   1       3.852  -2.856  -0.779  0.00  0.00     0.037 A 
ATOM     21 CL   UNL d   1       4.239  -4.220  -1.757  0.00  0.00    -0.084 Cl
ATOM     22  C   UNL d   1       4.838  -2.275   0.011  0.00  0.00     0.048 A 
ATOM     23  C   UNL d   1       4.526  -1.145   0.759  0.00  0.00     0.037 A 
ATOM     24  C   UNL d   1       3.239  -0.604   0.734  0.00  0.00     0.055 A 
ATOM     25 CL   UNL d   1       5.737  -0.419   1.743  0.00  0.00    -0.084 Cl
ENDBRANCH   2  18
BRANCH   3  26
ATOM     26  C   UNL d   1      -2.682  -0.202   0.022  0.00  0.00     0.314 C 
ATOM     27  O   UNL d   1      -3.362  -1.109   0.482  0.00  0.00    -0.257 OA
BRANCH  26  28
ATOM     28  O   UNL d   1      -3.206   0.922  -0.560  0.00  0.00    -0.317 OA
BRANCH  28  29
ATOM     29  C   UNL d   1      -4.635   0.953  -0.662  0.00  0.00     0.175 C 
ATOM     30  C   UNL d   1      -5.089   0.174  -1.884  0.00  0.00     0.034 C 
ENDBRANCH  28  29
ENDBRANCH  26  28
ENDBRANCH   3  26
TORSDOF 7
