REMARK  3 active torsions:
REMARK  status: ('A' for Active; 'I' for Inactive)
REMARK    1  A    between atoms: C_3  and  C_1 
REMARK    2  A    between atoms: C_8  and  C_2 
REMARK       I    between atoms: N_10  and  C_3 
REMARK    3  A    between atoms: N_14  and  N_10 
ROOT
ATOM      1  C   UNL d   1      -0.826  -1.133   0.021  0.00  0.00     0.138 A 
ATOM      2  C   UNL d   1       0.559  -1.163   0.025  0.00  0.00     0.119 A 
ATOM      3  N   UNL d   1      -1.263   0.186   0.108  0.00  0.00    -0.340 N 
ATOM      4  HN  UNL d   1      -2.221   0.531   0.165  1.00  0.00     0.167 HD
ATOM      5  C   UNL d   1      -0.148   0.880   0.101  0.00  0.00     0.234 A 
ATOM      6  O   UNL d   1       0.991   0.141   0.051  0.00  0.00    -0.303 OA
ENDROOT
BRANCH   1   7
ATOM      7  C   UNL d   1      -1.743  -2.262  -0.041  0.00  0.00     0.285 C 
ATOM      8  O   UNL d   1      -1.436  -3.389  -0.421  0.00  0.00    -0.265 OA
ATOM      9  N   UNL d   1      -3.025  -1.946   0.404  0.00  0.00    -0.288 N 
ATOM     10  H   UNL d   1      -3.178  -1.013   0.791  0.00  0.00     0.183 HD
BRANCH   9  11
ATOM     11  N   UNL d   1      -3.988  -2.964   0.583  0.00  0.00    -0.247 NA
ATOM     12  H   UNL d   1      -3.509  -3.864   0.441  0.00  0.00     0.143 HD
ATOM     13  H   UNL d   1      -4.647  -2.911  -0.201  0.00  0.00     0.143 HD
ENDBRANCH   9  11
ENDBRANCH   1   7
BRANCH   2  14
ATOM     14  C   UNL d   1       1.606  -2.176   0.077  0.00  0.00     0.000 A 
ATOM     15  C   UNL d   1       2.858  -1.947  -0.514  0.00  0.00     0.016 A 
ATOM     16  C   UNL d   1       3.872  -2.908  -0.440  0.00  0.00     0.024 A 
ATOM     17  C   UNL d   1       3.642  -4.108   0.229  0.00  0.00     0.034 A 
ATOM     18  C   UNL d   1       2.411  -4.354   0.825  0.00  0.00     0.024 A 
ATOM     19 CL   UNL d   1       4.889  -5.289   0.326  0.00  0.00    -0.084 Cl
ATOM     20  C   UNL d   1       1.401  -3.387   0.753  0.00  0.00     0.016 A 
ENDBRANCH   2  14
TORSDOF 3
