REMARK  7 active torsions:
REMARK  status: ('A' for Active; 'I' for Inactive)
REMARK    1  A    between atoms: C_2  and  C_1 
REMARK    2  A    between atoms: C_20  and  N_3 
REMARK    3  A    between atoms: N_19  and  C_4 
REMARK    4  A    between atoms: S_16  and  C_10 
REMARK    5  A    between atoms: C_23  and  S_16 
REMARK    6  A    between atoms: C_21  and  C_20 
REMARK    7  A    between atoms: C_25  and  C_23 
ROOT
ATOM      1  C   UNL d   1       3.949   0.148  -0.068  0.00  0.00     0.144 A 
ATOM      2  N   UNL d   1       4.595   0.661   1.040  0.00  0.00    -0.307 N 
ATOM      3  N   UNL d   1       4.862  -0.337  -0.894  0.00  0.00    -0.282 N 
ATOM      4  HN  UNL d   1       4.673  -0.831  -1.766  1.00  0.00     0.188 HD
ATOM      5  C   UNL d   1       5.935   0.545   0.766  0.00  0.00     0.163 A 
ATOM      6  N   UNL d   1       6.106  -0.065  -0.381  0.00  0.00    -0.278 N 
ATOM      7  HN  UNL d   1       7.000  -0.297  -0.814  1.00  0.00     0.189 HD
ENDROOT
BRANCH   1   8
ATOM      8  C   UNL d   1       2.539   0.142  -0.388  0.00  0.00     0.079 A 
ATOM      9  C   UNL d   1       1.844  -0.805  -1.134  0.00  0.00     0.060 A 
ATOM     10  C   UNL d   1       0.483  -0.404  -1.461  0.00  0.00     0.031 A 
ATOM     11  C   UNL d   1      -0.587  -0.945  -2.238  0.00  0.00    -0.045 A 
ATOM     12  C   UNL d   1       0.219   0.821  -0.849  0.00  0.00     0.088 A 
ATOM     13  C   UNL d   1      -1.784  -0.197  -2.297  0.00  0.00     0.032 A 
ATOM     14  C   UNL d   1      -0.580  -2.225  -3.030  0.00  0.00     0.049 C 
ATOM     15  C   UNL d   1      -1.902   1.010  -1.625  0.00  0.00     0.006 A 
ATOM     16  N   UNL d   1      -0.918   1.540  -0.888  0.00  0.00    -0.354 N 
ATOM     17  C   UNL d   1      -3.176   1.797  -1.713  0.00  0.00     0.068 C 
ATOM     18  HN  UNL d   1      -1.023   2.425  -0.392  1.00  0.00     0.166 HD
ATOM     19  S   UNL d   1       1.528   1.453   0.014  0.00  0.00    -0.065 SA
BRANCH   9  20
ATOM     20  N   UNL d   1       2.432  -1.968  -1.521  0.00  0.00    -0.397 N 
ATOM     21  H   UNL d   1       3.449  -2.047  -1.439  0.00  0.00     0.156 HD
ATOM     22  H   UNL d   1       2.095  -2.502  -2.310  0.00  0.00     0.156 HD
ENDBRANCH   9  20
ENDBRANCH   1   8
BRANCH   2  23
ATOM     23  C   UNL d   1       4.002   1.102   2.291  0.00  0.00     0.159 C 
BRANCH  23  24
ATOM     24  C   UNL d   1       3.746   2.580   2.418  0.00  0.00    -0.017 C 
ATOM     25  C   UNL d   1       3.958   3.545   1.510  0.00  0.00     0.008 C 
ENDBRANCH  23  24
ENDBRANCH   2  23
BRANCH   5  26
ATOM     26  S   UNL d   1       7.193   1.116   1.809  0.00  0.00    -0.088 SA
BRANCH  26  27
ATOM     27  C   UNL d   1       8.519   1.433   0.604  0.00  0.00     0.121 C 
BRANCH  27  28
ATOM     28  C   UNL d   1       9.778   1.923   1.287  0.00  0.00    -0.048 A 
ATOM     29  C   UNL d   1      10.808   1.022   1.607  0.00  0.00     0.011 A 
ATOM     30  C   UNL d   1      11.965   1.469   2.251  0.00  0.00     0.043 A 
ATOM     31  C   UNL d   1      12.091   2.813   2.583  0.00  0.00     0.116 A 
ATOM     32  C   UNL d   1      11.081   3.720   2.280  0.00  0.00     0.043 A 
ATOM     33  F   UNL d   1      13.197   3.239   3.204  0.00  0.00    -0.206 F 
ATOM     34  C   UNL d   1       9.925   3.277   1.633  0.00  0.00     0.011 A 
ENDBRANCH  27  28
ENDBRANCH  26  27
ENDBRANCH   5  26
TORSDOF 7
