REMARK  4 active torsions:
REMARK  status: ('A' for Active; 'I' for Inactive)
REMARK    1  A    between atoms: C_2  and  S_1 
REMARK    2  A    between atoms: N_5  and  S_1 
REMARK    3  A    between atoms: C_4  and  N_11 
REMARK    4  A    between atoms: C_18  and  C_10 
ROOT
ATOM      1  N   UNL d   1       0.711  -0.911   0.075  0.00  0.00    -0.303 N 
ATOM      2  N   UNL d   1      -0.905  -2.700   1.774  0.00  0.00     0.105 N 
ATOM      3  C   UNL d   1      -0.757  -0.813   0.079  0.00  0.00     0.165 C 
ATOM      4  C   UNL d   1       1.278  -2.212   0.465  0.00  0.00     0.165 C 
ATOM      5  C   UNL d   1      -1.303  -1.321   1.421  0.00  0.00     0.294 C 
ATOM      6  C   UNL d   1       0.556  -2.843   1.683  0.00  0.00     0.294 C 
ENDROOT
BRANCH   1   7
ATOM      7  S   UNL d   1       1.625   0.482   0.057  0.00  0.00     0.267 S 
ATOM      8  O   UNL d   1       0.969   1.464   0.889  0.00  0.00    -0.200 OA
ATOM      9  O   UNL d   1       3.022   0.151   0.234  0.00  0.00    -0.200 OA
BRANCH   7  10
ATOM     10  C   UNL d   1       1.513   1.147  -1.593  0.00  0.00     0.121 A 
ATOM     11  S   UNL d   1       2.117   0.156  -2.847  0.00  0.00    -0.074 SA
ATOM     12  C   UNL d   1       1.774   1.329  -4.056  0.00  0.00     0.033 A 
ATOM     13  C   UNL d   1       1.147   2.431  -3.498  0.00  0.00     0.023 A 
ATOM     14  C   UNL d   1       1.005   2.332  -2.083  0.00  0.00     0.034 A 
BRANCH  12  15
ATOM     15  C   UNL d   1       2.108   1.095  -5.469  0.00  0.00     0.049 A 
ATOM     16  N   UNL d   1       1.310   1.757  -6.345  0.00  0.00    -0.365 N 
ATOM     17  C   UNL d   1       1.570   1.604  -7.663  0.00  0.00     0.088 A 
ATOM     18  HN  UNL d   1       0.544   2.347  -6.022  1.00  0.00     0.165 HD
ATOM     19  C   UNL d   1       2.600   0.825  -8.161  0.00  0.00     0.017 A 
ATOM     20  C   UNL d   1       3.417   0.164  -7.254  0.00  0.00     0.004 A 
ATOM     21  C   UNL d   1       3.171   0.297  -5.888  0.00  0.00     0.031 A 
ENDBRANCH  12  15
ENDBRANCH   7  10
ENDBRANCH   1   7
BRANCH   2  22
ATOM     22  C   UNL d   1      -1.712  -3.799   1.202  0.00  0.00     0.290 C 
ATOM     23  C   UNL d   1      -3.206  -3.569   1.472  0.00  0.00    -0.009 A 
ATOM     24  C   UNL d   1      -3.895  -3.374   0.252  0.00  0.00    -0.017 A 
ATOM     25  C   UNL d   1      -3.852  -3.462   2.694  0.00  0.00     0.010 A 
ATOM     26  C   UNL d   1      -5.245  -3.073   0.251  0.00  0.00     0.013 A 
ATOM     27  C   UNL d   1      -2.967  -3.562  -0.843  0.00  0.00    -0.017 C 
ATOM     28  C   UNL d   1      -5.903  -2.957   1.481  0.00  0.00     0.001 A 
ATOM     29  C   UNL d   1      -5.213  -3.152   2.690  0.00  0.00     0.001 A 
ATOM     30  C   UNL d   1      -1.711  -3.936  -0.318  0.00  0.00    -0.009 C 
ATOM     31  C   UNL d   1      -3.151  -3.436  -2.210  0.00  0.00     0.013 C 
ATOM     32  C   UNL d   1      -0.693  -4.361  -1.158  0.00  0.00     0.010 C 
ATOM     33  C   UNL d   1      -0.874  -4.232  -2.535  0.00  0.00     0.001 C 
ATOM     34  C   UNL d   1      -2.080  -3.742  -3.056  0.00  0.00     0.001 C 
ENDBRANCH   2  22
TORSDOF 4
