REMARK  5 active torsions:
REMARK  status: ('A' for Active; 'I' for Inactive)
REMARK    1  A    between atoms: C_2  and  S_1 
REMARK    2  A    between atoms: N_5  and  S_1 
REMARK       I    between atoms: C_4  and  N_3 
REMARK    3  A    between atoms: O_18  and  C_4 
REMARK    4  A    between atoms: C_15  and  N_5 
REMARK    5  A    between atoms: C_19  and  O_18 
ROOT
ATOM      1  N   UNL d   1      -1.293  -0.802  -4.211  0.00  0.00    -0.328 N 
ATOM      2  C   UNL d   1      -2.216  -0.504  -5.202  0.00  0.00     0.362 C 
ATOM      3  C   UNL d   1      -0.723   0.321  -3.489  0.00  0.00     0.130 C 
ATOM      4  C   UNL d   1      -1.234  -2.100  -3.545  0.00  0.00     0.130 C 
ATOM      5  O   UNL d   1      -2.410   0.629  -5.627  0.00  0.00    -0.238 OA
ATOM      6  C   UNL d   1       0.831  -1.240  -2.283  0.00  0.00     0.096 C 
ATOM      7  C   UNL d   1       0.715   0.037  -3.107  0.00  0.00     0.045 C 
ATOM      8  C   UNL d   1       0.167  -2.417  -3.016  0.00  0.00     0.045 C 
ENDROOT
BRANCH   6   9
ATOM      9  N   UNL d   1       0.264  -1.112  -0.924  0.00  0.00    -0.310 N 
ATOM     10  H   UNL d   1      -0.735  -1.258  -0.792  0.00  0.00     0.172 HD
BRANCH   9  11
ATOM     11  S   UNL d   1       0.914  -0.005   0.171  0.00  0.00     0.265 S 
ATOM     12  O   UNL d   1       0.598  -0.489   1.498  0.00  0.00    -0.200 OA
ATOM     13  O   UNL d   1       2.263   0.318  -0.230  0.00  0.00    -0.200 OA
BRANCH  11  14
ATOM     14  C   UNL d   1       0.007   1.526   0.023  0.00  0.00     0.119 A 
ATOM     15  S   UNL d   1      -1.667   1.450   0.383  0.00  0.00    -0.088 SA
ATOM     16  C   UNL d   1      -1.862   3.134   0.150  0.00  0.00     0.051 A 
ATOM     17  C   UNL d   1      -0.686   3.742  -0.231  0.00  0.00     0.009 A 
ATOM     18  C   UNL d   1       0.393   2.810  -0.316  0.00  0.00     0.033 A 
ENDBRANCH  11  14
ENDBRANCH   9  11
ENDBRANCH   6   9
BRANCH   2  19
ATOM     19  O   UNL d   1      -2.924  -1.592  -5.608  0.00  0.00    -0.304 OA
BRANCH  19  20
ATOM     20  C   UNL d   1      -4.085  -1.286  -6.393  0.00  0.00     0.176 C 
ATOM     21  C   UNL d   1      -5.232  -0.969  -5.450  0.00  0.00     0.034 C 
ENDBRANCH  19  20
ENDBRANCH   2  19
TORSDOF 5
