REMARK  3 active torsions:
REMARK  status: ('A' for Active; 'I' for Inactive)
REMARK    1  A    between atoms: C_18  and  N_9 
REMARK    2  A    between atoms: C_12  and  C_18 
REMARK    3  A    between atoms: C_21  and  C_13 
ROOT
ATOM      1  C   UNL d   1       0.298  -0.642   0.061  0.00  0.00     0.145 A 
ATOM      2  C   UNL d   1       0.308   0.720   0.094  0.00  0.00     0.149 A 
ATOM      3  N   UNL d   1      -0.874  -1.357   0.020  0.00  0.00    -0.287 N 
ATOM      4  N   UNL d   1      -2.047   0.727   0.040  0.00  0.00    -0.269 N 
ATOM      5  C   UNL d   1      -2.095  -0.678   0.014  0.00  0.00     0.332 A 
ATOM      6  C   UNL d   1      -0.881   1.500   0.076  0.00  0.00     0.282 A 
ATOM      7  N   UNL d   1       1.558  -1.158   0.063  0.00  0.00    -0.336 N 
ATOM      8  HN  UNL d   1       1.829  -2.141   0.035  1.00  0.00     0.168 HD
ATOM      9  N   UNL d   1       1.631   1.067   0.144  0.00  0.00    -0.328 N 
ATOM     10  C   UNL d   1       2.348  -0.105   0.108  0.00  0.00     0.185 A 
ATOM     11  O   UNL d   1      -3.165  -1.292  -0.017  0.00  0.00    -0.246 OA
ATOM     12  O   UNL d   1      -0.872   2.728   0.082  0.00  0.00    -0.265 OA
ATOM     13  C   UNL d   1      -0.887  -2.806  -0.001  0.00  0.00     0.163 C 
ATOM     14  C   UNL d   1      -3.300   1.457   0.026  0.00  0.00     0.164 C 
ENDROOT
BRANCH   9  15
ATOM     15  C   UNL d   1       2.209   2.398   0.140  0.00  0.00     0.216 C 
BRANCH  15  16
ATOM     16  C   UNL d   1       2.468   2.876   1.514  0.00  0.00     0.159 A 
ATOM     17  O   UNL d   1       1.510   3.643   2.124  0.00  0.00    -0.276 OA
ATOM     18  C   UNL d   1       2.117   3.963   3.314  0.00  0.00     0.174 A 
ATOM     19  N   UNL d   1       3.322   3.434   3.416  0.00  0.00    -0.277 N 
ATOM     20  N   UNL d   1       3.550   2.733   2.250  0.00  0.00    -0.280 N 
ATOM     21  HN  UNL d   1       3.961   3.526   4.205  1.00  0.00     0.189 HD
ATOM     22  HN  UNL d   1       4.390   2.208   2.007  1.00  0.00     0.189 HD
BRANCH  18  23
ATOM     23  C   UNL d   1       1.397   4.838   4.233  0.00  0.00     0.017 A 
ATOM     24  C   UNL d   1       0.100   5.298   3.959  0.00  0.00     0.016 A 
ATOM     25  C   UNL d   1      -0.553   6.166   4.838  0.00  0.00     0.001 A 
ATOM     26  C   UNL d   1       0.082   6.588   6.007  0.00  0.00     0.000 A 
ATOM     27  C   UNL d   1       1.363   6.133   6.300  0.00  0.00     0.001 A 
ATOM     28  C   UNL d   1       2.017   5.264   5.420  0.00  0.00     0.016 A 
ENDBRANCH  18  23
ENDBRANCH  15  16
ENDBRANCH   9  15
TORSDOF 3
