REMARK  2 active torsions:
REMARK  status: ('A' for Active; 'I' for Inactive)
REMARK    1  A    between atoms: C_10  and  C_7 
REMARK    2  A    between atoms: O_18  and  C_10 
ROOT
ATOM      1  S   UNL d   1       0.358   2.380   0.048  0.00  0.00     0.180 S 
ATOM      2  C   UNL d   1      -0.888  -0.462   0.010  0.00  0.00     0.025 A 
ATOM      3  C   UNL d   1      -1.773   0.602  -0.005  0.00  0.00    -0.024 A 
ATOM      4  C   UNL d   1       0.583  -0.392   0.009  0.00  0.00     0.005 A 
ATOM      5  S   UNL d   1      -1.730  -1.955   0.028  0.00  0.00    -0.083 SA
ATOM      6  C   UNL d   1       1.240   0.845   0.017  0.00  0.00     0.071 A 
ATOM      7  C   UNL d   1      -3.265  -1.213   0.014  0.00  0.00     0.081 A 
ATOM      8  C   UNL d   1      -3.141   0.161   0.003  0.00  0.00     0.034 A 
ATOM      9  C   UNL d   1      -1.383   2.041  -0.041  0.00  0.00     0.185 A 
ATOM     10  O   UNL d   1       0.637   2.963   1.348  0.00  0.00    -0.222 OA
ATOM     11  O   UNL d   1       0.737   3.075  -1.170  0.00  0.00    -0.222 OA
ATOM     12  C   UNL d   1       2.643   0.939   0.015  0.00  0.00     0.026 A 
ATOM     13  C   UNL d   1       1.393  -1.545   0.005  0.00  0.00     0.038 A 
ATOM     14  C   UNL d   1       2.789  -1.454   0.008  0.00  0.00     0.035 A 
ATOM     15  C   UNL d   1       3.419  -0.216   0.011  0.00  0.00     0.025 A 
ATOM     16 CL   UNL d   1       3.738  -2.890   0.012  0.00  0.00    -0.084 Cl
ENDROOT
BRANCH   7  17
ATOM     17  C   UNL d   1      -4.453  -2.049   0.012  0.00  0.00     0.299 C 
ATOM     18  O   UNL d   1      -4.478  -3.274   0.019  0.00  0.00    -0.259 OA
BRANCH  17  19
ATOM     19  O   UNL d   1      -5.574  -1.265  -0.003  0.00  0.00    -0.322 OA
ATOM     20  C   UNL d   1      -6.791  -2.015  -0.009  0.00  0.00     0.213 C 
ENDBRANCH  17  19
ENDBRANCH   7  17
TORSDOF 2
