REMARK  2 active torsions:
REMARK  status: ('A' for Active; 'I' for Inactive)
REMARK    1  A    between atoms: C_10  and  C_3 
REMARK       I    between atoms: C_9  and  N_8 
REMARK       I    between atoms: N_12  and  C_9 
REMARK    2  A    between atoms: C_11  and  N_12 
ROOT
ATOM      1  S   UNL d   1      -1.900   0.623   0.598  0.00  0.00    -0.037 SA
ATOM      2  C   UNL d   1      -0.242   1.009   0.487  0.00  0.00     0.169 A 
ATOM      3  C   UNL d   1      -1.423  -1.015   0.770  0.00  0.00     0.074 A 
ATOM      4  N   UNL d   1      -0.118  -1.200   0.709  0.00  0.00    -0.296 N 
ATOM      5  HN  UNL d   1       0.330  -2.113   0.789  1.00  0.00     0.187 HD
ATOM      6  N   UNL d   1       0.576  -0.013   0.524  0.00  0.00    -0.279 N 
ATOM      7  HN  UNL d   1       1.589   0.054   0.431  1.00  0.00     0.189 HD
ATOM      8  N   UNL d   1       0.029   2.340   0.384  0.00  0.00    -0.287 N 
ATOM      9  C   UNL d   1       1.248   2.944   0.338  0.00  0.00     0.326 C 
ATOM     10  N   UNL d   1       2.364   2.154   0.223  0.00  0.00    -0.308 N 
ATOM     11  O   UNL d   1       1.246   4.174   0.376  0.00  0.00    -0.247 OA
ATOM     12  H   UNL d   1      -0.750   2.978   0.431  0.00  0.00     0.172 HD
ATOM     13  H   UNL d   1       2.191   1.181  -0.004  0.00  0.00     0.170 HD
ENDROOT
BRANCH  10  14
ATOM     14  C   UNL d   1       3.712   2.595   0.252  0.00  0.00     0.045 A 
ATOM     15  C   UNL d   1       4.060   3.827   0.825  0.00  0.00     0.072 A 
ATOM     16  C   UNL d   1       5.390   4.231   0.900  0.00  0.00     0.118 A 
ATOM     17  F   UNL d   1       5.692   5.407   1.466  0.00  0.00    -0.206 F 
ATOM     18  C   UNL d   1       6.409   3.429   0.417  0.00  0.00     0.043 A 
ATOM     19  C   UNL d   1       6.087   2.205  -0.161  0.00  0.00     0.012 A 
ATOM     20  C   UNL d   1       4.744   1.777  -0.264  0.00  0.00    -0.035 A 
ATOM     21  C   UNL d   1       4.515   0.451  -0.938  0.00  0.00     0.050 C 
ENDBRANCH  10  14
BRANCH   3  22
ATOM     22  C   UNL d   1      -2.362  -2.208   0.984  0.00  0.00     0.044 A 
ATOM     23  C   UNL d   1      -3.664  -2.296   0.212  0.00  0.00     0.012 A 
ATOM     24  C   UNL d   1      -3.700  -2.034   1.678  0.00  0.00     0.012 A 
ENDBRANCH   3  22
TORSDOF 2
