REMARK  3 active torsions:
REMARK  status: ('A' for Active; 'I' for Inactive)
REMARK    1  A    between atoms: C_2  and  N_1 
REMARK    2  A    between atoms: O_14  and  C_5 
REMARK    3  A    between atoms: O_15  and  C_12 
ROOT
ATOM      1  C   UNL d   1       0.007   2.329  -0.039  0.00  0.00     0.079 A 
ATOM      2  C   UNL d   1      -0.593   3.044   1.022  0.00  0.00     0.098 A 
ATOM      3  C   UNL d   1      -0.537   4.453   1.063  0.00  0.00     0.075 A 
ATOM      4  C   UNL d   1       0.645   3.087  -1.038  0.00  0.00     0.036 A 
ATOM      5  C   UNL d   1       0.097   5.176   0.057  0.00  0.00     0.070 A 
ATOM      6  C   UNL d   1       0.686   4.484  -0.993  0.00  0.00     0.039 A 
ENDROOT
BRANCH   1   7
ATOM      7  N   UNL d   1       0.021   0.900  -0.117  0.00  0.00    -0.242 N 
ATOM      8  C   UNL d   1      -0.909   0.048   0.418  0.00  0.00     0.255 C 
ATOM      9  C   UNL d   1      -0.452  -1.323   0.155  0.00  0.00     0.080 C 
ATOM     10  O   UNL d   1      -2.013   0.240   0.906  0.00  0.00    -0.268 OA
ATOM     11  C   UNL d   1       0.622  -1.254  -0.623  0.00  0.00     0.080 C 
ATOM     12  C   UNL d   1       0.924   0.164  -0.838  0.00  0.00     0.255 C 
ATOM     13  O   UNL d   1       1.863   0.496  -1.544  0.00  0.00    -0.268 OA
ENDBRANCH   1   7
BRANCH   2  14
ATOM     14  O   UNL d   1      -1.082   2.353   2.104  0.00  0.00    -0.354 OA
ATOM     15  C   UNL d   1      -2.269   2.898   2.680  0.00  0.00     0.210 C 
ENDBRANCH   2  14
BRANCH   5  16
ATOM     16  O   UNL d   1       0.228   6.535  -0.002  0.00  0.00    -0.356 OA
ATOM     17  C   UNL d   1      -0.326   7.285   1.072  0.00  0.00     0.210 C 
ENDBRANCH   5  16
TORSDOF 3
