REMARK  6 active torsions:
REMARK  status: ('A' for Active; 'I' for Inactive)
REMARK    1  A    between atoms: N_2  and  S_1 
REMARK    2  A    between atoms: C_5  and  S_1 
REMARK    3  A    between atoms: C_3  and  N_2 
REMARK    4  A    between atoms: C_4  and  C_3 
REMARK    5  A    between atoms: C_9  and  C_3 
REMARK    6  A    between atoms: O_12  and  C_4 
ROOT
ATOM      1  S   UNL d   1       0.960   0.021  -0.093  0.00  0.00     0.259 S 
ATOM      2  O   UNL d   1      -0.028   0.914   0.465  0.00  0.00    -0.201 OA
ATOM      3  O   UNL d   1       1.082  -0.191  -1.526  0.00  0.00    -0.201 OA
ENDROOT
BRANCH   1   4
ATOM      4  N   UNL d   1       0.640  -1.495   0.568  0.00  0.00    -0.300 N 
ATOM      5  H   UNL d   1      -0.296  -1.514   0.973  0.00  0.00     0.173 HD
BRANCH   4   6
ATOM      6  C   UNL d   1       1.098  -2.690  -0.188  0.00  0.00     0.194 C 
BRANCH   6   7
ATOM      7  C   UNL d   1       2.627  -2.666  -0.306  0.00  0.00     0.164 C 
ATOM      8  O   UNL d   1       3.396  -2.939   0.606  0.00  0.00    -0.648 OA
BRANCH   7   9
ATOM      9  O   UNL d   1       3.072  -2.281  -1.528  0.00  0.00    -0.775 OA
ATOM     10  H   UNL d   1       2.369  -1.929  -2.115  0.00  0.00     0.167 HD
ENDBRANCH   7   9
ENDBRANCH   6   7
BRANCH   6  11
ATOM     11  C   UNL d   1       0.634  -4.004   0.489  0.00  0.00     0.011 C 
ATOM     12  C   UNL d   1      -0.895  -4.113   0.566  0.00  0.00     0.012 C 
ATOM     13  C   UNL d   1       1.155  -5.231  -0.281  0.00  0.00     0.012 C 
ENDBRANCH   6  11
ENDBRANCH   4   6
ENDBRANCH   1   4
BRANCH   1  14
ATOM     14  C   UNL d   1       2.541   0.491   0.550  0.00  0.00     0.079 A 
ATOM     15  C   UNL d   1       3.595   0.723  -0.336  0.00  0.00     0.026 A 
ATOM     16  C   UNL d   1       4.842   1.110   0.151  0.00  0.00     0.008 A 
ATOM     17  C   UNL d   1       5.043   1.286   1.525  0.00  0.00    -0.062 A 
ATOM     18  C   UNL d   1       3.974   1.069   2.407  0.00  0.00     0.008 A 
ATOM     19  C   UNL d   1       6.399   1.699   2.018  0.00  0.00     0.048 C 
ATOM     20  C   UNL d   1       2.720   0.672   1.925  0.00  0.00     0.026 A 
ENDBRANCH   1  14
TORSDOF 6
