REMARK  3 active torsions:
REMARK  status: ('A' for Active; 'I' for Inactive)
REMARK    1  A    between atoms: C_13  and  N_2 
REMARK       I    between atoms: C_11  and  N_10 
REMARK    2  A    between atoms: O_21  and  C_11 
REMARK    3  A    between atoms: C_25  and  O_21 
ROOT
ATOM      1  C   UNL d   1       0.669   0.428   0.076  0.00  0.00     0.074 A 
ATOM      2  N   UNL d   1       2.947   1.207   0.046  0.00  0.00    -0.229 N 
ATOM      3  C   UNL d   1       1.179  -0.830  -0.047  0.00  0.00     0.095 A 
ATOM      4  C   UNL d   1       1.583   1.550   0.160  0.00  0.00     0.270 A 
ATOM      5  C   UNL d   1       3.431  -0.103  -0.146  0.00  0.00     0.335 A 
ATOM      6  N   UNL d   1       2.501  -1.120  -0.149  0.00  0.00    -0.301 N 
ATOM      7  C   UNL d   1      -0.761   0.385   0.066  0.00  0.00    -0.023 A 
ATOM      8  C   UNL d   1      -1.230  -0.922   0.021  0.00  0.00     0.010 A 
ATOM      9  S   UNL d   1       0.043  -2.065  -0.079  0.00  0.00    -0.074 SA
ATOM     10  N   UNL d   1      -3.500  -0.149   0.318  0.00  0.00    -0.323 N 
ATOM     11  C   UNL d   1      -4.359  -0.091   1.397  0.00  0.00     0.363 C 
ATOM     12  C   UNL d   1      -2.681  -1.332   0.016  0.00  0.00     0.174 C 
ATOM     13  C   UNL d   1      -1.712   1.549   0.108  0.00  0.00     0.061 C 
ATOM     14  O   UNL d   1       4.618  -0.412  -0.275  0.00  0.00    -0.246 OA
ATOM     15  O   UNL d   1       1.144   2.692   0.286  0.00  0.00    -0.266 OA
ATOM     16  C   UNL d   1      -3.115   1.102  -0.342  0.00  0.00     0.133 C 
ATOM     17  O   UNL d   1      -4.881   0.942   1.798  0.00  0.00    -0.238 OA
ATOM     18  H   UNL d   1       2.827  -2.072  -0.247  0.00  0.00     0.171 HD
ENDROOT
BRANCH   2  19
ATOM     19  C   UNL d   1       3.895   2.276   0.123  0.00  0.00     0.047 A 
ATOM     20  C   UNL d   1       4.839   2.474  -0.891  0.00  0.00     0.031 A 
ATOM     21  C   UNL d   1       5.716   3.563  -0.835  0.00  0.00     0.009 A 
ATOM     22  C   UNL d   1       5.691   4.442   0.255  0.00  0.00    -0.062 A 
ATOM     23  C   UNL d   1       4.767   4.227   1.281  0.00  0.00     0.009 A 
ATOM     24  C   UNL d   1       6.630   5.611   0.301  0.00  0.00     0.048 C 
ATOM     25  C   UNL d   1       3.868   3.162   1.208  0.00  0.00     0.031 A 
ENDBRANCH   2  19
BRANCH  11  26
ATOM     26  O   UNL d   1      -4.525  -1.302   1.992  0.00  0.00    -0.304 OA
BRANCH  26  27
ATOM     27  C   UNL d   1      -5.065  -1.266   3.320  0.00  0.00     0.176 C 
ATOM     28  C   UNL d   1      -3.912  -1.078   4.289  0.00  0.00     0.034 C 
ENDBRANCH  26  27
ENDBRANCH  11  26
TORSDOF 3
