REMARK  3 active torsions:
REMARK  status: ('A' for Active; 'I' for Inactive)
REMARK    1  A    between atoms: C_6  and  N_1 
REMARK    2  A    between atoms: C_11  and  C_4 
REMARK    3  A    between atoms: C_7  and  C_6 
ROOT
ATOM      1  N   UNL d   1      -0.055   0.828  -0.040  0.00  0.00    -0.283 N 
ATOM      2  C   UNL d   1      -1.153   0.019   0.018  0.00  0.00     0.235 C 
ATOM      3  C   UNL d   1       1.115   0.129  -0.021  0.00  0.00     0.227 C 
ATOM      4  C   UNL d   1      -0.704  -1.425  -0.045  0.00  0.00     0.120 C 
ATOM      5  C   UNL d   1       0.819  -1.338   0.073  0.00  0.00     0.122 C 
ATOM      6  O   UNL d   1      -2.315   0.391   0.109  0.00  0.00    -0.272 OA
ATOM      7  O   UNL d   1       2.246   0.594  -0.020  0.00  0.00    -0.273 OA
ENDROOT
BRANCH   1   8
ATOM      8  C   UNL d   1      -0.121   2.273  -0.071  0.00  0.00     0.181 C 
BRANCH   8   9
ATOM      9  C   UNL d   1      -0.070   2.743  -1.497  0.00  0.00     0.001 A 
ATOM     10  S   UNL d   1       1.239   3.712  -2.035  0.00  0.00    -0.105 SA
ATOM     11  C   UNL d   1       0.631   3.766  -3.631  0.00  0.00     0.050 A 
ATOM     12  C   UNL d   1      -0.560   3.087  -3.753  0.00  0.00     0.008 A 
ATOM     13  C   UNL d   1      -0.977   2.515  -2.516  0.00  0.00     0.017 A 
ENDBRANCH   8   9
ENDBRANCH   1   8
BRANCH   4  14
ATOM     14  C   UNL d   1      -1.245  -2.127  -1.276  0.00  0.00    -0.045 A 
ATOM     15  C   UNL d   1      -0.577  -2.124  -2.509  0.00  0.00     0.008 A 
ATOM     16  C   UNL d   1      -1.124  -2.771  -3.620  0.00  0.00     0.001 A 
ATOM     17  C   UNL d   1      -2.358  -3.407  -3.523  0.00  0.00     0.000 A 
ATOM     18  C   UNL d   1      -3.047  -3.399  -2.314  0.00  0.00     0.001 A 
ATOM     19  C   UNL d   1      -2.495  -2.766  -1.199  0.00  0.00     0.008 A 
ENDBRANCH   4  14
TORSDOF 3
