REMARK  2 active torsions:
REMARK  status: ('A' for Active; 'I' for Inactive)
REMARK    1  A    between atoms: N_15  and  C_5 
REMARK    2  A    between atoms: C_18  and  N_15 
ROOT
ATOM      1  C   UNL d   1       0.780   0.489  -0.085  0.00  0.00     0.049 A 
ATOM      2  C   UNL d   1       1.264  -0.791  -0.075  0.00  0.00     0.091 A 
ATOM      3  N   UNL d   1       3.051   1.243   0.007  0.00  0.00    -0.319 N 
ATOM      4  HN  UNL d   1       3.737   1.996   0.060  1.00  0.00     0.170 HD
ATOM      5  C   UNL d   1       1.787   1.540  -0.035  0.00  0.00     0.117 A 
ATOM      6  N   UNL d   1       2.585  -1.100  -0.051  0.00  0.00    -0.327 N 
ATOM      7  C   UNL d   1      -0.657   0.453  -0.113  0.00  0.00    -0.025 A 
ATOM      8  C   UNL d   1      -1.131  -0.856  -0.060  0.00  0.00     0.020 A 
ATOM      9  C   UNL d   1       3.491  -0.064  -0.020  0.00  0.00     0.178 A 
ATOM     10  S   UNL d   1       0.123  -2.016  -0.071  0.00  0.00    -0.074 SA
ATOM     11  N   UNL d   1      -3.446  -0.127   0.425  0.00  0.00     0.089 N 
ATOM     12  C   UNL d   1      -2.582  -1.250  -0.008  0.00  0.00     0.318 C 
ATOM     13  C   UNL d   1      -1.643   1.590  -0.115  0.00  0.00     0.071 C 
ATOM     14  S   UNL d   1       5.122  -0.472  -0.003  0.00  0.00    -0.040 SA
ATOM     15  C   UNL d   1      -3.093   1.099  -0.320  0.00  0.00     0.277 C 
ATOM     16  C   UNL d   1      -3.379   0.074   1.874  0.00  0.00     0.310 C 
ATOM     17  H   UNL d   1       2.906  -2.060  -0.053  0.00  0.00     0.169 HD
ENDROOT
BRANCH   5  18
ATOM     18  N   UNL d   1       1.296   2.816  -0.004  0.00  0.00    -0.376 N 
ATOM     19  H   UNL d   1       0.301   2.921   0.089  0.00  0.00     0.161 HD
BRANCH  18  20
ATOM     20  C   UNL d   1       2.042   3.897   0.613  0.00  0.00     0.116 C 
ATOM     21  C   UNL d   1       1.250   5.190   0.491  0.00  0.00     0.026 C 
ENDBRANCH  18  20
ENDBRANCH   5  18
TORSDOF 2
