REMARK  5 active torsions:
REMARK  status: ('A' for Active; 'I' for Inactive)
REMARK    1  A    between atoms: C_6  and  S_1 
REMARK    2  A    between atoms: N_7  and  S_1 
REMARK    3  A    between atoms: C_3  and  C_14 
REMARK    4  A    between atoms: C_20  and  N_7 
REMARK    5  A    between atoms: C_22  and  C_20 
ROOT
ATOM      1  N   UNL d   1       0.368   1.344   0.912  0.00  0.00    -0.311 N 
ATOM      2  H   UNL d   1      -0.279   1.919   0.376  0.00  0.00     0.172 HD
ENDROOT
BRANCH   1   3
ATOM      3  S   UNL d   1       0.857  -0.098   0.247  0.00  0.00     0.259 S 
ATOM      4  O   UNL d   1       0.099  -0.275  -0.975  0.00  0.00    -0.201 OA
ATOM      5  O   UNL d   1       2.302  -0.146   0.277  0.00  0.00    -0.201 OA
BRANCH   3   6
ATOM      6  C   UNL d   1       0.226  -1.277   1.414  0.00  0.00     0.081 A 
ATOM      7  C   UNL d   1      -1.149  -1.296   1.673  0.00  0.00     0.052 A 
ATOM      8  C   UNL d   1      -1.659  -2.241   2.558  0.00  0.00     0.074 A 
ATOM      9 CL   UNL d   1      -3.349  -2.265   2.882  0.00  0.00    -0.081 Cl
ATOM     10  C   UNL d   1      -0.803  -3.157   3.170  0.00  0.00     0.138 A 
ATOM     11  C   UNL d   1       0.568  -3.129   2.918  0.00  0.00     0.045 A 
ATOM     12  F   UNL d   1      -1.283  -4.087   4.008  0.00  0.00    -0.204 F 
ATOM     13  C   UNL d   1       1.093  -2.180   2.039  0.00  0.00     0.028 A 
ENDBRANCH   3   6
ENDBRANCH   1   3
BRANCH   1  14
ATOM     14  C   UNL d   1       1.085   1.894   2.047  0.00  0.00     0.170 C 
BRANCH  14  15
ATOM     15  C   UNL d   1       0.567   3.264   2.405  0.00  0.00    -0.040 A 
ATOM     16  C   UNL d   1      -0.535   3.411   3.256  0.00  0.00     0.010 A 
ATOM     17  C   UNL d   1      -1.001   4.684   3.600  0.00  0.00     0.014 A 
ATOM     18  C   UNL d   1      -0.376   5.834   3.099  0.00  0.00    -0.008 A 
ATOM     19  C   UNL d   1       0.696   5.684   2.209  0.00  0.00     0.014 A 
ATOM     20  C   UNL d   1       1.159   4.411   1.861  0.00  0.00     0.010 A 
BRANCH  18  21
ATOM     21  C   UNL d   1      -0.847   7.149   3.515  0.00  0.00     0.063 A 
ATOM     22  N   UNL d   1      -2.171   7.361   3.883  0.00  0.00    -0.292 N 
ATOM     23  N   UNL d   1      -2.390   8.613   4.249  0.00  0.00    -0.061 NA
ATOM     24  HN  UNL d   1      -2.889   6.636   3.873  1.00  0.00     0.183 HD
ATOM     25  S   UNL d   1      -1.015   9.560   4.180  0.00  0.00    -0.010 SA
ATOM     26  C   UNL d   1      -0.035   8.266   3.624  0.00  0.00     0.096 A 
ENDBRANCH  18  21
ENDBRANCH  14  15
ENDBRANCH   1  14
TORSDOF 5
