REMARK  7 active torsions:
REMARK  status: ('A' for Active; 'I' for Inactive)
REMARK    1  A    between atoms: N_8  and  C_2 
REMARK    2  A    between atoms: C_9  and  C_3 
REMARK       I    between atoms: C_12  and  N_8 
REMARK    3  A    between atoms: C_18  and  C_12 
REMARK    4  A    between atoms: C_13  and  C_19 
REMARK    5  A    between atoms: O_17  and  C_13 
REMARK    6  A    between atoms: S_16  and  C_18 
REMARK    7  A    between atoms: C_19  and  S_16 
ROOT
ATOM      1  N   UNL d   1       0.549   2.452  -0.064  0.00  0.00    -0.305 N 
ATOM      2  C   UNL d   1       1.842   2.916  -0.097  0.00  0.00     0.232 C 
ATOM      3  O   UNL d   1       2.878   2.251  -0.087  0.00  0.00    -0.272 OA
ATOM      4  H   UNL d   1      -0.197   3.099   0.170  0.00  0.00     0.171 HD
ENDROOT
BRANCH   1   5
ATOM      5  C   UNL d   1       0.132   1.145  -0.047  0.00  0.00     0.167 A 
ATOM      6  S   UNL d   1       1.101  -0.184  -0.501  0.00  0.00    -0.037 SA
ATOM      7  C   UNL d   1      -0.238  -1.193  -0.127  0.00  0.00     0.074 A 
ATOM      8  N   UNL d   1      -1.304  -0.532   0.277  0.00  0.00    -0.296 N 
ATOM      9  N   UNL d   1      -1.098   0.829   0.285  0.00  0.00    -0.279 N 
ATOM     10  HN  UNL d   1      -2.179  -0.977   0.551  1.00  0.00     0.187 HD
ATOM     11  HN  UNL d   1      -1.818   1.513   0.521  1.00  0.00     0.189 HD
BRANCH   7  12
ATOM     12  C   UNL d   1      -0.301  -2.721  -0.192  0.00  0.00     0.044 A 
ATOM     13  C   UNL d   1       0.952  -3.560  -0.058  0.00  0.00     0.012 A 
ATOM     14  C   UNL d   1       0.261  -3.476  -1.377  0.00  0.00     0.012 A 
ENDBRANCH   7  12
ENDBRANCH   1   5
BRANCH   2  15
ATOM     15  C   UNL d   1       1.924   4.436  -0.035  0.00  0.00     0.177 C 
BRANCH  15  16
ATOM     16  S   UNL d   1       1.981   4.999   1.698  0.00  0.00    -0.149 SA
BRANCH  16  17
ATOM     17  C   UNL d   1       3.494   4.170   2.299  0.00  0.00     0.184 C 
BRANCH  17  18
ATOM     18  C   UNL d   1       4.728   4.584   1.532  0.00  0.00     0.149 C 
ATOM     19  O   UNL d   1       5.388   5.585   1.780  0.00  0.00    -0.649 OA
BRANCH  18  20
ATOM     20  O   UNL d   1       5.043   3.753   0.508  0.00  0.00    -0.776 OA
ATOM     21  H   UNL d   1       4.431   2.992   0.373  0.00  0.00     0.167 HD
ENDBRANCH  18  20
ENDBRANCH  17  18
ENDBRANCH  16  17
ENDBRANCH  15  16
ENDBRANCH   2  15
TORSDOF 7
