REMARK  5 active torsions:
REMARK  status: ('A' for Active; 'I' for Inactive)
REMARK    1  A    between atoms: C_3  and  C_1 
REMARK    2  A    between atoms: C_4  and  C_2 
REMARK    3  A    between atoms: C_6  and  C_4 
REMARK    4  A    between atoms: C_5  and  N_11 
REMARK    5  A    between atoms: N_11  and  C_16 
ROOT
ATOM      1  N   UNL d   1      -0.545   3.419  -4.404  0.00  0.00    -0.366 N 
ATOM      2  H   UNL d   1      -0.297   4.397  -4.309  0.00  0.00     0.165 HD
ENDROOT
BRANCH   1   3
ATOM      3  C   UNL d   1      -1.196   3.049  -5.555  0.00  0.00     0.092 C 
ATOM      4  C   UNL d   1      -1.621   3.852  -6.541  0.00  0.00     0.072 C 
BRANCH   4   5
ATOM      5  C   UNL d   1      -2.302   3.248  -7.722  0.00  0.00     0.183 C 
ATOM      6  O   UNL d   1      -2.519   2.042  -7.797  0.00  0.00    -0.288 OA
BRANCH   5   7
ATOM      7  C   UNL d   1      -2.774   4.145  -8.813  0.00  0.00     0.014 A 
ATOM      8  C   UNL d   1      -2.152   5.362  -9.127  0.00  0.00     0.018 A 
ATOM      9  C   UNL d   1      -2.653   6.155 -10.164  0.00  0.00     0.043 A 
ATOM     10  C   UNL d   1      -3.763   5.729 -10.889  0.00  0.00     0.116 A 
ATOM     11  C   UNL d   1      -4.378   4.517 -10.603  0.00  0.00     0.043 A 
ATOM     12  F   UNL d   1      -4.237   6.494 -11.879  0.00  0.00    -0.206 F 
ATOM     13  C   UNL d   1      -3.881   3.722  -9.569  0.00  0.00     0.018 A 
ENDBRANCH   5   7
ENDBRANCH   4   5
ENDBRANCH   1   3
BRANCH   1  14
ATOM     14  C   UNL d   1      -0.119   2.579  -3.358  0.00  0.00     0.031 A 
ATOM     15  C   UNL d   1       0.982   2.966  -2.581  0.00  0.00     0.030 A 
ATOM     16  C   UNL d   1       1.511   2.117  -1.600  0.00  0.00     0.018 A 
ATOM     17  C   UNL d   1       0.948   0.855  -1.370  0.00  0.00     0.048 A 
ATOM     18  C   UNL d   1      -0.162   0.470  -2.130  0.00  0.00     0.018 A 
ATOM     19  C   UNL d   1      -0.680   1.319  -3.116  0.00  0.00     0.030 A 
BRANCH  17  20
ATOM     20  C   UNL d   1       1.548  -0.068  -0.337  0.00  0.00     0.417 C 
ATOM     21  F   UNL d   1       0.892  -1.257  -0.219  0.00  0.00    -0.166 F 
ATOM     22  F   UNL d   1       1.556   0.478   0.910  0.00  0.00    -0.166 F 
ATOM     23  F   UNL d   1       2.844  -0.385  -0.614  0.00  0.00    -0.166 F 
ENDBRANCH  17  20
ENDBRANCH   1  14
TORSDOF 5
