REMARK  4 active torsions:
REMARK  status: ('A' for Active; 'I' for Inactive)
REMARK    1  A    between atoms: C_8  and  N_1 
REMARK    2  A    between atoms: C_7  and  C_2 
REMARK    3  A    between atoms: N_11  and  C_9 
REMARK    4  A    between atoms: C_10  and  N_11 
ROOT
ATOM      1  N   UNL d   1       3.822   0.707   0.017  0.00  0.00    -0.225 N 
ATOM      2  C   UNL d   1       3.704  -0.681  -0.075  0.00  0.00     0.139 C 
ATOM      3  N   UNL d   1       5.753  -0.099  -0.431  0.00  0.00    -0.007 NA
ATOM      4  N   UNL d   1       5.090   1.040  -0.332  0.00  0.00     0.001 NA
ATOM      5  N   UNL d   1       4.917  -1.167  -0.277  0.00  0.00    -0.270 N 
ATOM      6  HN  UNL d   1       5.178  -2.153  -0.311  1.00  0.00     0.185 HD
ENDROOT
BRANCH   2   7
ATOM      7  C   UNL d   1       2.445  -1.333  -0.145  0.00  0.00     0.063 C 
ATOM      8  C   UNL d   1       2.254  -2.601   0.246  0.00  0.00     0.066 C 
BRANCH   8   9
ATOM      9  N   UNL d   1       3.123  -3.472   0.871  0.00  0.00    -0.269 NA
ATOM     10  H   UNL d   1       3.109  -4.392   0.431  0.00  0.00     0.133 HD
BRANCH   9  11
ATOM     11  C   UNL d   1       3.130  -3.670   2.284  0.00  0.00     0.018 A 
ATOM     12  C   UNL d   1       3.918  -4.693   2.857  0.00  0.00    -0.041 A 
ATOM     13  C   UNL d   1       4.719  -5.666   2.033  0.00  0.00     0.050 C 
ATOM     14  C   UNL d   1       3.933  -4.856   4.256  0.00  0.00     0.008 A 
ATOM     15  C   UNL d   1       3.220  -3.997   5.088  0.00  0.00     0.001 A 
ATOM     16  C   UNL d   1       2.481  -2.960   4.533  0.00  0.00     0.002 A 
ATOM     17  C   UNL d   1       2.446  -2.793   3.148  0.00  0.00     0.024 A 
ENDBRANCH   9  11
ENDBRANCH   8   9
ENDBRANCH   2   7
BRANCH   1  18
ATOM     18  C   UNL d   1       2.908   1.718   0.426  0.00  0.00     0.056 A 
ATOM     19  C   UNL d   1       1.827   1.431   1.272  0.00  0.00     0.033 A 
ATOM     20  C   UNL d   1       0.984   2.462   1.703  0.00  0.00     0.026 A 
ATOM     21  C   UNL d   1       1.209   3.773   1.285  0.00  0.00     0.034 A 
ATOM     22  C   UNL d   1       2.278   4.068   0.444  0.00  0.00     0.026 A 
ATOM     23 CL   UNL d   1       0.173   5.034   1.827  0.00  0.00    -0.084 Cl
ATOM     24  C   UNL d   1       3.135   3.046   0.025  0.00  0.00     0.033 A 
ENDBRANCH   1  18
TORSDOF 4
