REMARK  1 active torsions:
REMARK  status: ('A' for Active; 'I' for Inactive)
REMARK    1  A    between atoms: C_2  and  N_1 
ROOT
ATOM      1  N   UNL d   1       0.642   1.089  -0.571  0.00  0.00    -0.236 N 
ATOM      2  C   UNL d   1       1.395  -0.032  -0.224  0.00  0.00     0.241 C 
ATOM      3  C   UNL d   1      -0.572   1.298   0.087  0.00  0.00     0.241 C 
ATOM      4  S   UNL d   1      -0.871  -1.319   0.746  0.00  0.00    -0.150 SA
ATOM      5  O   UNL d   1      -0.873   2.280   0.766  0.00  0.00    -0.272 OA
ATOM      6  O   UNL d   1       2.608  -0.018   0.008  0.00  0.00    -0.272 OA
ATOM      7  C   UNL d   1      -1.549   0.149  -0.046  0.00  0.00     0.178 C 
ATOM      8  C   UNL d   1       0.665  -1.363  -0.190  0.00  0.00     0.178 C 
ENDROOT
BRANCH   1   9
ATOM      9  C   UNL d   1       1.274   2.228  -1.179  0.00  0.00     0.117 A 
ATOM     10  N   UNL d   1       0.573   3.384  -1.261  0.00  0.00    -0.350 N 
ATOM     11  C   UNL d   1       1.132   4.459  -1.873  0.00  0.00     0.113 A 
ATOM     12  HN  UNL d   1      -0.366   3.446  -0.868  1.00  0.00     0.166 HD
ATOM     13  C   UNL d   1       2.367   4.431  -2.489  0.00  0.00     0.049 A 
ATOM     14  C   UNL d   1       3.067   3.238  -2.471  0.00  0.00     0.029 A 
ATOM     15 CL   UNL d   1       3.005   5.816  -3.271  0.00  0.00    -0.083 Cl
ATOM     16  C   UNL d   1       2.517   2.129  -1.817  0.00  0.00     0.051 A 
ENDBRANCH   1   9
TORSDOF 1
