REMARK  3 active torsions:
REMARK  status: ('A' for Active; 'I' for Inactive)
REMARK    1  A    between atoms: C_2  and  C_1 
REMARK       I    between atoms: N_5  and  C_1 
REMARK    2  A    between atoms: C_17  and  N_5 
REMARK    3  A    between atoms: C_6  and  C_17 
ROOT
ATOM      1  C   UNL d   1       0.150  -0.874  -0.994  0.00  0.00     0.034 A 
ATOM      2  C   UNL d   1      -1.765  -1.191  -2.445  0.00  0.00     0.103 A 
ATOM      3  C   UNL d   1      -0.949  -0.349  -1.686  0.00  0.00     0.056 A 
ATOM      4  C   UNL d   1      -1.424  -2.539  -2.627  0.00  0.00     0.102 A 
ATOM      5  O   UNL d   1      -2.905  -0.594  -2.930  0.00  0.00    -0.348 OA
ATOM      6  O   UNL d   1      -2.121  -3.445  -3.385  0.00  0.00    -0.348 OA
ATOM      7  C   UNL d   1       0.462  -2.232  -1.131  0.00  0.00     0.020 A 
ATOM      8  C   UNL d   1      -0.308  -3.055  -1.959  0.00  0.00     0.040 A 
ATOM      9  C   UNL d   1      -4.170  -2.308  -4.072  0.00  0.00     0.053 C 
ATOM     10  C   UNL d   1      -4.048  -1.447  -2.829  0.00  0.00     0.178 C 
ATOM     11  C   UNL d   1      -2.823  -2.874  -4.493  0.00  0.00     0.178 C 
ENDROOT
BRANCH   1  12
ATOM     12  C   UNL d   1       0.906  -0.039  -0.017  0.00  0.00     0.252 C 
ATOM     13  N   UNL d   1       0.960   1.306  -0.275  0.00  0.00    -0.351 N 
ATOM     14  H   UNL d   1       0.719   1.658  -1.197  0.00  0.00     0.163 HD
ATOM     15  O   UNL d   1       1.425  -0.558   0.969  0.00  0.00    -0.268 OA
BRANCH  13  16
ATOM     16  C   UNL d   1       1.619   2.237   0.613  0.00  0.00     0.187 C 
BRANCH  16  17
ATOM     17  C   UNL d   1       1.495   3.613   0.057  0.00  0.00     0.070 A 
ATOM     18  O   UNL d   1       1.479   3.734  -1.308  0.00  0.00    -0.325 OA
ATOM     19  C   UNL d   1       1.310   5.050  -1.590  0.00  0.00     0.142 A 
ATOM     20  C   UNL d   1       1.228   5.785  -0.432  0.00  0.00     0.027 A 
ATOM     21  C   UNL d   1       1.363   4.860   0.633  0.00  0.00     0.036 A 
ENDBRANCH  16  17
ENDBRANCH  13  16
ENDBRANCH   1  12
TORSDOF 3
