REMARK  5 active torsions:
REMARK  status: ('A' for Active; 'I' for Inactive)
REMARK    1  A    between atoms: N_7  and  C_1 
REMARK       I    between atoms: C_9  and  N_7 
REMARK    2  A    between atoms: C_15  and  C_9 
REMARK    3  A    between atoms: C_17  and  C_15 
REMARK    4  A    between atoms: C_19  and  C_17 
REMARK    5  A    between atoms: C_18  and  C_19 
ROOT
ATOM      1  C   UNL d   1      -3.139   1.075  -0.084  0.00  0.00     0.152 A 
ATOM      2  C   UNL d   1      -1.048   0.398   0.015  0.00  0.00     0.058 A 
ATOM      3  N   UNL d   1      -1.892   1.491  -0.119  0.00  0.00    -0.335 N 
ATOM      4  HN  UNL d   1      -1.594   2.460  -0.227  1.00  0.00     0.168 HD
ATOM      5  C   UNL d   1      -1.691  -0.808   0.216  0.00  0.00     0.014 A 
ATOM      6  S   UNL d   1      -3.376  -0.608   0.158  0.00  0.00    -0.056 SA
ATOM      7  C   UNL d   1       0.419   0.404  -0.029  0.00  0.00    -0.002 A 
ATOM      8  C   UNL d   1      -1.002  -2.110   0.442  0.00  0.00     0.053 C 
ATOM      9  C   UNL d   1       1.095  -0.841  -0.155  0.00  0.00    -0.045 A 
ATOM     10  C   UNL d   1       0.307  -2.123  -0.355  0.00  0.00     0.044 C 
ATOM     11  C   UNL d   1       1.176   1.572   0.094  0.00  0.00     0.014 A 
ATOM     12  C   UNL d   1       2.495  -0.896  -0.145  0.00  0.00     0.008 A 
ATOM     13  C   UNL d   1       2.577   1.501   0.124  0.00  0.00     0.001 A 
ATOM     14  C   UNL d   1       3.233   0.273   0.011  0.00  0.00     0.001 A 
ENDROOT
BRANCH   1  15
ATOM     15  N   UNL d   1      -4.324   1.761  -0.208  0.00  0.00    -0.307 N 
ATOM     16  C   UNL d   1      -4.413   3.124  -0.062  0.00  0.00     0.223 C 
ATOM     17  O   UNL d   1      -3.470   3.888   0.168  0.00  0.00    -0.273 OA
ATOM     18  H   UNL d   1      -5.157   1.198  -0.278  0.00  0.00     0.171 HD
BRANCH  16  19
ATOM     19  C   UNL d   1      -5.827   3.682  -0.172  0.00  0.00     0.103 C 
BRANCH  19  20
ATOM     20  C   UNL d   1      -6.751   3.108   0.899  0.00  0.00     0.009 C 
BRANCH  20  21
ATOM     21  C   UNL d   1      -8.171   3.678   0.872  0.00  0.00     0.000 C 
BRANCH  21  22
ATOM     22  C   UNL d   1      -9.020   3.011   1.961  0.00  0.00    -0.005 C 
ATOM     23  C   UNL d   1     -10.448   3.530   1.974  0.00  0.00     0.005 C 
ENDBRANCH  21  22
ENDBRANCH  20  21
ENDBRANCH  19  20
ENDBRANCH  16  19
ENDBRANCH   1  15
TORSDOF 5
