REMARK  6 active torsions:
REMARK  status: ('A' for Active; 'I' for Inactive)
REMARK    1  A    between atoms: C_4  and  C_1 
REMARK       I    between atoms: N_7  and  C_4 
REMARK    2  A    between atoms: N_10  and  N_7 
REMARK       I    between atoms: C_8  and  N_10 
REMARK    3  A    between atoms: C_17  and  C_8 
REMARK    4  A    between atoms: C_14  and  C_18 
REMARK    5  A    between atoms: S_15  and  C_17 
REMARK    6  A    between atoms: C_18  and  S_15 
ROOT
ATOM      1  C   UNL d   1      -4.832   3.302   1.302  0.00  0.00     0.245 C 
ATOM      2  N   UNL d   1      -3.826   4.221   1.081  0.00  0.00    -0.267 N 
ATOM      3  O   UNL d   1      -5.174   2.985   2.439  0.00  0.00    -0.271 OA
ATOM      4  H   UNL d   1      -3.473   4.503   0.168  0.00  0.00     0.190 HD
ENDROOT
BRANCH   1   5
ATOM      5  C   UNL d   1      -5.473   2.723   0.053  0.00  0.00     0.178 C 
BRANCH   5   6
ATOM      6  S   UNL d   1      -7.279   2.996   0.017  0.00  0.00    -0.155 SA
BRANCH   6   7
ATOM      7  C   UNL d   1      -7.349   4.818   0.022  0.00  0.00     0.113 C 
BRANCH   7   8
ATOM      8  C   UNL d   1      -8.777   5.339   0.008  0.00  0.00    -0.038 A 
ATOM      9  C   UNL d   1      -9.510   5.562  -1.196  0.00  0.00    -0.019 A 
ATOM     10  C   UNL d   1     -10.829   6.088  -1.110  0.00  0.00    -0.025 A 
ATOM     11  C   UNL d   1      -9.009   5.292  -2.489  0.00  0.00     0.013 A 
ATOM     12  C   UNL d   1     -11.573   6.332  -2.275  0.00  0.00     0.012 A 
ATOM     13  C   UNL d   1     -11.397   6.362   0.140  0.00  0.00     0.012 A 
ATOM     14  C   UNL d   1     -11.045   6.058  -3.534  0.00  0.00     0.001 A 
ATOM     15  C   UNL d   1      -9.764   5.535  -3.640  0.00  0.00     0.001 A 
ATOM     16  C   UNL d   1     -10.690   6.117   1.312  0.00  0.00     0.001 A 
ATOM     17  C   UNL d   1      -9.394   5.609   1.247  0.00  0.00     0.009 A 
ENDBRANCH   7   8
ENDBRANCH   6   7
ENDBRANCH   5   6
ENDBRANCH   1   5
BRANCH   2  18
ATOM     18  N   UNL d   1      -3.218   4.798   2.210  0.00  0.00    -0.262 N 
ATOM     19  C   UNL d   1      -2.221   5.747   2.074  0.00  0.00     0.288 C 
ATOM     20  O   UNL d   1      -1.812   6.113   0.976  0.00  0.00    -0.264 OA
ATOM     21  H   UNL d   1      -3.555   4.509   3.131  0.00  0.00     0.190 HD
BRANCH  19  22
ATOM     22  C   UNL d   1      -1.702   6.278   3.341  0.00  0.00     0.126 A 
ATOM     23  N   UNL d   1      -2.165   5.879   4.539  0.00  0.00    -0.256 N 
ATOM     24  O   UNL d   1      -1.446   6.590   5.485  0.00  0.00    -0.242 OA
ATOM     25  HN  UNL d   1      -2.898   5.191   4.715  1.00  0.00     0.195 HD
ATOM     26  C   UNL d   1      -0.558   7.409   4.861  0.00  0.00     0.075 A 
ATOM     27  C   UNL d   1      -0.681   7.250   3.504  0.00  0.00     0.071 A 
ATOM     28  C   UNL d   1       0.300   8.244   5.725  0.00  0.00     0.079 C 
ENDBRANCH  19  22
ENDBRANCH   2  18
TORSDOF 6
