REMARK  5 active torsions:
REMARK  status: ('A' for Active; 'I' for Inactive)
REMARK    1  A    between atoms: C_2  and  C_1 
REMARK       I    between atoms: N_5  and  C_2 
REMARK    2  A    between atoms: C_4  and  C_3 
REMARK    3  A    between atoms: C_10  and  N_5 
REMARK    4  A    between atoms: C_9  and  C_10 
REMARK    5  A    between atoms: O_19  and  C_12 
ROOT
ATOM      1  C   UNL d   1       0.435   1.263  -0.244  0.00  0.00     0.062 A 
ATOM      2  C   UNL d   1       0.225   0.296  -1.236  0.00  0.00     0.069 A 
ATOM      3  C   UNL d   1       0.176   0.922   1.076  0.00  0.00     0.108 A 
ATOM      4  N   UNL d   1      -0.338  -0.266   1.469  0.00  0.00    -0.346 N 
ATOM      5  HN  UNL d   1      -0.553  -0.460   2.447  1.00  0.00     0.167 HD
ATOM      6  C   UNL d   1      -0.277  -0.956  -0.836  0.00  0.00     0.073 A 
ATOM      7  C   UNL d   1      -0.552  -1.180   0.503  0.00  0.00     0.142 A 
ENDROOT
BRANCH   1   8
ATOM      8  C   UNL d   1       1.041   2.578  -0.529  0.00  0.00     0.255 C 
ATOM      9  N   UNL d   1       0.455   3.745  -0.032  0.00  0.00    -0.348 N 
ATOM     10  C   UNL d   1      -0.943   3.844   0.378  0.00  0.00     0.153 C 
ATOM     11  O   UNL d   1       2.083   2.552  -1.181  0.00  0.00    -0.267 OA
BRANCH   9  12
ATOM     12  C   UNL d   1       1.121   5.022  -0.326  0.00  0.00     0.165 C 
BRANCH  12  13
ATOM     13  C   UNL d   1       2.342   5.295   0.526  0.00  0.00    -0.019 A 
ATOM     14  C   UNL d   1       2.289   5.907   1.788  0.00  0.00     0.042 A 
ATOM     15 CL   UNL d   1       0.802   6.415   2.505  0.00  0.00    -0.084 Cl
ATOM     16  C   UNL d   1       3.463   6.153   2.513  0.00  0.00     0.024 A 
ATOM     17  C   UNL d   1       4.705   5.790   1.993  0.00  0.00     0.002 A 
ATOM     18  C   UNL d   1       4.775   5.180   0.746  0.00  0.00     0.001 A 
ATOM     19  C   UNL d   1       3.607   4.939   0.021  0.00  0.00     0.010 A 
ENDBRANCH  12  13
ENDBRANCH   9  12
ENDBRANCH   1   8
BRANCH   2  20
ATOM     20  C   UNL d   1       0.544   0.500  -2.692  0.00  0.00     0.418 C 
ATOM     21  F   UNL d   1       0.512   1.793  -3.115  0.00  0.00    -0.166 F 
ATOM     22  F   UNL d   1       1.753  -0.009  -3.042  0.00  0.00    -0.166 F 
ATOM     23  F   UNL d   1      -0.365  -0.137  -3.491  0.00  0.00    -0.166 F 
ENDBRANCH   2  20
BRANCH   7  24
ATOM     24  O   UNL d   1      -1.052  -2.425   0.823  0.00  0.00    -0.341 OA
ATOM     25  C   UNL d   1      -1.399  -2.550   2.198  0.00  0.00     0.211 C 
ENDBRANCH   7  24
TORSDOF 5
