REMARK  4 active torsions:
REMARK  status: ('A' for Active; 'I' for Inactive)
REMARK    1  A    between atoms: N_2  and  C_1 
REMARK    2  A    between atoms: N_3  and  C_1 
REMARK    3  A    between atoms: C_5  and  N_2 
REMARK    4  A    between atoms: C_4  and  N_3 
ROOT
ATOM      1  C   UNL d   1       1.131   0.504  -2.257  0.00  0.00     0.177 C 
ATOM      2  S   UNL d   1       0.916   1.150  -3.791  0.00  0.00    -0.040 SA
ENDROOT
BRANCH   1   3
ATOM      3  N   UNL d   1       2.342  -0.090  -2.038  0.00  0.00    -0.319 N 
ATOM      4  H   UNL d   1       2.902  -0.173  -2.876  0.00  0.00     0.169 HD
BRANCH   3   5
ATOM      5  C   UNL d   1       2.908  -0.564  -0.851  0.00  0.00     0.106 A 
ATOM      6  N   UNL d   1       2.331  -0.286   0.338  0.00  0.00    -0.352 N 
ATOM      7  C   UNL d   1       2.980  -0.708   1.448  0.00  0.00     0.089 A 
ATOM      8  HN  UNL d   1       1.447   0.220   0.397  1.00  0.00     0.166 HD
ATOM      9  C   UNL d   1       4.172  -1.416   1.429  0.00  0.00     0.017 A 
ATOM     10  C   UNL d   1       4.736  -1.712   0.195  0.00  0.00     0.005 A 
ATOM     11  C   UNL d   1       4.101  -1.273  -0.962  0.00  0.00     0.048 A 
ENDBRANCH   3   5
ENDBRANCH   1   3
BRANCH   1  12
ATOM     12  N   UNL d   1       0.240   0.503  -1.214  0.00  0.00    -0.333 N 
ATOM     13  H   UNL d   1       0.686   0.435  -0.300  0.00  0.00     0.168 HD
BRANCH  12  14
ATOM     14  C   UNL d   1      -1.175   0.584  -1.238  0.00  0.00     0.040 A 
ATOM     15  C   UNL d   1      -1.886   1.043  -0.113  0.00  0.00    -0.035 A 
ATOM     16  C   UNL d   1      -3.300   1.026  -0.138  0.00  0.00     0.015 A 
ATOM     17  C   UNL d   1      -1.236   1.576   1.135  0.00  0.00     0.050 C 
ATOM     18  C   UNL d   1      -4.010   0.570  -1.258  0.00  0.00    -0.061 A 
ATOM     19  C   UNL d   1      -3.293   0.115  -2.359  0.00  0.00     0.009 A 
ATOM     20  C   UNL d   1      -5.507   0.563  -1.258  0.00  0.00     0.048 C 
ATOM     21  C   UNL d   1      -1.898   0.114  -2.342  0.00  0.00     0.030 A 
ENDBRANCH  12  14
ENDBRANCH   1  12
TORSDOF 4
