REMARK  4 active torsions:
REMARK  status: ('A' for Active; 'I' for Inactive)
REMARK    1  A    between atoms: C_7  and  N_1 
REMARK    2  A    between atoms: C_10  and  C_6 
REMARK    3  A    between atoms: N_14  and  C_7 
REMARK    4  A    between atoms: O_21  and  C_17 
ROOT
ATOM      1  N   UNL d   1      -3.088   1.091  -0.109  0.00  0.00    -0.257 N 
ATOM      2  N   UNL d   1      -1.773   1.517  -0.320  0.00  0.00    -0.298 N 
ATOM      3  HN  UNL d   1      -1.465   2.420  -0.680  1.00  0.00     0.187 HD
ATOM      4  C   UNL d   1      -1.027   0.517   0.039  0.00  0.00     0.043 C 
ATOM      5  C   UNL d   1      -1.744  -0.656   0.663  0.00  0.00     0.068 C 
ATOM      6  C   UNL d   1      -3.159  -0.365   0.159  0.00  0.00     0.153 C 
ATOM      7  C   UNL d   1       0.434   0.458  -0.043  0.00  0.00    -0.005 A 
ATOM      8  C   UNL d   1      -1.087  -2.017   0.434  0.00  0.00     0.018 C 
ATOM      9  C   UNL d   1       1.010  -0.804  -0.236  0.00  0.00    -0.046 A 
ATOM     10  C   UNL d   1       0.119  -1.990  -0.507  0.00  0.00     0.040 C 
ATOM     11  C   UNL d   1       1.218   1.600   0.118  0.00  0.00     0.014 A 
ATOM     12  C   UNL d   1       2.405  -0.916  -0.254  0.00  0.00     0.008 A 
ATOM     13  C   UNL d   1       2.607   1.472   0.116  0.00  0.00     0.001 A 
ATOM     14  C   UNL d   1       3.198   0.219  -0.063  0.00  0.00     0.001 A 
ENDROOT
BRANCH   6  15
ATOM     15  C   UNL d   1      -3.567  -1.152  -1.082  0.00  0.00    -0.033 A 
ATOM     16  C   UNL d   1      -4.307  -2.333  -0.940  0.00  0.00     0.012 A 
ATOM     17  C   UNL d   1      -4.640  -3.100  -2.061  0.00  0.00     0.037 A 
ATOM     18  C   UNL d   1      -4.257  -2.696  -3.340  0.00  0.00     0.068 A 
ATOM     19  C   UNL d   1      -3.560  -1.501  -3.496  0.00  0.00     0.037 A 
ATOM     20  C   UNL d   1      -3.211  -0.742  -2.376  0.00  0.00     0.012 A 
BRANCH  18  21
ATOM     21  O   UNL d   1      -4.614  -3.551  -4.346  0.00  0.00    -0.356 OA
ATOM     22  C   UNL d   1      -4.136  -3.233  -5.649  0.00  0.00     0.210 C 
ENDBRANCH  18  21
ENDBRANCH   6  15
BRANCH   1  23
ATOM     23  C   UNL d   1      -4.167   1.953  -0.315  0.00  0.00     0.189 C 
ATOM     24  S   UNL d   1      -5.744   1.604   0.136  0.00  0.00    -0.039 SA
BRANCH  23  25
ATOM     25  N   UNL d   1      -3.773   3.121  -0.936  0.00  0.00    -0.370 N 
ATOM     26  C   UNL d   1      -4.609   4.148  -1.518  0.00  0.00     0.148 C 
ATOM     27  H   UNL d   1      -2.787   3.094  -1.185  0.00  0.00     0.161 HD
ENDBRANCH  23  25
ENDBRANCH   1  23
TORSDOF 4
