REMARK  2 active torsions:
REMARK  status: ('A' for Active; 'I' for Inactive)
REMARK    1  A    between atoms: C_2  and  C_1 
REMARK       I    between atoms: N_3  and  C_1 
REMARK       I    between atoms: C_6  and  N_3 
REMARK    2  A    between atoms: C_4  and  C_5 
REMARK       I    between atoms: N_14  and  C_6 
ROOT
ATOM      1  C   UNL d   1       0.370  -0.819   0.985  0.00  0.00     0.062 A 
ATOM      2  C   UNL d   1       0.811  -0.844   2.316  0.00  0.00     0.066 A 
ATOM      3  N   UNL d   1      -1.447  -2.345   1.551  0.00  0.00    -0.374 N 
ATOM      4  HN  UNL d   1      -2.257  -2.893   1.263  1.00  0.00     0.164 HD
ATOM      5  C   UNL d   1      -0.739  -1.605   0.662  0.00  0.00     0.105 A 
ATOM      6  C   UNL d   1       0.069  -1.600   3.249  0.00  0.00     0.034 A 
ATOM      7  C   UNL d   1      -1.033  -2.321   2.829  0.00  0.00     0.088 A 
ENDROOT
BRANCH   1   8
ATOM      8  C   UNL d   1       0.946  -0.059  -0.158  0.00  0.00     0.261 C 
ATOM      9  N   UNL d   1       1.355   1.241   0.084  0.00  0.00    -0.275 N 
ATOM     10  C   UNL d   1       1.931   2.130  -0.790  0.00  0.00     0.322 C 
ATOM     11  H   UNL d   1       1.400   1.600   1.025  0.00  0.00     0.173 HD
ATOM     12  O   UNL d   1       2.422   3.169  -0.358  0.00  0.00    -0.247 OA
ATOM     13  N   UNL d   1       1.881   1.796  -2.107  0.00  0.00    -0.347 N 
ATOM     14  C   UNL d   1       2.425   2.630  -3.146  0.00  0.00     0.151 C 
ATOM     15  H   UNL d   1       1.621   0.836  -2.328  0.00  0.00     0.163 HD
ATOM     16  O   UNL d   1       0.954  -0.580  -1.267  0.00  0.00    -0.267 OA
ENDBRANCH   1   8
BRANCH   2  17
ATOM     17  C   UNL d   1       2.036  -0.154   2.844  0.00  0.00     0.418 C 
ATOM     18  F   UNL d   1       2.840   0.389   1.898  0.00  0.00    -0.166 F 
ATOM     19  F   UNL d   1       1.706   0.870   3.678  0.00  0.00    -0.166 F 
ATOM     20  F   UNL d   1       2.830  -0.987   3.567  0.00  0.00    -0.166 F 
ENDBRANCH   2  17
TORSDOF 2
