REMARK  2 active torsions:
REMARK  status: ('A' for Active; 'I' for Inactive)
REMARK    1  A    between atoms: C_20  and  C_1 
REMARK    2  A    between atoms: O_23  and  C_20 
ROOT
ATOM      1  C   UNL d   1      -0.366  15.604  -3.633  0.00  0.00    -0.007 C 
ATOM      2  C   UNL d   1      -4.068  17.496  -5.021  0.00  0.00     0.021 C 
ATOM      3  C   UNL d   1       0.271  14.503  -4.575  0.00  0.00    -0.028 C 
ATOM      4  C   UNL d   1      -1.951  15.618  -3.800  0.00  0.00     0.001 C 
ATOM      5  C   UNL d   1      -3.209  16.596  -5.943  0.00  0.00     0.006 C 
ATOM      6  C   UNL d   1      -2.533  15.381  -5.240  0.00  0.00    -0.004 C 
ATOM      7  C   UNL d   1      -5.456  17.417  -5.636  0.00  0.00     0.135 C 
ATOM      8  C   UNL d   1      -4.082  17.022  -3.567  0.00  0.00     0.018 C 
ATOM      9  C   UNL d   1      -2.663  16.779  -3.066  0.00  0.00     0.007 C 
ATOM     10  C   UNL d   1       0.015  15.210  -2.170  0.00  0.00     0.020 C 
ATOM     11  C   UNL d   1      -1.629  14.624  -6.237  0.00  0.00     0.006 C 
ATOM     12  C   UNL d   1      -4.170  16.092  -7.059  0.00  0.00     0.013 C 
ATOM     13  C   UNL d   1       1.812  14.497  -4.459  0.00  0.00     0.088 C 
ATOM     14  C   UNL d   1      -0.136  14.812  -6.026  0.00  0.00     0.011 C 
ATOM     15  C   UNL d   1       2.264  14.356  -3.018  0.00  0.00     0.127 C 
ATOM     16  C   UNL d   1      -5.404  16.971  -7.063  0.00  0.00     0.079 C 
ATOM     17  O   UNL d   1      -6.482  17.782  -5.080  0.00  0.00    -0.297 OA
ATOM     18  O   UNL d   1       3.293  13.731  -2.747  0.00  0.00    -0.298 OA
ATOM     19  C   UNL d   1       1.526  15.129  -1.945  0.00  0.00     0.079 C 
ATOM     20  C   UNL d   1      -3.624  18.965  -5.156  0.00  0.00     0.024 C 
ATOM     21  C   UNL d   1      -0.185  13.048  -4.234  0.00  0.00     0.016 C 
ENDROOT
BRANCH   1  22
ATOM     22  C   UNL d   1       0.216  17.033  -3.939  0.00  0.00     0.174 C 
BRANCH  22  23
ATOM     23  O   UNL d   1       0.141  17.885  -2.799  0.00  0.00    -0.400 OA
ATOM     24  H   UNL d   1       0.651  18.691  -2.992  0.00  0.00     0.209 HD
ENDBRANCH  22  23
ENDBRANCH   1  22
TORSDOF 2
