REMARK  4 active torsions:
REMARK  status: ('A' for Active; 'I' for Inactive)
REMARK    1  A    between atoms: C_9  and  C_1 
REMARK    2  A    between atoms: N_4  and  C_2 
REMARK       I    between atoms: C_3  and  N_4 
REMARK    3  A    between atoms: C_5  and  C_3 
REMARK    4  A    between atoms: O_13  and  C_9 
ROOT
ATOM      1  C   UNL d   1      -2.018  -3.490  -0.053  0.00  0.00     0.257 C 
ATOM      2  N   UNL d   1      -2.121  -2.144  -0.339  0.00  0.00    -0.321 N 
ATOM      3  O   UNL d   1      -0.987  -4.083   0.247  0.00  0.00    -0.267 OA
ATOM      4  H   UNL d   1      -3.058  -1.759  -0.357  0.00  0.00     0.169 HD
ENDROOT
BRANCH   2   5
ATOM      5  C   UNL d   1      -1.100  -1.195  -0.265  0.00  0.00     0.059 C 
ATOM      6  C   UNL d   1       0.340  -1.318  -0.389  0.00  0.00     0.079 C 
ATOM      7  C   UNL d   1       0.968  -0.111  -0.074  0.00  0.00    -0.003 C 
ATOM      8  S   UNL d   1      -0.145   1.155   0.206  0.00  0.00    -0.103 SA
ATOM      9  C   UNL d   1       2.432   0.202   0.002  0.00  0.00     0.057 C 
ATOM     10  C   UNL d   1      -1.467   0.118  -0.036  0.00  0.00     0.080 C 
BRANCH   6  11
ATOM     11  C   UNL d   1       1.119  -2.482  -0.823  0.00  0.00     0.296 C 
ATOM     12  O   UNL d   1       2.240  -2.736  -0.399  0.00  0.00    -0.259 OA
BRANCH  11  13
ATOM     13  O   UNL d   1       0.511  -3.156  -1.846  0.00  0.00    -0.322 OA
ATOM     14  C   UNL d   1       1.189  -4.323  -2.313  0.00  0.00     0.213 C 
ENDBRANCH  11  13
ENDBRANCH   6  11
ENDBRANCH   2   5
BRANCH   1  15
ATOM     15  C   UNL d   1      -3.297  -4.274  -0.089  0.00  0.00     0.054 A 
ATOM     16  C   UNL d   1      -4.564  -3.779   0.264  0.00  0.00     0.049 A 
ATOM     17 CL   UNL d   1      -4.851  -2.155   0.790  0.00  0.00    -0.083 Cl
ATOM     18  C   UNL d   1      -5.685  -4.621   0.234  0.00  0.00     0.025 A 
ATOM     19  C   UNL d   1      -5.559  -5.958  -0.140  0.00  0.00     0.002 A 
ATOM     20  C   UNL d   1      -4.310  -6.460  -0.493  0.00  0.00     0.001 A 
ATOM     21  C   UNL d   1      -3.188  -5.626  -0.465  0.00  0.00     0.019 A 
ENDBRANCH   1  15
TORSDOF 4
