REMARK  4 active torsions:
REMARK  status: ('A' for Active; 'I' for Inactive)
REMARK    1  A    between atoms: C_10  and  C_7 
REMARK       I    between atoms: N_13  and  C_10 
REMARK    2  A    between atoms: C_11  and  C_14 
REMARK    3  A    between atoms: C_21  and  N_13 
REMARK    4  A    between atoms: C_23  and  C_21 
ROOT
ATOM      1  C   UNL d   1       3.994   0.845  -0.797  0.00  0.00     0.258 C 
ATOM      2  N   UNL d   1       4.072   1.879   0.112  0.00  0.00    -0.352 N 
ATOM      3  O   UNL d   1       3.258   0.896  -1.783  0.00  0.00    -0.267 OA
ATOM      4  H   UNL d   1       4.729   1.786   0.875  0.00  0.00     0.163 HD
ENDROOT
BRANCH   2   5
ATOM      5  C   UNL d   1       3.334   3.112   0.003  0.00  0.00     0.161 C 
BRANCH   5   6
ATOM      6  C   UNL d   1       4.272   4.290  -0.091  0.00  0.00    -0.040 A 
ATOM      7  C   UNL d   1       5.110   4.429  -1.204  0.00  0.00     0.010 A 
ATOM      8  C   UNL d   1       5.956   5.535  -1.327  0.00  0.00     0.013 A 
ATOM      9  C   UNL d   1       5.992   6.534  -0.344  0.00  0.00    -0.019 A 
ATOM     10  C   UNL d   1       5.162   6.381   0.778  0.00  0.00     0.013 A 
ATOM     11  C   UNL d   1       4.313   5.272   0.905  0.00  0.00     0.010 A 
BRANCH   9  12
ATOM     12  C   UNL d   1       6.830   7.738  -0.495  0.00  0.00     0.015 A 
ATOM     13  S   UNL d   1       8.375   7.650  -1.250  0.00  0.00    -0.101 SA
ATOM     14  C   UNL d   1       8.632   9.331  -1.103  0.00  0.00     0.050 A 
ATOM     15  C   UNL d   1       7.592   9.956  -0.456  0.00  0.00     0.008 A 
ATOM     16  C   UNL d   1       6.562   9.038  -0.097  0.00  0.00     0.020 A 
ENDBRANCH   9  12
ENDBRANCH   5   6
ENDBRANCH   2   5
BRANCH   1  17
ATOM     17  C   UNL d   1       4.845  -0.303  -0.498  0.00  0.00     0.075 A 
ATOM     18  S   UNL d   1       5.876  -0.302   0.918  0.00  0.00    -0.065 SA
ATOM     19  C   UNL d   1       6.405  -1.824   0.543  0.00  0.00     0.104 A 
ATOM     20  C   UNL d   1       5.871  -2.329  -0.572  0.00  0.00     0.024 A 
ATOM     21  N   UNL d   1       7.240  -2.765   1.030  0.00  0.00    -0.289 N 
ATOM     22  C   UNL d   1       4.964  -1.496  -1.223  0.00  0.00     0.041 A 
ATOM     23  C   UNL d   1       6.400  -3.603  -0.760  0.00  0.00     0.035 A 
ATOM     24  C   UNL d   1       6.160  -4.606  -1.821  0.00  0.00     0.070 C 
ATOM     25  N   UNL d   1       7.263  -3.881   0.247  0.00  0.00    -0.302 N 
ATOM     26  HN  UNL d   1       7.806  -4.733   0.387  1.00  0.00     0.187 HD
ATOM     27  C   UNL d   1       8.041  -2.708   2.226  0.00  0.00     0.178 C 
ENDBRANCH   1  17
TORSDOF 4
