REMARK  5 active torsions:
REMARK  status: ('A' for Active; 'I' for Inactive)
REMARK    1  A    between atoms: C_10  and  N_1 
REMARK    2  A    between atoms: C_9  and  C_2 
REMARK    3  A    between atoms: N_12  and  C_11 
REMARK    4  A    between atoms: C_19  and  N_12 
REMARK    5  A    between atoms: C_20  and  N_12 
ROOT
ATOM      1  N   UNL d   1       0.294  -0.346  -0.925  0.00  0.00    -0.223 N 
ATOM      2  C   UNL d   1       0.930  -0.769   0.247  0.00  0.00     0.145 C 
ATOM      3  N   UNL d   1      -1.104  -0.220   0.708  0.00  0.00    -0.226 N 
ATOM      4  HN  UNL d   1      -1.953  -0.043   1.244  1.00  0.00     0.210 HD
ATOM      5  N   UNL d   1      -1.008  -0.102  -0.604  0.00  0.00    -0.219 N 
ATOM      6  HN  UNL d   1      -1.762   0.126  -1.251  1.00  0.00     0.210 HD
ATOM      7  N   UNL d   1       0.083  -0.609   1.248  0.00  0.00    -0.268 N 
ATOM      8  HN  UNL d   1       0.281  -0.749   2.239  1.00  0.00     0.190 HD
ENDROOT
BRANCH   1   9
ATOM      9  C   UNL d   1       0.737  -0.089  -2.258  0.00  0.00     0.060 A 
ATOM     10  C   UNL d   1      -0.229   0.147  -3.257  0.00  0.00     0.033 A 
ATOM     11  C   UNL d   1       0.147   0.429  -4.573  0.00  0.00     0.026 A 
ATOM     12  C   UNL d   1       1.494   0.483  -4.901  0.00  0.00     0.034 A 
ATOM     13  C   UNL d   1       2.465   0.269  -3.927  0.00  0.00     0.026 A 
ATOM     14 CL   UNL d   1       1.970   0.838  -6.520  0.00  0.00    -0.084 Cl
ATOM     15  C   UNL d   1       2.090  -0.009  -2.604  0.00  0.00     0.033 A 
ENDBRANCH   1   9
BRANCH   2  16
ATOM     16  C   UNL d   1       2.238  -1.295   0.345  0.00  0.00     0.068 C 
ATOM     17  C   UNL d   1       2.649  -2.358  -0.358  0.00  0.00     0.089 C 
BRANCH  17  18
ATOM     18  N   UNL d   1       3.869  -3.018  -0.268  0.00  0.00    -0.391 N 
BRANCH  18  19
ATOM     19  C   UNL d   1       4.547  -3.249   1.022  0.00  0.00     0.117 C 
ATOM     20  C   UNL d   1       5.607  -2.196   1.292  0.00  0.00     0.026 C 
ENDBRANCH  18  19
BRANCH  18  21
ATOM     21  C   UNL d   1       4.408  -3.771  -1.413  0.00  0.00     0.117 C 
ATOM     22  C   UNL d   1       3.885  -5.198  -1.454  0.00  0.00     0.026 C 
ENDBRANCH  18  21
ENDBRANCH  17  18
ENDBRANCH   2  16
TORSDOF 5
