REMARK  7 active torsions:
REMARK  status: ('A' for Active; 'I' for Inactive)
REMARK    1  A    between atoms: O_5  and  C_1 
REMARK       I    between atoms: C_3  and  N_16 
REMARK       I    between atoms: N_15  and  C_3 
REMARK    2  A    between atoms: C_10  and  O_5 
REMARK    3  A    between atoms: C_21  and  N_15 
REMARK    4  A    between atoms: N_16  and  C_20 
REMARK    5  A    between atoms: O_22  and  C_25 
REMARK    6  A    between atoms: C_27  and  O_22 
REMARK    7  A    between atoms: C_34  and  C_27 
ROOT
ATOM      1  N   UNL d   1       5.541   6.891   3.252  0.00  0.00    -0.344 N 
ATOM      2  HN  UNL d   1       4.738   7.026   3.866  1.00  0.00     0.167 HD
ATOM      3  C   UNL d   1       6.729   7.487   3.492  0.00  0.00     0.149 A 
ATOM      4  C   UNL d   1       6.509   5.941   1.225  0.00  0.00     0.051 A 
ATOM      5  C   UNL d   1       5.476   6.105   2.150  0.00  0.00     0.119 A 
ATOM      6  C   UNL d   1       7.830   7.356   2.657  0.00  0.00     0.059 A 
ATOM      7  C   UNL d   1       7.713   6.576   1.507  0.00  0.00     0.035 A 
ENDROOT
BRANCH   4   8
ATOM      8  N   UNL d   1       6.263   5.181   0.063  0.00  0.00    -0.307 N 
ATOM      9  C   UNL d   1       7.018   5.137  -1.075  0.00  0.00     0.325 C 
ATOM     10  N   UNL d   1       6.547   4.389  -2.120  0.00  0.00    -0.309 N 
ATOM     11  O   UNL d   1       8.115   5.673  -1.223  0.00  0.00    -0.247 OA
ATOM     12  H   UNL d   1       7.288   4.241  -2.796  0.00  0.00     0.170 HD
ATOM     13  H   UNL d   1       5.436   4.610   0.078  0.00  0.00     0.170 HD
BRANCH  10  14
ATOM     14  C   UNL d   1       5.351   3.686  -2.333  0.00  0.00     0.036 C 
ATOM     15  C   UNL d   1       4.122   4.017  -1.760  0.00  0.00     0.032 C 
ATOM     16  C   UNL d   1       3.033   3.149  -1.886  0.00  0.00     0.039 C 
ATOM     17  C   UNL d   1       3.160   1.963  -2.605  0.00  0.00     0.069 C 
ATOM     18  C   UNL d   1       4.335   1.712  -3.311  0.00  0.00     0.039 C 
ATOM     19  C   UNL d   1       5.423   2.577  -3.182  0.00  0.00     0.032 C 
BRANCH  17  20
ATOM     20  O   UNL d   1       2.081   1.123  -2.596  0.00  0.00    -0.347 OA
BRANCH  20  21
ATOM     21  C   UNL d   1       2.436  -0.264  -2.507  0.00  0.00     0.214 C 
BRANCH  21  22
ATOM     22  C   UNL d   1       1.205  -1.081  -2.201  0.00  0.00    -0.034 A 
ATOM     23  C   UNL d   1       0.088  -1.013  -3.047  0.00  0.00     0.009 A 
ATOM     24  C   UNL d   1      -1.040  -1.794  -2.796  0.00  0.00     0.001 A 
ATOM     25  C   UNL d   1      -1.064  -2.652  -1.698  0.00  0.00     0.000 A 
ATOM     26  C   UNL d   1       0.041  -2.731  -0.851  0.00  0.00     0.001 A 
ATOM     27  C   UNL d   1       1.171  -1.950  -1.101  0.00  0.00     0.009 A 
ENDBRANCH  21  22
ENDBRANCH  20  21
ENDBRANCH  17  20
ENDBRANCH  10  14
ENDBRANCH   4   8
BRANCH   3  28
ATOM     28  O   UNL d   1       6.861   8.412   4.515  0.00  0.00    -0.276 OA
BRANCH  28  29
ATOM     29  C   UNL d   1       6.074   8.241   5.645  0.00  0.00     0.163 A 
ATOM     30  C   UNL d   1       5.633   9.400   6.293  0.00  0.00     0.042 A 
ATOM     31  C   UNL d   1       4.971   9.171   7.508  0.00  0.00     0.049 A 
ATOM     32  C   UNL d   1       5.819  10.726   5.829  0.00  0.00     0.020 A 
ATOM     33  C   UNL d   1       4.530  10.264   8.240  0.00  0.00     0.054 A 
ATOM     34  N   UNL d   1       4.761   7.942   7.991  0.00  0.00    -0.351 N 
ATOM     35  C   UNL d   1       4.724  11.569   7.789  0.00  0.00     0.036 A 
ATOM     36  C   UNL d   1       5.364  11.808   6.577  0.00  0.00     0.025 A 
ATOM     37 CL   UNL d   1       4.173  12.893   8.738  0.00  0.00    -0.084 Cl
ATOM     38  C   UNL d   1       5.243   6.913   7.278  0.00  0.00     0.182 A 
ATOM     39  HN  UNL d   1       4.256   7.793   8.864  1.00  0.00     0.166 HD
ATOM     40  N   UNL d   1       5.931   6.996   6.139  0.00  0.00    -0.332 N 
ATOM     41  HN  UNL d   1       6.322   6.176   5.675  1.00  0.00     0.168 HD
ENDBRANCH  28  29
ENDBRANCH   3  28
TORSDOF 7
