REMARK  4 active torsions:
REMARK  status: ('A' for Active; 'I' for Inactive)
REMARK    1  A    between atoms: C_2  and  N_1 
REMARK       I    between atoms: C_3  and  N_1 
REMARK    2  A    between atoms: N_4  and  C_2 
REMARK    3  A    between atoms: C_9  and  C_3 
REMARK    4  A    between atoms: C_5  and  N_4 
ROOT
ATOM      1  C   UNL d   1       0.625   0.776   1.358  0.00  0.00     0.179 C 
ATOM      2  S   UNL d   1      -0.829  -0.002   1.639  0.00  0.00    -0.040 SA
ENDROOT
BRANCH   1   3
ATOM      3  N   UNL d   1       1.272   0.917   0.148  0.00  0.00    -0.299 N 
ATOM      4  C   UNL d   1       0.844   0.364  -1.054  0.00  0.00     0.257 C 
ATOM      5  O   UNL d   1       0.547  -0.814  -1.226  0.00  0.00    -0.267 OA
ATOM      6  H   UNL d   1       1.685   1.835   0.087  0.00  0.00     0.171 HD
BRANCH   4   7
ATOM      7  C   UNL d   1       0.832   1.283  -2.217  0.00  0.00     0.032 A 
ATOM      8  C   UNL d   1       1.882   2.172  -2.462  0.00  0.00     0.017 A 
ATOM      9  C   UNL d   1       1.778   3.094  -3.505  0.00  0.00     0.001 A 
ATOM     10  C   UNL d   1       0.633   3.122  -4.304  0.00  0.00     0.000 A 
ATOM     11  C   UNL d   1      -0.397   2.207  -4.085  0.00  0.00     0.001 A 
ATOM     12  C   UNL d   1      -0.295   1.279  -3.048  0.00  0.00     0.017 A 
ENDBRANCH   4   7
ENDBRANCH   1   3
BRANCH   1  13
ATOM     13  N   UNL d   1       1.178   1.452   2.418  0.00  0.00    -0.332 N 
ATOM     14  H   UNL d   1       0.520   1.537   3.185  0.00  0.00     0.168 HD
BRANCH  13  15
ATOM     15  C   UNL d   1       2.538   1.529   2.838  0.00  0.00     0.045 A 
ATOM     16  C   UNL d   1       2.827   2.168   4.088  0.00  0.00     0.001 A 
ATOM     17  C   UNL d   1       4.123   2.017   4.646  0.00  0.00    -0.024 A 
ATOM     18  C   UNL d   1       1.898   2.945   4.828  0.00  0.00     0.014 A 
ATOM     19  C   UNL d   1       4.423   2.561   5.907  0.00  0.00     0.012 A 
ATOM     20  C   UNL d   1       5.105   1.308   3.945  0.00  0.00     0.012 A 
ATOM     21  C   UNL d   1       3.475   3.290   6.620  0.00  0.00     0.001 A 
ATOM     22  C   UNL d   1       2.217   3.496   6.073  0.00  0.00     0.001 A 
ATOM     23  C   UNL d   1       4.831   0.753   2.698  0.00  0.00     0.003 A 
ATOM     24  C   UNL d   1       3.555   0.856   2.150  0.00  0.00     0.030 A 
ENDBRANCH  13  15
ENDBRANCH   1  13
TORSDOF 4
