REMARK  2 active torsions:
REMARK  status: ('A' for Active; 'I' for Inactive)
REMARK       I    between atoms: C_2  and  N_1 
REMARK    1  A    between atoms: C_9  and  C_2 
REMARK    2  A    between atoms: N_3  and  C_10 
ROOT
ATOM      1  N   UNL d   1      -0.037  -1.250   0.928  0.00  0.00    -0.276 N 
ATOM      2  C   UNL d   1      -0.030  -2.299   1.869  0.00  0.00     0.263 C 
ATOM      3  S   UNL d   1       0.010   1.794   0.421  0.00  0.00    -0.086 SA
ATOM      4  C   UNL d   1       1.192  -0.730   0.389  0.00  0.00     0.060 A 
ATOM      5  C   UNL d   1      -1.233  -0.687   0.359  0.00  0.00     0.060 A 
ATOM      6  C   UNL d   1       1.326   0.640   0.085  0.00  0.00     0.033 A 
ATOM      7  C   UNL d   1      -1.347   0.691   0.107  0.00  0.00     0.033 A 
ATOM      8  O   UNL d   1       0.929  -3.034   2.115  0.00  0.00    -0.267 OA
ATOM      9  C   UNL d   1       2.289  -1.571   0.134  0.00  0.00     0.031 A 
ATOM     10  C   UNL d   1      -2.301  -1.523  -0.010  0.00  0.00     0.031 A 
ATOM     11  C   UNL d   1      -2.539   1.225  -0.398  0.00  0.00     0.021 A 
ATOM     12  C   UNL d   1       2.525   1.137  -0.450  0.00  0.00     0.021 A 
ATOM     13  C   UNL d   1      -3.470  -0.990  -0.564  0.00  0.00     0.002 A 
ATOM     14  C   UNL d   1       3.475  -1.074  -0.409  0.00  0.00     0.002 A 
ATOM     15  C   UNL d   1       3.594   0.282  -0.701  0.00  0.00     0.002 A 
ATOM     16  C   UNL d   1      -3.599   0.386  -0.732  0.00  0.00     0.002 A 
ENDROOT
BRANCH   2  17
ATOM     17  C   UNL d   1      -1.202  -2.497   2.776  0.00  0.00     0.035 A 
ATOM     18  C   UNL d   1      -1.485  -3.801   3.206  0.00  0.00     0.053 A 
ATOM     19  C   UNL d   1      -2.552  -4.027   4.084  0.00  0.00     0.103 A 
ATOM     20  C   UNL d   1      -3.323  -2.957   4.561  0.00  0.00     0.036 A 
ATOM     21  C   UNL d   1      -3.008  -1.655   4.170  0.00  0.00     0.003 A 
ATOM     22  C   UNL d   1      -1.943  -1.424   3.293  0.00  0.00     0.017 A 
BRANCH  19  23
ATOM     23  N   UNL d   1      -2.871  -5.399   4.501  0.00  0.00    -0.116 N 
ATOM     24  O   UNL d   1      -2.174  -6.318   4.047  0.00  0.00    -0.532 OA
ATOM     25  O   UNL d   1      -3.828  -5.556   5.271  0.00  0.00    -0.532 OA
ENDBRANCH  19  23
ENDBRANCH   2  17
TORSDOF 2
