REMARK  6 active torsions:
REMARK  status: ('A' for Active; 'I' for Inactive)
REMARK    1  A    between atoms: C_2  and  C_1 
REMARK    2  A    between atoms: C_4  and  C_13 
REMARK    3  A    between atoms: N_12  and  C_7 
REMARK    4  A    between atoms: N_9  and  C_8 
REMARK    5  A    between atoms: N_15  and  N_12 
REMARK    6  A    between atoms: C_21  and  N_15 
ROOT
ATOM      1  N   UNL d   1       1.651  -0.616   1.572  0.00  0.00    -0.293 N 
ATOM      2  H   UNL d   1       1.609  -0.749   2.577  0.00  0.00     0.183 HD
ENDROOT
BRANCH   1   3
ATOM      3  C   UNL d   1       2.194  -1.623   0.811  0.00  0.00     0.187 C 
ATOM      4  N   UNL d   1       2.097  -2.916   1.222  0.00  0.00    -0.332 N 
ATOM      5  H   UNL d   1       2.738  -3.488   0.674  0.00  0.00     0.168 HD
ATOM      6  S   UNL d   1       3.011  -1.396  -0.647  0.00  0.00    -0.040 SA
BRANCH   4   7
ATOM      7  C   UNL d   1       1.212  -3.637   2.056  0.00  0.00     0.049 A 
ATOM      8  C   UNL d   1       1.432  -5.024   2.241  0.00  0.00     0.074 A 
ATOM      9  C   UNL d   1       0.510  -5.784   2.994  0.00  0.00     0.018 A 
ATOM     10  C   UNL d   1      -0.617  -5.195   3.556  0.00  0.00     0.001 A 
ATOM     11  C   UNL d   1      -0.832  -3.833   3.373  0.00  0.00     0.002 A 
ATOM     12  C   UNL d   1       0.069  -3.062   2.626  0.00  0.00     0.030 A 
BRANCH   8  13
ATOM     13  C   UNL d   1       2.601  -5.783   1.657  0.00  0.00     0.419 C 
ATOM     14  F   UNL d   1       3.469  -5.017   0.935  0.00  0.00    -0.166 F 
ATOM     15  F   UNL d   1       2.204  -6.774   0.810  0.00  0.00    -0.166 F 
ATOM     16  F   UNL d   1       3.357  -6.394   2.612  0.00  0.00    -0.166 F 
ENDBRANCH   8  13
ENDBRANCH   4   7
ENDBRANCH   1   3
BRANCH   1  17
ATOM     17  N   UNL d   1       1.902   0.712   1.133  0.00  0.00    -0.204 NA
ATOM     18  H   UNL d   1       1.571   0.826   0.172  0.00  0.00     0.153 HD
BRANCH  17  19
ATOM     19  C   UNL d   1       1.475   1.757   1.975  0.00  0.00     0.027 A 
ATOM     20  C   UNL d   1       1.880   1.854   3.309  0.00  0.00     0.026 A 
ATOM     21  C   UNL d   1       1.537   2.973   4.087  0.00  0.00     0.015 A 
ATOM     22  C   UNL d   1       0.771   4.016   3.546  0.00  0.00    -0.008 A 
ATOM     23  C   UNL d   1       0.371   3.919   2.208  0.00  0.00     0.015 A 
ATOM     24  C   UNL d   1       0.729   2.811   1.432  0.00  0.00     0.026 A 
BRANCH  22  25
ATOM     25  C   UNL d   1       0.370   5.182   4.326  0.00  0.00     0.063 A 
ATOM     26  N   UNL d   1      -0.758   5.922   3.973  0.00  0.00    -0.292 N 
ATOM     27  N   UNL d   1      -0.970   6.932   4.798  0.00  0.00    -0.061 NA
ATOM     28  HN  UNL d   1      -1.350   5.708   3.171  1.00  0.00     0.183 HD
ATOM     29  S   UNL d   1       0.179   7.035   6.006  0.00  0.00    -0.010 SA
ATOM     30  C   UNL d   1       1.041   5.662   5.437  0.00  0.00     0.096 A 
ENDBRANCH  22  25
ENDBRANCH  17  19
ENDBRANCH   1  17
TORSDOF 6
