REMARK  12 active torsions:
REMARK  status: ('A' for Active; 'I' for Inactive)
REMARK    1  A    between atoms: C_4  and  S_1 
REMARK    2  A    between atoms: N_5  and  S_1 
REMARK    3  A    between atoms: C_2  and  N_9 
REMARK    4  A    between atoms: N_10  and  C_2 
REMARK    5  A    between atoms: C_3  and  C_12 
REMARK       I    between atoms: N_6  and  C_3 
REMARK    6  A    between atoms: C_22  and  N_5 
REMARK    7  A    between atoms: C_23  and  N_5 
REMARK    8  A    between atoms: N_9  and  N_6 
REMARK    9  A    between atoms: C_13  and  N_10 
REMARK   10  A    between atoms: O_21  and  C_20 
REMARK   11  A    between atoms: C_29  and  C_22 
REMARK   12  A    between atoms: C_28  and  C_23 
ROOT
ATOM      1  C   UNL d   1      -0.415  -3.687   4.522  0.00  0.00     0.270 C 
ATOM      2  N   UNL d   1      -0.947  -4.950   4.329  0.00  0.00    -0.264 N 
ATOM      3  O   UNL d   1      -0.276  -3.264   5.666  0.00  0.00    -0.266 OA
ATOM      4  H   UNL d   1      -1.224  -5.435   5.183  0.00  0.00     0.190 HD
ENDROOT
BRANCH   1   5
ATOM      5  C   UNL d   1      -0.029  -2.833   3.368  0.00  0.00     0.033 A 
ATOM      6  C   UNL d   1      -0.019  -1.440   3.573  0.00  0.00     0.018 A 
ATOM      7  C   UNL d   1       0.355  -0.572   2.545  0.00  0.00     0.026 A 
ATOM      8  C   UNL d   1       0.696  -1.087   1.295  0.00  0.00     0.074 A 
ATOM      9  C   UNL d   1       0.723  -2.472   1.091  0.00  0.00     0.026 A 
ATOM     10  C   UNL d   1       0.382  -3.340   2.135  0.00  0.00     0.018 A 
BRANCH   8  11
ATOM     11  S   UNL d   1       1.275   0.007   0.006  0.00  0.00     0.243 S 
ATOM     12  O   UNL d   1       1.760  -0.833  -1.070  0.00  0.00    -0.206 OA
ATOM     13  O   UNL d   1       2.148   0.973   0.640  0.00  0.00    -0.206 OA
BRANCH  11  14
ATOM     14  N   UNL d   1      -0.182   0.819  -0.503  0.00  0.00    -0.206 NA
BRANCH  14  15
ATOM     15  C   UNL d   1      -0.339   2.153   0.179  0.00  0.00     0.107 C 
BRANCH  15  16
ATOM     16  C   UNL d   1      -1.615   2.919  -0.169  0.00  0.00     0.011 C 
ATOM     17  C   UNL d   1      -1.741   4.186   0.669  0.00  0.00     0.006 C 
ENDBRANCH  15  16
ENDBRANCH  14  15
BRANCH  14  18
ATOM     18  C   UNL d   1      -0.383   0.852  -1.986  0.00  0.00     0.107 C 
BRANCH  18  19
ATOM     19  C   UNL d   1      -0.823  -0.489  -2.582  0.00  0.00     0.011 C 
ATOM     20  C   UNL d   1      -2.058  -1.081  -1.921  0.00  0.00     0.006 C 
ENDBRANCH  18  19
ENDBRANCH  14  18
ENDBRANCH  11  14
ENDBRANCH   8  11
ENDBRANCH   1   5
BRANCH   2  21
ATOM     21  N   UNL d   1      -1.529  -5.413   3.149  0.00  0.00    -0.273 N 
ATOM     22  H   UNL d   1      -1.867  -4.737   2.471  0.00  0.00     0.189 HD
BRANCH  21  23
ATOM     23  C   UNL d   1      -1.636  -6.755   2.894  0.00  0.00     0.191 C 
ATOM     24  S   UNL d   1      -0.744  -7.947   3.662  0.00  0.00    -0.039 SA
BRANCH  23  25
ATOM     25  N   UNL d   1      -2.527  -7.147   1.932  0.00  0.00    -0.332 N 
ATOM     26  H   UNL d   1      -2.384  -8.111   1.642  0.00  0.00     0.168 HD
BRANCH  25  27
ATOM     27  C   UNL d   1      -3.809  -6.628   1.627  0.00  0.00     0.036 A 
ATOM     28  C   UNL d   1      -4.374  -5.515   2.257  0.00  0.00     0.066 A 
ATOM     29  C   UNL d   1      -5.695  -5.135   2.004  0.00  0.00     0.070 A 
ATOM     30  C   UNL d   1      -6.465  -5.886   1.118  0.00  0.00     0.037 A 
ATOM     31  C   UNL d   1      -5.917  -6.996   0.478  0.00  0.00     0.005 A 
ATOM     32  C   UNL d   1      -4.592  -7.361   0.726  0.00  0.00     0.029 A 
BRANCH  29  33
ATOM     33  O   UNL d   1      -6.338  -4.077   2.589  0.00  0.00    -0.356 OA
ATOM     34  C   UNL d   1      -5.582  -3.291   3.506  0.00  0.00     0.210 C 
ENDBRANCH  29  33
ENDBRANCH  25  27
ENDBRANCH  23  25
ENDBRANCH  21  23
ENDBRANCH   2  21
TORSDOF 12
