REMARK  7 active torsions:
REMARK  status: ('A' for Active; 'I' for Inactive)
REMARK    1  A    between atoms: C_12  and  N_1 
REMARK    2  A    between atoms: S_13  and  C_2 
REMARK    3  A    between atoms: O_19  and  C_3 
REMARK    4  A    between atoms: C_4  and  C_14 
REMARK    5  A    between atoms: C_17  and  C_12 
REMARK    6  A    between atoms: C_16  and  S_13 
REMARK    7  A    between atoms: C_14  and  C_16 
ROOT
ATOM      1  N   UNL d   1      -0.292  -1.190  -0.081  0.00  0.00    -0.282 N 
ATOM      2  C   UNL d   1       0.913  -0.547  -0.089  0.00  0.00     0.165 A 
ATOM      3  C   UNL d   1      -1.211  -0.162   0.013  0.00  0.00     0.241 A 
ATOM      4  N   UNL d   1       0.738   0.745   0.080  0.00  0.00    -0.277 N 
ATOM      5  HN  UNL d   1       1.476   1.445   0.139  1.00  0.00     0.189 HD
ATOM      6  N   UNL d   1      -0.602   0.986   0.164  0.00  0.00    -0.263 N 
ATOM      7  HN  UNL d   1      -1.045   1.892   0.317  1.00  0.00     0.190 HD
ENDROOT
BRANCH   2   8
ATOM      8  S   UNL d   1       2.495  -1.243  -0.304  0.00  0.00    -0.085 SA
BRANCH   8   9
ATOM      9  C   UNL d   1       3.457   0.312  -0.285  0.00  0.00     0.166 C 
BRANCH   9  10
ATOM     10  C   UNL d   1       4.944   0.087  -0.486  0.00  0.00     0.170 C 
ATOM     11  O   UNL d   1       5.365  -0.510  -1.478  0.00  0.00    -0.291 OA
BRANCH  10  12
ATOM     12  C   UNL d   1       5.852   0.535   0.584  0.00  0.00     0.029 C 
ATOM     13  C   UNL d   1       5.538   1.492   1.533  0.00  0.00     0.066 C 
ATOM     14  S   UNL d   1       6.550   1.394   2.902  0.00  0.00    -0.100 SA
ATOM     15  C   UNL d   1       7.506   0.162   2.179  0.00  0.00     0.016 C 
ATOM     16  C   UNL d   1       7.166  -0.011   0.835  0.00  0.00    -0.005 C 
ATOM     17  C   UNL d   1       8.513  -0.608   2.785  0.00  0.00     0.019 C 
ATOM     18  C   UNL d   1       8.021  -0.806   0.034  0.00  0.00     0.014 C 
ATOM     19  C   UNL d   1       9.068  -1.522   0.616  0.00  0.00     0.001 C 
ATOM     20  C   UNL d   1       9.263  -1.477   1.989  0.00  0.00     0.001 C 
ENDBRANCH  10  12
ENDBRANCH   9  10
ENDBRANCH   8   9
ENDBRANCH   2   8
BRANCH   1  21
ATOM     21  C   UNL d   1      -0.662  -2.602  -0.009  0.00  0.00     0.124 C 
ATOM     22  C   UNL d   1       0.205  -3.502   0.875  0.00  0.00     0.038 C 
BRANCH  21  23
ATOM     23  C   UNL d   1      -0.923  -3.207  -1.381  0.00  0.00    -0.035 A 
ATOM     24  C   UNL d   1       0.099  -3.376  -2.326  0.00  0.00     0.009 A 
ATOM     25  C   UNL d   1      -0.156  -3.982  -3.558  0.00  0.00     0.001 A 
ATOM     26  C   UNL d   1      -1.438  -4.435  -3.864  0.00  0.00     0.000 A 
ATOM     27  C   UNL d   1      -2.465  -4.278  -2.939  0.00  0.00     0.001 A 
ATOM     28  C   UNL d   1      -2.212  -3.670  -1.707  0.00  0.00     0.009 A 
ENDBRANCH  21  23
ENDBRANCH   1  21
BRANCH   3  29
ATOM     29  O   UNL d   1      -2.525  -0.280  -0.018  0.00  0.00    -0.331 OA
ATOM     30  H   UNL d   1      -2.738  -0.899  -0.742  0.00  0.00     0.221 HD
ENDBRANCH   3  29
TORSDOF 7
