REMARK  4 active torsions:
REMARK  status: ('A' for Active; 'I' for Inactive)
REMARK    1  A    between atoms: C_5  and  C_1 
REMARK    2  A    between atoms: N_13  and  C_2 
REMARK       I    between atoms: C_9  and  N_13 
REMARK       I    between atoms: N_16  and  C_9 
REMARK    3  A    between atoms: C_10  and  C_17 
REMARK    4  A    between atoms: C_23  and  N_16 
ROOT
ATOM      1  C   UNL d   1       1.400  -2.459   0.047  0.00  0.00     0.303 C 
ATOM      2  N   UNL d   1       0.025  -2.514  -0.008  0.00  0.00    -0.206 NA
ATOM      3  N   UNL d   1       2.009  -3.570   0.571  0.00  0.00    -0.313 N 
ATOM      4  O   UNL d   1       2.075  -1.466  -0.211  0.00  0.00    -0.253 OA
ATOM      5  H   UNL d   1      -0.297  -3.004   0.819  0.00  0.00     0.138 HD
ATOM      6  H   UNL d   1       2.948  -3.369   0.897  0.00  0.00     0.170 HD
ENDROOT
BRANCH   2   7
ATOM      7  C   UNL d   1      -0.662  -1.323  -0.239  0.00  0.00     0.078 A 
ATOM      8  C   UNL d   1      -1.231  -0.415   0.705  0.00  0.00     0.092 A 
ATOM      9  N   UNL d   1      -1.876   0.575   0.067  0.00  0.00    -0.258 N 
ATOM     10  O   UNL d   1      -1.708   0.340  -1.282  0.00  0.00    -0.240 OA
ATOM     11  HN  UNL d   1      -2.388   1.346   0.495  1.00  0.00     0.195 HD
ATOM     12  C   UNL d   1      -0.989  -0.800  -1.465  0.00  0.00     0.096 A 
ATOM     13  C   UNL d   1      -0.800  -1.215  -2.865  0.00  0.00     0.081 C 
BRANCH   8  14
ATOM     14  C   UNL d   1      -1.173  -0.447   2.165  0.00  0.00     0.038 A 
ATOM     15  C   UNL d   1      -0.573   0.603   2.890  0.00  0.00     0.048 A 
ATOM     16 CL   UNL d   1       0.227   1.937   2.128  0.00  0.00    -0.083 Cl
ATOM     17  C   UNL d   1      -0.566   0.593   4.292  0.00  0.00     0.025 A 
ATOM     18  C   UNL d   1      -1.140  -0.462   4.993  0.00  0.00     0.003 A 
ATOM     19  C   UNL d   1      -1.716  -1.518   4.292  0.00  0.00     0.025 A 
ATOM     20  C   UNL d   1      -1.737  -1.514   2.891  0.00  0.00     0.048 A 
ATOM     21 CL   UNL d   1      -2.492  -2.873   2.129  0.00  0.00    -0.083 Cl
ENDBRANCH   8  14
ENDBRANCH   2   7
BRANCH   3  22
ATOM     22  C   UNL d   1       1.628  -4.923   0.557  0.00  0.00     0.035 A 
ATOM     23  C   UNL d   1       0.674  -5.448  -0.316  0.00  0.00     0.030 A 
ATOM     24  C   UNL d   1       0.443  -6.833  -0.368  0.00  0.00     0.016 A 
ATOM     25  C   UNL d   1       1.150  -7.716   0.460  0.00  0.00    -0.008 A 
ATOM     26  C   UNL d   1       2.078  -7.172   1.359  0.00  0.00     0.016 A 
ATOM     27  C   UNL d   1       2.326  -5.795   1.395  0.00  0.00     0.030 A 
BRANCH  25  28
ATOM     28  C   UNL d   1       0.986  -9.170   0.392  0.00  0.00     0.063 A 
ATOM     29  N   UNL d   1       1.682 -10.008   1.265  0.00  0.00    -0.292 N 
ATOM     30  N   UNL d   1       1.438 -11.286   1.037  0.00  0.00    -0.061 NA
ATOM     31  HN  UNL d   1       2.309  -9.671   1.996  1.00  0.00     0.183 HD
ATOM     32  S   UNL d   1       0.371 -11.527  -0.224  0.00  0.00    -0.010 SA
ATOM     33  C   UNL d   1       0.190  -9.844  -0.519  0.00  0.00     0.096 A 
ENDBRANCH  25  28
ENDBRANCH   3  22
TORSDOF 4
