REMARK  6 active torsions:
REMARK  status: ('A' for Active; 'I' for Inactive)
REMARK    1  A    between atoms: N_2  and  C_1 
REMARK    2  A    between atoms: N_3  and  C_1 
REMARK    3  A    between atoms: C_5  and  N_2 
REMARK    4  A    between atoms: C_6  and  N_3 
REMARK    5  A    between atoms: S_11  and  C_9 
REMARK    6  A    between atoms: S_12  and  C_10 
ROOT
ATOM      1  C   UNL d   1       1.109   0.015   0.082  0.00  0.00     0.176 C 
ATOM      2  S   UNL d   1       2.744   0.029   0.451  0.00  0.00    -0.041 SA
ENDROOT
BRANCH   1   3
ATOM      3  N   UNL d   1       0.570  -0.175  -1.164  0.00  0.00    -0.333 N 
ATOM      4  H   UNL d   1      -0.152   0.492  -1.406  0.00  0.00     0.168 HD
BRANCH   3   5
ATOM      5  C   UNL d   1       1.016  -1.032  -2.191  0.00  0.00     0.035 A 
ATOM      6  C   UNL d   1       1.716  -2.213  -1.919  0.00  0.00     0.048 A 
ATOM      7  C   UNL d   1       2.094  -3.080  -2.950  0.00  0.00     0.002 A 
ATOM      8  C   UNL d   1       1.744  -2.754  -4.265  0.00  0.00     0.018 A 
ATOM      9  C   UNL d   1       1.021  -1.592  -4.542  0.00  0.00     0.004 A 
ATOM     10  C   UNL d   1       0.643  -0.741  -3.503  0.00  0.00     0.029 A 
BRANCH   7  11
ATOM     11  S   UNL d   1       2.936  -4.634  -2.674  0.00  0.00    -0.134 SA
ATOM     12  C   UNL d   1       3.888  -4.296  -1.167  0.00  0.00     0.095 C 
ENDBRANCH   7  11
ENDBRANCH   3   5
ENDBRANCH   1   3
BRANCH   1  13
ATOM     13  N   UNL d   1       0.239   0.344   1.087  0.00  0.00    -0.333 N 
ATOM     14  H   UNL d   1       0.710   0.716   1.905  0.00  0.00     0.168 HD
BRANCH  13  15
ATOM     15  C   UNL d   1      -1.131   0.043   1.257  0.00  0.00     0.035 A 
ATOM     16  C   UNL d   1      -1.860  -0.800   0.410  0.00  0.00     0.048 A 
ATOM     17  C   UNL d   1      -3.203  -1.103   0.666  0.00  0.00     0.002 A 
ATOM     18  C   UNL d   1      -3.818  -0.547   1.793  0.00  0.00     0.018 A 
ATOM     19  C   UNL d   1      -3.097   0.278   2.657  0.00  0.00     0.004 A 
ATOM     20  C   UNL d   1      -1.759   0.568   2.390  0.00  0.00     0.029 A 
BRANCH  17  21
ATOM     21  S   UNL d   1      -4.200  -2.137  -0.401  0.00  0.00    -0.134 SA
ATOM     22  C   UNL d   1      -2.976  -3.286  -1.094  0.00  0.00     0.095 C 
ENDBRANCH  17  21
ENDBRANCH  13  15
ENDBRANCH   1  13
TORSDOF 6
