REMARK  4 active torsions:
REMARK  status: ('A' for Active; 'I' for Inactive)
REMARK    1  A    between atoms: N_3  and  S_1 
REMARK    2  A    between atoms: C_11  and  S_1 
REMARK    3  A    between atoms: C_2  and  N_3 
REMARK    4  A    between atoms: C_12  and  C_8 
ROOT
ATOM      1  C   UNL d   1       0.855  -0.273  -2.833  0.00  0.00     0.133 A 
ATOM      2  C   UNL d   1      -0.063  -0.108  -3.841  0.00  0.00     0.082 A 
ATOM      3  N   UNL d   1       1.911   0.772  -4.532  0.00  0.00    -0.296 N 
ATOM      4  HN  UNL d   1       2.641   1.211  -5.093  1.00  0.00     0.187 HD
ATOM      5  N   UNL d   1       2.030   0.253  -3.299  0.00  0.00    -0.280 N 
ATOM      6  C   UNL d   1       0.625   0.587  -4.870  0.00  0.00     0.062 A 
ATOM      7  C   UNL d   1       3.344   0.185  -2.706  0.00  0.00     0.179 C 
ENDROOT
BRANCH   1   8
ATOM      8  N   UNL d   1       0.573  -0.868  -1.621  0.00  0.00    -0.264 N 
ATOM      9  H   UNL d   1       0.061  -1.736  -1.621  0.00  0.00     0.180 HD
BRANCH   8  10
ATOM     10  S   UNL d   1       0.310   0.015  -0.265  0.00  0.00     0.264 S 
ATOM     11  O   UNL d   1       1.362   0.987  -0.061  0.00  0.00    -0.200 OA
ATOM     12  O   UNL d   1      -0.071  -0.890   0.802  0.00  0.00    -0.200 OA
BRANCH  10  13
ATOM     13  C   UNL d   1      -1.181   0.913  -0.703  0.00  0.00     0.079 A 
ATOM     14  C   UNL d   1      -2.432   0.305  -0.551  0.00  0.00     0.025 A 
ATOM     15  C   UNL d   1      -3.582   0.983  -0.960  0.00  0.00     0.002 A 
ATOM     16  C   UNL d   1      -3.478   2.268  -1.510  0.00  0.00     0.000 A 
ATOM     17  C   UNL d   1      -2.231   2.878  -1.631  0.00  0.00     0.002 A 
ATOM     18  C   UNL d   1      -1.077   2.212  -1.224  0.00  0.00     0.025 A 
ENDBRANCH  10  13
ENDBRANCH   8  10
ENDBRANCH   1   8
BRANCH   6  19
ATOM     19  C   UNL d   1       0.096   1.089  -6.135  0.00  0.00    -0.008 A 
ATOM     20  C   UNL d   1      -1.230   1.534  -6.238  0.00  0.00     0.014 A 
ATOM     21  C   UNL d   1      -1.702   2.071  -7.439  0.00  0.00     0.001 A 
ATOM     22  C   UNL d   1      -0.859   2.159  -8.546  0.00  0.00     0.000 A 
ATOM     23  C   UNL d   1       0.454   1.703  -8.460  0.00  0.00     0.001 A 
ATOM     24  C   UNL d   1       0.929   1.171  -7.260  0.00  0.00     0.014 A 
ENDBRANCH   6  19
TORSDOF 4
