REMARK  6 active torsions:
REMARK  status: ('A' for Active; 'I' for Inactive)
REMARK    1  A    between atoms: C_27  and  N_1 
REMARK    2  A    between atoms: C_3  and  N_13 
REMARK    3  A    between atoms: C_21  and  N_4 
REMARK    4  A    between atoms: S_18  and  C_7 
REMARK       I    between atoms: N_13  and  C_19 
REMARK    5  A    between atoms: C_26  and  S_18 
REMARK    6  A    between atoms: C_19  and  C_26 
ROOT
ATOM      1  C   UNL d   1      -7.186  -2.699  -0.532  0.00  0.00     0.152 A 
ATOM      2  N   UNL d   1      -7.985  -3.798  -0.201  0.00  0.00    -0.239 N 
ATOM      3  N   UNL d   1      -9.299  -3.559  -0.461  0.00  0.00    -0.302 N 
ATOM      4  HN  UNL d   1     -10.076  -4.217  -0.407  1.00  0.00     0.186 HD
ATOM      5  C   UNL d   1      -8.068  -1.694  -0.890  0.00  0.00     0.107 A 
ATOM      6  C   UNL d   1      -9.343  -2.271  -0.802  0.00  0.00     0.134 A 
ATOM      7  C   UNL d   1      -7.777  -0.396  -1.406  0.00  0.00     0.105 C 
ATOM      8  N   UNL d   1      -7.585   0.639  -1.891  0.00  0.00    -0.191 NA
ENDROOT
BRANCH   1   9
ATOM      9  N   UNL d   1      -5.789  -2.730  -0.542  0.00  0.00    -0.310 N 
ATOM     10  C   UNL d   1      -5.082  -1.710   0.095  0.00  0.00     0.233 C 
ATOM     11  O   UNL d   1      -5.628  -0.747   0.627  0.00  0.00    -0.272 OA
ATOM     12  H   UNL d   1      -5.334  -3.635  -0.619  0.00  0.00     0.170 HD
BRANCH  10  13
ATOM     13  C   UNL d   1      -3.574  -1.958   0.107  0.00  0.00     0.185 C 
BRANCH  13  14
ATOM     14  S   UNL d   1      -2.751  -0.892   1.323  0.00  0.00    -0.083 SA
BRANCH  14  15
ATOM     15  C   UNL d   1      -1.089  -1.058   0.882  0.00  0.00     0.163 C 
ATOM     16  N   UNL d   1      -0.068  -0.369   1.493  0.00  0.00    -0.311 N 
ATOM     17  C   UNL d   1       1.041  -0.582   0.699  0.00  0.00     0.141 C 
ATOM     18  N   UNL d   1       0.726  -1.502  -0.199  0.00  0.00    -0.282 N 
ATOM     19  C   UNL d   1       2.303   0.120   0.706  0.00  0.00     0.050 A 
ATOM     20  N   UNL d   1      -0.611  -1.797  -0.087  0.00  0.00    -0.278 N 
ATOM     21  HN  UNL d   1       1.372  -1.924  -0.867  1.00  0.00     0.188 HD
ATOM     22  HN  UNL d   1      -1.133  -2.465  -0.653  1.00  0.00     0.189 HD
ATOM     23  S   UNL d   1       3.221   0.208  -0.757  0.00  0.00    -0.098 SA
ATOM     24  C   UNL d   1       2.954   0.811   1.713  0.00  0.00     0.023 A 
ATOM     25  C   UNL d   1       4.388   1.241  -0.064  0.00  0.00     0.050 A 
ATOM     26  C   UNL d   1       4.135   1.480   1.265  0.00  0.00     0.009 A 
BRANCH  16  27
ATOM     27  C   UNL d   1      -0.170   0.375   2.728  0.00  0.00     0.128 C 
ATOM     28  C   UNL d   1      -0.426   1.859   2.540  0.00  0.00     0.027 C 
ENDBRANCH  16  27
ENDBRANCH  14  15
ENDBRANCH  13  14
ENDBRANCH  10  13
ENDBRANCH   1   9
BRANCH   2  29
ATOM     29  C   UNL d   1      -7.599  -5.032   0.395  0.00  0.00     0.058 A 
ATOM     30  C   UNL d   1      -6.449  -5.133   1.190  0.00  0.00     0.031 A 
ATOM     31  C   UNL d   1      -6.083  -6.361   1.744  0.00  0.00     0.002 A 
ATOM     32  C   UNL d   1      -6.868  -7.489   1.519  0.00  0.00     0.000 A 
ATOM     33  C   UNL d   1      -8.033  -7.389   0.761  0.00  0.00     0.002 A 
ATOM     34  C   UNL d   1      -8.409  -6.162   0.211  0.00  0.00     0.031 A 
ENDBRANCH   2  29
TORSDOF 6
