REMARK  8 active torsions:
REMARK  status: ('A' for Active; 'I' for Inactive)
REMARK    1  A    between atoms: N_2  and  C_1 
REMARK    2  A    between atoms: N_7  and  C_1 
REMARK    3  A    between atoms: C_3  and  N_2 
REMARK    4  A    between atoms: N_9  and  C_4 
REMARK    5  A    between atoms: C_12  and  N_7 
REMARK    6  A    between atoms: C_20  and  N_9 
REMARK    7  A    between atoms: C_21  and  N_9 
REMARK    8  A    between atoms: O_18  and  C_13 
ROOT
ATOM      1  N   UNL d   1       0.549   0.810  -0.818  0.00  0.00    -0.333 N 
ATOM      2  H   UNL d   1       1.148   0.020  -0.605  0.00  0.00     0.168 HD
ENDROOT
BRANCH   1   3
ATOM      3  C   UNL d   1      -0.725   0.689  -0.337  0.00  0.00     0.176 C 
ATOM      4  S   UNL d   1      -2.135   0.954  -1.210  0.00  0.00    -0.041 SA
BRANCH   3   5
ATOM      5  N   UNL d   1      -0.874   0.189   0.926  0.00  0.00    -0.333 N 
ATOM      6  H   UNL d   1      -1.833  -0.075   1.125  0.00  0.00     0.168 HD
BRANCH   5   7
ATOM      7  C   UNL d   1       0.006   0.150   2.027  0.00  0.00     0.034 A 
ATOM      8  C   UNL d   1       1.252   0.778   2.069  0.00  0.00     0.032 A 
ATOM      9  C   UNL d   1       2.050   0.711   3.220  0.00  0.00     0.039 A 
ATOM     10  C   UNL d   1       1.603   0.026   4.349  0.00  0.00     0.068 A 
ATOM     11  C   UNL d   1       0.346  -0.574   4.321  0.00  0.00     0.039 A 
ATOM     12  C   UNL d   1      -0.448  -0.511   3.172  0.00  0.00     0.032 A 
BRANCH  10  13
ATOM     13  O   UNL d   1       2.283  -0.117   5.526  0.00  0.00    -0.356 OA
ATOM     14  C   UNL d   1       3.611   0.390   5.563  0.00  0.00     0.210 C 
ENDBRANCH  10  13
ENDBRANCH   5   7
ENDBRANCH   3   5
ENDBRANCH   1   3
BRANCH   1  15
ATOM     15  C   UNL d   1       1.046   1.761  -1.736  0.00  0.00     0.040 A 
ATOM     16  C   UNL d   1       2.159   1.473  -2.537  0.00  0.00    -0.033 A 
ATOM     17  C   UNL d   1       2.665   2.474  -3.395  0.00  0.00     0.038 A 
ATOM     18  C   UNL d   1       2.812   0.118  -2.547  0.00  0.00     0.050 C 
ATOM     19  C   UNL d   1       2.082   3.750  -3.503  0.00  0.00     0.030 A 
ATOM     20  C   UNL d   1       0.992   4.005  -2.667  0.00  0.00     0.031 A 
ATOM     21  C   UNL d   1       0.485   3.039  -1.794  0.00  0.00     0.032 A 
BRANCH  19  22
ATOM     22  N   UNL d   1       2.543   4.680  -4.427  0.00  0.00    -0.382 N 
BRANCH  22  23
ATOM     23  C   UNL d   1       3.985   4.887  -4.586  0.00  0.00     0.118 C 
ATOM     24  C   UNL d   1       4.467   4.320  -5.913  0.00  0.00     0.026 C 
ENDBRANCH  22  23
BRANCH  22  25
ATOM     25  C   UNL d   1       1.651   5.712  -4.971  0.00  0.00     0.118 C 
ATOM     26  C   UNL d   1       0.552   5.092  -5.829  0.00  0.00     0.026 C 
ENDBRANCH  22  25
ENDBRANCH  19  22
ENDBRANCH   1  15
TORSDOF 8
