REMARK  4 active torsions:
REMARK  status: ('A' for Active; 'I' for Inactive)
REMARK    1  A    between atoms: C_7  and  N_1 
REMARK    2  A    between atoms: N_6  and  C_9 
REMARK    3  A    between atoms: N_15  and  C_7 
REMARK    4  A    between atoms: C_17  and  N_15 
ROOT
ATOM      1  N   UNL d   1       1.924   0.121  -0.146  0.00  0.00    -0.267 N 
ATOM      2  C   UNL d   1       1.181   0.217   0.997  0.00  0.00     0.262 A 
ATOM      3  C   UNL d   1       1.140  -0.046  -1.253  0.00  0.00     0.262 A 
ATOM      4  C   UNL d   1      -0.222   0.226   0.575  0.00  0.00     0.050 A 
ATOM      5  C   UNL d   1      -0.244   0.053  -0.798  0.00  0.00     0.048 A 
ATOM      6  C   UNL d   1      -1.379   0.374   1.315  0.00  0.00     0.054 A 
ATOM      7  C   UNL d   1      -2.590   0.343   0.603  0.00  0.00     0.103 A 
ATOM      8  C   UNL d   1      -1.423  -0.004  -1.516  0.00  0.00     0.020 A 
ATOM      9  O   UNL d   1       1.538   0.259   2.155  0.00  0.00    -0.267 OA
ATOM     10  O   UNL d   1       1.451  -0.283  -2.402  0.00  0.00    -0.267 OA
ATOM     11  C   UNL d   1      -2.616   0.149  -0.801  0.00  0.00     0.037 A 
ENDROOT
BRANCH   1  12
ATOM     12  C   UNL d   1       3.356   0.035  -0.183  0.00  0.00     0.230 C 
BRANCH  12  13
ATOM     13  N   UNL d   1       3.890   1.382  -0.340  0.00  0.00    -0.276 NA
ATOM     14  H   UNL d   1       3.478   2.023   0.332  0.00  0.00     0.129 HD
BRANCH  13  15
ATOM     15  C   UNL d   1       5.292   1.496  -0.364  0.00  0.00     0.009 A 
ATOM     16  C   UNL d   1       6.117   0.540  -0.971  0.00  0.00     0.024 A 
ATOM     17  C   UNL d   1       7.506   0.697  -1.016  0.00  0.00     0.008 A 
ATOM     18  C   UNL d   1       8.111   1.834  -0.478  0.00  0.00    -0.062 A 
ATOM     19  C   UNL d   1       7.297   2.822   0.081  0.00  0.00     0.008 A 
ATOM     20  C   UNL d   1       9.602   1.980  -0.524  0.00  0.00     0.048 C 
ATOM     21  C   UNL d   1       5.904   2.660   0.120  0.00  0.00     0.024 A 
ENDBRANCH  13  15
ENDBRANCH  12  13
ENDBRANCH   1  12
BRANCH   7  22
ATOM     22  N   UNL d   1      -3.855   0.528   1.328  0.00  0.00    -0.116 N 
ATOM     23  O   UNL d   1      -3.792   0.707   2.551  0.00  0.00    -0.532 OA
ATOM     24  O   UNL d   1      -4.903   0.499   0.669  0.00  0.00    -0.532 OA
ENDBRANCH   7  22
TORSDOF 4
