REMARK  4 active torsions:
REMARK  status: ('A' for Active; 'I' for Inactive)
REMARK    1  A    between atoms: C_6  and  C_1 
REMARK    2  A    between atoms: C_15  and  N_2 
REMARK       I    between atoms: N_12  and  C_6 
REMARK    3  A    between atoms: C_7  and  N_12 
REMARK    4  A    between atoms: C_16  and  C_13 
ROOT
ATOM      1  C   UNL d   1      -0.621   2.545  -0.194  0.00  0.00     0.260 C 
ATOM      2  N   UNL d   1       0.440   3.478   0.047  0.00  0.00    -0.308 N 
ATOM      3  O   UNL d   1      -1.735   2.898  -0.542  0.00  0.00    -0.267 OA
ATOM      4  H   UNL d   1       1.337   3.151   0.372  0.00  0.00     0.170 HD
ENDROOT
BRANCH   1   5
ATOM      5  C   UNL d   1      -0.214   1.175   0.056  0.00  0.00     0.073 A 
ATOM      6  C   UNL d   1      -1.085   0.084   0.116  0.00  0.00     0.048 A 
ATOM      7  N   UNL d   1      -0.312  -1.030   0.437  0.00  0.00    -0.260 N 
ATOM      8  C   UNL d   1      -2.576   0.121   0.029  0.00  0.00     0.071 C 
ATOM      9  N   UNL d   1       0.989  -0.679   0.607  0.00  0.00    -0.304 N 
ATOM     10  C   UNL d   1       1.047   0.615   0.316  0.00  0.00     0.126 A 
ATOM     11  HN  UNL d   1       1.758  -1.282   0.898  1.00  0.00     0.186 HD
BRANCH   7  12
ATOM     12  C   UNL d   1      -0.716  -2.363   0.719  0.00  0.00     0.056 A 
ATOM     13  C   UNL d   1      -1.797  -2.963   0.063  0.00  0.00     0.033 A 
ATOM     14  C   UNL d   1      -2.274  -4.204   0.495  0.00  0.00     0.026 A 
ATOM     15  C   UNL d   1      -1.656  -4.854   1.561  0.00  0.00     0.034 A 
ATOM     16  C   UNL d   1      -0.526  -4.304   2.162  0.00  0.00     0.026 A 
ATOM     17 CL   UNL d   1      -2.300  -6.337   2.147  0.00  0.00    -0.084 Cl
ATOM     18  C   UNL d   1      -0.041  -3.068   1.728  0.00  0.00     0.033 A 
ENDBRANCH   7  12
ENDBRANCH   1   5
BRANCH   2  19
ATOM     19  C   UNL d   1       0.304   4.844  -0.186  0.00  0.00     0.124 A 
ATOM     20  C   UNL d   1      -0.802   5.560  -0.579  0.00  0.00     0.081 A 
ATOM     21  C   UNL d   1      -0.348   6.887  -0.816  0.00  0.00     0.062 A 
ATOM     22  N   UNL d   1       0.952   6.998  -0.501  0.00  0.00    -0.298 N 
ATOM     23  N   UNL d   1       1.307   5.772  -0.092  0.00  0.00    -0.285 N 
ATOM     24  HN  UNL d   1       1.538   7.830  -0.559  1.00  0.00     0.187 HD
ATOM     25  H   UNL d   1       2.271   5.637   0.190  0.00  0.00     0.188 HD
BRANCH  21  26
ATOM     26  C   UNL d   1      -1.104   7.996  -1.399  0.00  0.00    -0.008 A 
ATOM     27  C   UNL d   1      -2.506   8.066  -1.290  0.00  0.00     0.015 A 
ATOM     28  C   UNL d   1      -3.215   9.082  -1.932  0.00  0.00     0.024 A 
ATOM     29  C   UNL d   1      -2.539  10.039  -2.685  0.00  0.00     0.034 A 
ATOM     30  C   UNL d   1      -1.149   9.999  -2.784  0.00  0.00     0.024 A 
ATOM     31 CL   UNL d   1      -3.418  11.265  -3.503  0.00  0.00    -0.084 Cl
ATOM     32  C   UNL d   1      -0.439   8.984  -2.139  0.00  0.00     0.015 A 
ENDBRANCH  21  26
ENDBRANCH   2  19
TORSDOF 4
