REMARK  1 active torsions:
REMARK  status: ('A' for Active; 'I' for Inactive)
REMARK    1  A    between atoms: C_8  and  C_4 
ROOT
ATOM      1  N   UNL d   1       0.524   1.688   0.017  0.00  0.00    -0.349 N 
ATOM      2  HN  UNL d   1       0.340   2.691   0.043  1.00  0.00     0.166 HD
ATOM      3  C   UNL d   1       2.060  -0.273  -0.002  0.00  0.00     0.273 A 
ATOM      4  C   UNL d   1       1.749   1.237  -0.025  0.00  0.00     0.112 A 
ATOM      5  N   UNL d   1       0.974  -1.108  -0.032  0.00  0.00    -0.320 N 
ATOM      6  C   UNL d   1      -0.538   0.765   0.026  0.00  0.00     0.059 A 
ATOM      7  C   UNL d   1      -0.332  -0.621  -0.012  0.00  0.00     0.061 A 
ATOM      8  O   UNL d   1       3.201  -0.705   0.055  0.00  0.00    -0.266 OA
ATOM      9  C   UNL d   1      -1.850   1.242   0.054  0.00  0.00     0.032 A 
ATOM     10  C   UNL d   1      -1.402  -1.515  -0.022  0.00  0.00     0.032 A 
ATOM     11  C   UNL d   1      -2.930   0.354   0.043  0.00  0.00     0.002 A 
ATOM     12  C   UNL d   1      -2.706  -1.023   0.004  0.00  0.00     0.002 A 
ATOM     13  H   UNL d   1       1.161  -2.101  -0.024  0.00  0.00     0.169 HD
ENDROOT
BRANCH   4  14
ATOM     14  C   UNL d   1       2.879   2.211  -0.082  0.00  0.00    -0.004 A 
ATOM     15  C   UNL d   1       4.061   1.926  -0.778  0.00  0.00     0.015 A 
ATOM     16  C   UNL d   1       5.105   2.855  -0.808  0.00  0.00     0.024 A 
ATOM     17  C   UNL d   1       4.966   4.077  -0.154  0.00  0.00     0.034 A 
ATOM     18  C   UNL d   1       3.785   4.383   0.520  0.00  0.00     0.024 A 
ATOM     19 CL   UNL d   1       6.257   5.213  -0.186  0.00  0.00    -0.084 Cl
ATOM     20  C   UNL d   1       2.740   3.454   0.552  0.00  0.00     0.015 A 
ENDBRANCH   4  14
TORSDOF 1
