REMARK  5 active torsions:
REMARK  status: ('A' for Active; 'I' for Inactive)
REMARK    1  A    between atoms: C_3  and  C_1 
REMARK    2  A    between atoms: C_4  and  C_2 
REMARK       I    between atoms: N_10  and  C_3 
REMARK    3  A    between atoms: O_11  and  C_7 
REMARK    4  A    between atoms: O_12  and  C_9 
REMARK    5  A    between atoms: C_16  and  N_10 
ROOT
ATOM      1  C   UNL d   1       0.765  -0.672  -0.550  0.00  0.00     0.113 C 
ATOM      2  C   UNL d   1       0.308  -0.742   0.713  0.00  0.00     0.042 C 
ATOM      3  C   UNL d   1       1.858  -1.455  -1.014  0.00  0.00     0.105 C 
ATOM      4  N   UNL d   1       2.732  -2.077  -1.453  0.00  0.00    -0.191 NA
ENDROOT
BRANCH   1   5
ATOM      5  C   UNL d   1       0.093   0.307  -1.462  0.00  0.00     0.262 C 
ATOM      6  O   UNL d   1      -0.838   1.008  -1.074  0.00  0.00    -0.267 OA
ATOM      7  N   UNL d   1       0.594   0.383  -2.744  0.00  0.00    -0.357 N 
ATOM      8  H   UNL d   1       1.337  -0.234  -3.054  0.00  0.00     0.162 HD
BRANCH   7   9
ATOM      9  C   UNL d   1       0.034   1.281  -3.731  0.00  0.00     0.118 C 
ATOM     10  C   UNL d   1      -1.096   0.623  -4.500  0.00  0.00     0.026 C 
ENDBRANCH   7   9
ENDBRANCH   1   5
BRANCH   2  11
ATOM     11  C   UNL d   1       0.908  -1.589   1.754  0.00  0.00     0.002 A 
ATOM     12  C   UNL d   1       2.005  -1.196   2.561  0.00  0.00     0.111 A 
ATOM     13  C   UNL d   1       2.575  -2.150   3.432  0.00  0.00     0.102 A 
ATOM     14  C   UNL d   1       2.048  -3.451   3.484  0.00  0.00     0.040 A 
ATOM     15  C   UNL d   1       0.968  -3.826   2.695  0.00  0.00     0.004 A 
ATOM     16  C   UNL d   1       0.395  -2.895   1.839  0.00  0.00     0.014 A 
BRANCH  12  17
ATOM     17  O   UNL d   1       2.638   0.016   2.453  0.00  0.00    -0.352 OA
ATOM     18  C   UNL d   1       1.858   1.192   2.277  0.00  0.00     0.210 C 
ENDBRANCH  12  17
BRANCH  13  19
ATOM     19  O   UNL d   1       3.643  -2.012   4.281  0.00  0.00    -0.353 OA
ATOM     20  C   UNL d   1       4.274  -0.750   4.413  0.00  0.00     0.210 C 
ENDBRANCH  13  19
ENDBRANCH   2  11
TORSDOF 5
