REMARK  6 active torsions:
REMARK  status: ('A' for Active; 'I' for Inactive)
REMARK    1  A    between atoms: C_2  and  S_1 
REMARK    2  A    between atoms: C_4  and  S_1 
REMARK    3  A    between atoms: C_3  and  C_2 
REMARK    4  A    between atoms: C_7  and  C_3 
REMARK    5  A    between atoms: C_8  and  C_3 
REMARK    6  A    between atoms: O_15  and  C_3 
ROOT
ATOM      1  C   UNL d   1       0.933  -2.554   0.909  0.00  0.00     0.125 C 
ENDROOT
BRANCH   1   2
ATOM      2  C   UNL d   1       0.574  -1.067   1.090  0.00  0.00     0.193 C 
BRANCH   2   3
ATOM      3  S   UNL d   1      -1.156  -0.684   1.256  0.00  0.00     0.179 S 
ATOM      4  O   UNL d   1      -1.901  -1.274   0.165  0.00  0.00    -0.222 OA
ATOM      5  O   UNL d   1      -1.250   0.747   1.493  0.00  0.00    -0.222 OA
BRANCH   3   6
ATOM      6  C   UNL d   1      -1.723  -1.451   2.756  0.00  0.00     0.059 A 
ATOM      7  C   UNL d   1      -1.122  -1.106   3.970  0.00  0.00     0.025 A 
ATOM      8  C   UNL d   1      -1.543  -1.731   5.144  0.00  0.00     0.020 A 
ATOM      9  C   UNL d   1      -2.566  -2.678   5.098  0.00  0.00     0.011 A 
ATOM     10  C   UNL d   1      -3.180  -3.007   3.888  0.00  0.00     0.020 A 
ATOM     11 BR   UNL d   1      -3.132  -3.521   6.693  0.00  0.00    -0.051 Br
ATOM     12  C   UNL d   1      -2.761  -2.389   2.709  0.00  0.00     0.025 A 
ENDBRANCH   3   6
ENDBRANCH   2   3
ENDBRANCH   1   2
BRANCH   1  13
ATOM     13  C   UNL d   1       0.418  -3.222  -0.378  0.00  0.00    -0.018 C 
ATOM     14  C   UNL d   1       0.107  -2.487  -1.539  0.00  0.00     0.013 C 
ATOM     15  C   UNL d   1      -0.591  -3.075  -2.598  0.00  0.00     0.043 C 
ATOM     16  C   UNL d   1      -0.941  -4.415  -2.531  0.00  0.00     0.116 C 
ATOM     17  C   UNL d   1      -0.546  -5.195  -1.454  0.00  0.00     0.043 C 
ATOM     18  F   UNL d   1      -1.672  -4.960  -3.511  0.00  0.00    -0.206 F 
ATOM     19  C   UNL d   1       0.155  -4.609  -0.398  0.00  0.00     0.013 C 
ENDBRANCH   1  13
BRANCH   1  20
ATOM     20  C   UNL d   1       2.469  -2.652   1.094  0.00  0.00    -0.018 A 
ATOM     21  C   UNL d   1       3.014  -2.794   2.394  0.00  0.00     0.013 A 
ATOM     22  C   UNL d   1       4.392  -2.787   2.617  0.00  0.00     0.043 A 
ATOM     23  C   UNL d   1       5.252  -2.632   1.543  0.00  0.00     0.116 A 
ATOM     24  C   UNL d   1       4.754  -2.492   0.255  0.00  0.00     0.043 A 
ATOM     25  F   UNL d   1       6.575  -2.606   1.754  0.00  0.00    -0.206 F 
ATOM     26  C   UNL d   1       3.372  -2.500   0.026  0.00  0.00     0.013 A 
ENDBRANCH   1  20
BRANCH   1  27
ATOM     27  O   UNL d   1       0.374  -3.257   2.036  0.00  0.00    -0.379 OA
ATOM     28  H   UNL d   1      -0.437  -3.713   1.754  0.00  0.00     0.211 HD
ENDBRANCH   1  27
TORSDOF 6
