REMARK  3 active torsions:
REMARK  status: ('A' for Active; 'I' for Inactive)
REMARK    1  A    between atoms: N_2  and  S_1 
REMARK    2  A    between atoms: C_5  and  S_1 
REMARK    3  A    between atoms: C_6  and  N_2 
ROOT
ATOM      1  S   UNL d   1       1.135  -0.130   0.089  0.00  0.00     0.259 S 
ATOM      2  O   UNL d   1       0.458  -0.574   1.288  0.00  0.00    -0.201 OA
ATOM      3  O   UNL d   1       2.574  -0.166  -0.033  0.00  0.00    -0.201 OA
ENDROOT
BRANCH   1   4
ATOM      4  N   UNL d   1       0.624   1.443  -0.188  0.00  0.00    -0.302 N 
ATOM      5  H   UNL d   1       0.042   1.817   0.567  0.00  0.00     0.173 HD
BRANCH   4   6
ATOM      6  C   UNL d   1       1.560   2.425  -0.788  0.00  0.00     0.185 C 
ATOM      7  C   UNL d   1       0.883   3.805  -0.684  0.00  0.00     0.241 C 
ATOM      8  N   UNL d   1       1.556   4.892  -1.170  0.00  0.00    -0.359 N 
ATOM      9  O   UNL d   1      -0.226   3.969  -0.172  0.00  0.00    -0.271 OA
ATOM     10  C   UNL d   1       2.938   4.931  -1.597  0.00  0.00     0.122 C 
ATOM     11  H   UNL d   1       1.057   5.767  -1.056  0.00  0.00     0.162 HD
ATOM     12  C   UNL d   1       3.174   4.183  -2.901  0.00  0.00     0.020 C 
ATOM     13  C   UNL d   1       3.174   2.666  -2.743  0.00  0.00     0.004 C 
ATOM     14  C   UNL d   1       1.851   2.086  -2.250  0.00  0.00     0.035 C 
ENDBRANCH   4   6
ENDBRANCH   1   4
BRANCH   1  15
ATOM     15  C   UNL d   1       0.414  -1.004  -1.277  0.00  0.00     0.081 A 
ATOM     16  C   UNL d   1      -0.979  -0.978  -1.419  0.00  0.00     0.057 A 
ATOM     17  C   UNL d   1      -1.617  -1.647  -2.473  0.00  0.00     0.065 A 
ATOM     18  N   UNL d   1      -3.018  -1.624  -2.625  0.00  0.00    -0.381 N 
ATOM     19  C   UNL d   1      -0.790  -2.399  -3.344  0.00  0.00     0.095 A 
ATOM     20  C   UNL d   1      -3.460  -2.192  -3.905  0.00  0.00     0.149 C 
ATOM     21  C   UNL d   1      -3.734  -0.425  -2.195  0.00  0.00     0.150 C 
ATOM     22  C   UNL d   1      -2.669  -3.457  -4.213  0.00  0.00     0.195 C 
ATOM     23  O   UNL d   1      -1.279  -3.157  -4.387  0.00  0.00    -0.347 OA
ATOM     24  C   UNL d   1       0.604  -2.404  -3.217  0.00  0.00     0.040 A 
ATOM     25  C   UNL d   1       1.214  -1.707  -2.176  0.00  0.00     0.028 A 
ENDBRANCH   1  15
TORSDOF 3
