REMARK  2 active torsions:
REMARK  status: ('A' for Active; 'I' for Inactive)
REMARK    1  A    between atoms: C_5  and  C_1 
REMARK    2  A    between atoms: O_10  and  C_5 
ROOT
ATOM      1  C   UNL d   1      -0.688   1.261  -0.002  0.00  0.00     0.154 A 
ATOM      2  O   UNL d   1      -1.447   0.068   0.001  0.00  0.00    -0.269 OA
ATOM      3  C   UNL d   1      -0.814  -1.144   0.002  0.00  0.00     0.288 A 
ATOM      4  C   UNL d   1       0.654   1.249  -0.005  0.00  0.00     0.050 A 
ATOM      5  C   UNL d   1       1.363  -0.005  -0.004  0.00  0.00    -0.053 A 
ATOM      6  C   UNL d   1       0.662  -1.147  -0.000  0.00  0.00     0.089 A 
ATOM      7  O   UNL d   1      -1.425  -2.207   0.005  0.00  0.00    -0.260 OA
ATOM      8  C   UNL d   1       2.862   0.011  -0.007  0.00  0.00     0.048 C 
ENDROOT
BRANCH   1   9
ATOM      9  C   UNL d   1      -1.377   2.581   0.000  0.00  0.00     0.317 C 
ATOM     10  O   UNL d   1      -0.782   3.653  -0.002  0.00  0.00    -0.257 OA
BRANCH   9  11
ATOM     11  O   UNL d   1      -2.727   2.438   0.005  0.00  0.00    -0.321 OA
ATOM     12  C   UNL d   1      -3.429   3.686   0.007  0.00  0.00     0.213 C 
ENDBRANCH   9  11
ENDBRANCH   1   9
TORSDOF 2
