REMARK  10 active torsions:
REMARK  status: ('A' for Active; 'I' for Inactive)
REMARK    1  A    between atoms: N_8  and  C_1 
REMARK    2  A    between atoms: S_11  and  C_3 
REMARK    3  A    between atoms: N_12  and  C_10 
REMARK    4  A    between atoms: C_13  and  S_11 
REMARK    5  A    between atoms: C_16  and  C_13 
REMARK    6  A    between atoms: C_20  and  C_16 
REMARK    7  A    between atoms: C_17  and  C_18 
REMARK    8  A    between atoms: C_18  and  C_19 
REMARK    9  A    between atoms: C_19  and  C_21 
REMARK   10  A    between atoms: C_21  and  C_20 
ROOT
ATOM      1  C   UNL d   1      -0.483   1.184   0.047  0.00  0.00     0.166 A 
ATOM      2  S   UNL d   1      -1.409  -0.282   0.015  0.00  0.00    -0.026 SA
ATOM      3  C   UNL d   1       0.069  -1.146   0.003  0.00  0.00     0.130 A 
ATOM      4  N   UNL d   1       0.819   0.957   0.045  0.00  0.00    -0.278 N 
ATOM      5  HN  UNL d   1       1.518   1.700   0.060  1.00  0.00     0.189 HD
ATOM      6  N   UNL d   1       1.140  -0.385   0.021  0.00  0.00    -0.286 N 
ATOM      7  HN  UNL d   1       2.095  -0.744   0.018  1.00  0.00     0.188 HD
ENDROOT
BRANCH   3   8
ATOM      8  S   UNL d   1       0.147  -2.898  -0.027  0.00  0.00    -0.103 SA
BRANCH   8   9
ATOM      9  C   UNL d   1       1.949  -3.172  -0.028  0.00  0.00     0.081 C 
BRANCH   9  10
ATOM     10  C   UNL d   1       2.260  -4.672  -0.044  0.00  0.00     0.010 C 
BRANCH  10  11
ATOM     11  C   UNL d   1       3.772  -4.933  -0.049  0.00  0.00     0.001 C 
BRANCH  11  12
ATOM     12  C   UNL d   1       4.082  -6.433  -0.064  0.00  0.00     0.000 C 
BRANCH  12  13
ATOM     13  C   UNL d   1       5.590  -6.698  -0.068  0.00  0.00     0.000 C 
BRANCH  13  14
ATOM     14  C   UNL d   1       5.891  -8.198  -0.086  0.00  0.00    -0.000 C 
BRANCH  14  15
ATOM     15  C   UNL d   1       7.396  -8.468  -0.090  0.00  0.00    -0.005 C 
ATOM     16  C   UNL d   1       7.692  -9.959  -0.107  0.00  0.00     0.005 C 
ENDBRANCH  14  15
ENDBRANCH  13  14
ENDBRANCH  12  13
ENDBRANCH  11  12
ENDBRANCH  10  11
ENDBRANCH   9  10
ENDBRANCH   8   9
ENDBRANCH   3   8
BRANCH   1  17
ATOM     17  N   UNL d   1      -1.155   2.367   0.071  0.00  0.00    -0.332 N 
ATOM     18  C   UNL d   1      -0.419   3.429   0.099  0.00  0.00     0.179 C 
ATOM     19  HN  UNL d   1      -2.173   2.413   0.067  1.00  0.00     0.168 HD
BRANCH  18  20
ATOM     20  N   UNL d   1      -0.873   4.732   0.126  0.00  0.00    -0.386 N 
ATOM     21  C   UNL d   1      -2.291   5.052   0.131  0.00  0.00     0.149 C 
ATOM     22  C   UNL d   1       0.031   5.871   0.151  0.00  0.00     0.149 C 
ENDBRANCH  18  20
ENDBRANCH   1  17
TORSDOF 10
