REMARK  5 active torsions:
REMARK  status: ('A' for Active; 'I' for Inactive)
REMARK    1  A    between atoms: C_7  and  C_1 
REMARK    2  A    between atoms: O_18  and  C_1 
REMARK    3  A    between atoms: N_3  and  O_18 
REMARK    4  A    between atoms: C_9  and  C_10 
REMARK    5  A    between atoms: C_21  and  C_20 
ROOT
ATOM      1  O   UNL d   1       0.834  -0.494  -1.369  0.00  0.00    -0.195 OA
ENDROOT
BRANCH   1   2
ATOM      2  N   UNL d   1       1.638   0.094  -2.371  0.00  0.00    -0.268 N 
ATOM      3  C   UNL d   1       1.249  -0.263  -3.551  0.00  0.00     0.126 C 
ATOM      4  HN  UNL d   1       2.423   0.719  -2.187  1.00  0.00     0.194 HD
BRANCH   3   5
ATOM      5  C   UNL d   1       1.909   0.277  -4.764  0.00  0.00    -0.016 A 
ATOM      6  C   UNL d   1       1.434  -0.089  -6.029  0.00  0.00     0.052 A 
ATOM      7  C   UNL d   1       2.028   0.507  -7.126  0.00  0.00     0.105 A 
ATOM      8  O   UNL d   1       1.678   0.308  -8.427  0.00  0.00    -0.323 OA
ATOM      9  C   UNL d   1       3.058   1.412  -6.999  0.00  0.00     0.105 A 
ATOM     10  C   UNL d   1       2.554   1.245  -9.092  0.00  0.00     0.352 A 
ATOM     11  O   UNL d   1       3.479   1.895  -8.198  0.00  0.00    -0.323 OA
ATOM     12  C   UNL d   1       3.563   1.767  -5.768  0.00  0.00     0.040 A 
ATOM     13  C   UNL d   1       2.977   1.192  -4.636  0.00  0.00     0.016 A 
ENDBRANCH   3   5
ENDBRANCH   1   2
BRANCH   1  14
ATOM     14  C   UNL d   1       1.279  -0.091  -0.136  0.00  0.00     0.315 C 
ATOM     15  O   UNL d   1       2.260   0.604   0.105  0.00  0.00    -0.257 OA
BRANCH  14  16
ATOM     16  C   UNL d   1       0.404  -0.615   0.953  0.00  0.00     0.041 A 
ATOM     17  C   UNL d   1       0.791  -0.395   2.282  0.00  0.00     0.018 A 
ATOM     18  C   UNL d   1       0.011  -0.871   3.347  0.00  0.00     0.009 A 
ATOM     19  C   UNL d   1      -1.182  -1.581   3.122  0.00  0.00    -0.051 A 
ATOM     20  C   UNL d   1      -1.565  -1.774   1.781  0.00  0.00     0.009 A 
ATOM     21  C   UNL d   1      -0.787  -1.301   0.712  0.00  0.00     0.018 A 
BRANCH  19  22
ATOM     22  C   UNL d   1      -1.998  -2.136   4.307  0.00  0.00    -0.024 C 
ATOM     23  C   UNL d   1      -3.269  -2.899   3.870  0.00  0.00     0.019 C 
ATOM     24  C   UNL d   1      -1.131  -3.123   5.121  0.00  0.00     0.019 C 
ATOM     25  C   UNL d   1      -2.453  -0.996   5.244  0.00  0.00     0.019 C 
ENDBRANCH  19  22
ENDBRANCH  14  16
ENDBRANCH   1  14
TORSDOF 5
