REMARK  5 active torsions:
REMARK  status: ('A' for Active; 'I' for Inactive)
REMARK       I    between atoms: C_2  and  N_1 
REMARK    1  A    between atoms: C_5  and  N_1 
REMARK    2  A    between atoms: C_7  and  N_1 
REMARK    3  A    between atoms: C_6  and  C_2 
REMARK    4  A    between atoms: C_3  and  C_5 
REMARK    5  A    between atoms: C_15  and  C_7 
ROOT
ATOM      1  N   UNL d   1       0.875  -0.050  -0.043  0.00  0.00    -0.339 N 
ATOM      2  C   UNL d   1       0.159  -0.645  -1.083  0.00  0.00     0.254 C 
ATOM      3  O   UNL d   1      -1.068  -0.583  -1.178  0.00  0.00    -0.267 OA
ENDROOT
BRANCH   1   4
ATOM      4  C   UNL d   1       0.127   0.754   0.924  0.00  0.00     0.172 C 
BRANCH   4   5
ATOM      5  C   UNL d   1      -0.036   0.045   2.235  0.00  0.00     0.000 A 
ATOM      6  S   UNL d   1       0.732   0.656   3.643  0.00  0.00    -0.105 SA
ATOM      7  C   UNL d   1      -0.049  -0.486   4.646  0.00  0.00     0.050 A 
ATOM      8  C   UNL d   1      -0.848  -1.344   3.924  0.00  0.00     0.008 A 
ATOM      9  C   UNL d   1      -0.830  -1.046   2.530  0.00  0.00     0.017 A 
ENDBRANCH   4   5
ENDBRANCH   1   4
BRANCH   1  10
ATOM     10  C   UNL d   1       2.336   0.055  -0.000  0.00  0.00     0.165 C 
BRANCH  10  11
ATOM     11  C   UNL d   1       2.914   0.990  -1.042  0.00  0.00    -0.040 A 
ATOM     12  C   UNL d   1       2.302   2.211  -1.365  0.00  0.00     0.009 A 
ATOM     13  C   UNL d   1       2.865   3.065  -2.314  0.00  0.00     0.001 A 
ATOM     14  C   UNL d   1       4.052   2.715  -2.950  0.00  0.00     0.000 A 
ATOM     15  C   UNL d   1       4.679   1.513  -2.635  0.00  0.00     0.001 A 
ATOM     16  C   UNL d   1       4.118   0.658  -1.683  0.00  0.00     0.009 A 
ENDBRANCH  10  11
ENDBRANCH   1  10
BRANCH   2  17
ATOM     17  C   UNL d   1       0.869  -1.348  -2.177  0.00  0.00     0.032 A 
ATOM     18  C   UNL d   1       1.643  -2.487  -1.934  0.00  0.00     0.018 A 
ATOM     19  C   UNL d   1       2.261  -3.147  -3.001  0.00  0.00     0.025 A 
ATOM     20  C   UNL d   1       2.080  -2.684  -4.306  0.00  0.00     0.034 A 
ATOM     21  C   UNL d   1       1.282  -1.570  -4.558  0.00  0.00     0.025 A 
ATOM     22 CL   UNL d   1       2.829  -3.513  -5.615  0.00  0.00    -0.084 Cl
ATOM     23  C   UNL d   1       0.673  -0.901  -3.492  0.00  0.00     0.018 A 
ENDBRANCH   2  17
TORSDOF 5
