REMARK  8 active torsions:
REMARK  status: ('A' for Active; 'I' for Inactive)
REMARK    1  A    between atoms: N_3  and  C_1 
REMARK       I    between atoms: C_2  and  N_10 
REMARK    2  A    between atoms: O_6  and  C_2 
REMARK    3  A    between atoms: C_4  and  N_3 
REMARK    4  A    between atoms: C_8  and  O_6 
REMARK    5  A    between atoms: C_18  and  N_9 
REMARK    6  A    between atoms: N_10  and  C_17 
REMARK    7  A    between atoms: C_16  and  C_18 
REMARK    8  A    between atoms: C_17  and  C_16 
ROOT
ATOM      1  C   UNL d   1       2.077   1.385  -0.503  0.00  0.00     0.172 C 
ATOM      2  S   UNL d   1       0.880   2.281   0.254  0.00  0.00    -0.041 SA
ATOM      3  N   UNL d   1       2.412   0.209   0.097  0.00  0.00    -0.367 N 
ATOM      4  H   UNL d   1       1.887   0.046   0.949  0.00  0.00     0.161 HD
ENDROOT
BRANCH   3   5
ATOM      5  C   UNL d   1       3.294  -0.853  -0.351  0.00  0.00     0.123 C 
BRANCH   5   6
ATOM      6  C   UNL d   1       4.780  -0.492  -0.386  0.00  0.00     0.039 C 
BRANCH   6   7
ATOM      7  C   UNL d   1       5.588  -1.717  -0.817  0.00  0.00     0.126 C 
BRANCH   7   8
ATOM      8  N   UNL d   1       7.015  -1.543  -0.661  0.00  0.00    -0.337 N 
ATOM      9  C   UNL d   1       7.962  -1.444  -1.637  0.00  0.00     0.361 C 
ATOM     10  O   UNL d   1       9.142  -1.633  -1.358  0.00  0.00    -0.238 OA
ATOM     11  H   UNL d   1       7.425  -1.784   0.232  0.00  0.00     0.164 HD
BRANCH   9  12
ATOM     12  O   UNL d   1       7.480  -1.144  -2.868  0.00  0.00    -0.294 OA
BRANCH  12  13
ATOM     13  C   UNL d   1       8.399  -1.110  -4.003  0.00  0.00     0.061 C 
ATOM     14  C   UNL d   1       9.009  -2.501  -4.241  0.00  0.00     0.046 C 
ATOM     15  C   UNL d   1       7.544  -0.720  -5.223  0.00  0.00     0.046 C 
ATOM     16  C   UNL d   1       9.493  -0.042  -3.839  0.00  0.00     0.046 C 
ENDBRANCH  12  13
ENDBRANCH   9  12
ENDBRANCH   7   8
ENDBRANCH   6   7
ENDBRANCH   5   6
ENDBRANCH   3   5
BRANCH   1  17
ATOM     17  N   UNL d   1       2.724   1.685  -1.670  0.00  0.00    -0.333 N 
ATOM     18  H   UNL d   1       2.830   0.915  -2.321  0.00  0.00     0.168 HD
BRANCH  17  19
ATOM     19  C   UNL d   1       2.974   2.976  -2.191  0.00  0.00     0.035 A 
ATOM     20  C   UNL d   1       3.192   4.066  -1.344  0.00  0.00     0.036 A 
ATOM     21  C   UNL d   1       3.394   5.351  -1.855  0.00  0.00    -0.059 A 
ATOM     22  C   UNL d   1       3.582   6.494  -0.902  0.00  0.00     0.048 C 
ATOM     23  C   UNL d   1       3.425   5.533  -3.239  0.00  0.00     0.013 A 
ATOM     24  C   UNL d   1       3.270   4.441  -4.107  0.00  0.00    -0.059 A 
ATOM     25  C   UNL d   1       3.056   3.160  -3.574  0.00  0.00     0.036 A 
ATOM     26  C   UNL d   1       3.273   4.674  -5.590  0.00  0.00     0.048 C 
ENDBRANCH  17  19
ENDBRANCH   1  17
TORSDOF 8
