REMARK  3 active torsions:
REMARK  status: ('A' for Active; 'I' for Inactive)
REMARK    1  A    between atoms: C_6  and  C_1 
REMARK    2  A    between atoms: O_14  and  C_6 
REMARK    3  A    between atoms: C_17  and  O_14 
ROOT
ATOM      1  C   UNL d   1      -2.349   0.581  -0.464  0.00  0.00     0.231 C 
ATOM      2  C   UNL d   1      -2.409  -0.836   0.135  0.00  0.00     0.267 C 
ATOM      3  O   UNL d   1      -1.223   1.351  -0.005  0.00  0.00    -0.318 OA
ATOM      4  N   UNL d   1      -1.188  -1.459   0.242  0.00  0.00    -0.322 N 
ATOM      5  C   UNL d   1      -0.044   0.651   0.008  0.00  0.00     0.099 A 
ATOM      6  C   UNL d   1       0.001  -0.745   0.098  0.00  0.00     0.068 A 
ATOM      7  C   UNL d   1       1.136   1.390  -0.018  0.00  0.00     0.063 A 
ATOM      8  O   UNL d   1      -3.447  -1.427   0.434  0.00  0.00    -0.269 OA
ATOM      9  C   UNL d   1       1.224  -1.412   0.104  0.00  0.00     0.034 A 
ATOM     10  C   UNL d   1       2.359   0.721  -0.003  0.00  0.00     0.036 A 
ATOM     11  C   UNL d   1      -3.603   1.362  -0.063  0.00  0.00     0.069 C 
ATOM     12  C   UNL d   1       2.408  -0.674   0.042  0.00  0.00     0.026 A 
ATOM     13 CL   UNL d   1       3.824   1.623  -0.032  0.00  0.00    -0.084 Cl
ATOM     14  H   UNL d   1      -1.188  -2.441   0.486  0.00  0.00     0.169 HD
ENDROOT
BRANCH   1  15
ATOM     15  C   UNL d   1      -2.298   0.469  -1.998  0.00  0.00     0.303 C 
ATOM     16  O   UNL d   1      -2.269  -0.580  -2.631  0.00  0.00    -0.261 OA
BRANCH  15  17
ATOM     17  O   UNL d   1      -2.155   1.706  -2.563  0.00  0.00    -0.319 OA
BRANCH  17  18
ATOM     18  C   UNL d   1      -1.594   1.713  -3.883  0.00  0.00     0.174 C 
ATOM     19  C   UNL d   1      -0.082   1.724  -3.745  0.00  0.00     0.034 C 
ENDBRANCH  17  18
ENDBRANCH  15  17
ENDBRANCH   1  15
TORSDOF 3
