REMARK  8 active torsions:
REMARK  status: ('A' for Active; 'I' for Inactive)
REMARK    1  A    between atoms: C_5  and  N_1 
REMARK    2  A    between atoms: S_2  and  C_3 
REMARK    3  A    between atoms: C_7  and  S_2 
REMARK    4  A    between atoms: C_3  and  C_9 
REMARK    5  A    between atoms: C_4  and  C_3 
REMARK    6  A    between atoms: C_6  and  C_4 
REMARK    7  A    between atoms: C_14  and  C_6 
REMARK    8  A    between atoms: N_15  and  C_12 
ROOT
ATOM      1  C   UNL d   1       0.192   3.792   3.157  0.00  0.00     0.092 C 
ENDROOT
BRANCH   1   2
ATOM      2  S   UNL d   1       0.503   3.730   4.982  0.00  0.00    -0.118 SA
BRANCH   2   3
ATOM      3  C   UNL d   1      -1.077   3.215   5.682  0.00  0.00     0.022 A 
ATOM      4  C   UNL d   1      -1.063   2.357   6.809  0.00  0.00     0.022 A 
ATOM      5  C   UNL d   1      -2.277   1.968   7.391  0.00  0.00     0.024 A 
ATOM      6  C   UNL d   1      -3.491   2.355   6.830  0.00  0.00     0.002 A 
ATOM      7  C   UNL d   1      -3.507   3.170   5.704  0.00  0.00     0.001 A 
ATOM      8  C   UNL d   1      -2.305   3.611   5.138  0.00  0.00     0.020 A 
BRANCH   4   9
ATOM      9  N   UNL d   1       0.137   2.039   7.480  0.00  0.00    -0.302 NA
ATOM     10  H   UNL d   1       0.950   2.179   6.884  0.00  0.00     0.124 HD
ATOM     11  H   UNL d   1       0.124   1.131   7.932  0.00  0.00     0.124 HD
ENDBRANCH   4   9
ENDBRANCH   2   3
ENDBRANCH   1   2
BRANCH   1  12
ATOM     12  C   UNL d   1      -0.226   2.459   2.510  0.00  0.00    -0.041 A 
ATOM     13  C   UNL d   1      -0.220   1.218   3.174  0.00  0.00     0.044 A 
ATOM     14  C   UNL d   1      -0.660   0.051   2.527  0.00  0.00     0.103 A 
ATOM     15  C   UNL d   1      -1.062   0.083   1.188  0.00  0.00     0.036 A 
ATOM     16  C   UNL d   1      -1.046   1.297   0.506  0.00  0.00     0.003 A 
ATOM     17  C   UNL d   1      -0.652   2.467   1.164  0.00  0.00     0.008 A 
BRANCH  14  18
ATOM     18  N   UNL d   1      -0.711  -1.216   3.272  0.00  0.00    -0.116 N 
ATOM     19  O   UNL d   1      -0.311  -1.216   4.445  0.00  0.00    -0.532 OA
ATOM     20  O   UNL d   1      -1.151  -2.212   2.681  0.00  0.00    -0.532 OA
ENDBRANCH  14  18
ENDBRANCH   1  12
BRANCH   1  21
ATOM     21  C   UNL d   1       1.468   4.321   2.464  0.00  0.00     0.104 C 
BRANCH  21  22
ATOM     22  C   UNL d   1       1.799   5.776   2.772  0.00  0.00     0.161 C 
ATOM     23  O   UNL d   1       1.056   6.502   3.425  0.00  0.00    -0.292 OA
BRANCH  22  24
ATOM     24  C   UNL d   1       3.046   6.358   2.181  0.00  0.00     0.010 A 
ATOM     25  C   UNL d   1       3.791   5.685   1.203  0.00  0.00     0.015 A 
ATOM     26  C   UNL d   1       4.900   6.300   0.617  0.00  0.00     0.001 A 
ATOM     27  C   UNL d   1       5.279   7.582   1.008  0.00  0.00     0.000 A 
ATOM     28  C   UNL d   1       4.557   8.250   1.996  0.00  0.00     0.001 A 
ATOM     29  C   UNL d   1       3.443   7.640   2.581  0.00  0.00     0.015 A 
ENDBRANCH  22  24
ENDBRANCH  21  22
ENDBRANCH   1  21
TORSDOF 8
