REMARK  3 active torsions:
REMARK  status: ('A' for Active; 'I' for Inactive)
REMARK    1  A    between atoms: C_6  and  C_1 
REMARK    2  A    between atoms: C_8  and  N_3 
REMARK       I    between atoms: N_7  and  C_6 
REMARK    3  A    between atoms: C_10  and  N_7 
ROOT
ATOM      1  C   UNL d   1      -0.241  -1.117  -0.006  0.00  0.00     0.056 C 
ATOM      2  C   UNL d   1       0.980  -0.542  -0.392  0.00  0.00     0.029 C 
ATOM      3  N   UNL d   1       0.901   0.847  -0.207  0.00  0.00    -0.319 N 
ATOM      4  C   UNL d   1      -1.120  -0.028   0.241  0.00  0.00     0.044 C 
ATOM      5  C   UNL d   1      -0.434   1.153   0.048  0.00  0.00     0.014 C 
ATOM      6  C   UNL d   1       2.231  -1.242  -0.827  0.00  0.00     0.070 C 
ATOM      7  C   UNL d   1      -1.011   2.531   0.036  0.00  0.00     0.068 C 
ENDROOT
BRANCH   1   8
ATOM      8  C   UNL d   1      -0.519  -2.572   0.085  0.00  0.00     0.258 C 
ATOM      9  N   UNL d   1      -1.823  -2.898   0.422  0.00  0.00    -0.323 N 
ATOM     10  H   UNL d   1      -2.460  -2.135   0.584  0.00  0.00     0.169 HD
ATOM     11  O   UNL d   1       0.357  -3.400  -0.127  0.00  0.00    -0.267 OA
BRANCH   9  12
ATOM     12  C   UNL d   1      -2.381  -4.196   0.486  0.00  0.00     0.035 A 
ATOM     13  C   UNL d   1      -1.657  -5.374   0.283  0.00  0.00     0.031 A 
ATOM     14  C   UNL d   1      -2.296  -6.619   0.283  0.00  0.00     0.026 A 
ATOM     15  C   UNL d   1      -3.667  -6.694   0.496  0.00  0.00     0.034 A 
ATOM     16  C   UNL d   1      -4.400  -5.535   0.738  0.00  0.00     0.026 A 
ATOM     17 CL   UNL d   1      -4.459  -8.219   0.449  0.00  0.00    -0.084 Cl
ATOM     18  C   UNL d   1      -3.758  -4.291   0.738  0.00  0.00     0.031 A 
ENDBRANCH   9  12
ENDBRANCH   1   8
BRANCH   3  19
ATOM     19  C   UNL d   1       1.992   1.781  -0.193  0.00  0.00     0.039 A 
ATOM     20  C   UNL d   1       3.079   1.666  -1.067  0.00  0.00     0.030 A 
ATOM     21  C   UNL d   1       4.182   2.519  -0.953  0.00  0.00     0.002 A 
ATOM     22  C   UNL d   1       4.198   3.518   0.015  0.00  0.00     0.000 A 
ATOM     23  C   UNL d   1       3.108   3.670   0.866  0.00  0.00     0.002 A 
ATOM     24  C   UNL d   1       2.014   2.804   0.769  0.00  0.00     0.030 A 
ENDBRANCH   3  19
TORSDOF 3
