REMARK  2 active torsions:
REMARK  status: ('A' for Active; 'I' for Inactive)
REMARK    1  A    between atoms: N_8  and  C_3 
REMARK    2  A    between atoms: C_14  and  C_16 
ROOT
ATOM      1  N   UNL d   1       0.940  -0.559  -0.022  0.00  0.00    -0.273 N 
ATOM      2  C   UNL d   1       1.376   0.727   0.023  0.00  0.00     0.159 A 
ATOM      3  C   UNL d   1       1.921  -1.554  -0.065  0.00  0.00     0.142 A 
ATOM      4  C   UNL d   1       3.150  -0.981  -0.042  0.00  0.00     0.133 A 
ATOM      5  N   UNL d   1       0.424   1.618   0.026  0.00  0.00    -0.334 N 
ATOM      6  HN  UNL d   1       0.506   2.634   0.041  1.00  0.00     0.168 HD
ATOM      7  S   UNL d   1       3.103   0.804   0.044  0.00  0.00    -0.038 SA
ATOM      8  C   UNL d   1      -0.431  -0.523  -0.013  0.00  0.00     0.070 A 
ATOM      9  C   UNL d   1      -0.726   0.847   0.005  0.00  0.00     0.061 A 
ATOM     10  C   UNL d   1       4.392  -1.664  -0.097  0.00  0.00     0.111 C 
ATOM     11  N   UNL d   1       5.396  -2.243  -0.103  0.00  0.00    -0.191 NA
ATOM     12  C   UNL d   1      -1.415  -1.516  -0.015  0.00  0.00     0.032 A 
ATOM     13  C   UNL d   1      -2.072   1.246   0.004  0.00  0.00     0.032 A 
ATOM     14  C   UNL d   1      -2.747  -1.094  -0.005  0.00  0.00     0.002 A 
ATOM     15  C   UNL d   1      -3.073   0.264   0.000  0.00  0.00     0.002 A 
ENDROOT
BRANCH   3  16
ATOM     16  N   UNL d   1       1.518  -2.860  -0.202  0.00  0.00    -0.349 N 
ATOM     17  C   UNL d   1       2.142  -3.851   0.343  0.00  0.00     0.108 C 
ATOM     18  HN  UNL d   1       0.687  -3.056  -0.759  1.00  0.00     0.167 HD
BRANCH  17  19
ATOM     19  C   UNL d   1       1.558  -5.170   0.229  0.00  0.00     0.020 A 
ATOM     20  S   UNL d   1       2.366  -6.523   0.886  0.00  0.00    -0.101 SA
ATOM     21  C   UNL d   1       1.101  -7.582   0.427  0.00  0.00     0.050 A 
ATOM     22  C   UNL d   1       0.082  -6.920  -0.221  0.00  0.00     0.008 A 
ATOM     23  C   UNL d   1       0.350  -5.527  -0.341  0.00  0.00     0.021 A 
ENDBRANCH  17  19
ENDBRANCH   3  16
TORSDOF 2
