REMARK  8 active torsions:
REMARK  status: ('A' for Active; 'I' for Inactive)
REMARK    1  A    between atoms: C_2  and  C_1 
REMARK    2  A    between atoms: C_3  and  S_7 
REMARK    3  A    between atoms: C_4  and  C_3 
REMARK    4  A    between atoms: C_6  and  C_3 
REMARK    5  A    between atoms: C_5  and  C_4 
REMARK    6  A    between atoms: C_12  and  C_5 
REMARK    7  A    between atoms: O_22  and  C_6 
REMARK    8  A    between atoms: S_7  and  C_10 
ROOT
ATOM      1  C   UNL d   1      -0.826  -6.331  -2.178  0.00  0.00     0.158 C 
ENDROOT
BRANCH   1   2
ATOM      2  S   UNL d   1      -1.908  -4.870  -2.434  0.00  0.00    -0.096 SA
BRANCH   2   3
ATOM      3  C   UNL d   1      -2.297  -4.920  -4.170  0.00  0.00     0.070 A 
ATOM      4  C   UNL d   1      -3.473  -4.294  -4.571  0.00  0.00     0.038 A 
ATOM      5  C   UNL d   1      -3.747  -4.165  -5.929  0.00  0.00     0.020 A 
ATOM      6  C   UNL d   1      -2.837  -4.665  -6.861  0.00  0.00     0.063 A 
ATOM      7  C   UNL d   1      -1.699  -5.294  -6.367  0.00  0.00     0.105 A 
ATOM      8  N   UNL d   1      -1.398  -5.421  -5.045  0.00  0.00    -0.360 N 
ATOM      9  HN  UNL d   1      -0.538  -5.872  -4.732  1.00  0.00     0.166 HD
BRANCH   6  10
ATOM     10  C   UNL d   1      -3.081  -4.507  -8.332  0.00  0.00     0.418 C 
ATOM     11  F   UNL d   1      -2.051  -4.943  -9.108  0.00  0.00    -0.166 F 
ATOM     12  F   UNL d   1      -3.285  -3.207  -8.685  0.00  0.00    -0.166 F 
ATOM     13  F   UNL d   1      -4.184  -5.182  -8.756  0.00  0.00    -0.166 F 
ENDBRANCH   6  10
ENDBRANCH   2   3
ENDBRANCH   1   2
BRANCH   1  14
ATOM     14  C   UNL d   1      -0.330  -6.338  -0.723  0.00  0.00     0.110 C 
BRANCH  14  15
ATOM     15  C   UNL d   1      -1.425  -6.544   0.317  0.00  0.00     0.161 C 
ATOM     16  O   UNL d   1      -1.751  -7.681   0.648  0.00  0.00    -0.292 OA
BRANCH  15  17
ATOM     17  C   UNL d   1      -2.136  -5.371   0.918  0.00  0.00     0.010 A 
ATOM     18  C   UNL d   1      -3.430  -5.566   1.425  0.00  0.00     0.016 A 
ATOM     19  C   UNL d   1      -4.178  -4.481   1.894  0.00  0.00     0.020 A 
ATOM     20  C   UNL d   1      -3.630  -3.200   1.865  0.00  0.00     0.011 A 
ATOM     21  C   UNL d   1      -2.329  -3.002   1.409  0.00  0.00     0.020 A 
ATOM     22 BR   UNL d   1      -4.661  -1.718   2.422  0.00  0.00    -0.051 Br
ATOM     23  C   UNL d   1      -1.578  -4.087   0.947  0.00  0.00     0.016 A 
ENDBRANCH  15  17
ENDBRANCH  14  15
ENDBRANCH   1  14
BRANCH   1  24
ATOM     24  C   UNL d   1      -1.510  -7.646  -2.540  0.00  0.00     0.154 C 
ATOM     25  O   UNL d   1      -2.694  -7.784  -2.817  0.00  0.00    -0.649 OA
BRANCH  24  26
ATOM     26  O   UNL d   1      -0.660  -8.708  -2.550  0.00  0.00    -0.775 OA
ATOM     27  H   UNL d   1       0.260  -8.524  -2.298  0.00  0.00     0.167 HD
ENDBRANCH  24  26
ENDBRANCH   1  24
TORSDOF 8
