REMARK  2 active torsions:
REMARK  status: ('A' for Active; 'I' for Inactive)
REMARK    1  A    between atoms: C_6  and  C_1 
REMARK    2  A    between atoms: C_8  and  C_2 
ROOT
ATOM      1  C   UNL d   1       1.111  -0.574  -0.003  0.00  0.00     0.134 A 
ATOM      2  C   UNL d   1      -0.355   1.105   0.005  0.00  0.00     0.134 A 
ATOM      3  C   UNL d   1       1.034   0.801  -0.002  0.00  0.00     0.071 A 
ATOM      4  N   UNL d   1      -1.085  -0.030   0.004  0.00  0.00    -0.296 N 
ATOM      5  HN  UNL d   1      -2.101  -0.117   0.006  1.00  0.00     0.187 HD
ATOM      6  N   UNL d   1      -0.176  -1.020  -0.001  0.00  0.00    -0.296 N 
ATOM      7  H   UNL d   1      -0.512  -1.980  -0.000  0.00  0.00     0.187 HD
ENDROOT
BRANCH   1   8
ATOM      8  C   UNL d   1       2.239  -1.517  -0.003  0.00  0.00     0.434 C 
ATOM      9  F   UNL d   1       3.436  -0.883  -0.005  0.00  0.00    -0.165 F 
ATOM     10  F   UNL d   1       2.211  -2.322   1.087  0.00  0.00    -0.165 F 
ATOM     11  F   UNL d   1       2.208  -2.325  -1.090  0.00  0.00    -0.165 F 
ENDBRANCH   1   8
BRANCH   2  12
ATOM     12  C   UNL d   1      -0.969   2.483   0.018  0.00  0.00     0.434 C 
ATOM     13  F   UNL d   1      -0.013   3.455  -0.002  0.00  0.00    -0.165 F 
ATOM     14  F   UNL d   1      -1.766   2.711  -1.059  0.00  0.00    -0.165 F 
ATOM     15  F   UNL d   1      -1.719   2.709   1.129  0.00  0.00    -0.165 F 
ENDBRANCH   2  12
TORSDOF 2
