REMARK  5 active torsions:
REMARK  status: ('A' for Active; 'I' for Inactive)
REMARK    1  A    between atoms: N_4  and  S_1 
REMARK    2  A    between atoms: C_11  and  S_1 
REMARK    3  A    between atoms: C_2  and  N_4 
REMARK    4  A    between atoms: C_8  and  C_3 
REMARK    5  A    between atoms: O_13  and  C_8 
ROOT
ATOM      1  N   UNL d   1       0.857  -0.922  -1.441  0.00  0.00    -0.180 NA
ATOM      2  H   UNL d   1       1.612  -0.586  -0.831  0.00  0.00     0.146 HD
ENDROOT
BRANCH   1   3
ATOM      3  C   UNL d   1       0.956  -0.428  -2.761  0.00  0.00     0.046 A 
ATOM      4  C   UNL d   1       2.213  -0.076  -3.375  0.00  0.00     0.074 A 
ATOM      5  C   UNL d   1       2.019   0.456  -4.646  0.00  0.00    -0.003 A 
ATOM      6  C   UNL d   1       3.010   1.009  -5.621  0.00  0.00     0.057 C 
ATOM      7  S   UNL d   1       0.365   0.427  -5.103  0.00  0.00    -0.104 SA
ATOM      8  C   UNL d   1      -0.109  -0.248  -3.612  0.00  0.00     0.075 A 
BRANCH   4   9
ATOM      9  C   UNL d   1       3.510  -0.291  -2.733  0.00  0.00     0.295 C 
ATOM     10  O   UNL d   1       3.633  -0.353  -1.516  0.00  0.00    -0.259 OA
BRANCH   9  11
ATOM     11  O   UNL d   1       4.514  -0.485  -3.629  0.00  0.00    -0.322 OA
ATOM     12  C   UNL d   1       5.811  -0.787  -3.113  0.00  0.00     0.213 C 
ENDBRANCH   9  11
ENDBRANCH   4   9
ENDBRANCH   1   3
BRANCH   1  13
ATOM     13  S   UNL d   1       0.751  -2.622  -1.255  0.00  0.00     0.245 S 
ATOM     14  O   UNL d   1       1.612  -3.252  -2.235  0.00  0.00    -0.206 OA
ATOM     15  O   UNL d   1      -0.644  -2.982  -1.125  0.00  0.00    -0.206 OA
BRANCH  13  16
ATOM     16  C   UNL d   1       1.532  -2.818   0.332  0.00  0.00     0.074 A 
ATOM     17  C   UNL d   1       0.755  -2.844   1.493  0.00  0.00     0.025 A 
ATOM     18  C   UNL d   1       1.383  -2.973   2.733  0.00  0.00     0.002 A 
ATOM     19  C   UNL d   1       2.774  -3.079   2.807  0.00  0.00     0.000 A 
ATOM     20  C   UNL d   1       3.544  -3.068   1.644  0.00  0.00     0.002 A 
ATOM     21  C   UNL d   1       2.924  -2.945   0.401  0.00  0.00     0.025 A 
ENDBRANCH  13  16
ENDBRANCH   1  13
TORSDOF 5
