REMARK  5 active torsions:
REMARK  status: ('A' for Active; 'I' for Inactive)
REMARK    1  A    between atoms: C_7  and  C_1 
REMARK    2  A    between atoms: O_9  and  C_3 
REMARK    3  A    between atoms: C_11  and  N_4 
REMARK    4  A    between atoms: C_15  and  C_11 
REMARK    5  A    between atoms: C_16  and  C_15 
ROOT
ATOM      1  C   UNL d   1       2.466  -0.724  -0.061  0.00  0.00     0.111 A 
ATOM      2  C   UNL d   1       2.445   0.768  -0.090  0.00  0.00     0.264 A 
ATOM      3  C   UNL d   1       1.302  -1.399  -0.005  0.00  0.00     0.097 A 
ATOM      4  N   UNL d   1       1.215   1.423  -0.020  0.00  0.00    -0.313 N 
ATOM      5  C   UNL d   1       0.010  -0.698   0.016  0.00  0.00     0.025 A 
ATOM      6  C   UNL d   1      -0.021   0.704   0.021  0.00  0.00     0.050 A 
ATOM      7  O   UNL d   1       3.506   1.392  -0.187  0.00  0.00    -0.267 OA
ATOM      8  C   UNL d   1      -1.197  -1.422   0.010  0.00  0.00     0.016 A 
ATOM      9  C   UNL d   1      -1.271   1.348   0.031  0.00  0.00     0.031 A 
ATOM     10  C   UNL d   1      -2.426  -0.770  -0.010  0.00  0.00     0.001 A 
ATOM     11  C   UNL d   1      -2.463   0.616   0.002  0.00  0.00     0.002 A 
ENDROOT
BRANCH   4  12
ATOM     12  C   UNL d   1       1.230   2.893   0.026  0.00  0.00     0.132 C 
BRANCH  12  13
ATOM     13  C   UNL d   1       1.258   3.418   1.466  0.00  0.00     0.020 C 
BRANCH  13  14
ATOM     14  C   UNL d   1       1.228   4.947   1.519  0.00  0.00    -0.003 C 
ATOM     15  C   UNL d   1       1.291   5.452   2.954  0.00  0.00     0.005 C 
ENDBRANCH  13  14
ENDBRANCH  12  13
ENDBRANCH   4  12
BRANCH   1  16
ATOM     16  C   UNL d   1       3.731  -1.535  -0.109  0.00  0.00     0.164 C 
ATOM     17  O   UNL d   1       3.670  -2.736  -0.407  0.00  0.00    -0.292 OA
ATOM     18  C   UNL d   1       5.076  -0.949   0.230  0.00  0.00     0.097 C 
ENDBRANCH   1  16
BRANCH   3  19
ATOM     19  O   UNL d   1       1.197  -2.785   0.020  0.00  0.00    -0.359 OA
ATOM     20  H   UNL d   1       2.088  -3.170  -0.145  0.00  0.00     0.217 HD
ENDBRANCH   3  19
TORSDOF 5
