REMARK  2 active torsions:
REMARK  status: ('A' for Active; 'I' for Inactive)
REMARK    1  A    between atoms: C_10  and  C_4 
REMARK    2  A    between atoms: O_20  and  C_12 
ROOT
ATOM      1  C   UNL d   1      -1.103  -0.791   0.004  0.00  0.00     0.189 C 
ATOM      2  C   UNL d   1      -2.077   0.347   0.041  0.00  0.00    -0.006 C 
ATOM      3  C   UNL d   1       0.342  -0.418   0.010  0.00  0.00     0.023 A 
ATOM      4  C   UNL d   1      -3.285   0.142  -0.510  0.00  0.00     0.022 C 
ATOM      5  C   UNL d   1       0.737   0.932  -0.029  0.00  0.00    -0.043 A 
ATOM      6  C   UNL d   1       1.303  -1.441   0.020  0.00  0.00     0.052 A 
ATOM      7  C   UNL d   1      -1.563   1.613   0.659  0.00  0.00     0.047 C 
ATOM      8  O   UNL d   1      -1.460  -1.960  -0.046  0.00  0.00    -0.287 OA
ATOM      9  C   UNL d   1      -0.283   2.041  -0.049  0.00  0.00     0.044 C 
ATOM     10  C   UNL d   1       2.100   1.239  -0.096  0.00  0.00     0.011 A 
ATOM     11  C   UNL d   1       2.661  -1.124  -0.023  0.00  0.00     0.069 A 
ATOM     12  C   UNL d   1       3.050   0.216  -0.089  0.00  0.00     0.037 A 
ENDROOT
BRANCH   4  13
ATOM     13  C   UNL d   1      -4.319   1.170  -0.639  0.00  0.00    -0.035 A 
ATOM     14  C   UNL d   1      -4.336   2.006  -1.762  0.00  0.00     0.013 A 
ATOM     15  C   UNL d   1      -5.341   2.965  -1.910  0.00  0.00     0.024 A 
ATOM     16  C   UNL d   1      -6.327   3.088  -0.932  0.00  0.00     0.034 A 
ATOM     17  C   UNL d   1      -6.306   2.273   0.199  0.00  0.00     0.024 A 
ATOM     18 CL   UNL d   1      -7.584   4.245  -1.129  0.00  0.00    -0.084 Cl
ATOM     19  C   UNL d   1      -5.299   1.315   0.347  0.00  0.00     0.013 A 
ENDBRANCH   4  13
BRANCH  11  20
ATOM     20  O   UNL d   1       3.697  -2.016  -0.017  0.00  0.00    -0.356 OA
ATOM     21  C   UNL d   1       3.357  -3.395   0.060  0.00  0.00     0.210 C 
ENDBRANCH  11  20
TORSDOF 2
