REMARK  7 active torsions:
REMARK  status: ('A' for Active; 'I' for Inactive)
REMARK    1  A    between atoms: N_2  and  C_1 
REMARK    2  A    between atoms: N_3  and  C_1 
REMARK    3  A    between atoms: C_4  and  N_2 
REMARK    4  A    between atoms: C_5  and  N_3 
REMARK    5  A    between atoms: C_8  and  C_4 
REMARK    6  A    between atoms: C_9  and  C_4 
REMARK    7  A    between atoms: O_10  and  C_7 
ROOT
ATOM      1  N   UNL d   1       0.563   1.160  -0.356  0.00  0.00    -0.354 N 
ATOM      2  H   UNL d   1      -0.308   0.845  -0.753  0.00  0.00     0.163 HD
ENDROOT
BRANCH   1   3
ATOM      3  C   UNL d   1       0.714   1.005   1.009  0.00  0.00     0.173 C 
ATOM      4  S   UNL d   1       2.121   1.373   1.845  0.00  0.00    -0.041 SA
BRANCH   3   5
ATOM      5  N   UNL d   1      -0.446   0.486   1.573  0.00  0.00    -0.331 N 
ATOM      6  H   UNL d   1      -0.931  -0.220   1.037  0.00  0.00     0.168 HD
BRANCH   5   7
ATOM      7  C   UNL d   1      -0.960   0.713   2.873  0.00  0.00     0.068 A 
ATOM      8  C   UNL d   1      -1.837  -0.211   3.463  0.00  0.00     0.095 A 
ATOM      9  C   UNL d   1      -2.431   0.064   4.700  0.00  0.00     0.039 A 
ATOM     10  C   UNL d   1      -2.157   1.264   5.362  0.00  0.00     0.003 A 
ATOM     11  C   UNL d   1      -1.307   2.197   4.779  0.00  0.00     0.002 A 
ATOM     12  C   UNL d   1      -0.718   1.922   3.542  0.00  0.00     0.032 A 
BRANCH   8  13
ATOM     13  O   UNL d   1      -2.239  -1.377   2.856  0.00  0.00    -0.354 OA
ATOM     14  C   UNL d   1      -1.175  -2.295   2.604  0.00  0.00     0.210 C 
ENDBRANCH   8  13
ENDBRANCH   5   7
ENDBRANCH   3   5
ENDBRANCH   1   3
BRANCH   1  15
ATOM     15  C   UNL d   1       1.242   2.186  -1.167  0.00  0.00     0.150 C 
BRANCH  15  16
ATOM     16  C   UNL d   1       2.124   1.518  -2.214  0.00  0.00    -0.031 A 
ATOM     17  C   UNL d   1       1.582   0.685  -3.209  0.00  0.00     0.009 A 
ATOM     18  C   UNL d   1       2.397   0.157  -4.214  0.00  0.00     0.001 A 
ATOM     19  C   UNL d   1       3.761   0.443  -4.233  0.00  0.00     0.000 A 
ATOM     20  C   UNL d   1       4.315   1.249  -3.242  0.00  0.00     0.001 A 
ATOM     21  C   UNL d   1       3.505   1.781  -2.239  0.00  0.00     0.009 A 
ENDBRANCH  15  16
BRANCH  15  22
ATOM     22  C   UNL d   1       0.219   3.187  -1.731  0.00  0.00    -0.031 A 
ATOM     23  C   UNL d   1      -0.932   3.528  -0.995  0.00  0.00     0.009 A 
ATOM     24  C   UNL d   1      -1.865   4.444  -1.492  0.00  0.00     0.001 A 
ATOM     25  C   UNL d   1      -1.651   5.056  -2.722  0.00  0.00     0.000 A 
ATOM     26  C   UNL d   1      -0.498   4.769  -3.447  0.00  0.00     0.001 A 
ATOM     27  C   UNL d   1       0.434   3.852  -2.951  0.00  0.00     0.009 A 
ENDBRANCH  15  22
ENDBRANCH   1  15
TORSDOF 7
