REMARK  4 active torsions:
REMARK  status: ('A' for Active; 'I' for Inactive)
REMARK    1  A    between atoms: C_6  and  N_1 
REMARK    2  A    between atoms: N_9  and  C_6 
REMARK    3  A    between atoms: C_12  and  C_7 
REMARK    4  A    between atoms: C_18  and  N_9 
ROOT
ATOM      1  N   UNL d   1      -3.080   1.033  -0.290  0.00  0.00    -0.257 N 
ATOM      2  N   UNL d   1      -1.761   1.446  -0.469  0.00  0.00    -0.298 N 
ATOM      3  HN  UNL d   1      -1.442   2.332  -0.862  1.00  0.00     0.187 HD
ATOM      4  C   UNL d   1      -1.019   0.466  -0.030  0.00  0.00     0.043 C 
ATOM      5  C   UNL d   1      -1.757  -0.685   0.605  0.00  0.00     0.068 C 
ATOM      6  C   UNL d   1      -3.163  -0.400   0.076  0.00  0.00     0.153 C 
ATOM      7  C   UNL d   1       0.441   0.412  -0.045  0.00  0.00    -0.005 A 
ATOM      8  C   UNL d   1      -1.109  -2.057   0.411  0.00  0.00     0.018 C 
ATOM      9  C   UNL d   1       1.021  -0.854  -0.209  0.00  0.00    -0.046 A 
ATOM     10  C   UNL d   1       0.142  -2.049  -0.475  0.00  0.00     0.040 C 
ATOM     11  C   UNL d   1       1.217   1.553   0.131  0.00  0.00     0.014 A 
ATOM     12  C   UNL d   1       2.415  -0.961  -0.212  0.00  0.00     0.008 A 
ATOM     13  C   UNL d   1       2.607   1.430   0.153  0.00  0.00     0.001 A 
ATOM     14  C   UNL d   1       3.204   0.177  -0.019  0.00  0.00     0.001 A 
ENDROOT
BRANCH   1  15
ATOM     15  C   UNL d   1      -4.150   1.933  -0.359  0.00  0.00     0.189 C 
ATOM     16  S   UNL d   1      -5.656   1.636   0.330  0.00  0.00    -0.039 SA
BRANCH  15  17
ATOM     17  N   UNL d   1      -3.822   3.101  -1.028  0.00  0.00    -0.361 N 
ATOM     18  H   UNL d   1      -2.922   3.049  -1.493  0.00  0.00     0.162 HD
BRANCH  17  19
ATOM     19  C   UNL d   1      -4.553   4.373  -0.999  0.00  0.00     0.083 C 
ATOM     20  C   UNL d   1      -5.395   4.619  -2.263  0.00  0.00     0.025 C 
ATOM     21  C   UNL d   1      -4.640   5.275  -3.417  0.00  0.00     0.002 C 
ATOM     22  C   UNL d   1      -3.868   6.503  -2.954  0.00  0.00     0.000 C 
ATOM     23  C   UNL d   1      -2.878   6.118  -1.865  0.00  0.00     0.002 C 
ATOM     24  C   UNL d   1      -3.593   5.520  -0.658  0.00  0.00     0.025 C 
ENDBRANCH  17  19
ENDBRANCH  15  17
ENDBRANCH   1  15
BRANCH   6  25
ATOM     25  C   UNL d   1      -3.615  -1.229  -1.119  0.00  0.00    -0.033 A 
ATOM     26  C   UNL d   1      -4.791  -1.993  -1.038  0.00  0.00     0.012 A 
ATOM     27  C   UNL d   1      -5.203  -2.778  -2.110  0.00  0.00     0.043 A 
ATOM     28  C   UNL d   1      -4.438  -2.814  -3.269  0.00  0.00     0.116 A 
ATOM     29  C   UNL d   1      -3.283  -2.052  -3.385  0.00  0.00     0.043 A 
ATOM     30  F   UNL d   1      -4.819  -3.592  -4.291  0.00  0.00    -0.206 F 
ATOM     31  C   UNL d   1      -2.882  -1.249  -2.322  0.00  0.00     0.012 A 
ENDBRANCH   6  25
TORSDOF 4
