REMARK  2 active torsions:
REMARK  status: ('A' for Active; 'I' for Inactive)
REMARK    1  A    between atoms: N_8  and  C_1 
REMARK       I    between atoms: C_4  and  N_7 
REMARK       I    between atoms: N_9  and  C_4 
REMARK    2  A    between atoms: C_12  and  N_9 
ROOT
ATOM      1  C   UNL d   1      -3.424   2.008   3.688  0.00  0.00     0.323 C 
ATOM      2  N   UNL d   1      -2.310   2.336   2.913  0.00  0.00    -0.331 N 
ATOM      3  N   UNL d   1       0.044   2.541   1.098  0.00  0.00     0.105 N 
ATOM      4  N   UNL d   1      -4.470   2.899   3.634  0.00  0.00    -0.309 N 
ATOM      5  O   UNL d   1      -3.421   0.997   4.393  0.00  0.00    -0.247 OA
ATOM      6  C   UNL d   1      -1.261   1.317   2.890  0.00  0.00     0.158 C 
ATOM      7  C   UNL d   1      -2.321   3.293   1.802  0.00  0.00     0.158 C 
ATOM      8  C   UNL d   1      -0.940   3.623   1.177  0.00  0.00     0.293 C 
ATOM      9  C   UNL d   1       0.085   1.841   2.395  0.00  0.00     0.293 C 
ATOM     10  H   UNL d   1      -4.484   3.550   2.870  0.00  0.00     0.170 HD
ENDROOT
BRANCH   3  11
ATOM     11  C   UNL d   1       0.025   1.711  -0.126  0.00  0.00     0.290 C 
ATOM     12  C   UNL d   1      -1.266   0.967  -0.458  0.00  0.00    -0.009 C 
ATOM     13  C   UNL d   1      -1.089  -0.422  -0.285  0.00  0.00    -0.017 C 
ATOM     14  C   UNL d   1      -2.473   1.471  -0.925  0.00  0.00     0.010 C 
ATOM     15  C   UNL d   1      -2.166  -1.289  -0.385  0.00  0.00     0.013 C 
ATOM     16  C   UNL d   1       0.313  -0.687  -0.040  0.00  0.00    -0.017 A 
ATOM     17  C   UNL d   1      -3.413  -0.764  -0.729  0.00  0.00     0.001 C 
ATOM     18  C   UNL d   1      -3.558   0.600  -1.034  0.00  0.00     0.001 C 
ATOM     19  C   UNL d   1       1.011   0.542  -0.025  0.00  0.00    -0.009 A 
ATOM     20  C   UNL d   1       0.992  -1.879   0.138  0.00  0.00     0.013 A 
ATOM     21  C   UNL d   1       2.387   0.592   0.159  0.00  0.00     0.010 A 
ATOM     22  C   UNL d   1       3.066  -0.612   0.348  0.00  0.00     0.001 A 
ATOM     23  C   UNL d   1       2.373  -1.836   0.340  0.00  0.00     0.001 A 
ENDBRANCH   3  11
BRANCH   4  24
ATOM     24  C   UNL d   1      -5.531   3.006   4.562  0.00  0.00     0.038 A 
ATOM     25  C   UNL d   1      -5.618   2.246   5.730  0.00  0.00     0.054 A 
ATOM     26  C   UNL d   1      -6.591   2.526   6.693  0.00  0.00     0.042 A 
ATOM     27 CL   UNL d   1      -6.601   1.569   8.134  0.00  0.00    -0.084 Cl
ATOM     28  C   UNL d   1      -7.502   3.573   6.506  0.00  0.00    -0.040 A 
ATOM     29  C   UNL d   1      -7.470   4.275   5.293  0.00  0.00     0.011 A 
ATOM     30  C   UNL d   1      -8.472   3.976   7.579  0.00  0.00     0.050 C 
ATOM     31  C   UNL d   1      -6.494   3.993   4.331  0.00  0.00     0.030 A 
ENDBRANCH   4  24
TORSDOF 2
