REMARK  7 active torsions:
REMARK  status: ('A' for Active; 'I' for Inactive)
REMARK    1  A    between atoms: C_9  and  C_1 
REMARK    2  A    between atoms: N_13  and  C_4 
REMARK    3  A    between atoms: S_12  and  C_8 
REMARK    4  A    between atoms: C_11  and  C_9 
REMARK    5  A    between atoms: C_16  and  S_12 
REMARK    6  A    between atoms: C_18  and  C_16 
REMARK    7  A    between atoms: O_20  and  C_17 
ROOT
ATOM      1  C   UNL d   1      -2.086   0.345  -0.004  0.00  0.00     0.085 A 
ATOM      2  C   UNL d   1       0.250   0.773  -0.126  0.00  0.00     0.051 A 
ATOM      3  C   UNL d   1       0.101  -0.609  -0.070  0.00  0.00     0.095 A 
ATOM      4  C   UNL d   1      -1.067   1.322  -0.109  0.00  0.00     0.062 A 
ATOM      5  S   UNL d   1      -1.496  -1.328  -0.068  0.00  0.00    -0.065 SA
ATOM      6  N   UNL d   1       1.123  -1.412  -0.040  0.00  0.00    -0.319 N 
ATOM      7  HN  UNL d   1       1.118  -2.430   0.030  1.00  0.00     0.175 HD
ATOM      8  C   UNL d   1       1.560   1.123  -0.240  0.00  0.00     0.073 A 
ATOM      9  S   UNL d   1       2.462  -0.383  -0.144  0.00  0.00    -0.006 SA
ENDROOT
BRANCH   1  10
ATOM     10  C   UNL d   1      -3.531   0.607   0.038  0.00  0.00     0.201 C 
ATOM     11  O   UNL d   1      -4.016   1.667  -0.363  0.00  0.00    -0.286 OA
BRANCH  10  12
ATOM     12  C   UNL d   1      -4.491  -0.396   0.589  0.00  0.00     0.018 A 
ATOM     13  C   UNL d   1      -4.183  -1.159   1.725  0.00  0.00     0.052 A 
ATOM     14  C   UNL d   1      -5.075  -2.126   2.185  0.00  0.00     0.069 A 
ATOM     15  C   UNL d   1      -6.311  -2.276   1.551  0.00  0.00     0.037 A 
ATOM     16  C   UNL d   1      -6.650  -1.481   0.455  0.00  0.00     0.004 A 
ATOM     17  C   UNL d   1      -5.739  -0.542  -0.029  0.00  0.00     0.015 A 
BRANCH  14  18
ATOM     18  O   UNL d   1      -4.859  -2.969   3.240  0.00  0.00    -0.356 OA
ATOM     19  C   UNL d   1      -3.528  -3.033   3.744  0.00  0.00     0.210 C 
ENDBRANCH  14  18
ENDBRANCH  10  12
ENDBRANCH   1  10
BRANCH   4  20
ATOM     20  N   UNL d   1      -1.341   2.648  -0.163  0.00  0.00    -0.397 N 
ATOM     21  H   UNL d   1      -0.715   3.275  -0.660  0.00  0.00     0.156 HD
ATOM     22  H   UNL d   1      -2.320   2.931  -0.295  0.00  0.00     0.156 HD
ENDBRANCH   4  20
BRANCH   8  23
ATOM     23  S   UNL d   1       2.375   2.620  -0.593  0.00  0.00    -0.116 SA
BRANCH  23  24
ATOM     24  C   UNL d   1       1.854   3.760   0.718  0.00  0.00     0.118 C 
BRANCH  24  25
ATOM     25  C   UNL d   1       2.713   5.008   0.704  0.00  0.00    -0.049 A 
ATOM     26  C   UNL d   1       2.655   5.903  -0.380  0.00  0.00     0.008 A 
ATOM     27  C   UNL d   1       3.475   7.033  -0.416  0.00  0.00     0.001 A 
ATOM     28  C   UNL d   1       4.351   7.290   0.634  0.00  0.00     0.000 A 
ATOM     29  C   UNL d   1       4.411   6.419   1.721  0.00  0.00     0.001 A 
ATOM     30  C   UNL d   1       3.597   5.281   1.753  0.00  0.00     0.008 A 
ENDBRANCH  24  25
ENDBRANCH  23  24
ENDBRANCH   8  23
TORSDOF 7
