REMARK  2 active torsions:
REMARK  status: ('A' for Active; 'I' for Inactive)
REMARK    1  A    between atoms: C_4  and  C_1 
REMARK    2  A    between atoms: C_7  and  C_2 
ROOT
ATOM      1  C   UNL d   1       0.808  -1.269   0.158  0.00  0.00     0.101 A 
ATOM      2  C   UNL d   1      -0.576  -1.294   0.007  0.00  0.00     0.023 A 
ATOM      3  S   UNL d   1       1.407   0.348   0.203  0.00  0.00    -0.094 SA
ATOM      4  C   UNL d   1      -1.117   0.039  -0.028  0.00  0.00     0.044 A 
ATOM      5  C   UNL d   1      -0.154   1.011   0.082  0.00  0.00     0.080 A 
ATOM      6  N   UNL d   1      -2.425   0.339  -0.161  0.00  0.00    -0.398 N 
ATOM      7  H   UNL d   1      -3.095  -0.368  -0.455  0.00  0.00     0.156 HD
ATOM      8  H   UNL d   1      -2.744   1.287  -0.332  0.00  0.00     0.156 HD
ENDROOT
BRANCH   2   9
ATOM      9  C   UNL d   1      -1.343  -2.542  -0.062  0.00  0.00    -0.022 A 
ATOM     10  C   UNL d   1      -2.424  -2.742   0.808  0.00  0.00     0.012 A 
ATOM     11  C   UNL d   1      -3.186  -3.911   0.743  0.00  0.00     0.001 A 
ATOM     12  C   UNL d   1      -2.862  -4.900  -0.183  0.00  0.00     0.000 A 
ATOM     13  C   UNL d   1      -1.786  -4.715  -1.051  0.00  0.00     0.001 A 
ATOM     14  C   UNL d   1      -1.038  -3.535  -1.002  0.00  0.00     0.012 A 
ENDBRANCH   2   9
BRANCH   1  15
ATOM     15  C   UNL d   1       1.802  -2.381   0.257  0.00  0.00     0.424 C 
ATOM     16  F   UNL d   1       1.286  -3.519   0.789  0.00  0.00    -0.166 F 
ATOM     17  F   UNL d   1       2.295  -2.711  -0.965  0.00  0.00    -0.166 F 
ATOM     18  F   UNL d   1       2.874  -2.066   1.036  0.00  0.00    -0.166 F 
ENDBRANCH   1  15
TORSDOF 2
