REMARK  3 active torsions:
REMARK  status: ('A' for Active; 'I' for Inactive)
REMARK    1  A    between atoms: N_2  and  C_1 
REMARK    2  A    between atoms: N_9  and  C_3 
REMARK    3  A    between atoms: N_7  and  C_5 
ROOT
ATOM      1  C   UNL d   1       1.727  -1.225   0.111  0.00  0.00     0.131 A 
ATOM      2  C   UNL d   1       2.458  -0.026   0.010  0.00  0.00     0.066 A 
ATOM      3  C   UNL d   1       0.321  -1.264   0.148  0.00  0.00     0.064 A 
ATOM      4  C   UNL d   1       0.251   1.142   0.024  0.00  0.00     0.062 A 
ATOM      5  C   UNL d   1       1.666   1.144  -0.014  0.00  0.00     0.063 A 
ATOM      6  C   UNL d   1      -0.421  -0.084   0.091  0.00  0.00     0.063 A 
ATOM      7 CL   UNL d   1      -2.130  -0.295  -0.055  0.00  0.00    -0.082 Cl
ENDROOT
BRANCH   2   8
ATOM      8  N   UNL d   1       3.831   0.079  -0.109  0.00  0.00    -0.375 N 
ATOM      9  C   UNL d   1       4.470   1.235  -0.778  0.00  0.00     0.149 C 
ATOM     10  C   UNL d   1       5.684   0.747  -1.586  0.00  0.00     0.187 C 
ATOM     11  O   UNL d   1       6.616   0.030  -0.762  0.00  0.00    -0.388 OA
ATOM     12  C   UNL d   1       5.976  -1.111  -0.159  0.00  0.00     0.187 C 
ATOM     13  C   UNL d   1       4.792  -0.676   0.722  0.00  0.00     0.149 C 
ENDBRANCH   2   8
BRANCH   1  14
ATOM     14  N   UNL d   1       2.369  -2.526   0.090  0.00  0.00    -0.113 N 
ATOM     15  O   UNL d   1       3.042  -2.827  -0.905  0.00  0.00    -0.532 OA
ATOM     16  O   UNL d   1       2.163  -3.264   1.064  0.00  0.00    -0.532 OA
ENDBRANCH   1  14
BRANCH   4  17
ATOM     17  N   UNL d   1      -0.415   2.403  -0.018  0.00  0.00    -0.331 N 
ATOM     18  C   UNL d   1      -1.612   2.741   0.581  0.00  0.00     0.096 A 
ATOM     19  C   UNL d   1      -1.920   4.051   0.282  0.00  0.00     0.019 A 
ATOM     20  C   UNL d   1      -0.858   4.565  -0.484  0.00  0.00     0.019 A 
ATOM     21  C   UNL d   1       0.066   3.551  -0.629  0.00  0.00     0.096 A 
ENDBRANCH   4  17
TORSDOF 3
