REMARK  2 active torsions:
REMARK  status: ('A' for Active; 'I' for Inactive)
REMARK    1  A    between atoms: O_11  and  C_6 
REMARK    2  A    between atoms: O_12  and  C_8 
ROOT
ATOM      1  N   UNL d   1       1.120   1.030  -0.021  0.00  0.00    -0.326 N 
ATOM      2  C   UNL d   1      -0.214   0.655  -0.013  0.00  0.00     0.044 A 
ATOM      3  C   UNL d   1       1.955  -0.081  -0.022  0.00  0.00     0.226 A 
ATOM      4  C   UNL d   1      -0.310  -0.729  -0.008  0.00  0.00    -0.020 A 
ATOM      5  C   UNL d   1      -1.320   1.479  -0.011  0.00  0.00     0.069 A 
ATOM      6  C   UNL d   1      -2.593   0.883  -0.003  0.00  0.00     0.103 A 
ATOM      7  C   UNL d   1      -1.548  -1.337   0.003  0.00  0.00     0.049 A 
ATOM      8  C   UNL d   1      -2.705  -0.535   0.006  0.00  0.00     0.102 A 
ATOM      9  C   UNL d   1       1.063  -1.329  -0.017  0.00  0.00     0.144 A 
ATOM     10  O   UNL d   1       3.175  -0.054  -0.026  0.00  0.00    -0.273 OA
ATOM     11  H   UNL d   1       1.471   1.975  -0.024  0.00  0.00     0.169 HD
ENDROOT
BRANCH   6  12
ATOM     12  O   UNL d   1      -3.750   1.618  -0.006  0.00  0.00    -0.353 OA
ATOM     13  C   UNL d   1      -3.659   3.036  -0.018  0.00  0.00     0.210 C 
ENDBRANCH   6  12
BRANCH   8  14
ATOM     14  O   UNL d   1      -3.848  -1.297   0.019  0.00  0.00    -0.353 OA
ATOM     15  C   UNL d   1      -5.111  -0.649   0.027  0.00  0.00     0.210 C 
ENDBRANCH   8  14
TORSDOF 2
