REMARK  4 active torsions:
REMARK  status: ('A' for Active; 'I' for Inactive)
REMARK       I    between atoms: C_4  and  N_1 
REMARK    1  A    between atoms: C_6  and  C_2 
REMARK    2  A    between atoms: C_14  and  C_4 
REMARK    3  A    between atoms: C_8  and  C_12 
REMARK    4  A    between atoms: C_18  and  C_9 
ROOT
ATOM      1  C   UNL d   1       2.091  -2.496   0.036  0.00  0.00     0.058 C 
ATOM      2  C   UNL d   1       1.636  -1.335   0.562  0.00  0.00     0.035 C 
ATOM      3  C   UNL d   1       1.165  -3.444  -0.514  0.00  0.00     0.100 C 
ATOM      4  N   UNL d   1       0.413  -4.221  -0.947  0.00  0.00    -0.191 NA
ENDROOT
BRANCH   1   5
ATOM      5  C   UNL d   1       3.499  -2.816  -0.020  0.00  0.00     0.013 A 
ATOM      6  C   UNL d   1       4.495  -1.878  -0.167  0.00  0.00     0.114 A 
ATOM      7  N   UNL d   1       5.743  -2.486  -0.138  0.00  0.00    -0.291 N 
ATOM      8  C   UNL d   1       6.946  -1.733  -0.137  0.00  0.00     0.232 C 
ATOM      9  C   UNL d   1       5.537  -3.869  -0.106  0.00  0.00     0.053 A 
ATOM     10  O   UNL d   1       6.849  -0.564  -0.525  0.00  0.00    -0.272 OA
ATOM     11  C   UNL d   1       4.149  -4.090   0.012  0.00  0.00     0.004 A 
ATOM     12  C   UNL d   1       6.424  -4.958  -0.221  0.00  0.00     0.031 A 
ATOM     13  C   UNL d   1       3.682  -5.423   0.108  0.00  0.00     0.014 A 
ATOM     14  C   UNL d   1       4.570  -6.495   0.017  0.00  0.00     0.001 A 
ATOM     15  C   UNL d   1       5.923  -6.262  -0.163  0.00  0.00     0.002 A 
BRANCH   8  16
ATOM     16  C   UNL d   1       8.260  -2.326   0.439  0.00  0.00     0.079 C 
ATOM     17  C   UNL d   1       8.310  -2.545   1.976  0.00  0.00     0.014 C 
ATOM     18  C   UNL d   1       9.710  -1.917   2.005  0.00  0.00     0.002 C 
ATOM     19  C   UNL d   1       9.439  -1.325   0.618  0.00  0.00     0.014 C 
ENDBRANCH   8  16
ENDBRANCH   1   5
BRANCH   2  20
ATOM     20  C   UNL d   1       0.224  -0.941   0.617  0.00  0.00    -0.035 A 
ATOM     21  C   UNL d   1      -0.574  -1.324   1.698  0.00  0.00     0.012 A 
ATOM     22  C   UNL d   1      -1.939  -1.024   1.705  0.00  0.00     0.017 A 
ATOM     23  C   UNL d   1      -2.525  -0.339   0.630  0.00  0.00     0.048 A 
ATOM     24  C   UNL d   1      -1.708   0.078  -0.433  0.00  0.00     0.017 A 
ATOM     25  C   UNL d   1      -0.343  -0.221  -0.440  0.00  0.00     0.012 A 
BRANCH  23  26
ATOM     26  C   UNL d   1      -4.010  -0.074   0.587  0.00  0.00     0.417 C 
ATOM     27  F   UNL d   1      -4.687  -0.582   1.655  0.00  0.00    -0.166 F 
ATOM     28  F   UNL d   1      -4.303   1.256   0.558  0.00  0.00    -0.166 F 
ATOM     29  F   UNL d   1      -4.602  -0.610  -0.517  0.00  0.00    -0.166 F 
ENDBRANCH  23  26
ENDBRANCH   2  20
TORSDOF 4
