REMARK  5 active torsions:
REMARK  status: ('A' for Active; 'I' for Inactive)
REMARK    1  A    between atoms: C_2  and  S_1 
REMARK    2  A    between atoms: N_5  and  S_1 
REMARK    3  A    between atoms: N_3  and  C_11 
REMARK    4  A    between atoms: C_20  and  N_5 
REMARK    5  A    between atoms: C_22  and  C_20 
ROOT
ATOM      1  C   UNL d   1       0.947   0.785   2.504  0.00  0.00     0.170 C 
ENDROOT
BRANCH   1   2
ATOM      2  N   UNL d   1      -0.058  -0.245   2.242  0.00  0.00    -0.311 N 
ATOM      3  H   UNL d   1      -0.734  -0.480   2.964  0.00  0.00     0.172 HD
BRANCH   2   4
ATOM      4  S   UNL d   1       0.316  -1.542   1.261  0.00  0.00     0.260 S 
ATOM      5  O   UNL d   1      -0.843  -2.401   1.206  0.00  0.00    -0.200 OA
ATOM      6  O   UNL d   1       0.913  -1.004   0.054  0.00  0.00    -0.200 OA
BRANCH   4   7
ATOM      7  C   UNL d   1       1.584  -2.416   2.142  0.00  0.00     0.101 A 
ATOM      8  C   UNL d   1       1.363  -2.942   3.420  0.00  0.00     0.060 A 
ATOM      9  C   UNL d   1       2.381  -3.663   4.053  0.00  0.00     0.067 A 
ATOM     10 CL   UNL d   1      -0.105  -2.735   4.306  0.00  0.00    -0.083 Cl
ATOM     11  C   UNL d   1       3.599  -3.853   3.409  0.00  0.00     0.118 A 
ATOM     12  C   UNL d   1       3.828  -3.334   2.142  0.00  0.00     0.044 A 
ATOM     13  F   UNL d   1       4.567  -4.546   4.022  0.00  0.00    -0.206 F 
ATOM     14  C   UNL d   1       2.819  -2.615   1.502  0.00  0.00     0.030 A 
ENDBRANCH   4   7
ENDBRANCH   2   4
ENDBRANCH   1   2
BRANCH   1  15
ATOM     15  C   UNL d   1       0.455   1.892   3.413  0.00  0.00    -0.040 A 
ATOM     16  C   UNL d   1      -0.403   1.643   4.486  0.00  0.00     0.011 A 
ATOM     17  C   UNL d   1      -0.834   2.683   5.319  0.00  0.00     0.030 A 
ATOM     18  C   UNL d   1      -0.402   4.006   5.159  0.00  0.00     0.030 A 
ATOM     19  C   UNL d   1       0.485   4.237   4.099  0.00  0.00     0.030 A 
ATOM     20  C   UNL d   1       0.911   3.206   3.241  0.00  0.00     0.011 A 
BRANCH  18  21
ATOM     21  N   UNL d   1      -0.878   5.010   5.977  0.00  0.00    -0.378 N 
ATOM     22  C   UNL d   1      -0.838   6.435   5.615  0.00  0.00     0.153 C 
ATOM     23  C   UNL d   1      -2.160   7.120   6.049  0.00  0.00     0.291 C 
ATOM     24  N   UNL d   1      -2.480   6.923   7.483  0.00  0.00     0.087 N 
ATOM     25  C   UNL d   1      -2.502   5.473   7.779  0.00  0.00     0.291 C 
ATOM     26  C   UNL d   1      -3.766   7.533   7.814  0.00  0.00     0.310 C 
ATOM     27  C   UNL d   1      -1.173   4.781   7.403  0.00  0.00     0.153 C 
ENDBRANCH  18  21
ENDBRANCH   1  15
TORSDOF 5
