REMARK  6 active torsions:
REMARK  status: ('A' for Active; 'I' for Inactive)
REMARK    1  A    between atoms: C_10  and  C_1 
REMARK    2  A    between atoms: N_14  and  C_3 
REMARK    3  A    between atoms: C_12  and  C_6 
REMARK    4  A    between atoms: C_18  and  C_9 
REMARK    5  A    between atoms: O_20  and  C_10 
REMARK    6  A    between atoms: C_23  and  O_20 
ROOT
ATOM      1  C   UNL d   1       2.374   0.042   0.121  0.00  0.00     0.179 A 
ATOM      2  C   UNL d   1       0.267   0.875   0.092  0.00  0.00     0.056 A 
ATOM      3  C   UNL d   1       1.647   1.213   0.213  0.00  0.00     0.082 A 
ATOM      4  C   UNL d   1       0.247  -0.521   0.053  0.00  0.00     0.162 A 
ATOM      5  O   UNL d   1       1.513  -1.018   0.063  0.00  0.00    -0.284 OA
ATOM      6  C   UNL d   1      -0.987   1.519   0.010  0.00  0.00    -0.000 A 
ATOM      7  N   UNL d   1      -0.824  -1.327  -0.012  0.00  0.00    -0.335 N 
ATOM      8  HN  UNL d   1      -0.746  -2.344  -0.018  1.00  0.00     0.168 HD
ATOM      9  C   UNL d   1      -2.011  -0.689  -0.069  0.00  0.00     0.045 A 
ATOM     10  C   UNL d   1      -2.129   0.702  -0.055  0.00  0.00     0.044 A 
ENDROOT
BRANCH   9  11
ATOM     11  C   UNL d   1      -3.197  -1.572  -0.159  0.00  0.00    -0.009 A 
ATOM     12  C   UNL d   1      -3.230  -2.810   0.512  0.00  0.00     0.013 A 
ATOM     13  C   UNL d   1      -4.344  -3.653   0.434  0.00  0.00     0.001 A 
ATOM     14  C   UNL d   1      -5.450  -3.278  -0.323  0.00  0.00     0.000 A 
ATOM     15  C   UNL d   1      -5.442  -2.064  -1.003  0.00  0.00     0.001 A 
ATOM     16  C   UNL d   1      -4.327  -1.223  -0.922  0.00  0.00     0.013 A 
ENDBRANCH   9  11
BRANCH   6  17
ATOM     17  C   UNL d   1      -1.123   2.978  -0.002  0.00  0.00     0.016 C 
ATOM     18  S   UNL d   1      -0.208   3.951  -1.085  0.00  0.00    -0.101 SA
ATOM     19  C   UNL d   1      -0.847   5.399  -0.447  0.00  0.00     0.050 C 
ATOM     20  C   UNL d   1      -1.848   5.157   0.465  0.00  0.00     0.008 C 
ATOM     21  C   UNL d   1      -2.019   3.762   0.706  0.00  0.00     0.020 C 
ENDBRANCH   6  17
BRANCH   1  22
ATOM     22  C   UNL d   1       3.797  -0.175   0.008  0.00  0.00     0.319 C 
ATOM     23  O   UNL d   1       4.642   0.713  -0.025  0.00  0.00    -0.257 OA
BRANCH  22  24
ATOM     24  O   UNL d   1       4.056  -1.501  -0.170  0.00  0.00    -0.316 OA
BRANCH  24  25
ATOM     25  C   UNL d   1       5.360  -1.813  -0.682  0.00  0.00     0.175 C 
ATOM     26  C   UNL d   1       5.287  -1.823  -2.199  0.00  0.00     0.034 C 
ENDBRANCH  24  25
ENDBRANCH  22  24
ENDBRANCH   1  22
BRANCH   3  27
ATOM     27  N   UNL d   1       2.187   2.441   0.357  0.00  0.00    -0.396 N 
ATOM     28  H   UNL d   1       1.635   3.285   0.215  0.00  0.00     0.156 HD
ATOM     29  H   UNL d   1       3.191   2.592   0.248  0.00  0.00     0.156 HD
ENDBRANCH   3  27
TORSDOF 6
