REMARK  7 active torsions:
REMARK  status: ('A' for Active; 'I' for Inactive)
REMARK    1  A    between atoms: C_2  and  C_1 
REMARK       I    between atoms: N_3  and  C_2 
REMARK    2  A    between atoms: N_5  and  N_3 
REMARK       I    between atoms: C_4  and  N_5 
REMARK    3  A    between atoms: C_10  and  C_4 
REMARK    4  A    between atoms: N_9  and  C_6 
REMARK    5  A    between atoms: C_13  and  C_10 
REMARK    6  A    between atoms: O_19  and  C_11 
REMARK    7  A    between atoms: C_12  and  C_13 
ROOT
ATOM      1  C   UNL d   1      -1.726   5.161   0.076  0.00  0.00     0.236 C 
ATOM      2  N   UNL d   1      -1.115   3.933  -0.053  0.00  0.00    -0.267 N 
ATOM      3  O   UNL d   1      -1.106   6.197   0.306  0.00  0.00    -0.272 OA
ATOM      4  H   UNL d   1      -1.585   3.117  -0.446  0.00  0.00     0.190 HD
ENDROOT
BRANCH   2   5
ATOM      5  N   UNL d   1       0.284   3.857  -0.003  0.00  0.00    -0.263 N 
ATOM      6  C   UNL d   1       0.873   2.686  -0.452  0.00  0.00     0.271 C 
ATOM      7  O   UNL d   1       0.170   1.770  -0.895  0.00  0.00    -0.266 OA
ATOM      8  H   UNL d   1       0.766   4.680   0.346  0.00  0.00     0.190 HD
BRANCH   6   9
ATOM      9  C   UNL d   1       2.366   2.541  -0.351  0.00  0.00     0.054 A 
ATOM     10  C   UNL d   1       2.998   1.405  -0.915  0.00  0.00     0.021 A 
ATOM     11  C   UNL d   1       4.388   1.260  -0.784  0.00  0.00     0.024 A 
ATOM     12  C   UNL d   1       5.143   2.182  -0.061  0.00  0.00     0.002 A 
ATOM     13  C   UNL d   1       4.523   3.288   0.510  0.00  0.00     0.001 A 
ATOM     14  C   UNL d   1       3.143   3.468   0.366  0.00  0.00     0.019 A 
BRANCH  10  15
ATOM     15  N   UNL d   1       2.336   0.524  -1.795  0.00  0.00    -0.302 NA
ATOM     16  H   UNL d   1       1.319   0.549  -1.661  0.00  0.00     0.124 HD
ATOM     17  H   UNL d   1       2.701  -0.422  -1.796  0.00  0.00     0.124 HD
ENDBRANCH  10  15
ENDBRANCH   6   9
ENDBRANCH   2   5
BRANCH   1  18
ATOM     18  C   UNL d   1      -3.235   5.112  -0.034  0.00  0.00     0.109 C 
BRANCH  18  19
ATOM     19  C   UNL d   1      -3.826   4.450   1.208  0.00  0.00     0.048 C 
BRANCH  19  20
ATOM     20  C   UNL d   1      -5.327   4.307   1.147  0.00  0.00    -0.058 A 
ATOM     21  C   UNL d   1      -5.907   3.175   0.556  0.00  0.00     0.010 A 
ATOM     22  C   UNL d   1      -7.295   3.018   0.540  0.00  0.00     0.037 A 
ATOM     23  C   UNL d   1      -8.105   3.994   1.105  0.00  0.00     0.065 A 
ATOM     24  C   UNL d   1      -7.552   5.133   1.679  0.00  0.00     0.037 A 
ATOM     25  C   UNL d   1      -6.162   5.289   1.696  0.00  0.00     0.010 A 
BRANCH  23  26
ATOM     26  O   UNL d   1      -9.454   3.792   1.080  0.00  0.00    -0.361 OA
ATOM     27  H   UNL d   1      -9.886   4.537   1.529  0.00  0.00     0.217 HD
ENDBRANCH  23  26
ENDBRANCH  19  20
ENDBRANCH  18  19
ENDBRANCH   1  18
TORSDOF 7
