REMARK  0 active torsions:
REMARK  status: ('A' for Active; 'I' for Inactive)
ROOT
ATOM      1  C   UNL d   1       1.224   0.867   0.002  0.00  0.00     0.110 A 
ATOM      2  C   UNL d   1       0.739  -0.404   0.001  0.00  0.00     0.071 A 
ATOM      3  C   UNL d   1      -0.686  -0.492  -0.001  0.00  0.00     0.032 A 
ATOM      4  S   UNL d   1      -0.014   2.021   0.001  0.00  0.00    -0.063 SA
ATOM      5  C   UNL d   1      -1.215   0.800  -0.001  0.00  0.00     0.088 A 
ATOM      6  C   UNL d   1       2.616   1.175   0.003  0.00  0.00     0.308 A 
ATOM      7  N   UNL d   1       1.602  -1.495   0.001  0.00  0.00    -0.338 N 
ATOM      8  HN  UNL d   1       1.276  -2.462  -0.000  1.00  0.00     0.168 HD
ATOM      9  O   UNL d   1       3.417   0.064   0.004  0.00  0.00    -0.261 OA
ATOM     10  N   UNL d   1      -2.520   1.143  -0.002  0.00  0.00    -0.354 N 
ATOM     11  HN  UNL d   1      -2.835   2.113  -0.002  1.00  0.00     0.166 HD
ATOM     12  C   UNL d   1       2.857  -1.174   0.003  0.00  0.00     0.124 A 
ATOM     13  C   UNL d   1      -1.610  -1.567  -0.003  0.00  0.00    -0.045 A 
ATOM     14  C   UNL d   1      -2.974  -1.232  -0.004  0.00  0.00     0.032 A 
ATOM     15  C   UNL d   1      -3.373   0.101  -0.004  0.00  0.00     0.006 A 
ATOM     16  O   UNL d   1       3.107   2.299   0.003  0.00  0.00    -0.258 OA
ATOM     17  C   UNL d   1      -1.246  -3.026  -0.005  0.00  0.00     0.049 C 
ATOM     18  C   UNL d   1       3.902  -2.250   0.003  0.00  0.00     0.098 C 
ATOM     19  C   UNL d   1      -4.842   0.420  -0.007  0.00  0.00     0.068 C 
ENDROOT
TORSDOF 0
