REMARK  1 active torsions:
REMARK  status: ('A' for Active; 'I' for Inactive)
REMARK    1  A    between atoms: S_12  and  C_7 
ROOT
ATOM      1  C   UNL d   1       1.827  -0.645   0.025  0.00  0.00     0.199 A 
ATOM      2  O   UNL d   1       0.853  -0.765  -0.938  0.00  0.00    -0.265 OA
ATOM      3  N   UNL d   1       1.509   0.259   0.935  0.00  0.00    -0.275 N 
ATOM      4  HN  UNL d   1       2.067   0.527   1.746  1.00  0.00     0.189 HD
ATOM      5  N   UNL d   1       0.279   0.770   0.579  0.00  0.00    -0.272 N 
ATOM      6  HN  UNL d   1      -0.249   1.489   1.072  1.00  0.00     0.189 HD
ATOM      7  C   UNL d   1      -0.078   0.147  -0.523  0.00  0.00     0.201 A 
ATOM      8  C   UNL d   1       3.037  -1.409   0.044  0.00  0.00     0.127 A 
ATOM      9  O   UNL d   1       3.358  -2.336  -0.917  0.00  0.00    -0.318 OA
ATOM     10  C   UNL d   1       4.061  -1.371   0.978  0.00  0.00     0.043 A 
ATOM     11  C   UNL d   1       4.564  -2.869  -0.590  0.00  0.00     0.142 A 
ATOM     12  C   UNL d   1       5.039  -2.308   0.570  0.00  0.00     0.027 A 
ENDROOT
BRANCH   7  13
ATOM     13  S   UNL d   1      -1.564   0.432  -1.367  0.00  0.00    -0.098 SA
ATOM     14  H   UNL d   1      -1.405  -0.517  -2.297  0.00  0.00     0.110 HD
ENDBRANCH   7  13
TORSDOF 1
