REMARK  8 active torsions:
REMARK  status: ('A' for Active; 'I' for Inactive)
REMARK    1  A    between atoms: C_15  and  N_1 
REMARK    2  A    between atoms: S_16  and  C_2 
REMARK    3  A    between atoms: O_26  and  C_5 
REMARK    4  A    between atoms: C_17  and  C_10 
REMARK    5  A    between atoms: C_13  and  C_20 
REMARK    6  A    between atoms: C_21  and  C_15 
REMARK    7  A    between atoms: C_20  and  S_16 
REMARK    8  A    between atoms: C_18  and  C_19 
ROOT
ATOM      1  S   UNL d   1       2.854  -1.505   1.276  0.00  0.00    -0.084 SA
ENDROOT
BRANCH   1   2
ATOM      2  C   UNL d   1       3.716  -0.244   0.461  0.00  0.00     0.165 A 
ATOM      3  N   UNL d   1       4.162   0.930   1.029  0.00  0.00    -0.282 N 
ATOM      4  C   UNL d   1       4.807   1.570  -0.018  0.00  0.00     0.241 A 
ATOM      5  N   UNL d   1       4.718   0.861  -1.113  0.00  0.00    -0.263 N 
ATOM      6  N   UNL d   1       4.013  -0.273  -0.818  0.00  0.00    -0.277 N 
ATOM      7  HN  UNL d   1       5.104   1.110  -2.024  1.00  0.00     0.190 HD
ATOM      8  HN  UNL d   1       3.763  -1.011  -1.475  1.00  0.00     0.189 HD
BRANCH   3   9
ATOM      9  C   UNL d   1       4.161   1.407   2.408  0.00  0.00     0.124 C 
ATOM     10  C   UNL d   1       4.308   0.367   3.524  0.00  0.00     0.038 C 
BRANCH   9  11
ATOM     11  C   UNL d   1       3.001   2.346   2.726  0.00  0.00    -0.035 A 
ATOM     12  C   UNL d   1       1.664   1.924   2.657  0.00  0.00     0.009 A 
ATOM     13  C   UNL d   1       0.631   2.732   3.143  0.00  0.00     0.001 A 
ATOM     14  C   UNL d   1       0.915   3.979   3.693  0.00  0.00     0.000 A 
ATOM     15  C   UNL d   1       2.231   4.431   3.738  0.00  0.00     0.001 A 
ATOM     16  C   UNL d   1       3.266   3.623   3.258  0.00  0.00     0.009 A 
ENDBRANCH   9  11
ENDBRANCH   3   9
BRANCH   4  17
ATOM     17  O   UNL d   1       5.463   2.722   0.036  0.00  0.00    -0.331 OA
ATOM     18  H   UNL d   1       5.197   3.220   0.818  0.00  0.00     0.221 HD
ENDBRANCH   4  17
ENDBRANCH   1   2
BRANCH   1  19
ATOM     19  C   UNL d   1       2.918  -2.858   0.061  0.00  0.00     0.169 C 
BRANCH  19  20
ATOM     20  C   UNL d   1       4.178  -3.641   0.098  0.00  0.00     0.158 A 
ATOM     21  N   UNL d   1       5.431  -3.270   0.255  0.00  0.00    -0.322 N 
ATOM     22  C   UNL d   1       6.122  -4.453   0.102  0.00  0.00     0.137 A 
ATOM     23  HN  UNL d   1       5.799  -2.337   0.444  1.00  0.00     0.169 HD
ATOM     24  N   UNL d   1       5.330  -5.521  -0.096  0.00  0.00    -0.242 N 
ATOM     25  O   UNL d   1       4.046  -4.984  -0.108  0.00  0.00    -0.222 OA
ATOM     26  HN  UNL d   1       5.606  -6.497  -0.210  1.00  0.00     0.196 HD
BRANCH  22  27
ATOM     27  C   UNL d   1       7.579  -4.515   0.131  0.00  0.00     0.010 A 
ATOM     28  C   UNL d   1       8.331  -3.353   0.329  0.00  0.00     0.016 A 
ATOM     29  C   UNL d   1       9.730  -3.399   0.331  0.00  0.00     0.009 A 
ATOM     30  C   UNL d   1      10.428  -4.603   0.125  0.00  0.00    -0.051 A 
ATOM     31  C   UNL d   1       9.660  -5.764  -0.062  0.00  0.00     0.009 A 
ATOM     32  C   UNL d   1       8.260  -5.721  -0.059  0.00  0.00     0.016 A 
BRANCH  30  33
ATOM     33  C   UNL d   1      11.966  -4.612   0.082  0.00  0.00    -0.024 C 
ATOM     34  C   UNL d   1      12.566  -6.010  -0.190  0.00  0.00     0.019 C 
ATOM     35  C   UNL d   1      12.456  -3.676  -1.045  0.00  0.00     0.019 C 
ATOM     36  C   UNL d   1      12.540  -4.121   1.428  0.00  0.00     0.019 C 
ENDBRANCH  30  33
ENDBRANCH  22  27
ENDBRANCH  19  20
ENDBRANCH   1  19
TORSDOF 8
