REMARK  5 active torsions:
REMARK  status: ('A' for Active; 'I' for Inactive)
REMARK    1  A    between atoms: N_5  and  C_1 
REMARK    2  A    between atoms: C_9  and  C_4 
REMARK       I    between atoms: C_8  and  N_5 
REMARK    3  A    between atoms: C_12  and  C_8 
REMARK    4  A    between atoms: C_10  and  C_9 
REMARK    5  A    between atoms: O_14  and  C_10 
ROOT
ATOM      1  C   UNL d   1      -1.626   0.197  -0.049  0.00  0.00     0.152 A 
ATOM      2  N   UNL d   1      -1.377  -1.083   0.006  0.00  0.00    -0.339 N 
ATOM      3  HN  UNL d   1      -2.087  -1.813   0.070  1.00  0.00     0.168 HD
ATOM      4  C   UNL d   1      -0.004  -1.313  -0.035  0.00  0.00     0.033 A 
ATOM      5  S   UNL d   1      -0.273   1.220  -0.166  0.00  0.00    -0.057 SA
ATOM      6  C   UNL d   1       0.762  -0.152  -0.066  0.00  0.00     0.005 A 
ATOM      7  C   UNL d   1       2.239   0.037  -0.033  0.00  0.00     0.058 C 
ENDROOT
BRANCH   1   8
ATOM      8  N   UNL d   1      -2.823   0.860  -0.018  0.00  0.00    -0.303 N 
ATOM      9  C   UNL d   1      -3.998   0.223   0.309  0.00  0.00     0.257 C 
ATOM     10  O   UNL d   1      -4.123  -0.943   0.667  0.00  0.00    -0.267 OA
ATOM     11  H   UNL d   1      -2.781   1.860  -0.128  0.00  0.00     0.171 HD
BRANCH   9  12
ATOM     12  C   UNL d   1      -5.228   1.073   0.272  0.00  0.00     0.032 A 
ATOM     13  C   UNL d   1      -5.385   2.141  -0.623  0.00  0.00     0.017 A 
ATOM     14  C   UNL d   1      -6.597   2.840  -0.669  0.00  0.00     0.001 A 
ATOM     15  C   UNL d   1      -7.650   2.481   0.174  0.00  0.00     0.000 A 
ATOM     16  C   UNL d   1      -7.494   1.430   1.075  0.00  0.00     0.001 A 
ATOM     17  C   UNL d   1      -6.288   0.730   1.124  0.00  0.00     0.017 A 
ENDBRANCH   9  12
ENDBRANCH   1   8
BRANCH   4  18
ATOM     18  C   UNL d   1       0.447  -2.742   0.044  0.00  0.00     0.169 C 
BRANCH  18  19
ATOM     19  C   UNL d   1       1.266  -3.201  -1.143  0.00  0.00     0.264 C 
ATOM     20  O   UNL d   1       1.619  -2.517  -2.091  0.00  0.00    -0.265 OA
BRANCH  19  21
ATOM     21  O   UNL d   1       1.594  -4.522  -0.985  0.00  0.00    -0.326 OA
ATOM     22  C   UNL d   1       2.387  -5.060  -2.046  0.00  0.00     0.213 C 
ENDBRANCH  19  21
ENDBRANCH  18  19
ENDBRANCH   4  18
TORSDOF 5
