REMARK  4 active torsions:
REMARK  status: ('A' for Active; 'I' for Inactive)
REMARK    1  A    between atoms: C_3  and  C_1 
REMARK    2  A    between atoms: C_15  and  N_2 
REMARK    3  A    between atoms: C_16  and  C_8 
REMARK    4  A    between atoms: N_17  and  C_11 
ROOT
ATOM      1  C   UNL d   1      -0.481  -2.753   0.037  0.00  0.00     0.054 A 
ATOM      2  C   UNL d   1      -1.114  -3.366  -1.044  0.00  0.00     0.060 A 
ATOM      3  N   UNL d   1      -1.328  -4.712  -1.069  0.00  0.00    -0.331 N 
ATOM      4  HN  UNL d   1      -1.766  -5.154  -1.878  1.00  0.00     0.168 HD
ATOM      5  C   UNL d   1      -0.955  -5.440  -0.018  0.00  0.00     0.155 A 
ATOM      6  C   UNL d   1      -0.156  -3.618   1.074  0.00  0.00     0.108 A 
ATOM      7  N   UNL d   1      -0.354  -4.949   1.061  0.00  0.00    -0.342 N 
ATOM      8  HN  UNL d   1      -0.060  -5.546   1.834  1.00  0.00     0.167 HD
ENDROOT
BRANCH   1   9
ATOM      9  C   UNL d   1      -0.223  -1.322   0.163  0.00  0.00     0.152 A 
ATOM     10  N   UNL d   1       0.927  -0.706   0.659  0.00  0.00    -0.224 N 
ATOM     11  N   UNL d   1       0.670   0.615   0.802  0.00  0.00     0.001 NA
ATOM     12  N   UNL d   1      -0.534   0.813   0.299  0.00  0.00    -0.007 NA
ATOM     13  N   UNL d   1      -1.105  -0.367  -0.077  0.00  0.00    -0.269 N 
ATOM     14  HN  UNL d   1      -2.038  -0.490  -0.471  1.00  0.00     0.185 HD
BRANCH  10  15
ATOM     15  C   UNL d   1       2.180  -1.245   1.043  0.00  0.00     0.056 A 
ATOM     16  C   UNL d   1       2.704  -2.392   0.433  0.00  0.00     0.031 A 
ATOM     17  C   UNL d   1       3.888  -2.954   0.915  0.00  0.00     0.002 A 
ATOM     18  C   UNL d   1       4.551  -2.374   1.995  0.00  0.00     0.000 A 
ATOM     19  C   UNL d   1       4.056  -1.207   2.575  0.00  0.00     0.002 A 
ATOM     20  C   UNL d   1       2.883  -0.629   2.089  0.00  0.00     0.031 A 
ENDBRANCH  10  15
ENDBRANCH   1   9
BRANCH   2  21
ATOM     21  C   UNL d   1      -1.665  -2.662  -2.233  0.00  0.00    -0.008 A 
ATOM     22  C   UNL d   1      -1.028  -1.573  -2.853  0.00  0.00     0.014 A 
ATOM     23  C   UNL d   1      -1.636  -0.864  -3.896  0.00  0.00     0.001 A 
ATOM     24  C   UNL d   1      -2.875  -1.264  -4.383  0.00  0.00     0.000 A 
ATOM     25  C   UNL d   1      -3.499  -2.381  -3.840  0.00  0.00     0.001 A 
ATOM     26  C   UNL d   1      -2.901  -3.069  -2.779  0.00  0.00     0.014 A 
ENDBRANCH   2  21
BRANCH   5  27
ATOM     27  N   UNL d   1      -1.177  -6.798  -0.055  0.00  0.00    -0.274 NA
ATOM     28  H   UNL d   1      -0.530  -7.279   0.551  0.00  0.00     0.127 HD
ATOM     29  H   UNL d   1      -1.258  -7.118  -1.012  0.00  0.00     0.127 HD
ENDBRANCH   5  27
TORSDOF 4
