REMARK  5 active torsions:
REMARK  status: ('A' for Active; 'I' for Inactive)
REMARK    1  A    between atoms: N_7  and  C_1 
REMARK    2  A    between atoms: N_9  and  C_1 
REMARK    3  A    between atoms: C_2  and  N_8 
REMARK    4  A    between atoms: C_3  and  C_4 
REMARK    5  A    between atoms: C_12  and  N_9 
ROOT
ATOM      1  N   UNL d   1       0.402   0.358  -1.366  0.00  0.00    -0.355 N 
ATOM      2  N   UNL d   1      -0.664   0.656  -3.981  0.00  0.00    -0.363 N 
ATOM      3  C   UNL d   1       0.816  -0.534  -2.469  0.00  0.00     0.145 C 
ATOM      4  C   UNL d   1      -0.902   1.016  -1.572  0.00  0.00     0.145 C 
ATOM      5  C   UNL d   1       0.713   0.159  -3.838  0.00  0.00     0.144 C 
ATOM      6  C   UNL d   1      -0.993   1.676  -2.968  0.00  0.00     0.144 C 
ENDROOT
BRANCH   1   7
ATOM      7  C   UNL d   1       0.919   0.126  -0.103  0.00  0.00     0.174 C 
ATOM      8  S   UNL d   1       0.019  -0.295   1.242  0.00  0.00    -0.041 SA
BRANCH   7   9
ATOM      9  N   UNL d   1       2.290   0.145  -0.006  0.00  0.00    -0.331 N 
ATOM     10  H   UNL d   1       2.682  -0.380   0.767  0.00  0.00     0.168 HD
BRANCH   9  11
ATOM     11  C   UNL d   1       3.168   0.942  -0.771  0.00  0.00     0.073 A 
ATOM     12  C   UNL d   1       2.790   2.168  -1.355  0.00  0.00     0.145 A 
ATOM     13  C   UNL d   1       3.664   2.886  -2.162  0.00  0.00     0.086 A 
ATOM     14  F   UNL d   1       1.593   2.720  -1.101  0.00  0.00    -0.204 F 
ATOM     15  C   UNL d   1       4.936   2.382  -2.376  0.00  0.00     0.119 A 
ATOM     16  C   UNL d   1       5.353   1.200  -1.773  0.00  0.00     0.044 A 
ATOM     17  F   UNL d   1       5.780   3.050  -3.174  0.00  0.00    -0.206 F 
ATOM     18  C   UNL d   1       4.477   0.488  -0.951  0.00  0.00     0.036 A 
ENDBRANCH   9  11
ENDBRANCH   7   9
ENDBRANCH   1   7
BRANCH   2  19
ATOM     19  C   UNL d   1      -1.162   0.839  -5.263  0.00  0.00     0.125 A 
ATOM     20  N   UNL d   1      -1.539   2.090  -5.628  0.00  0.00    -0.350 N 
ATOM     21  C   UNL d   1      -2.151   2.267  -6.825  0.00  0.00     0.106 A 
ATOM     22  HN  UNL d   1      -1.365   2.885  -5.013  1.00  0.00     0.166 HD
ATOM     23  C   UNL d   1      -2.424   1.243  -7.716  0.00  0.00     0.065 A 
ATOM     24  C   UNL d   1      -2.016  -0.039  -7.356  0.00  0.00     0.045 A 
ATOM     25  C   UNL d   1      -1.392  -0.251  -6.127  0.00  0.00     0.078 A 
ATOM     26 CL   UNL d   1      -1.066  -1.897  -5.694  0.00  0.00    -0.080 Cl
BRANCH  23  27
ATOM     27  C   UNL d   1      -3.172   1.523  -8.980  0.00  0.00     0.418 C 
ATOM     28  F   UNL d   1      -3.333   0.422  -9.767  0.00  0.00    -0.166 F 
ATOM     29  F   UNL d   1      -4.425   1.999  -8.746  0.00  0.00    -0.166 F 
ATOM     30  F   UNL d   1      -2.556   2.452  -9.760  0.00  0.00    -0.166 F 
ENDBRANCH  23  27
ENDBRANCH   2  19
TORSDOF 5
