REMARK  4 active torsions:
REMARK  status: ('A' for Active; 'I' for Inactive)
REMARK    1  A    between atoms: N_5  and  C_1 
REMARK       I    between atoms: C_7  and  N_5 
REMARK    2  A    between atoms: C_9  and  C_7 
REMARK    3  A    between atoms: C_10  and  C_11 
REMARK    4  A    between atoms: O_14  and  C_10 
ROOT
ATOM      1  N   UNL d   1      -2.226  -1.552   0.158  0.00  0.00    -0.308 N 
ATOM      2  C   UNL d   1      -2.275  -2.910   0.079  0.00  0.00     0.247 C 
ATOM      3  O   UNL d   1      -3.367  -3.471   0.197  0.00  0.00    -0.268 OA
ATOM      4  H   UNL d   1      -3.114  -1.136   0.403  0.00  0.00     0.170 HD
ENDROOT
BRANCH   1   5
ATOM      5  C   UNL d   1      -1.225  -0.674  -0.201  0.00  0.00     0.130 A 
ATOM      6  N   UNL d   1      -0.076  -0.991  -0.803  0.00  0.00    -0.245 N 
ATOM      7  O   UNL d   1       0.566   0.200  -1.073  0.00  0.00    -0.241 OA
ATOM      8  HN  UNL d   1       0.260  -1.929  -1.020  1.00  0.00     0.196 HD
ATOM      9  C   UNL d   1      -0.197   1.233  -0.634  0.00  0.00     0.076 A 
ATOM     10  C   UNL d   1      -1.325   0.730  -0.035  0.00  0.00     0.084 A 
ATOM     11  C   UNL d   1       0.310   2.588  -0.908  0.00  0.00     0.079 C 
ENDBRANCH   1   5
BRANCH   2  12
ATOM     12  C   UNL d   1      -1.036  -3.709  -0.052  0.00  0.00     0.081 C 
ATOM     13  C   UNL d   1      -1.129  -5.049  -0.088  0.00  0.00     0.086 C 
BRANCH  13  14
ATOM     14  C   UNL d   1       0.109  -5.846  -0.110  0.00  0.00     0.165 C 
ATOM     15  O   UNL d   1       1.232  -5.382  -0.075  0.00  0.00    -0.647 OA
BRANCH  14  16
ATOM     16  O   UNL d   1      -0.144  -7.170  -0.153  0.00  0.00    -0.773 OA
ATOM     17  H   UNL d   1      -1.085  -7.418  -0.177  0.00  0.00     0.167 HD
ENDBRANCH  14  16
ENDBRANCH  13  14
ENDBRANCH   2  12
TORSDOF 4
