REMARK  6 active torsions:
REMARK  status: ('A' for Active; 'I' for Inactive)
REMARK    1  A    between atoms: C_10  and  C_1 
REMARK    2  A    between atoms: N_15  and  C_3 
REMARK    3  A    between atoms: C_12  and  C_6 
REMARK    4  A    between atoms: C_14  and  C_9 
REMARK    5  A    between atoms: O_22  and  C_10 
REMARK    6  A    between atoms: C_27  and  O_22 
ROOT
ATOM      1  C   UNL d   1       2.358   0.076   0.063  0.00  0.00     0.179 A 
ATOM      2  C   UNL d   1       0.246   0.895   0.084  0.00  0.00     0.058 A 
ATOM      3  C   UNL d   1       1.627   1.244   0.128  0.00  0.00     0.082 A 
ATOM      4  C   UNL d   1       0.234  -0.499   0.036  0.00  0.00     0.162 A 
ATOM      5  O   UNL d   1       1.503  -0.989   0.031  0.00  0.00    -0.284 OA
ATOM      6  C   UNL d   1      -1.011   1.534   0.082  0.00  0.00     0.017 A 
ATOM      7  N   UNL d   1      -0.838  -1.311  -0.016  0.00  0.00    -0.335 N 
ATOM      8  HN  UNL d   1      -0.757  -2.327  -0.038  1.00  0.00     0.168 HD
ATOM      9  C   UNL d   1      -2.027  -0.674  -0.036  0.00  0.00     0.045 A 
ATOM     10  C   UNL d   1      -2.149   0.715   0.028  0.00  0.00     0.045 A 
ENDROOT
BRANCH   9  11
ATOM     11  C   UNL d   1      -3.214  -1.554  -0.140  0.00  0.00    -0.009 A 
ATOM     12  C   UNL d   1      -3.245  -2.807   0.501  0.00  0.00     0.015 A 
ATOM     13  C   UNL d   1      -4.361  -3.648   0.407  0.00  0.00     0.024 A 
ATOM     14  C   UNL d   1      -5.466  -3.249  -0.339  0.00  0.00     0.034 A 
ATOM     15  C   UNL d   1      -5.464  -2.020  -0.989  0.00  0.00     0.024 A 
ATOM     16 CL   UNL d   1      -6.836  -4.282  -0.466  0.00  0.00    -0.084 Cl
ATOM     17  C   UNL d   1      -4.346  -1.183  -0.892  0.00  0.00     0.015 A 
ENDBRANCH   9  11
BRANCH   6  18
ATOM     18  C   UNL d   1      -1.145   2.981   0.155  0.00  0.00     0.086 A 
ATOM     19  O   UNL d   1      -0.183   3.736  -0.455  0.00  0.00    -0.322 OA
ATOM     20  C   UNL d   1      -0.506   5.042  -0.262  0.00  0.00     0.142 A 
ATOM     21  C   UNL d   1      -1.681   5.146   0.439  0.00  0.00     0.027 A 
ATOM     22  C   UNL d   1      -2.104   3.818   0.693  0.00  0.00     0.040 A 
ENDBRANCH   6  18
BRANCH   1  23
ATOM     23  C   UNL d   1       3.780  -0.132  -0.048  0.00  0.00     0.319 C 
ATOM     24  O   UNL d   1       4.619   0.761  -0.139  0.00  0.00    -0.257 OA
BRANCH  23  25
ATOM     25  O   UNL d   1       4.059  -1.463  -0.143  0.00  0.00    -0.316 OA
BRANCH  25  26
ATOM     26  C   UNL d   1       5.352  -1.782  -0.671  0.00  0.00     0.175 C 
ATOM     27  C   UNL d   1       5.254  -1.812  -2.185  0.00  0.00     0.034 C 
ENDBRANCH  25  26
ENDBRANCH  23  25
ENDBRANCH   1  23
BRANCH   3  28
ATOM     28  N   UNL d   1       2.154   2.485   0.183  0.00  0.00    -0.396 N 
ATOM     29  H   UNL d   1       1.569   3.291  -0.037  0.00  0.00     0.156 HD
ATOM     30  H   UNL d   1       3.144   2.644  -0.005  0.00  0.00     0.156 HD
ENDBRANCH   3  28
TORSDOF 6
