REMARK  6 active torsions:
REMARK  status: ('A' for Active; 'I' for Inactive)
REMARK    1  A    between atoms: N_2  and  C_1 
REMARK    2  A    between atoms: S_4  and  C_1 
REMARK    3  A    between atoms: C_3  and  C_5 
REMARK    4  A    between atoms: O_11  and  C_3 
REMARK    5  A    between atoms: C_9  and  S_4 
REMARK    6  A    between atoms: C_10  and  C_9 
ROOT
ATOM      1  C   UNL d   1      -4.255   3.227  -2.054  0.00  0.00     0.040 A 
ATOM      2  C   UNL d   1      -3.550   2.221  -1.364  0.00  0.00     0.025 A 
ATOM      3  C   UNL d   1      -2.192   1.957  -1.650  0.00  0.00    -0.048 A 
ATOM      4  C   UNL d   1      -3.599   3.977  -3.032  0.00  0.00     0.017 A 
ATOM      5  C   UNL d   1      -2.264   3.729  -3.327  0.00  0.00     0.002 A 
ATOM      6  C   UNL d   1      -1.570   2.730  -2.645  0.00  0.00     0.008 A 
ENDROOT
BRANCH   3   7
ATOM      7  C   UNL d   1      -1.481   0.862  -0.866  0.00  0.00     0.120 C 
BRANCH   7   8
ATOM      8  S   UNL d   1       0.268   0.603  -1.289  0.00  0.00    -0.096 SA
BRANCH   8   9
ATOM      9  C   UNL d   1       0.703  -0.644  -0.128  0.00  0.00     0.137 C 
ATOM     10  S   UNL d   1       1.029  -0.216   1.464  0.00  0.00    -0.053 SA
BRANCH   9  11
ATOM     11  N   UNL d   1       0.819  -1.927  -0.652  0.00  0.00    -0.367 N 
ATOM     12  C   UNL d   1       1.217  -3.105   0.114  0.00  0.00     0.124 C 
ATOM     13  C   UNL d   1       2.039  -3.906  -0.878  0.00  0.00     0.021 C 
ATOM     14  C   UNL d   1       1.278  -3.703  -2.180  0.00  0.00     0.021 C 
ATOM     15  C   UNL d   1       0.741  -2.278  -2.074  0.00  0.00     0.124 C 
ENDBRANCH   9  11
ENDBRANCH   8   9
ENDBRANCH   7   8
ENDBRANCH   3   7
BRANCH   1  16
ATOM     16  C   UNL d   1      -5.684   3.543  -1.799  0.00  0.00     0.292 C 
ATOM     17  O   UNL d   1      -6.285   4.431  -2.385  0.00  0.00    -0.259 OA
BRANCH  16  18
ATOM     18  O   UNL d   1      -6.215   2.726  -0.856  0.00  0.00    -0.323 OA
ATOM     19  C   UNL d   1      -7.597   2.984  -0.598  0.00  0.00     0.213 C 
ENDBRANCH  16  18
ENDBRANCH   1  16
TORSDOF 6
