REMARK  4 active torsions:
REMARK  status: ('A' for Active; 'I' for Inactive)
REMARK    1  A    between atoms: C_12  and  C_4 
REMARK    2  A    between atoms: C_10  and  C_6 
REMARK       I    between atoms: N_15  and  C_12 
REMARK    3  A    between atoms: N_13  and  N_15 
REMARK    4  A    between atoms: C_22  and  C_21 
ROOT
ATOM      1  N   UNL d   1      -0.299  -0.533   0.003  0.00  0.00    -0.314 N 
ATOM      2  N   UNL d   1      -1.648   1.252  -0.067  0.00  0.00    -0.335 N 
ATOM      3  HN  UNL d   1      -1.993   2.211  -0.107  1.00  0.00     0.168 HD
ATOM      4  C   UNL d   1      -2.405   0.090  -0.007  0.00  0.00     0.120 A 
ATOM      5  C   UNL d   1      -0.386   0.854  -0.063  0.00  0.00     0.134 A 
ATOM      6  C   UNL d   1       2.073  -0.589   0.005  0.00  0.00     0.065 A 
ATOM      7  C   UNL d   1      -1.576  -1.014   0.031  0.00  0.00     0.133 A 
ATOM      8  C   UNL d   1       0.895  -1.246   0.036  0.00  0.00     0.114 A 
ATOM      9  C   UNL d   1       0.859   1.556  -0.109  0.00  0.00     0.079 A 
ATOM     10  C   UNL d   1       2.026   0.877  -0.076  0.00  0.00     0.045 A 
ATOM     11 CL   UNL d   1       0.842   3.273  -0.210  0.00  0.00    -0.080 Cl
ENDROOT
BRANCH   4  12
ATOM     12  C   UNL d   1      -3.866   0.033   0.009  0.00  0.00     0.288 C 
ATOM     13  N   UNL d   1      -4.476   1.279  -0.030  0.00  0.00    -0.265 N 
ATOM     14  H   UNL d   1      -3.897   2.113  -0.079  0.00  0.00     0.190 HD
ATOM     15  O   UNL d   1      -4.463  -1.041   0.047  0.00  0.00    -0.264 OA
BRANCH  13  16
ATOM     16  N   UNL d   1      -5.835   1.337  -0.088  0.00  0.00    -0.308 N 
ATOM     17  C   UNL d   1      -6.391   2.501  -0.152  0.00  0.00     0.118 C 
ATOM     18  HN  UNL d   1      -6.397   0.486  -0.082  1.00  0.00     0.186 HD
BRANCH  17  19
ATOM     19  C   UNL d   1      -7.864   2.606  -0.267  0.00  0.00    -0.019 A 
ATOM     20  C   UNL d   1      -8.652   1.446  -0.268  0.00  0.00     0.014 A 
ATOM     21  C   UNL d   1     -10.036   1.537  -0.428  0.00  0.00     0.024 A 
ATOM     22  C   UNL d   1     -10.630   2.787  -0.586  0.00  0.00     0.034 A 
ATOM     23  C   UNL d   1      -9.852   3.947  -0.572  0.00  0.00     0.024 A 
ATOM     24 CL   UNL d   1     -12.332   2.900  -0.811  0.00  0.00    -0.084 Cl
ATOM     25  C   UNL d   1      -8.464   3.859  -0.410  0.00  0.00     0.014 A 
ENDBRANCH  17  19
ENDBRANCH  13  16
ENDBRANCH   4  12
BRANCH   6  26
ATOM     26  C   UNL d   1       3.396  -1.301   0.051  0.00  0.00     0.418 C 
ATOM     27  F   UNL d   1       4.455  -0.458  -0.020  0.00  0.00    -0.166 F 
ATOM     28  F   UNL d   1       3.533  -2.013   1.198  0.00  0.00    -0.166 F 
ATOM     29  F   UNL d   1       3.521  -2.180  -0.975  0.00  0.00    -0.166 F 
ENDBRANCH   6  26
TORSDOF 4
