REMARK  4 active torsions:
REMARK  status: ('A' for Active; 'I' for Inactive)
REMARK    1  A    between atoms: C_7  and  N_1 
REMARK    2  A    between atoms: C_2  and  C_8 
REMARK       I    between atoms: N_6  and  C_2 
REMARK    3  A    between atoms: N_5  and  C_9 
REMARK    4  A    between atoms: C_21  and  N_6 
ROOT
ATOM      1  C   UNL d   1      -1.157  -8.628   0.262  0.00  0.00     0.256 C 
ATOM      2  N   UNL d   1      -1.288  -7.493   1.044  0.00  0.00    -0.323 N 
ATOM      3  O   UNL d   1      -0.416  -9.582   0.477  0.00  0.00    -0.267 OA
ATOM      4  H   UNL d   1      -2.073  -6.883   0.855  0.00  0.00     0.169 HD
ENDROOT
BRANCH   1   5
ATOM      5  C   UNL d   1      -2.030  -8.691  -0.942  0.00  0.00     0.032 A 
ATOM      6  C   UNL d   1      -2.343  -7.549  -1.691  0.00  0.00     0.019 A 
ATOM      7  C   UNL d   1      -3.125  -7.658  -2.849  0.00  0.00     0.032 A 
ATOM      8  C   UNL d   1      -3.600  -8.911  -3.265  0.00  0.00     0.056 A 
ATOM      9  C   UNL d   1      -3.264 -10.055  -2.525  0.00  0.00     0.032 A 
ATOM     10  C   UNL d   1      -2.480  -9.943  -1.373  0.00  0.00     0.019 A 
BRANCH   8  11
ATOM     11  N   UNL d   1      -4.422  -9.047  -4.422  0.00  0.00    -0.268 N 
ATOM     12  N   UNL d   1      -4.906 -10.262  -4.794  0.00  0.00    -0.305 N 
ATOM     13  C   UNL d   1      -5.662 -10.016  -5.863  0.00  0.00     0.109 A 
ATOM     14  HN  UNL d   1      -4.728 -11.165  -4.352  1.00  0.00     0.186 HD
ATOM     15  C   UNL d   1      -5.673  -8.659  -6.211  0.00  0.00     0.038 A 
ATOM     16  C   UNL d   1      -4.861  -8.059  -5.278  0.00  0.00     0.118 A 
ENDBRANCH   8  11
ENDBRANCH   1   5
BRANCH   2  17
ATOM     17  C   UNL d   1      -0.457  -7.118   2.123  0.00  0.00     0.035 A 
ATOM     18  C   UNL d   1       0.704  -7.801   2.475  0.00  0.00     0.032 A 
ATOM     19  C   UNL d   1       1.520  -7.344   3.521  0.00  0.00     0.031 A 
ATOM     20  C   UNL d   1       1.218  -6.191   4.252  0.00  0.00     0.030 A 
ATOM     21  C   UNL d   1       0.030  -5.530   3.899  0.00  0.00     0.031 A 
ATOM     22  C   UNL d   1      -0.795  -5.981   2.854  0.00  0.00     0.032 A 
BRANCH  20  23
ATOM     23  N   UNL d   1       2.009  -5.731   5.290  0.00  0.00    -0.377 N 
ATOM     24  C   UNL d   1       2.960  -6.591   6.015  0.00  0.00     0.149 C 
ATOM     25  C   UNL d   1       4.408  -6.202   5.685  0.00  0.00     0.187 C 
ATOM     26  O   UNL d   1       4.647  -4.809   5.953  0.00  0.00    -0.388 OA
ATOM     27  C   UNL d   1       3.773  -3.997   5.152  0.00  0.00     0.187 C 
ATOM     28  C   UNL d   1       2.288  -4.290   5.437  0.00  0.00     0.149 C 
ENDBRANCH  20  23
ENDBRANCH   2  17
TORSDOF 4
