REMARK  3 active torsions:
REMARK  status: ('A' for Active; 'I' for Inactive)
REMARK    1  A    between atoms: N_2  and  C_1 
REMARK    2  A    between atoms: N_4  and  C_1 
REMARK    3  A    between atoms: C_5  and  N_2 
ROOT
ATOM      1  N   UNL d   1       0.522   1.118   0.458  0.00  0.00    -0.363 N 
ATOM      2  H   UNL d   1       1.063   0.309   0.174  0.00  0.00     0.162 HD
ENDROOT
BRANCH   1   3
ATOM      3  C   UNL d   1      -0.655   0.698   0.955  0.00  0.00     0.169 C 
ATOM      4  S   UNL d   1      -0.851  -0.978   0.871  0.00  0.00    -0.041 SA
BRANCH   3   5
ATOM      5  N   UNL d   1      -1.598   1.567   1.450  0.00  0.00    -0.367 N 
ATOM      6  C   UNL d   1      -1.269   2.729   2.258  0.00  0.00     0.151 C 
ATOM      7  C   UNL d   1      -2.996   1.150   1.585  0.00  0.00     0.151 C 
ENDBRANCH   3   5
ENDBRANCH   1   3
BRANCH   1   8
ATOM      8  C   UNL d   1       1.196   2.400   0.185  0.00  0.00     0.083 C 
ATOM      9  C   UNL d   1       0.418   3.363  -0.723  0.00  0.00     0.025 C 
ATOM     10  C   UNL d   1       0.409   2.984  -2.204  0.00  0.00     0.002 C 
ATOM     11  C   UNL d   1       1.778   2.587  -2.745  0.00  0.00     0.000 C 
ATOM     12  C   UNL d   1       2.476   1.573  -1.847  0.00  0.00     0.002 C 
ATOM     13  C   UNL d   1       2.583   2.107  -0.419  0.00  0.00     0.025 C 
ENDBRANCH   1   8
TORSDOF 3
