REMARK  5 active torsions:
REMARK  status: ('A' for Active; 'I' for Inactive)
REMARK    1  A    between atoms: C_2  and  S_1 
REMARK    2  A    between atoms: N_5  and  S_1 
REMARK    3  A    between atoms: C_6  and  N_5 
REMARK    4  A    between atoms: O_19  and  C_10 
REMARK    5  A    between atoms: O_20  and  C_15 
ROOT
ATOM      1  N   UNL d   1       0.604  -1.281   0.706  0.00  0.00    -0.176 NA
ATOM      2  H   UNL d   1       1.159  -0.598   0.186  0.00  0.00     0.146 HD
ENDROOT
BRANCH   1   3
ATOM      3  S   UNL d   1       0.617  -0.894   2.364  0.00  0.00     0.252 S 
ATOM      4  O   UNL d   1      -0.283   0.221   2.550  0.00  0.00    -0.205 OA
ATOM      5  O   UNL d   1       0.531  -2.094   3.165  0.00  0.00    -0.205 OA
BRANCH   3   6
ATOM      6  C   UNL d   1       2.219  -0.222   2.757  0.00  0.00     0.118 A 
ATOM      7  S   UNL d   1       2.725   1.127   1.825  0.00  0.00    -0.068 SA
ATOM      8  C   UNL d   1       4.198   1.225   2.666  0.00  0.00     0.070 A 
ATOM      9 BR   UNL d   1       5.497   2.512   2.244  0.00  0.00    -0.042 Br
ATOM     10  C   UNL d   1       4.299   0.281   3.655  0.00  0.00     0.037 A 
ATOM     11  C   UNL d   1       3.158  -0.562   3.714  0.00  0.00     0.053 A 
ATOM     12 BR   UNL d   1       5.733   0.035   4.861  0.00  0.00    -0.049 Br
ENDBRANCH   3   6
ENDBRANCH   1   3
BRANCH   1  13
ATOM     13  C   UNL d   1       0.908  -2.647   0.355  0.00  0.00     0.078 A 
ATOM     14  C   UNL d   1       2.210  -3.002  -0.037  0.00  0.00     0.061 A 
ATOM     15  C   UNL d   1       2.535  -4.326  -0.339  0.00  0.00     0.062 A 
ATOM     16 CL   UNL d   1       3.458  -1.818  -0.197  0.00  0.00    -0.082 Cl
ATOM     17  C   UNL d   1       1.569  -5.326  -0.259  0.00  0.00     0.072 A 
ATOM     18  C   UNL d   1       0.280  -4.992   0.151  0.00  0.00     0.075 A 
ATOM     19  C   UNL d   1      -0.064  -3.662   0.450  0.00  0.00     0.094 A 
BRANCH  17  20
ATOM     20  O   UNL d   1       2.010  -6.573  -0.602  0.00  0.00    -0.356 OA
ATOM     21  C   UNL d   1       1.031  -7.602  -0.697  0.00  0.00     0.210 C 
ENDBRANCH  17  20
BRANCH  19  22
ATOM     22  O   UNL d   1      -1.367  -3.519   0.852  0.00  0.00    -0.354 OA
ATOM     23  C   UNL d   1      -2.060  -2.365   0.392  0.00  0.00     0.210 C 
ENDBRANCH  19  22
ENDBRANCH   1  13
TORSDOF 5
