REMARK  2 active torsions:
REMARK  status: ('A' for Active; 'I' for Inactive)
REMARK    1  A    between atoms: C_6  and  N_1 
REMARK    2  A    between atoms: C_13  and  C_6 
ROOT
ATOM      1  C   UNL d   1      -3.198   4.124  -1.043  0.00  0.00     0.105 A 
ATOM      2  C   UNL d   1      -4.019   3.896   0.035  0.00  0.00     0.105 A 
ATOM      3  O   UNL d   1      -3.809   4.851  -2.016  0.00  0.00    -0.323 OA
ATOM      4  O   UNL d   1      -5.251   4.449  -0.124  0.00  0.00    -0.323 OA
ATOM      5  C   UNL d   1      -5.124   5.013  -1.446  0.00  0.00     0.352 A 
ATOM      6  C   UNL d   1      -1.909   3.638  -1.091  0.00  0.00     0.048 A 
ATOM      7  C   UNL d   1      -1.441   2.890   0.002  0.00  0.00    -0.037 A 
ATOM      8  C   UNL d   1      -3.597   3.170   1.127  0.00  0.00     0.040 A 
ATOM      9  C   UNL d   1      -2.296   2.657   1.105  0.00  0.00     0.012 A 
ENDROOT
BRANCH   7  10
ATOM     10  C   UNL d   1      -0.052   2.295  -0.026  0.00  0.00     0.174 C 
BRANCH  10  11
ATOM     11  N   UNL d   1      -0.047   0.982  -0.627  0.00  0.00    -0.277 N 
ATOM     12  C   UNL d   1      -0.154  -0.181   0.059  0.00  0.00     0.250 A 
ATOM     13  C   UNL d   1      -0.112  -1.267  -0.928  0.00  0.00     0.080 A 
ATOM     14  O   UNL d   1      -0.255  -0.359   1.258  0.00  0.00    -0.268 OA
ATOM     15  C   UNL d   1       0.013  -0.714  -2.135  0.00  0.00     0.080 A 
ATOM     16  C   UNL d   1       0.062   0.741  -1.956  0.00  0.00     0.250 A 
ATOM     17  O   UNL d   1       0.194   1.531  -2.872  0.00  0.00    -0.268 OA
ENDBRANCH  10  11
ENDBRANCH   7  10
TORSDOF 2
