REMARK  1 active torsions:
REMARK  status: ('A' for Active; 'I' for Inactive)
REMARK    1  A    between atoms: C_10  and  C_2 
ROOT
ATOM      1  N   UNL d   1      -0.849   0.527   0.035  0.00  0.00    -0.282 N 
ATOM      2  C   UNL d   1      -1.671   1.640  -0.149  0.00  0.00     0.139 A 
ATOM      3  N   UNL d   1      -2.932   1.245  -0.044  0.00  0.00    -0.283 N 
ATOM      4  HN  UNL d   1      -3.747   1.856  -0.083  1.00  0.00     0.188 HD
ATOM      5  C   UNL d   1      -1.727  -0.535   0.146  0.00  0.00     0.114 A 
ATOM      6  N   UNL d   1      -2.968  -0.104   0.124  0.00  0.00    -0.286 N 
ATOM      7  HN  UNL d   1      -3.806  -0.677   0.217  1.00  0.00     0.188 HD
ATOM      8  C   UNL d   1       0.566   0.393   0.116  0.00  0.00     0.059 A 
ATOM      9  S   UNL d   1       0.203  -2.325  -0.543  0.00  0.00    -0.120 SA
ATOM     10  C   UNL d   1       1.150  -0.861  -0.151  0.00  0.00     0.028 A 
ATOM     11  C   UNL d   1      -1.292  -1.926   0.393  0.00  0.00     0.158 C 
ATOM     12  C   UNL d   1       1.390   1.475   0.453  0.00  0.00     0.031 A 
ATOM     13  C   UNL d   1       2.546  -0.984  -0.167  0.00  0.00     0.021 A 
ATOM     14  C   UNL d   1       2.780   1.338   0.432  0.00  0.00     0.002 A 
ATOM     15  C   UNL d   1       3.358   0.114   0.110  0.00  0.00     0.002 A 
ENDROOT
BRANCH   2  16
ATOM     16  C   UNL d   1      -1.308   3.031  -0.443  0.00  0.00     0.010 A 
ATOM     17  C   UNL d   1      -0.308   3.381  -1.363  0.00  0.00     0.018 A 
ATOM     18  C   UNL d   1       0.030   4.723  -1.567  0.00  0.00     0.043 A 
ATOM     19  C   UNL d   1      -0.670   5.719  -0.897  0.00  0.00     0.116 A 
ATOM     20  C   UNL d   1      -1.711   5.401  -0.037  0.00  0.00     0.043 A 
ATOM     21  F   UNL d   1      -0.339   7.002  -1.090  0.00  0.00    -0.206 F 
ATOM     22  C   UNL d   1      -2.030   4.061   0.188  0.00  0.00     0.018 A 
ENDBRANCH   2  16
TORSDOF 1
