REMARK  5 active torsions:
REMARK  status: ('A' for Active; 'I' for Inactive)
REMARK    1  A    between atoms: C_2  and  C_1 
REMARK       I    between atoms: N_6  and  C_2 
REMARK    2  A    between atoms: O_10  and  C_3 
REMARK    3  A    between atoms: C_4  and  C_5 
REMARK    4  A    between atoms: C_7  and  N_6 
REMARK    5  A    between atoms: C_20  and  O_10 
ROOT
ATOM      1  C   UNL d   1       1.272   1.475   0.348  0.00  0.00     0.098 C 
ATOM      2  C   UNL d   1      -0.107   1.185   0.203  0.00  0.00     0.164 C 
ATOM      3  C   UNL d   1       2.128   0.345   0.279  0.00  0.00     0.069 C 
ATOM      4  N   UNL d   1      -0.630  -0.079   0.199  0.00  0.00    -0.346 N 
ATOM      5  HN  UNL d   1      -1.639  -0.222   0.160  1.00  0.00     0.167 HD
ATOM      6  C   UNL d   1       0.196  -1.119   0.246  0.00  0.00     0.091 C 
ATOM      7  C   UNL d   1       1.556  -0.955   0.254  0.00  0.00     0.034 C 
ENDROOT
BRANCH   1   8
ATOM      8  C   UNL d   1       1.664   2.904   0.712  0.00  0.00     0.261 C 
ATOM      9  N   UNL d   1       2.992   3.281   0.625  0.00  0.00    -0.320 N 
ATOM     10  H   UNL d   1       3.621   2.732   0.050  0.00  0.00     0.169 HD
ATOM     11  O   UNL d   1       0.798   3.678   1.109  0.00  0.00    -0.267 OA
BRANCH   9  12
ATOM     12  C   UNL d   1       3.631   4.444   1.141  0.00  0.00     0.074 A 
ATOM     13  C   UNL d   1       4.946   4.686   0.712  0.00  0.00     0.146 A 
ATOM     14  C   UNL d   1       5.690   5.768   1.164  0.00  0.00     0.086 A 
ATOM     15  F   UNL d   1       5.513   3.845  -0.172  0.00  0.00    -0.204 F 
ATOM     16  C   UNL d   1       5.121   6.629   2.081  0.00  0.00     0.119 A 
ATOM     17  C   UNL d   1       3.821   6.410   2.544  0.00  0.00     0.044 A 
ATOM     18  F   UNL d   1       5.824   7.675   2.538  0.00  0.00    -0.206 F 
ATOM     19  C   UNL d   1       3.072   5.318   2.074  0.00  0.00     0.036 A 
ENDBRANCH   9  12
ENDBRANCH   1   8
BRANCH   2  20
ATOM     20  O   UNL d   1      -1.031   2.202  -0.032  0.00  0.00    -0.293 OA
BRANCH  20  21
ATOM     21  C   UNL d   1      -2.188   1.819  -0.700  0.00  0.00     0.077 A 
ATOM     22  C   UNL d   1      -3.416   1.960  -0.058  0.00  0.00     0.037 A 
ATOM     23  C   UNL d   1      -4.589   1.539  -0.695  0.00  0.00     0.003 A 
ATOM     24  C   UNL d   1      -4.533   0.995  -1.979  0.00  0.00     0.000 A 
ATOM     25  C   UNL d   1      -3.310   0.879  -2.636  0.00  0.00     0.003 A 
ATOM     26  C   UNL d   1      -2.136   1.307  -2.007  0.00  0.00     0.037 A 
ENDBRANCH  20  21
ENDBRANCH   2  20
BRANCH   3  27
ATOM     27  C   UNL d   1       3.631   0.289   0.209  0.00  0.00     0.418 C 
ATOM     28  F   UNL d   1       4.264   1.442  -0.105  0.00  0.00    -0.166 F 
ATOM     29  F   UNL d   1       4.191  -0.160   1.363  0.00  0.00    -0.166 F 
ATOM     30  F   UNL d   1       4.044  -0.584  -0.760  0.00  0.00    -0.166 F 
ENDBRANCH   3  27
TORSDOF 5
