REMARK  7 active torsions:
REMARK  status: ('A' for Active; 'I' for Inactive)
REMARK    1  A    between atoms: N_3  and  C_1 
REMARK       I    between atoms: C_6  and  N_3 
REMARK    2  A    between atoms: N_9  and  N_3 
REMARK    3  A    between atoms: O_14  and  C_6 
REMARK    4  A    between atoms: C_13  and  C_7 
REMARK       I    between atoms: C_10  and  N_9 
REMARK    5  A    between atoms: O_15  and  C_10 
REMARK    6  A    between atoms: C_20  and  O_14 
REMARK    7  A    between atoms: C_21  and  O_15 
ROOT
ATOM      1  C   UNL d   1       1.069  -1.564   0.126  0.00  0.00     0.074 C 
ATOM      2  C   UNL d   1       2.252  -0.966  -0.077  0.00  0.00     0.043 C 
ATOM      3  C   UNL d   1      -0.117  -0.703   0.022  0.00  0.00     0.026 A 
ATOM      4  O   UNL d   1       1.304   1.241   0.321  0.00  0.00    -0.336 OA
ATOM      5  C   UNL d   1       2.345   0.504  -0.370  0.00  0.00     0.187 C 
ATOM      6  C   UNL d   1       0.057   0.678   0.189  0.00  0.00     0.082 A 
ATOM      7  C   UNL d   1      -1.391  -1.182  -0.303  0.00  0.00     0.016 A 
ATOM      8  C   UNL d   1      -1.029   1.549   0.181  0.00  0.00     0.038 A 
ATOM      9  C   UNL d   1      -2.471  -0.299  -0.395  0.00  0.00     0.001 A 
ATOM     10  C   UNL d   1      -2.297   1.059  -0.121  0.00  0.00     0.003 A 
ENDROOT
BRANCH   1  11
ATOM     11  N   UNL d   1       0.979  -2.887   0.505  0.00  0.00    -0.194 N 
ATOM     12  C   UNL d   1       1.501  -3.958  -0.232  0.00  0.00     0.386 C 
ATOM     13  O   UNL d   1       1.580  -5.105   0.206  0.00  0.00    -0.236 OA
BRANCH  12  14
ATOM     14  O   UNL d   1       1.827  -3.604  -1.508  0.00  0.00    -0.303 OA
BRANCH  14  15
ATOM     15  C   UNL d   1       2.235  -4.649  -2.399  0.00  0.00     0.176 C 
ATOM     16  C   UNL d   1       3.733  -4.854  -2.303  0.00  0.00     0.034 C 
ENDBRANCH  14  15
ENDBRANCH  12  14
BRANCH  11  17
ATOM     17  N   UNL d   1       0.617  -3.164   1.858  0.00  0.00    -0.234 N 
ATOM     18  C   UNL d   1       1.417  -2.693   2.874  0.00  0.00     0.380 C 
ATOM     19  O   UNL d   1       2.245  -1.791   2.798  0.00  0.00    -0.237 OA
ATOM     20  H   UNL d   1       0.279  -4.109   2.011  0.00  0.00     0.193 HD
BRANCH  18  21
ATOM     21  O   UNL d   1       1.189  -3.413   4.005  0.00  0.00    -0.303 OA
BRANCH  21  22
ATOM     22  C   UNL d   1       2.028  -3.072   5.123  0.00  0.00     0.176 C 
ATOM     23  C   UNL d   1       3.306  -3.890   5.069  0.00  0.00     0.034 C 
ENDBRANCH  21  22
ENDBRANCH  18  21
ENDBRANCH  11  17
ENDBRANCH   1  11
BRANCH   5  24
ATOM     24  C   UNL d   1       2.385   0.810  -1.871  0.00  0.00    -0.025 A 
ATOM     25  C   UNL d   1       1.846   2.003  -2.379  0.00  0.00     0.010 A 
ATOM     26  C   UNL d   1       1.873   2.275  -3.748  0.00  0.00     0.001 A 
ATOM     27  C   UNL d   1       2.455   1.368  -4.631  0.00  0.00     0.000 A 
ATOM     28  C   UNL d   1       3.014   0.190  -4.145  0.00  0.00     0.001 A 
ATOM     29  C   UNL d   1       2.988  -0.082  -2.778  0.00  0.00     0.010 A 
ENDBRANCH   5  24
TORSDOF 7
