REMARK  6 active torsions:
REMARK  status: ('A' for Active; 'I' for Inactive)
REMARK    1  A    between atoms: C_11  and  N_1 
REMARK       I    between atoms: C_4  and  N_8 
REMARK    2  A    between atoms: C_9  and  C_4 
REMARK    3  A    between atoms: C_5  and  C_14 
REMARK       I    between atoms: N_10  and  C_5 
REMARK    4  A    between atoms: N_8  and  N_10 
REMARK    5  A    between atoms: O_24  and  C_13 
REMARK    6  A    between atoms: O_25  and  C_15 
ROOT
ATOM      1  C   UNL d   1       5.837  -3.691  -0.154  0.00  0.00     0.270 C 
ATOM      2  N   UNL d   1       6.673  -3.642   0.944  0.00  0.00    -0.263 N 
ATOM      3  O   UNL d   1       6.109  -4.368  -1.147  0.00  0.00    -0.266 OA
ATOM      4  H   UNL d   1       6.524  -3.111   1.796  0.00  0.00     0.190 HD
ENDROOT
BRANCH   2   5
ATOM      5  N   UNL d   1       7.786  -4.497   0.949  0.00  0.00    -0.263 N 
ATOM      6  C   UNL d   1       8.560  -4.603   2.086  0.00  0.00     0.270 C 
ATOM      7  O   UNL d   1       8.397  -3.901   3.083  0.00  0.00    -0.266 OA
ATOM      8  H   UNL d   1       7.961  -5.001   0.080  0.00  0.00     0.190 HD
BRANCH   6   9
ATOM      9  C   UNL d   1       9.647  -5.620   2.031  0.00  0.00     0.036 A 
ATOM     10  C   UNL d   1      10.847  -5.392   2.723  0.00  0.00     0.056 A 
ATOM     11  C   UNL d   1      11.906  -6.318   2.662  0.00  0.00     0.102 A 
ATOM     12  C   UNL d   1      11.738  -7.494   1.906  0.00  0.00     0.101 A 
ATOM     13  C   UNL d   1      10.517  -7.729   1.256  0.00  0.00     0.040 A 
ATOM     14  C   UNL d   1       9.476  -6.805   1.315  0.00  0.00     0.020 A 
BRANCH  11  15
ATOM     15  O   UNL d   1      13.100  -6.137   3.306  0.00  0.00    -0.353 OA
ATOM     16  C   UNL d   1      13.305  -4.942   4.048  0.00  0.00     0.210 C 
ENDBRANCH  11  15
BRANCH  12  17
ATOM     17  O   UNL d   1      12.624  -8.517   1.691  0.00  0.00    -0.353 OA
ATOM     18  C   UNL d   1      13.940  -8.421   2.213  0.00  0.00     0.210 C 
ENDBRANCH  12  17
ENDBRANCH   6   9
ENDBRANCH   2   5
BRANCH   1  19
ATOM     19  C   UNL d   1       4.569  -2.896  -0.109  0.00  0.00     0.033 A 
ATOM     20  C   UNL d   1       4.098  -2.287   1.055  0.00  0.00     0.019 A 
ATOM     21  C   UNL d   1       2.876  -1.600   1.051  0.00  0.00     0.031 A 
ATOM     22  C   UNL d   1       2.125  -1.450  -0.125  0.00  0.00     0.039 A 
ATOM     23  C   UNL d   1       2.600  -2.057  -1.292  0.00  0.00     0.031 A 
ATOM     24  C   UNL d   1       3.799  -2.791  -1.279  0.00  0.00     0.019 A 
BRANCH  22  25
ATOM     25  N   UNL d   1       0.915  -0.671  -0.118  0.00  0.00    -0.320 N 
ATOM     26  C   UNL d   1      -0.242  -0.889  -0.881  0.00  0.00     0.013 A 
ATOM     27  C   UNL d   1      -1.160   0.100  -0.582  0.00  0.00     0.027 A 
ATOM     28  C   UNL d   1      -0.518  -2.038  -1.794  0.00  0.00     0.068 C 
ATOM     29  C   UNL d   1      -0.603   0.929   0.394  0.00  0.00     0.027 A 
ATOM     30  C   UNL d   1       0.674   0.473   0.663  0.00  0.00     0.013 A 
ATOM     31  C   UNL d   1       1.637   1.161   1.572  0.00  0.00     0.068 C 
ENDBRANCH  22  25
ENDBRANCH   1  19
TORSDOF 6
