REMARK  5 active torsions:
REMARK  status: ('A' for Active; 'I' for Inactive)
REMARK    1  A    between atoms: N_8  and  C_2 
REMARK    2  A    between atoms: N_3  and  C_9 
REMARK    3  A    between atoms: C_5  and  N_7 
REMARK    4  A    between atoms: N_14  and  C_5 
REMARK    5  A    between atoms: C_22  and  N_14 
ROOT
ATOM      1  N   UNL d   1       2.189  -5.532  -0.251  0.00  0.00    -0.356 N 
ATOM      2  N   UNL d   1       1.544  -2.760  -0.027  0.00  0.00    -0.265 NA
ATOM      3  C   UNL d   1       0.885  -5.024  -0.719  0.00  0.00     0.140 C 
ATOM      4  C   UNL d   1       2.925  -4.655   0.684  0.00  0.00     0.140 C 
ATOM      5  C   UNL d   1       2.930  -3.179   0.263  0.00  0.00     0.117 C 
ATOM      6  C   UNL d   1       0.968  -3.541  -1.143  0.00  0.00     0.117 C 
ENDROOT
BRANCH   1   7
ATOM      7  C   UNL d   1       2.645  -6.777  -0.598  0.00  0.00     0.174 C 
ATOM      8  S   UNL d   1       4.194  -7.057  -1.175  0.00  0.00    -0.041 SA
BRANCH   7   9
ATOM      9  N   UNL d   1       1.771  -7.831  -0.588  0.00  0.00    -0.333 N 
ATOM     10  H   UNL d   1       2.101  -8.599  -1.167  0.00  0.00     0.168 HD
BRANCH   9  11
ATOM     11  C   UNL d   1       0.960  -8.256   0.501  0.00  0.00     0.036 A 
ATOM     12  C   UNL d   1       0.416  -9.542   0.436  0.00  0.00     0.066 A 
ATOM     13  C   UNL d   1      -0.260 -10.107   1.544  0.00  0.00     0.111 A 
ATOM     14  C   UNL d   1      -0.399  -9.377   2.744  0.00  0.00    -0.029 A 
ATOM     15  C   UNL d   1       0.096  -8.065   2.764  0.00  0.00     0.011 A 
ATOM     16  C   UNL d   1      -1.005  -9.907   4.013  0.00  0.00     0.050 C 
ATOM     17  C   UNL d   1       0.767  -7.519   1.665  0.00  0.00     0.030 A 
BRANCH  13  18
ATOM     18  N   UNL d   1      -0.779 -11.482   1.390  0.00  0.00    -0.115 N 
ATOM     19  O   UNL d   1      -0.474 -12.094   0.352  0.00  0.00    -0.532 OA
ATOM     20  O   UNL d   1      -1.497 -11.957   2.277  0.00  0.00    -0.532 OA
ENDBRANCH  13  18
ENDBRANCH   9  11
ENDBRANCH   7   9
ENDBRANCH   1   7
BRANCH   2  21
ATOM     21  C   UNL d   1       1.375  -1.377  -0.131  0.00  0.00     0.103 A 
ATOM     22  C   UNL d   1       0.134  -0.741   0.078  0.00  0.00     0.070 A 
ATOM     23  S   UNL d   1      -1.410  -1.417   0.442  0.00  0.00    -0.096 SA
ATOM     24  C   UNL d   1       0.061   0.651   0.048  0.00  0.00     0.060 A 
ATOM     25  C   UNL d   1      -2.153   0.113   0.511  0.00  0.00     0.059 A 
ATOM     26  C   UNL d   1      -1.266   1.147   0.293  0.00  0.00    -0.027 A 
ATOM     27  C   UNL d   1      -1.646   2.589   0.322  0.00  0.00     0.051 C 
ATOM     28  N   UNL d   1       1.147   1.431  -0.176  0.00  0.00    -0.351 N 
ATOM     29  C   UNL d   1       2.282   0.753  -0.339  0.00  0.00     0.182 A 
ATOM     30  HN  UNL d   1       1.099   2.450  -0.215  1.00  0.00     0.166 HD
ATOM     31  N   UNL d   1       2.450  -0.576  -0.324  0.00  0.00    -0.342 N 
ATOM     32  HN  UNL d   1       3.377  -0.980  -0.456  1.00  0.00     0.167 HD
ENDBRANCH   2  21
TORSDOF 5
