REMARK  7 active torsions:
REMARK  status: ('A' for Active; 'I' for Inactive)
REMARK    1  A    between atoms: N_7  and  S_1 
REMARK    2  A    between atoms: C_11  and  S_1 
REMARK    3  A    between atoms: C_15  and  C_4 
REMARK    4  A    between atoms: N_10  and  N_7 
REMARK    5  A    between atoms: C_8  and  C_21 
REMARK       I    between atoms: C_12  and  N_10 
REMARK    6  A    between atoms: C_22  and  C_12 
REMARK    7  A    between atoms: C_21  and  C_22 
ROOT
ATOM      1  N   UNL d   1       0.836   2.519   0.986  0.00  0.00    -0.260 N 
ATOM      2  C   UNL d   1       0.418   3.835   0.898  0.00  0.00     0.236 C 
ATOM      3  O   UNL d   1      -0.336   4.242   0.020  0.00  0.00    -0.272 OA
ATOM      4  H   UNL d   1       1.364   2.161   1.781  0.00  0.00     0.190 HD
ENDROOT
BRANCH   2   5
ATOM      5  C   UNL d   1       0.969   4.699   2.014  0.00  0.00     0.112 C 
BRANCH   5   6
ATOM      6  C   UNL d   1       0.504   6.149   1.909  0.00  0.00     0.096 C 
BRANCH   6   7
ATOM      7  C   UNL d   1       1.036   6.981   3.018  0.00  0.00     0.148 A 
ATOM      8  N   UNL d   1       1.813   6.656   4.027  0.00  0.00    -0.323 N 
ATOM      9  C   UNL d   1       1.910   7.842   4.729  0.00  0.00     0.137 A 
ATOM     10  HN  UNL d   1       2.237   5.753   4.239  1.00  0.00     0.169 HD
ATOM     11  N   UNL d   1       1.238   8.860   4.165  0.00  0.00    -0.242 N 
ATOM     12  O   UNL d   1       0.658   8.291   3.032  0.00  0.00    -0.223 OA
ATOM     13  HN  UNL d   1       1.169   9.824   4.489  1.00  0.00     0.196 HD
BRANCH   9  14
ATOM     14  C   UNL d   1       2.666   7.952   5.975  0.00  0.00     0.010 A 
ATOM     15  C   UNL d   1       3.339   6.833   6.493  0.00  0.00     0.017 A 
ATOM     16  C   UNL d   1       4.061   6.922   7.688  0.00  0.00     0.025 A 
ATOM     17  C   UNL d   1       4.115   8.131   8.376  0.00  0.00     0.034 A 
ATOM     18  C   UNL d   1       3.451   9.251   7.882  0.00  0.00     0.025 A 
ATOM     19 CL   UNL d   1       5.005   8.241   9.844  0.00  0.00    -0.084 Cl
ATOM     20  C   UNL d   1       2.730   9.161   6.686  0.00  0.00     0.017 A 
ENDBRANCH   9  14
ENDBRANCH   6   7
ENDBRANCH   5   6
ENDBRANCH   2   5
BRANCH   1  21
ATOM     21  N   UNL d   1       0.283   1.533   0.057  0.00  0.00    -0.220 N 
ATOM     22  H   UNL d   1      -0.423   1.871  -0.608  0.00  0.00     0.200 HD
BRANCH  21  23
ATOM     23  S   UNL d   1       0.151  -0.062   0.628  0.00  0.00     0.276 S 
ATOM     24  O   UNL d   1      -0.899  -0.054   1.621  0.00  0.00    -0.199 OA
ATOM     25  O   UNL d   1       1.484  -0.519   0.953  0.00  0.00    -0.199 OA
BRANCH  23  26
ATOM     26  C   UNL d   1      -0.418  -0.974  -0.782  0.00  0.00     0.081 A 
ATOM     27  C   UNL d   1       0.391  -1.046  -1.921  0.00  0.00     0.027 A 
ATOM     28  C   UNL d   1      -0.028  -1.807  -3.016  0.00  0.00     0.025 A 
ATOM     29  C   UNL d   1      -1.240  -2.498  -2.962  0.00  0.00     0.034 A 
ATOM     30  C   UNL d   1      -2.038  -2.439  -1.820  0.00  0.00     0.025 A 
ATOM     31 CL   UNL d   1      -1.747  -3.437  -4.312  0.00  0.00    -0.084 Cl
ATOM     32  C   UNL d   1      -1.629  -1.675  -0.723  0.00  0.00     0.027 A 
ENDBRANCH  23  26
ENDBRANCH  21  23
ENDBRANCH   1  21
TORSDOF 7
