REMARK  7 active torsions:
REMARK  status: ('A' for Active; 'I' for Inactive)
REMARK    1  A    between atoms: C_3  and  C_1 
REMARK    2  A    between atoms: C_2  and  C_4 
REMARK    3  A    between atoms: C_7  and  C_6 
REMARK    4  A    between atoms: C_11  and  C_7 
REMARK    5  A    between atoms: C_8  and  N_14 
REMARK    6  A    between atoms: N_14  and  C_12 
REMARK    7  A    between atoms: C_26  and  C_25 
ROOT
ATOM      1  C   UNL d   1       0.794  -1.593  -0.912  0.00  0.00     0.050 A 
ATOM      2  C   UNL d   1       1.425  -3.488  -2.306  0.00  0.00     0.050 A 
ATOM      3  C   UNL d   1       1.777  -2.430  -1.458  0.00  0.00     0.032 A 
ATOM      4  C   UNL d   1      -0.556  -1.827  -1.234  0.00  0.00     0.045 A 
ATOM      5  C   UNL d   1       0.068  -3.700  -2.603  0.00  0.00     0.045 A 
ATOM      6  C   UNL d   1      -0.939  -2.881  -2.078  0.00  0.00     0.033 A 
ENDROOT
BRANCH   6   7
ATOM      7  N   UNL d   1      -2.306  -3.139  -2.282  0.00  0.00    -0.366 N 
ATOM      8  H   UNL d   1      -2.935  -2.360  -2.111  0.00  0.00     0.165 HD
BRANCH   7   9
ATOM      9  C   UNL d   1      -2.890  -4.330  -2.644  0.00  0.00     0.092 C 
ATOM     10  C   UNL d   1      -4.189  -4.558  -2.865  0.00  0.00     0.072 C 
BRANCH  10  11
ATOM     11  C   UNL d   1      -4.665  -5.930  -3.193  0.00  0.00     0.183 C 
ATOM     12  O   UNL d   1      -3.903  -6.795  -3.616  0.00  0.00    -0.288 OA
BRANCH  11  13
ATOM     13  C   UNL d   1      -6.113  -6.218  -3.022  0.00  0.00     0.014 A 
ATOM     14  C   UNL d   1      -6.708  -7.205  -3.816  0.00  0.00     0.016 A 
ATOM     15  C   UNL d   1      -8.072  -7.492  -3.686  0.00  0.00     0.008 A 
ATOM     16  C   UNL d   1      -8.854  -6.809  -2.744  0.00  0.00    -0.059 A 
ATOM     17  C   UNL d   1      -8.250  -5.839  -1.936  0.00  0.00     0.008 A 
ATOM     18  C   UNL d   1      -6.888  -5.551  -2.065  0.00  0.00     0.016 A 
BRANCH  16  19
ATOM     19  C   UNL d   1     -10.327  -7.103  -2.601  0.00  0.00     0.034 C 
ATOM     20  C   UNL d   1     -11.181  -6.197  -3.476  0.00  0.00     0.010 C 
ENDBRANCH  16  19
ENDBRANCH  11  13
ENDBRANCH  10  11
ENDBRANCH   7   9
ENDBRANCH   6   7
BRANCH   2  21
ATOM     21  C   UNL d   1       2.465  -4.411  -2.891  0.00  0.00     0.417 C 
ATOM     22  F   UNL d   1       3.733  -4.125  -2.481  0.00  0.00    -0.166 F 
ATOM     23  F   UNL d   1       2.252  -5.713  -2.557  0.00  0.00    -0.166 F 
ATOM     24  F   UNL d   1       2.494  -4.369  -4.251  0.00  0.00    -0.166 F 
ENDBRANCH   2  21
BRANCH   1  25
ATOM     25  C   UNL d   1       1.165  -0.470   0.028  0.00  0.00     0.417 C 
ATOM     26  F   UNL d   1       2.499  -0.405   0.296  0.00  0.00    -0.166 F 
ATOM     27  F   UNL d   1       0.548  -0.578   1.237  0.00  0.00    -0.166 F 
ATOM     28  F   UNL d   1       0.822   0.753  -0.460  0.00  0.00    -0.166 F 
ENDBRANCH   1  25
TORSDOF 7
