REMARK  2 active torsions:
REMARK  status: ('A' for Active; 'I' for Inactive)
REMARK    1  A    between atoms: C_6  and  C_1 
REMARK    2  A    between atoms: N_8  and  C_6 
ROOT
ATOM      1  C   UNL d   1       2.261  -0.552   0.079  0.00  0.00    -0.020 C 
ATOM      2  C   UNL d   1       1.429  -0.651   1.142  0.00  0.00     0.050 C 
ATOM      3  C   UNL d   1       0.057  -0.074   1.148  0.00  0.00     0.004 A 
ATOM      4  S   UNL d   1       0.875   1.659  -0.886  0.00  0.00    -0.125 SA
ATOM      5  C   UNL d   1      -0.295   0.963   0.262  0.00  0.00     0.012 A 
ATOM      6  C   UNL d   1       1.899   0.198  -1.179  0.00  0.00     0.117 C 
ATOM      7  C   UNL d   1      -0.936  -0.545   2.031  0.00  0.00     0.038 A 
ATOM      8 CL   UNL d   1       1.933  -1.492   2.585  0.00  0.00    -0.083 Cl
ATOM      9  C   UNL d   1      -1.590   1.506   0.275  0.00  0.00     0.021 A 
ATOM     10  C   UNL d   1      -2.220   0.002   2.037  0.00  0.00     0.035 A 
ATOM     11  C   UNL d   1      -2.554   1.026   1.160  0.00  0.00     0.025 A 
ATOM     12 CL   UNL d   1      -3.400  -0.597   3.138  0.00  0.00    -0.084 Cl
ENDROOT
BRANCH   1  13
ATOM     13  C   UNL d   1       3.593  -1.272  -0.024  0.00  0.00     0.309 C 
BRANCH  13  14
ATOM     14  N   UNL d   1       4.779  -0.397  -0.064  0.00  0.00     0.092 N 
ATOM     15  C   UNL d   1       4.958   0.305   1.223  0.00  0.00     0.272 C 
ATOM     16  C   UNL d   1       6.240   1.141   1.260  0.00  0.00     0.030 C 
ATOM     17  C   UNL d   1       7.461   0.288   0.953  0.00  0.00     0.003 C 
ATOM     18  C   UNL d   1       7.266  -0.423  -0.378  0.00  0.00     0.030 C 
ATOM     19  C   UNL d   1       5.963  -1.221  -0.385  0.00  0.00     0.272 C 
ENDBRANCH  13  14
ENDBRANCH   1  13
TORSDOF 2
