REMARK  3 active torsions:
REMARK  status: ('A' for Active; 'I' for Inactive)
REMARK    1  A    between atoms: N_4  and  C_1 
REMARK    2  A    between atoms: N_8  and  N_2 
REMARK    3  A    between atoms: C_7  and  C_9 
ROOT
ATOM      1  C   UNL d   1       1.387  -0.274   0.078  0.00  0.00     0.029 A 
ATOM      2  C   UNL d   1       0.450  -1.323   0.041  0.00  0.00     0.030 A 
ATOM      3  C   UNL d   1       0.866   1.029  -0.006  0.00  0.00     0.030 A 
ATOM      4  C   UNL d   1      -1.407   0.211  -0.159  0.00  0.00    -0.020 A 
ATOM      5  C   UNL d   1      -0.510   1.275  -0.124  0.00  0.00     0.015 A 
ATOM      6  C   UNL d   1      -0.927  -1.094  -0.080  0.00  0.00     0.015 A 
ENDROOT
BRANCH   4   7
ATOM      7  C   UNL d   1      -2.865   0.436  -0.253  0.00  0.00     0.112 C 
ATOM      8  N   UNL d   1      -3.374   1.616  -0.408  0.00  0.00    -0.334 N 
ATOM      9  HN  UNL d   1      -2.812   2.464  -0.478  1.00  0.00     0.179 HD
BRANCH   8  10
ATOM     10  N   UNL d   1      -4.726   1.615  -0.467  0.00  0.00    -0.250 NA
ATOM     11  H   UNL d   1      -5.058   2.562  -0.664  0.00  0.00     0.143 HD
ATOM     12  H   UNL d   1      -5.075   1.030  -1.229  0.00  0.00     0.143 HD
ENDBRANCH   8  10
ENDBRANCH   4   7
BRANCH   1  13
ATOM     13  N   UNL d   1       2.743  -0.541   0.273  0.00  0.00    -0.390 N 
ATOM     14  C   UNL d   1       3.357  -1.629  -0.493  0.00  0.00     0.149 C 
ATOM     15  C   UNL d   1       3.662   0.547   0.604  0.00  0.00     0.149 C 
ENDBRANCH   1  13
TORSDOF 3
