REMARK  1 active torsions:
REMARK  status: ('A' for Active; 'I' for Inactive)
REMARK    1  A    between atoms: N_4  and  C_1 
ROOT
ATOM      1  C   UNL d   1      -0.886   1.200   0.018  0.00  0.00     0.192 A 
ATOM      2  C   UNL d   1      -1.428  -0.167  -0.002  0.00  0.00     0.284 A 
ATOM      3  N   UNL d   1      -0.481  -1.164   0.038  0.00  0.00    -0.273 N 
ATOM      4  C   UNL d   1       0.440   1.426   0.007  0.00  0.00     0.048 A 
ATOM      5  C   UNL d   1       0.872  -0.974   0.006  0.00  0.00     0.327 A 
ATOM      6  N   UNL d   1       1.288   0.332  -0.005  0.00  0.00    -0.310 N 
ATOM      7  O   UNL d   1      -2.622  -0.430  -0.080  0.00  0.00    -0.265 OA
ATOM      8  O   UNL d   1       1.667  -1.907  -0.018  0.00  0.00    -0.247 OA
ATOM      9  C   UNL d   1       1.138   2.759   0.020  0.00  0.00     0.071 C 
ATOM     10  H   UNL d   1      -0.811  -2.118   0.016  0.00  0.00     0.173 HD
ATOM     11  H   UNL d   1       2.295   0.461  -0.024  0.00  0.00     0.170 HD
ENDROOT
BRANCH   1  12
ATOM     12  N   UNL d   1      -1.811   2.289   0.026  0.00  0.00    -0.108 N 
ATOM     13  O   UNL d   1      -1.822   3.028  -0.968  0.00  0.00    -0.532 OA
ATOM     14  O   UNL d   1      -2.492   2.441   1.046  0.00  0.00    -0.532 OA
ENDBRANCH   1  12
TORSDOF 1
