REMARK  6 active torsions:
REMARK  status: ('A' for Active; 'I' for Inactive)
REMARK       I    between atoms: N_2  and  C_1 
REMARK       I    between atoms: N_4  and  C_1 
REMARK    1  A    between atoms: O_7  and  C_3 
REMARK    2  A    between atoms: C_8  and  N_4 
REMARK    3  A    between atoms: C_5  and  C_13 
REMARK    4  A    between atoms: O_18  and  C_5 
REMARK    5  A    between atoms: C_20  and  O_7 
REMARK    6  A    between atoms: O_21  and  C_10 
ROOT
ATOM      1  C   UNL d   1      -3.304   1.199   0.291  0.00  0.00     0.104 A 
ATOM      2  C   UNL d   1      -1.903   1.084   0.220  0.00  0.00     0.069 A 
ATOM      3  C   UNL d   1      -1.254   0.730  -0.977  0.00  0.00     0.039 A 
ATOM      4  C   UNL d   1      -4.061   0.980  -0.875  0.00  0.00     0.101 A 
ATOM      5  C   UNL d   1      -3.406   0.676  -2.077  0.00  0.00     0.042 A 
ATOM      6  C   UNL d   1      -2.020   0.545  -2.129  0.00  0.00     0.032 A 
ENDROOT
BRANCH   3   7
ATOM      7  N   UNL d   1       0.143   0.514  -1.104  0.00  0.00    -0.309 N 
ATOM      8  C   UNL d   1       1.117   0.803  -0.180  0.00  0.00     0.322 C 
ATOM      9  N   UNL d   1       2.411   0.406  -0.516  0.00  0.00    -0.334 N 
ATOM     10  O   UNL d   1       0.897   1.392   0.876  0.00  0.00    -0.247 OA
ATOM     11  C   UNL d   1       2.844  -0.470  -1.600  0.00  0.00     0.128 C 
ATOM     12  C   UNL d   1       3.504   0.872   0.327  0.00  0.00     0.128 C 
ATOM     13  C   UNL d   1       3.549  -1.716  -1.054  0.00  0.00     0.035 C 
ATOM     14  C   UNL d   1       4.587  -1.432   0.040  0.00  0.00     0.087 C 
ATOM     15  C   UNL d   1       4.202  -0.301   1.002  0.00  0.00     0.035 C 
ATOM     16  H   UNL d   1       0.457   0.269  -2.028  0.00  0.00     0.170 HD
BRANCH  14  17
ATOM     17  C   UNL d   1       5.938  -1.213  -0.594  0.00  0.00     0.143 C 
ATOM     18  O   UNL d   1       6.419  -0.128  -0.880  0.00  0.00    -0.650 OA
BRANCH  17  19
ATOM     19  O   UNL d   1       6.590  -2.382  -0.853  0.00  0.00    -0.776 OA
ATOM     20  H   UNL d   1       6.113  -3.184  -0.580  0.00  0.00     0.167 HD
ENDBRANCH  17  19
ENDBRANCH  14  17
ENDBRANCH   3   7
BRANCH   1  21
ATOM     21  O   UNL d   1      -3.972   1.568   1.429  0.00  0.00    -0.343 OA
BRANCH  21  22
ATOM     22  C   UNL d   1      -3.419   1.357   2.726  0.00  0.00     0.129 C 
ATOM     23  C   UNL d   1      -3.330  -0.121   3.112  0.00  0.00     0.032 C 
ATOM     24  C   UNL d   1      -3.645  -0.207   4.607  0.00  0.00     0.002 C 
ATOM     25  C   UNL d   1      -4.059   1.190   5.048  0.00  0.00     0.002 C 
ATOM     26  C   UNL d   1      -4.405   1.917   3.760  0.00  0.00     0.032 C 
ENDBRANCH  21  22
ENDBRANCH   1  21
BRANCH   4  27
ATOM     27  O   UNL d   1      -5.423   1.009  -1.033  0.00  0.00    -0.353 OA
ATOM     28  C   UNL d   1      -6.236   1.189   0.115  0.00  0.00     0.210 C 
ENDBRANCH   4  27
TORSDOF 6
