REMARK  8 active torsions:
REMARK  status: ('A' for Active; 'I' for Inactive)
REMARK    1  A    between atoms: N_2  and  C_1 
REMARK    2  A    between atoms: N_5  and  C_1 
REMARK    3  A    between atoms: C_3  and  N_2 
REMARK       I    between atoms: C_4  and  N_7 
REMARK    4  A    between atoms: C_10  and  C_4 
REMARK    5  A    between atoms: N_7  and  N_5 
REMARK    6  A    between atoms: C_13  and  C_10 
REMARK    7  A    between atoms: O_18  and  C_11 
REMARK    8  A    between atoms: C_12  and  C_13 
ROOT
ATOM      1  C   UNL d   1      -1.884  -1.871   1.607  0.00  0.00     0.236 C 
ATOM      2  N   UNL d   1      -1.286  -0.799   0.968  0.00  0.00    -0.268 N 
ATOM      3  O   UNL d   1      -1.233  -2.678   2.270  0.00  0.00    -0.272 OA
ATOM      4  H   UNL d   1      -1.760  -0.255   0.252  0.00  0.00     0.190 HD
ENDROOT
BRANCH   2   5
ATOM      5  N   UNL d   1       0.104  -0.879   0.891  0.00  0.00    -0.274 N 
ATOM      6  H   UNL d   1       0.523  -1.654   1.409  0.00  0.00     0.189 HD
BRANCH   5   7
ATOM      7  C   UNL d   1       0.913   0.010   0.230  0.00  0.00     0.191 C 
ATOM      8  S   UNL d   1       0.444   1.512  -0.324  0.00  0.00    -0.039 SA
BRANCH   7   9
ATOM      9  N   UNL d   1       2.217  -0.410   0.090  0.00  0.00    -0.332 N 
ATOM     10  H   UNL d   1       2.907   0.317  -0.062  0.00  0.00     0.168 HD
BRANCH   9  11
ATOM     11  C   UNL d   1       2.650  -1.749  -0.081  0.00  0.00     0.040 A 
ATOM     12  C   UNL d   1       3.952  -2.135   0.278  0.00  0.00    -0.035 A 
ATOM     13  C   UNL d   1       4.935  -1.224   0.958  0.00  0.00     0.050 C 
ATOM     14  C   UNL d   1       4.354  -3.463   0.040  0.00  0.00     0.009 A 
ATOM     15  C   UNL d   1       3.487  -4.391  -0.539  0.00  0.00     0.001 A 
ATOM     16  C   UNL d   1       2.204  -4.006  -0.897  0.00  0.00     0.002 A 
ATOM     17  C   UNL d   1       1.793  -2.691  -0.675  0.00  0.00     0.030 A 
ENDBRANCH   9  11
ENDBRANCH   7   9
ENDBRANCH   5   7
ENDBRANCH   2   5
BRANCH   1  18
ATOM     18  C   UNL d   1      -3.370  -1.997   1.368  0.00  0.00     0.109 C 
BRANCH  18  19
ATOM     19  C   UNL d   1      -3.950  -3.073   2.288  0.00  0.00     0.048 C 
BRANCH  19  20
ATOM     20  C   UNL d   1      -5.425  -3.374   2.169  0.00  0.00    -0.058 A 
ATOM     21  C   UNL d   1      -6.286  -2.726   1.276  0.00  0.00     0.010 A 
ATOM     22  C   UNL d   1      -7.640  -3.067   1.224  0.00  0.00     0.037 A 
ATOM     23  C   UNL d   1      -8.139  -4.056   2.063  0.00  0.00     0.065 A 
ATOM     24  C   UNL d   1      -7.307  -4.714   2.958  0.00  0.00     0.037 A 
ATOM     25  C   UNL d   1      -5.955  -4.372   3.008  0.00  0.00     0.010 A 
BRANCH  23  26
ATOM     26  O   UNL d   1      -9.466  -4.355   1.976  0.00  0.00    -0.361 OA
ATOM     27  H   UNL d   1      -9.665  -5.059   2.615  0.00  0.00     0.217 HD
ENDBRANCH  23  26
ENDBRANCH  19  20
ENDBRANCH  18  19
ENDBRANCH   1  18
TORSDOF 8
