REMARK  2 active torsions:
REMARK  status: ('A' for Active; 'I' for Inactive)
REMARK    1  A    between atoms: C_8  and  N_1 
REMARK    2  A    between atoms: N_4  and  C_9 
ROOT
ATOM      1  C   UNL d   1       2.088  -1.465  -0.041  0.00  0.00     0.056 A 
ATOM      2  C   UNL d   1       4.495  -2.879  -0.231  0.00  0.00     0.103 A 
ATOM      3  C   UNL d   1       3.232  -1.002   0.627  0.00  0.00     0.034 A 
ATOM      4  C   UNL d   1       2.168  -2.614  -0.840  0.00  0.00     0.034 A 
ATOM      5  C   UNL d   1       4.433  -1.719   0.550  0.00  0.00     0.038 A 
ATOM      6  C   UNL d   1       3.368  -3.324  -0.936  0.00  0.00     0.038 A 
ENDROOT
BRANCH   1   7
ATOM      7  N   UNL d   1       0.873  -0.729   0.065  0.00  0.00    -0.261 N 
ATOM      8  N   UNL d   1       0.925   0.613   0.270  0.00  0.00    -0.298 N 
ATOM      9  C   UNL d   1      -0.325   1.042   0.076  0.00  0.00     0.024 C 
ATOM     10  HN  UNL d   1       1.742   1.172   0.518  1.00  0.00     0.187 HD
ATOM     11  C   UNL d   1      -0.648   2.490   0.092  0.00  0.00     0.070 C 
ATOM     12  C   UNL d   1      -1.217  -0.029  -0.096  0.00  0.00     0.052 C 
ATOM     13  C   UNL d   1      -0.441  -1.170  -0.034  0.00  0.00     0.032 C 
ATOM     14  C   UNL d   1      -0.902  -2.581   0.014  0.00  0.00     0.070 C 
ENDBRANCH   1   7
BRANCH   2  15
ATOM     15  N   UNL d   1       5.752  -3.635  -0.325  0.00  0.00    -0.116 N 
ATOM     16  O   UNL d   1       6.724  -3.216   0.316  0.00  0.00    -0.532 OA
ATOM     17  O   UNL d   1       5.761  -4.649  -1.037  0.00  0.00    -0.532 OA
ENDBRANCH   2  15
TORSDOF 2
