REMARK  5 active torsions:
REMARK  status: ('A' for Active; 'I' for Inactive)
REMARK    1  A    between atoms: C_8  and  C_1 
REMARK    2  A    between atoms: C_22  and  N_5 
REMARK    3  A    between atoms: C_7  and  C_10 
REMARK       I    between atoms: N_15  and  C_8 
REMARK    4  A    between atoms: N_12  and  N_15 
REMARK    5  A    between atoms: C_23  and  C_21 
ROOT
ATOM      1  C   UNL d   1       2.445  -0.818   0.035  0.00  0.00     0.100 C 
ATOM      2  C   UNL d   1      -0.091  -0.735   0.166  0.00  0.00     0.043 A 
ATOM      3  C   UNL d   1       1.169  -1.525   0.274  0.00  0.00     0.201 C 
ATOM      4  C   UNL d   1       2.380   0.518  -0.070  0.00  0.00     0.112 C 
ATOM      5  N   UNL d   1       1.238   1.306   0.011  0.00  0.00    -0.355 N 
ATOM      6  C   UNL d   1      -0.023   0.671   0.051  0.00  0.00     0.048 A 
ATOM      7  C   UNL d   1      -1.322  -1.414   0.179  0.00  0.00     0.034 A 
ATOM      8  C   UNL d   1      -2.525  -0.706   0.069  0.00  0.00     0.049 A 
ATOM      9  C   UNL d   1      -1.241   1.363  -0.042  0.00  0.00     0.031 A 
ATOM     10  O   UNL d   1       1.146  -2.725   0.541  0.00  0.00    -0.286 OA
ATOM     11  C   UNL d   1      -2.470   0.690  -0.036  0.00  0.00     0.018 A 
ENDROOT
BRANCH   1  12
ATOM     12  C   UNL d   1       3.775  -1.474  -0.103  0.00  0.00     0.275 C 
ATOM     13  N   UNL d   1       3.828  -2.803   0.290  0.00  0.00    -0.266 N 
ATOM     14  H   UNL d   1       2.983  -3.277   0.613  0.00  0.00     0.190 HD
ATOM     15  O   UNL d   1       4.736  -0.844  -0.544  0.00  0.00    -0.266 OA
BRANCH  13  16
ATOM     16  N   UNL d   1       4.962  -3.516   0.033  0.00  0.00    -0.308 N 
ATOM     17  C   UNL d   1       4.992  -4.745   0.436  0.00  0.00     0.118 C 
ATOM     18  HN  UNL d   1       5.753  -3.098  -0.457  1.00  0.00     0.186 HD
BRANCH  17  19
ATOM     19  C   UNL d   1       6.135  -5.623   0.092  0.00  0.00    -0.019 A 
ATOM     20  C   UNL d   1       7.195  -5.131  -0.681  0.00  0.00     0.014 A 
ATOM     21  C   UNL d   1       8.219  -5.987  -1.094  0.00  0.00     0.024 A 
ATOM     22  C   UNL d   1       8.186  -7.331  -0.726  0.00  0.00     0.034 A 
ATOM     23  C   UNL d   1       7.147  -7.822   0.066  0.00  0.00     0.024 A 
ATOM     24 CL   UNL d   1       9.417  -8.397  -1.279  0.00  0.00    -0.084 Cl
ATOM     25  C   UNL d   1       6.118  -6.967   0.481  0.00  0.00     0.014 A 
ENDBRANCH  17  19
ENDBRANCH  13  16
ENDBRANCH   1  12
BRANCH   5  26
ATOM     26  C   UNL d   1       1.335   2.776   0.069  0.00  0.00     0.124 C 
ATOM     27  C   UNL d   1       1.249   3.405  -1.313  0.00  0.00     0.027 C 
ENDBRANCH   5  26
BRANCH   8  28
ATOM     28  C   UNL d   1      -3.860  -1.410   0.052  0.00  0.00     0.417 C 
ATOM     29  F   UNL d   1      -3.765  -2.764   0.143  0.00  0.00    -0.166 F 
ATOM     30  F   UNL d   1      -4.664  -1.020   1.079  0.00  0.00    -0.166 F 
ATOM     31  F   UNL d   1      -4.562  -1.159  -1.087  0.00  0.00    -0.166 F 
ENDBRANCH   8  28
TORSDOF 5
