REMARK  4 active torsions:
REMARK  status: ('A' for Active; 'I' for Inactive)
REMARK       I    between atoms: N_2  and  C_1 
REMARK    1  A    between atoms: C_3  and  C_1 
REMARK    2  A    between atoms: C_6  and  N_2 
REMARK    3  A    between atoms: O_4  and  C_3 
REMARK    4  A    between atoms: C_7  and  O_4 
ROOT
ATOM      1  C   UNL d   1       0.799   0.310  -0.059  0.00  0.00     0.251 C 
ATOM      2  N   UNL d   1       1.949   1.030  -0.366  0.00  0.00    -0.325 N 
ATOM      3  O   UNL d   1       0.315   0.178   1.063  0.00  0.00    -0.270 OA
ATOM      4  H   UNL d   1       2.223   1.057  -1.340  0.00  0.00     0.169 HD
ENDROOT
BRANCH   1   5
ATOM      5  C   UNL d   1       0.126  -0.294  -1.309  0.00  0.00     0.217 C 
ATOM      6  C   UNL d   1      -1.380  -0.411  -1.081  0.00  0.00     0.050 C 
BRANCH   5   7
ATOM      7  O   UNL d   1       0.715  -1.582  -1.533  0.00  0.00    -0.337 OA
BRANCH   7   8
ATOM      8  C   UNL d   1       0.502  -2.108  -2.779  0.00  0.00     0.070 A 
ATOM      9  C   UNL d   1       0.776  -1.411  -3.956  0.00  0.00     0.038 A 
ATOM     10  C   UNL d   1       0.548  -2.014  -5.196  0.00  0.00     0.021 A 
ATOM     11  C   UNL d   1       0.071  -3.322  -5.255  0.00  0.00     0.006 A 
ATOM     12  C   UNL d   1      -0.168  -4.037  -4.081  0.00  0.00     0.021 A 
ATOM     13  I   UNL d   1      -0.276  -4.207  -7.102  0.00  0.00    -0.045 I 
ATOM     14  C   UNL d   1       0.056  -3.429  -2.842  0.00  0.00     0.038 A 
ENDBRANCH   7   8
ENDBRANCH   5   7
ENDBRANCH   1   5
BRANCH   2  15
ATOM     15  C   UNL d   1       2.730   1.805   0.518  0.00  0.00     0.034 A 
ATOM     16  C   UNL d   1       2.571   1.802   1.906  0.00  0.00     0.031 A 
ATOM     17  C   UNL d   1       3.365   2.620   2.717  0.00  0.00     0.021 A 
ATOM     18  C   UNL d   1       4.321   3.451   2.142  0.00  0.00     0.011 A 
ATOM     19  C   UNL d   1       4.497   3.463   0.761  0.00  0.00     0.021 A 
ATOM     20 BR   UNL d   1       5.380   4.567   3.238  0.00  0.00    -0.051 Br
ATOM     21  C   UNL d   1       3.710   2.635  -0.046  0.00  0.00     0.031 A 
ENDBRANCH   2  15
TORSDOF 4
