REMARK  4 active torsions:
REMARK  status: ('A' for Active; 'I' for Inactive)
REMARK    1  A    between atoms: C_8  and  C_1 
REMARK    2  A    between atoms: N_5  and  C_2 
REMARK    3  A    between atoms: O_14  and  C_8 
REMARK    4  A    between atoms: C_15  and  O_14 
ROOT
ATOM      1  C   UNL d   1       0.086  -1.859   0.021  0.00  0.00     0.151 A 
ATOM      2  C   UNL d   1       1.250  -1.200   0.003  0.00  0.00     0.203 A 
ATOM      3  C   UNL d   1       1.277   0.270  -0.017  0.00  0.00     0.285 A 
ATOM      4  N   UNL d   1       0.048   0.879   0.087  0.00  0.00    -0.273 N 
ATOM      5  N   UNL d   1      -1.092  -1.126   0.035  0.00  0.00    -0.301 N 
ATOM      6  C   UNL d   1      -1.158   0.236   0.061  0.00  0.00     0.327 A 
ATOM      7  O   UNL d   1       2.298   0.933  -0.148  0.00  0.00    -0.265 OA
ATOM      8  O   UNL d   1      -2.222   0.839   0.051  0.00  0.00    -0.247 OA
ATOM      9  H   UNL d   1       0.025   1.889   0.059  0.00  0.00     0.173 HD
ATOM     10  H   UNL d   1      -1.977  -1.632   0.002  0.00  0.00     0.171 HD
ENDROOT
BRANCH   1  11
ATOM     11  C   UNL d   1      -0.126  -3.334   0.004  0.00  0.00     0.312 C 
ATOM     12  O   UNL d   1      -1.220  -3.801  -0.295  0.00  0.00    -0.258 OA
BRANCH  11  13
ATOM     13  O   UNL d   1       0.939  -4.033   0.441  0.00  0.00    -0.317 OA
BRANCH  13  14
ATOM     14  C   UNL d   1       0.765  -5.459   0.503  0.00  0.00     0.175 C 
ATOM     15  C   UNL d   1       0.918  -6.085  -0.872  0.00  0.00     0.034 C 
ENDBRANCH  13  14
ENDBRANCH  11  13
ENDBRANCH   1  11
BRANCH   2  16
ATOM     16  N   UNL d   1       2.493  -1.884  -0.125  0.00  0.00    -0.107 N 
ATOM     17  O   UNL d   1       2.711  -2.453  -1.202  0.00  0.00    -0.531 OA
ATOM     18  O   UNL d   1       3.245  -1.867   0.857  0.00  0.00    -0.531 OA
ENDBRANCH   2  16
TORSDOF 4
