REMARK  4 active torsions:
REMARK  status: ('A' for Active; 'I' for Inactive)
REMARK    1  A    between atoms: C_11  and  C_6 
REMARK    2  A    between atoms: N_10  and  C_9 
REMARK    3  A    between atoms: C_18  and  N_10 
REMARK    4  A    between atoms: C_19  and  N_10 
ROOT
ATOM      1  C   UNL d   1       3.360   1.115  -0.843  0.00  0.00     0.067 A 
ATOM      2  C   UNL d   1       4.578   1.463  -1.619  0.00  0.00     0.197 A 
ATOM      3  C   UNL d   1       2.477   2.311  -0.780  0.00  0.00     0.197 A 
ATOM      4  C   UNL d   1       4.411   2.875  -1.982  0.00  0.00     0.029 A 
ATOM      5  C   UNL d   1       3.202   3.366  -1.495  0.00  0.00     0.029 A 
ATOM      6  C   UNL d   1       3.042  -0.037  -0.244  0.00  0.00     0.031 C 
ATOM      7  O   UNL d   1       5.529   0.773  -1.918  0.00  0.00    -0.286 OA
ATOM      8  O   UNL d   1       1.391   2.416  -0.247  0.00  0.00    -0.286 OA
ATOM      9  C   UNL d   1       5.290   3.675  -2.688  0.00  0.00     0.016 A 
ATOM     10  C   UNL d   1       2.825   4.684  -1.690  0.00  0.00     0.016 A 
ATOM     11  C   UNL d   1       3.706   5.508  -2.397  0.00  0.00     0.001 A 
ATOM     12  C   UNL d   1       4.927   5.008  -2.894  0.00  0.00     0.001 A 
ENDROOT
BRANCH   6  13
ATOM     13  C   UNL d   1       3.894  -1.225  -0.223  0.00  0.00    -0.035 A 
ATOM     14  C   UNL d   1       4.883  -1.368   0.749  0.00  0.00     0.013 A 
ATOM     15  C   UNL d   1       5.668  -2.529   0.795  0.00  0.00     0.030 A 
ATOM     16  C   UNL d   1       5.478  -3.588  -0.104  0.00  0.00     0.030 A 
ATOM     17  C   UNL d   1       4.498  -3.402  -1.092  0.00  0.00     0.030 A 
ATOM     18  C   UNL d   1       3.717  -2.240  -1.159  0.00  0.00     0.013 A 
BRANCH  16  19
ATOM     19  N   UNL d   1       6.196  -4.773   0.010  0.00  0.00    -0.382 N 
BRANCH  19  20
ATOM     20  C   UNL d   1       7.621  -4.746   0.352  0.00  0.00     0.118 C 
ATOM     21  C   UNL d   1       7.856  -5.193   1.787  0.00  0.00     0.026 C 
ENDBRANCH  19  20
BRANCH  19  22
ATOM     22  C   UNL d   1       5.614  -6.055  -0.397  0.00  0.00     0.118 C 
ATOM     23  C   UNL d   1       4.449  -6.440   0.507  0.00  0.00     0.026 C 
ENDBRANCH  19  22
ENDBRANCH  16  19
ENDBRANCH   6  13
TORSDOF 4
