REMARK  2 active torsions:
REMARK  status: ('A' for Active; 'I' for Inactive)
REMARK    1  A    between atoms: N_2  and  C_1 
REMARK    2  A    between atoms: C_6  and  C_4 
REMARK       I    between atoms: N_11  and  C_6 
ROOT
ATOM      1  C   UNL d   1      -0.157   1.077  -0.012  0.00  0.00     0.215 A 
ATOM      2  O   UNL d   1      -1.032   0.035  -0.018  0.00  0.00    -0.283 OA
ATOM      3  C   UNL d   1      -0.269  -1.109  -0.008  0.00  0.00     0.145 A 
ATOM      4  C   UNL d   1       1.147   0.649   0.002  0.00  0.00     0.066 A 
ATOM      5  C   UNL d   1       1.075  -0.768   0.005  0.00  0.00     0.047 A 
ENDROOT
BRANCH   3   6
ATOM      6  C   UNL d   1      -0.920  -2.400  -0.012  0.00  0.00     0.273 C 
ATOM      7  O   UNL d   1      -0.329  -3.475  -0.005  0.00  0.00    -0.266 OA
ATOM      8  N   UNL d   1      -2.286  -2.365  -0.024  0.00  0.00    -0.364 N 
ATOM      9  H   UNL d   1      -2.796  -1.491  -0.029  0.00  0.00     0.159 HD
ATOM     10  H   UNL d   1      -2.790  -3.241  -0.028  0.00  0.00     0.159 HD
ENDBRANCH   3   6
BRANCH   1  11
ATOM     11  N   UNL d   1      -0.730   2.386  -0.021  0.00  0.00    -0.090 N 
ATOM     12  O   UNL d   1       0.066   3.334  -0.018  0.00  0.00    -0.530 OA
ATOM     13  O   UNL d   1      -1.965   2.474  -0.032  0.00  0.00    -0.530 OA
ENDBRANCH   1  11
TORSDOF 2
