REMARK  5 active torsions:
REMARK  status: ('A' for Active; 'I' for Inactive)
REMARK    1  A    between atoms: N_5  and  S_1 
REMARK    2  A    between atoms: C_9  and  S_1 
REMARK    3  A    between atoms: C_3  and  C_13 
REMARK    4  A    between atoms: C_4  and  C_10 
REMARK    5  A    between atoms: C_10  and  N_5 
ROOT
ATOM      1  S   UNL d   1       1.030  -0.034  -0.064  0.00  0.00     0.241 S 
ATOM      2  O   UNL d   1       2.408  -0.370  -0.347  0.00  0.00    -0.206 OA
ATOM      3  O   UNL d   1       0.636   1.301   0.333  0.00  0.00    -0.206 OA
ENDROOT
BRANCH   1   4
ATOM      4  N   UNL d   1       0.430  -1.097   1.114  0.00  0.00    -0.210 NA
ATOM      5  H   UNL d   1      -0.580  -1.214   1.036  0.00  0.00     0.140 HD
BRANCH   4   6
ATOM      6  C   UNL d   1       1.137  -2.379   1.192  0.00  0.00     0.161 C 
BRANCH   6   7
ATOM      7  C   UNL d   1       0.470  -3.264   2.196  0.00  0.00     0.025 A 
ATOM      8  N   UNL d   1       0.421  -3.034   3.559  0.00  0.00    -0.357 N 
ATOM      9  C   UNL d   1      -0.109  -4.144   4.195  0.00  0.00     0.007 A 
ATOM     10  C   UNL d   1       0.873  -1.842   4.250  0.00  0.00     0.156 C 
ATOM     11  C   UNL d   1      -0.238  -4.294   5.672  0.00  0.00     0.068 C 
ATOM     12  C   UNL d   1      -0.455  -5.056   3.218  0.00  0.00     0.027 A 
ATOM     13  C   UNL d   1      -0.109  -4.501   1.971  0.00  0.00     0.028 A 
ENDBRANCH   6   7
ENDBRANCH   4   6
ENDBRANCH   1   4
BRANCH   1  14
ATOM     14  C   UNL d   1       0.057  -0.464  -1.492  0.00  0.00     0.074 A 
ATOM     15  C   UNL d   1      -1.089   0.280  -1.790  0.00  0.00     0.025 A 
ATOM     16  C   UNL d   1      -1.847  -0.040  -2.918  0.00  0.00     0.018 A 
ATOM     17  C   UNL d   1      -1.466  -1.099  -3.761  0.00  0.00     0.048 A 
ATOM     18  C   UNL d   1      -0.294  -1.815  -3.464  0.00  0.00     0.018 A 
ATOM     19  C   UNL d   1       0.473  -1.495  -2.340  0.00  0.00     0.025 A 
BRANCH  17  20
ATOM     20  C   UNL d   1      -2.315  -1.444  -4.963  0.00  0.00     0.417 C 
ATOM     21  F   UNL d   1      -1.839  -2.498  -5.681  0.00  0.00    -0.166 F 
ATOM     22  F   UNL d   1      -3.590  -1.776  -4.615  0.00  0.00    -0.166 F 
ATOM     23  F   UNL d   1      -2.423  -0.410  -5.841  0.00  0.00    -0.166 F 
ENDBRANCH  17  20
ENDBRANCH   1  14
TORSDOF 5
