REMARK  8 active torsions:
REMARK  status: ('A' for Active; 'I' for Inactive)
REMARK    1  A    between atoms: C_15  and  N_1 
REMARK    2  A    between atoms: C_2  and  N_13 
REMARK    3  A    between atoms: C_18  and  N_3 
REMARK    4  A    between atoms: C_19  and  C_4 
REMARK    5  A    between atoms: S_16  and  C_7 
REMARK       I    between atoms: N_13  and  C_17 
REMARK    6  A    between atoms: C_24  and  C_15 
REMARK    7  A    between atoms: C_23  and  S_16 
REMARK    8  A    between atoms: C_17  and  C_23 
ROOT
ATOM      1  N   UNL d   1      -0.004  -1.257   0.532  0.00  0.00    -0.306 N 
ATOM      2  C   UNL d   1       1.026  -0.487   0.019  0.00  0.00     0.135 C 
ATOM      3  N   UNL d   1       0.454   0.513  -0.645  0.00  0.00    -0.283 N 
ATOM      4  HN  UNL d   1       0.948   1.195  -1.222  1.00  0.00     0.188 HD
ATOM      5  C   UNL d   1      -1.154  -0.535   0.332  0.00  0.00     0.163 C 
ATOM      6  N   UNL d   1      -0.900   0.488  -0.435  0.00  0.00    -0.278 N 
ATOM      7  HN  UNL d   1      -1.582   1.148  -0.809  1.00  0.00     0.189 HD
ENDROOT
BRANCH   5   8
ATOM      8  S   UNL d   1      -2.639  -0.845   1.156  0.00  0.00    -0.083 SA
BRANCH   8   9
ATOM      9  C   UNL d   1      -3.620  -1.659  -0.131  0.00  0.00     0.185 C 
BRANCH   9  10
ATOM     10  C   UNL d   1      -5.055  -1.862   0.357  0.00  0.00     0.233 C 
ATOM     11  N   UNL d   1      -5.582  -3.092  -0.019  0.00  0.00    -0.311 N 
ATOM     12  H   UNL d   1      -5.010  -3.749  -0.537  0.00  0.00     0.170 HD
ATOM     13  O   UNL d   1      -5.649  -1.024   1.030  0.00  0.00    -0.272 OA
BRANCH  11  14
ATOM     14  C   UNL d   1      -6.842  -3.518   0.394  0.00  0.00     0.132 C 
ATOM     15  N   UNL d   1      -7.252  -4.854   0.415  0.00  0.00    -0.240 N 
ATOM     16  N   UNL d   1      -8.590  -4.959   0.632  0.00  0.00    -0.297 N 
ATOM     17  C   UNL d   1      -8.966  -3.732   1.008  0.00  0.00     0.026 C 
ATOM     18  HN  UNL d   1      -9.176  -5.788   0.531  1.00  0.00     0.187 HD
ATOM     19  C   UNL d   1      -7.924  -2.798   0.852  0.00  0.00     0.076 C 
ATOM     20  C   UNL d   1     -10.335  -3.482   1.518  0.00  0.00     0.070 C 
BRANCH  15  21
ATOM     21  C   UNL d   1      -6.451  -6.032   0.350  0.00  0.00     0.058 A 
ATOM     22  C   UNL d   1      -5.094  -6.006   0.707  0.00  0.00     0.031 A 
ATOM     23  C   UNL d   1      -4.329  -7.172   0.658  0.00  0.00     0.002 A 
ATOM     24  C   UNL d   1      -4.916  -8.374   0.269  0.00  0.00     0.000 A 
ATOM     25  C   UNL d   1      -6.272  -8.416  -0.053  0.00  0.00     0.002 A 
ATOM     26  C   UNL d   1      -7.043  -7.252  -0.004  0.00  0.00     0.031 A 
ENDBRANCH  15  21
ENDBRANCH  11  14
ENDBRANCH   9  10
ENDBRANCH   8   9
ENDBRANCH   5   8
BRANCH   1  27
ATOM     27  C   UNL d   1       0.041  -2.618   1.035  0.00  0.00     0.171 C 
BRANCH  27  28
ATOM     28  C   UNL d   1       0.281  -2.759   2.517  0.00  0.00    -0.040 A 
ATOM     29  C   UNL d   1       0.468  -1.675   3.389  0.00  0.00     0.009 A 
ATOM     30  C   UNL d   1       0.740  -1.890   4.742  0.00  0.00     0.001 A 
ATOM     31  C   UNL d   1       0.820  -3.187   5.242  0.00  0.00     0.000 A 
ATOM     32  C   UNL d   1       0.621  -4.272   4.395  0.00  0.00     0.001 A 
ATOM     33  C   UNL d   1       0.353  -4.060   3.042  0.00  0.00     0.009 A 
ENDBRANCH  27  28
ENDBRANCH   1  27
BRANCH   2  34
ATOM     34  C   UNL d   1       2.490  -0.611   0.187  0.00  0.00     0.012 A 
ATOM     35  C   UNL d   1       3.135  -1.616   0.915  0.00  0.00     0.032 A 
ATOM     36  C   UNL d   1       4.519  -1.577   1.056  0.00  0.00     0.088 A 
ATOM     37  N   UNL d   1       5.301  -0.618   0.531  0.00  0.00    -0.375 N 
ATOM     38  C   UNL d   1       4.676   0.350  -0.161  0.00  0.00     0.088 A 
ATOM     39  HN  UNL d   1       6.314  -0.625   0.652  1.00  0.00     0.164 HD
ATOM     40  C   UNL d   1       3.304   0.392  -0.355  0.00  0.00     0.032 A 
ENDBRANCH   2  34
TORSDOF 8
