REMARK  4 active torsions:
REMARK  status: ('A' for Active; 'I' for Inactive)
REMARK    1  A    between atoms: C_2  and  N_1 
REMARK       I    between atoms: C_3  and  N_1 
REMARK    2  A    between atoms: C_7  and  C_3 
REMARK    3  A    between atoms: C_4  and  O_6 
REMARK    4  A    between atoms: O_6  and  C_5 
ROOT
ATOM      1  C   UNL d   1       0.423   0.768   1.083  0.00  0.00     0.090 A 
ATOM      2  C   UNL d   1      -0.707   0.074   1.560  0.00  0.00     0.106 A 
ATOM      3  C   UNL d   1       0.776   1.992   1.701  0.00  0.00     0.063 A 
ATOM      4 CL   UNL d   1       1.994   3.047   1.053  0.00  0.00    -0.082 Cl
ATOM      5  C   UNL d   1      -1.392   0.563   2.687  0.00  0.00     0.039 A 
ATOM      6  C   UNL d   1      -1.006   1.746   3.312  0.00  0.00     0.005 A 
ATOM      7  C   UNL d   1       0.071   2.469   2.810  0.00  0.00     0.026 A 
ENDROOT
BRANCH   1   8
ATOM      8  N   UNL d   1       1.192   0.257   0.010  0.00  0.00    -0.323 N 
ATOM      9  C   UNL d   1       2.554   0.030   0.116  0.00  0.00     0.230 C 
ATOM     10  O   UNL d   1       3.170   0.121   1.179  0.00  0.00    -0.272 OA
ATOM     11  H   UNL d   1       0.703  -0.233  -0.727  0.00  0.00     0.169 HD
BRANCH   9  12
ATOM     12  C   UNL d   1       3.245  -0.383  -1.197  0.00  0.00     0.030 C 
ATOM     13  C   UNL d   1       3.076   0.732  -2.240  0.00  0.00     0.025 C 
ATOM     14  C   UNL d   1       4.747  -0.587  -0.927  0.00  0.00     0.025 C 
ATOM     15  C   UNL d   1       2.661  -1.697  -1.736  0.00  0.00     0.025 C 
ENDBRANCH   9  12
ENDBRANCH   1   8
BRANCH   2  16
ATOM     16  O   UNL d   1      -1.108  -1.182   1.201  0.00  0.00    -0.253 OA
BRANCH  16  17
ATOM     17  C   UNL d   1      -1.326  -1.506  -0.159  0.00  0.00     0.530 C 
ATOM     18  F   UNL d   1      -0.931  -0.545  -1.022  0.00  0.00    -0.144 F 
ATOM     19  F   UNL d   1      -0.635  -2.630  -0.449  0.00  0.00    -0.144 F 
ATOM     20  F   UNL d   1      -2.638  -1.747  -0.363  0.00  0.00    -0.144 F 
ENDBRANCH  16  17
ENDBRANCH   2  16
TORSDOF 4
