REMARK  5 active torsions:
REMARK  status: ('A' for Active; 'I' for Inactive)
REMARK    1  A    between atoms: C_6  and  C_1 
REMARK    2  A    between atoms: N_2  and  C_7 
REMARK    3  A    between atoms: C_3  and  C_4 
REMARK    4  A    between atoms: N_8  and  C_5 
REMARK    5  A    between atoms: O_18  and  C_6 
ROOT
ATOM      1  C   UNL d   1      -0.770  -1.330  -0.013  0.00  0.00     0.120 C 
ATOM      2  C   UNL d   1       0.172  -0.908  -0.883  0.00  0.00     0.042 C 
ATOM      3  C   UNL d   1      -1.359  -0.370   0.873  0.00  0.00     0.105 C 
ATOM      4  N   UNL d   1      -1.792   0.452   1.575  0.00  0.00    -0.191 NA
ENDROOT
BRANCH   1   5
ATOM      5  C   UNL d   1      -1.214  -2.738   0.184  0.00  0.00     0.303 C 
ATOM      6  O   UNL d   1      -1.808  -3.092   1.198  0.00  0.00    -0.258 OA
BRANCH   5   7
ATOM      7  O   UNL d   1      -0.939  -3.558  -0.862  0.00  0.00    -0.322 OA
ATOM      8  C   UNL d   1      -1.351  -4.915  -0.659  0.00  0.00     0.213 C 
ENDBRANCH   5   7
ENDBRANCH   1   5
BRANCH   2   9
ATOM      9  C   UNL d   1       0.994  -1.715  -1.811  0.00  0.00    -0.006 A 
ATOM     10  C   UNL d   1       2.064  -2.560  -1.398  0.00  0.00     0.040 A 
ATOM     11  C   UNL d   1       2.724  -3.293  -2.409  0.00  0.00     0.032 A 
ATOM     12  C   UNL d   1       2.346  -3.224  -3.757  0.00  0.00     0.038 A 
ATOM     13  C   UNL d   1       1.282  -2.404  -4.127  0.00  0.00     0.103 A 
ATOM     14  C   UNL d   1       0.614  -1.643  -3.165  0.00  0.00     0.049 A 
BRANCH  10  15
ATOM     15  N   UNL d   1       2.400  -2.732  -0.062  0.00  0.00    -0.376 N 
ATOM     16  C   UNL d   1       3.049  -3.965   0.432  0.00  0.00     0.149 C 
ATOM     17  C   UNL d   1       2.567  -4.234   1.872  0.00  0.00     0.187 C 
ATOM     18  O   UNL d   1       2.794  -3.108   2.739  0.00  0.00    -0.388 OA
ATOM     19  C   UNL d   1       2.140  -1.935   2.224  0.00  0.00     0.187 C 
ATOM     20  C   UNL d   1       2.678  -1.586   0.826  0.00  0.00     0.149 C 
ENDBRANCH  10  15
BRANCH  13  21
ATOM     21  N   UNL d   1       0.842  -2.353  -5.527  0.00  0.00    -0.116 N 
ATOM     22  O   UNL d   1      -0.129  -1.633  -5.800  0.00  0.00    -0.532 OA
ATOM     23  O   UNL d   1       1.465  -3.036  -6.353  0.00  0.00    -0.532 OA
ENDBRANCH  13  21
ENDBRANCH   2   9
TORSDOF 5
