REMARK  2 active torsions:
REMARK  status: ('A' for Active; 'I' for Inactive)
REMARK    1  A    between atoms: C_8  and  N_1 
REMARK    2  A    between atoms: C_9  and  C_8 
ROOT
ATOM      1  N   UNL d   1       3.178  -5.476  -1.239  0.00  0.00    -0.197 NA
ATOM      2  C   UNL d   1       2.797  -4.386  -1.303  0.00  0.00     0.060 C 
ATOM      3  C   UNL d   1       2.312  -2.999  -1.390  0.00  0.00     0.144 C 
ENDROOT
BRANCH   3   4
ATOM      4  C   UNL d   1       2.108  -2.409   0.002  0.00  0.00     0.142 C 
BRANCH   4   5
ATOM      5  N   UNL d   1       1.618  -1.037  -0.016  0.00  0.00    -0.355 N 
ATOM      6  C   UNL d   1       2.414   0.079  -0.004  0.00  0.00     0.099 A 
ATOM      7  C   UNL d   1       1.606   1.198  -0.002  0.00  0.00    -0.034 A 
ATOM      8  C   UNL d   1       2.058   2.613  -0.000  0.00  0.00     0.050 C 
ATOM      9  C   UNL d   1       0.256   0.733  -0.001  0.00  0.00    -0.002 A 
ATOM     10  C   UNL d   1       0.287  -0.665  -0.004  0.00  0.00     0.045 A 
ATOM     11  C   UNL d   1      -0.994   1.387   0.000  0.00  0.00     0.014 A 
ATOM     12  C   UNL d   1      -0.891  -1.431  -0.001  0.00  0.00     0.030 A 
ATOM     13  C   UNL d   1      -2.116  -0.756  -0.000  0.00  0.00     0.002 A 
ATOM     14  C   UNL d   1      -2.170   0.633  -0.000  0.00  0.00     0.001 A 
ENDBRANCH   4   5
ENDBRANCH   3   4
TORSDOF 2
