REMARK  6 active torsions:
REMARK  status: ('A' for Active; 'I' for Inactive)
REMARK    1  A    between atoms: C_7  and  C_1 
REMARK    2  A    between atoms: S_2  and  C_7 
REMARK    3  A    between atoms: C_9  and  S_2 
REMARK    4  A    between atoms: C_8  and  C_3 
REMARK    5  A    between atoms: C_10  and  C_5 
REMARK    6  A    between atoms: O_16  and  C_8 
ROOT
ATOM      1  C   UNL d   1       1.328   0.911   0.108  0.00  0.00    -0.020 A 
ATOM      2  C   UNL d   1       0.011   1.334   0.297  0.00  0.00     0.087 A 
ATOM      3  S   UNL d   1      -1.069  -0.006   0.367  0.00  0.00    -0.087 SA
ATOM      4  C   UNL d   1       0.162  -1.167   0.131  0.00  0.00    -0.008 A 
ATOM      5  C   UNL d   1       1.385  -0.532   0.029  0.00  0.00     0.025 A 
ENDROOT
BRANCH   1   6
ATOM      6  C   UNL d   1       2.567   1.762  -0.084  0.00  0.00     0.185 C 
BRANCH   6   7
ATOM      7  S   UNL d   1       3.884   1.464   1.104  0.00  0.00     0.179 S 
ATOM      8  O   UNL d   1       3.496   1.999   2.395  0.00  0.00    -0.222 OA
ATOM      9  O   UNL d   1       4.355   0.096   0.976  0.00  0.00    -0.222 OA
BRANCH   7  10
ATOM     10  C   UNL d   1       5.202   2.505   0.485  0.00  0.00     0.059 A 
ATOM     11  C   UNL d   1       5.298   3.829   0.917  0.00  0.00     0.024 A 
ATOM     12  C   UNL d   1       6.345   4.629   0.451  0.00  0.00     0.008 A 
ATOM     13  C   UNL d   1       7.301   4.112  -0.434  0.00  0.00    -0.062 A 
ATOM     14  C   UNL d   1       7.200   2.776  -0.846  0.00  0.00     0.008 A 
ATOM     15  C   UNL d   1       8.428   4.982  -0.912  0.00  0.00     0.048 C 
ATOM     16  C   UNL d   1       6.156   1.970  -0.386  0.00  0.00     0.024 A 
ENDBRANCH   7  10
ENDBRANCH   6   7
ENDBRANCH   1   6
BRANCH   2  17
ATOM     17  C   UNL d   1      -0.616   2.649   0.419  0.00  0.00     0.300 C 
ATOM     18  O   UNL d   1      -1.808   2.868   0.604  0.00  0.00    -0.259 OA
BRANCH  17  19
ATOM     19  O   UNL d   1       0.306   3.646   0.277  0.00  0.00    -0.322 OA
ATOM     20  C   UNL d   1      -0.246   4.961   0.372  0.00  0.00     0.213 C 
ENDBRANCH  17  19
ENDBRANCH   2  17
BRANCH   4  21
ATOM     21  C   UNL d   1      -0.172  -2.663   0.036  0.00  0.00    -0.018 C 
ATOM     22  C   UNL d   1       1.111  -3.517  -0.055  0.00  0.00     0.020 C 
ATOM     23  C   UNL d   1      -0.957  -3.137   1.276  0.00  0.00     0.020 C 
ATOM     24  C   UNL d   1      -1.008  -2.941  -1.231  0.00  0.00     0.020 C 
ENDBRANCH   4  21
TORSDOF 6
