REMARK  6 active torsions:
REMARK  status: ('A' for Active; 'I' for Inactive)
REMARK    1  A    between atoms: C_2  and  C_1 
REMARK    2  A    between atoms: N_14  and  C_3 
REMARK    3  A    between atoms: N_13  and  C_5 
REMARK    4  A    between atoms: C_17  and  N_13 
REMARK    5  A    between atoms: C_15  and  C_16 
REMARK    6  A    between atoms: C_16  and  C_17 
ROOT
ATOM      1  C   UNL d   1       0.639  -1.011   0.924  0.00  0.00     0.049 C 
ATOM      2  C   UNL d   1      -0.195  -2.009   2.984  0.00  0.00     0.028 C 
ATOM      3  C   UNL d   1       0.224  -0.888   2.258  0.00  0.00     0.041 C 
ATOM      4  C   UNL d   1      -0.059  -3.304   2.426  0.00  0.00     0.029 C 
ATOM      5  C   UNL d   1       0.653  -2.281   0.336  0.00  0.00     0.018 C 
ATOM      6  C   UNL d   1       0.293  -3.411   1.076  0.00  0.00     0.026 C 
ENDROOT
BRANCH   4   7
ATOM      7  N   UNL d   1      -0.394  -4.417   3.225  0.00  0.00    -0.291 NA
ATOM      8  H   UNL d   1      -0.209  -4.175   4.200  0.00  0.00     0.127 HD
BRANCH   7   9
ATOM      9  C   UNL d   1       0.169  -5.735   2.901  0.00  0.00     0.098 C 
BRANCH   9  10
ATOM     10  C   UNL d   1       1.688  -5.768   3.096  0.00  0.00     0.071 C 
BRANCH  10  11
ATOM     11  C   UNL d   1       2.260  -7.110   2.731  0.00  0.00     0.010 A 
ATOM     12  N   UNL d   1       1.844  -8.174   3.458  0.00  0.00    -0.369 N 
ATOM     13  C   UNL d   1       2.366  -9.380   3.150  0.00  0.00     0.088 A 
ATOM     14  HN  UNL d   1       1.162  -8.068   4.210  1.00  0.00     0.165 HD
ATOM     15  C   UNL d   1       3.294  -9.583   2.143  0.00  0.00     0.017 A 
ATOM     16  C   UNL d   1       3.712  -8.483   1.406  0.00  0.00     0.003 A 
ATOM     17  C   UNL d   1       3.193  -7.226   1.701  0.00  0.00     0.025 A 
ENDBRANCH  10  11
ENDBRANCH   9  10
ENDBRANCH   7   9
ENDBRANCH   4   7
BRANCH   2  18
ATOM     18  N   UNL d   1      -0.542  -1.865   4.350  0.00  0.00    -0.301 NA
ATOM     19  H   UNL d   1      -0.879  -0.932   4.570  0.00  0.00     0.124 HD
ATOM     20  H   UNL d   1      -1.238  -2.564   4.602  0.00  0.00     0.124 HD
ENDBRANCH   2  18
BRANCH   1  21
ATOM     21  C   UNL d   1       1.057   0.192   0.120  0.00  0.00     0.417 C 
ATOM     22  F   UNL d   1       0.955   1.369   0.799  0.00  0.00    -0.166 F 
ATOM     23  F   UNL d   1       0.311   0.348  -1.009  0.00  0.00    -0.166 F 
ATOM     24  F   UNL d   1       2.351   0.114  -0.298  0.00  0.00    -0.166 F 
ENDBRANCH   1  21
TORSDOF 6
