REMARK  3 active torsions:
REMARK  status: ('A' for Active; 'I' for Inactive)
REMARK    1  A    between atoms: N_2  and  S_1 
REMARK    2  A    between atoms: C_3  and  S_1 
REMARK    3  A    between atoms: N_7  and  C_4 
ROOT
ATOM      1  C   UNL d   1       0.828  -0.167  -1.903  0.00  0.00     0.095 A 
ATOM      2  C   UNL d   1      -0.250   0.140  -4.436  0.00  0.00     0.103 A 
ATOM      3  N   UNL d   1       0.618   1.060  -3.951  0.00  0.00    -0.351 N 
ATOM      4  HN  UNL d   1       0.877   1.869  -4.515  1.00  0.00     0.166 HD
ATOM      5  C   UNL d   1       1.141   0.900  -2.711  0.00  0.00     0.115 A 
ATOM      6  C   UNL d   1       0.025  -1.175  -2.416  0.00  0.00     0.030 A 
ATOM      7  C   UNL d   1      -0.513  -1.016  -3.696  0.00  0.00     0.050 A 
ENDROOT
BRANCH   1   8
ATOM      8  S   UNL d   1       1.306  -0.158  -0.214  0.00  0.00     0.262 S 
ATOM      9  O   UNL d   1       1.967  -1.422   0.049  0.00  0.00    -0.200 OA
ATOM     10  O   UNL d   1       1.969   1.095   0.066  0.00  0.00    -0.200 OA
BRANCH   8  11
ATOM     11  N   UNL d   1      -0.198  -0.169   0.606  0.00  0.00    -0.306 N 
ATOM     12  C   UNL d   1      -1.188   0.896   0.300  0.00  0.00     0.139 C 
ATOM     13  C   UNL d   1      -0.849   2.206   1.011  0.00  0.00     0.000 C 
ATOM     14  C   UNL d   1      -1.892   3.277   0.692  0.00  0.00     0.011 C 
ATOM     15  C   UNL d   1      -0.736   1.980   2.523  0.00  0.00     0.007 C 
ATOM     16  C   UNL d   1       0.184   0.807   2.865  0.00  0.00     0.021 C 
ATOM     17  C   UNL d   1      -0.136  -0.450   2.063  0.00  0.00     0.135 C 
ENDBRANCH   8  11
ENDBRANCH   1   8
BRANCH   2  18
ATOM     18  N   UNL d   1      -0.930   0.441  -5.594  0.00  0.00    -0.363 N 
ATOM     19  C   UNL d   1      -1.522  -0.545  -6.504  0.00  0.00     0.150 C 
ATOM     20  C   UNL d   1      -0.757  -0.565  -7.840  0.00  0.00     0.187 C 
ATOM     21  O   UNL d   1      -0.645   0.744  -8.423  0.00  0.00    -0.388 OA
ATOM     22  C   UNL d   1       0.026   1.639  -7.516  0.00  0.00     0.187 C 
ATOM     23  C   UNL d   1      -0.754   1.770  -6.204  0.00  0.00     0.150 C 
ENDBRANCH   2  18
TORSDOF 3
