REMARK  2 active torsions:
REMARK  status: ('A' for Active; 'I' for Inactive)
REMARK    1  A    between atoms: C_6  and  C_1 
REMARK    2  A    between atoms: C_5  and  C_2 
ROOT
ATOM      1  C   UNL d   1      -1.352  -0.794   0.062  0.00  0.00     0.083 A 
ATOM      2  C   UNL d   1      -0.022  -1.321  -0.036  0.00  0.00     0.075 A 
ATOM      3  N   UNL d   1      -1.313   0.539   0.212  0.00  0.00    -0.259 N 
ATOM      4  HN  UNL d   1      -2.112   1.163   0.327  1.00  0.00     0.195 HD
ATOM      5  O   UNL d   1       0.011   0.901   0.180  0.00  0.00    -0.241 OA
ATOM      6  C   UNL d   1       0.786  -0.204   0.048  0.00  0.00     0.089 A 
ATOM      7  C   UNL d   1       2.240   0.048   0.011  0.00  0.00     0.080 C 
ENDROOT
BRANCH   1   8
ATOM      8  C   UNL d   1      -2.632  -1.512   0.125  0.00  0.00     0.015 A 
ATOM      9  C   UNL d   1      -3.782  -1.105  -0.576  0.00  0.00     0.046 A 
ATOM     10 CL   UNL d   1      -3.807   0.243  -1.662  0.00  0.00    -0.083 Cl
ATOM     11  C   UNL d   1      -4.982  -1.819  -0.443  0.00  0.00     0.025 A 
ATOM     12  C   UNL d   1      -5.049  -2.951   0.367  0.00  0.00     0.002 A 
ATOM     13  C   UNL d   1      -3.920  -3.370   1.060  0.00  0.00     0.001 A 
ATOM     14  C   UNL d   1      -2.729  -2.649   0.954  0.00  0.00     0.015 A 
ENDBRANCH   1   8
BRANCH   2  15
ATOM     15  C   UNL d   1       0.426  -2.677  -0.164  0.00  0.00     0.153 C 
ATOM     16  N   UNL d   1       1.542  -3.097   0.336  0.00  0.00    -0.368 N 
ATOM     17  C   UNL d   1       1.576  -4.516  -0.031  0.00  0.00     0.148 C 
ATOM     18  HN  UNL d   1       2.235  -2.565   0.863  1.00  0.00     0.161 HD
ATOM     19  C   UNL d   1       0.222  -4.812  -0.636  0.00  0.00     0.197 C 
ATOM     20  O   UNL d   1      -0.382  -3.543  -0.821  0.00  0.00    -0.334 OA
ENDBRANCH   2  15
TORSDOF 2
