REMARK  4 active torsions:
REMARK  status: ('A' for Active; 'I' for Inactive)
REMARK    1  A    between atoms: C_3  and  N_1 
REMARK    2  A    between atoms: C_2  and  S_4 
REMARK    3  A    between atoms: S_4  and  C_14 
REMARK    4  A    between atoms: C_14  and  C_7 
ROOT
ATOM      1  C   UNL d   1      -1.677  -0.288  -5.159  0.00  0.00     0.119 C 
ENDROOT
BRANCH   1   2
ATOM      2  S   UNL d   1      -1.004  -1.478  -6.387  0.00  0.00    -0.122 SA
BRANCH   2   3
ATOM      3  C   UNL d   1      -2.140  -1.253  -7.765  0.00  0.00     0.047 A 
ATOM      4  C   UNL d   1      -2.022  -0.169  -8.651  0.00  0.00     0.067 A 
ATOM      5 CL   UNL d   1      -0.888   1.118  -8.443  0.00  0.00    -0.081 Cl
ATOM      6  C   UNL d   1      -2.845  -0.129  -9.774  0.00  0.00     0.113 A 
ATOM      7  N   UNL d   1      -3.764  -1.073 -10.076  0.00  0.00    -0.372 N 
ATOM      8  C   UNL d   1      -3.865  -2.108  -9.212  0.00  0.00     0.113 A 
ATOM      9  HN  UNL d   1      -4.348  -1.009 -10.910  1.00  0.00     0.164 HD
ATOM     10  C   UNL d   1      -3.096  -2.241  -8.061  0.00  0.00     0.067 A 
ATOM     11 CL   UNL d   1      -3.370  -3.629  -7.069  0.00  0.00    -0.081 Cl
ENDBRANCH   2   3
ENDBRANCH   1   2
BRANCH   1  12
ATOM     12  C   UNL d   1      -0.850  -0.239  -3.883  0.00  0.00    -0.027 A 
ATOM     13  C   UNL d   1       0.559  -0.238  -3.952  0.00  0.00     0.012 A 
ATOM     14  C   UNL d   1       1.351  -0.223  -2.803  0.00  0.00     0.037 A 
ATOM     15  C   UNL d   1       0.738  -0.173  -1.549  0.00  0.00     0.104 A 
ATOM     16  C   UNL d   1      -0.656  -0.107  -1.446  0.00  0.00     0.060 A 
ATOM     17  C   UNL d   1      -1.440  -0.134  -2.608  0.00  0.00     0.043 A 
ATOM     18 CL   UNL d   1      -3.152  -0.005  -2.398  0.00  0.00    -0.084 Cl
BRANCH  15  19
ATOM     19  N   UNL d   1       1.563  -0.174  -0.335  0.00  0.00    -0.116 N 
ATOM     20  O   UNL d   1       0.984  -0.066   0.753  0.00  0.00    -0.532 OA
ATOM     21  O   UNL d   1       2.790  -0.284  -0.474  0.00  0.00    -0.532 OA
ENDBRANCH  15  19
ENDBRANCH   1  12
TORSDOF 4
