REMARK  4 active torsions:
REMARK  status: ('A' for Active; 'I' for Inactive)
REMARK       I    between atoms: N_3  and  C_1 
REMARK    1  A    between atoms: C_4  and  C_1 
REMARK    2  A    between atoms: C_2  and  N_5 
REMARK    3  A    between atoms: N_9  and  C_2 
REMARK    4  A    between atoms: N_5  and  N_3 
ROOT
ATOM      1  C   UNL d   1       2.467  -0.210   0.172  0.00  0.00     0.270 C 
ATOM      2  N   UNL d   1       2.987  -1.347  -0.429  0.00  0.00    -0.264 N 
ATOM      3  O   UNL d   1       3.189   0.618   0.722  0.00  0.00    -0.266 OA
ATOM      4  H   UNL d   1       2.429  -2.037  -0.924  0.00  0.00     0.190 HD
ENDROOT
BRANCH   1   5
ATOM      5  C   UNL d   1       0.977  -0.052   0.099  0.00  0.00     0.039 A 
ATOM      6  C   UNL d   1       0.349   1.210  -0.011  0.00  0.00    -0.046 A 
ATOM      7  C   UNL d   1       1.070   2.533  -0.063  0.00  0.00     0.049 C 
ATOM      8  C   UNL d   1      -1.060   1.267  -0.062  0.00  0.00     0.007 A 
ATOM      9  C   UNL d   1      -1.834   0.112  -0.011  0.00  0.00     0.001 A 
ATOM     10  C   UNL d   1      -1.215  -1.127   0.104  0.00  0.00     0.001 A 
ATOM     11  C   UNL d   1       0.177  -1.209   0.167  0.00  0.00     0.017 A 
ENDBRANCH   1   5
BRANCH   2  12
ATOM     12  N   UNL d   1       4.381  -1.525  -0.454  0.00  0.00    -0.274 N 
ATOM     13  H   UNL d   1       4.898  -0.750  -0.043  0.00  0.00     0.189 HD
BRANCH  12  14
ATOM     14  C   UNL d   1       4.940  -2.799  -0.424  0.00  0.00     0.186 C 
ATOM     15  S   UNL d   1       4.039  -4.211  -0.432  0.00  0.00    -0.040 SA
BRANCH  14  16
ATOM     16  N   UNL d   1       6.319  -2.728  -0.436  0.00  0.00    -0.370 N 
ATOM     17  C   UNL d   1       7.261  -3.835  -0.450  0.00  0.00     0.148 C 
ATOM     18  H   UNL d   1       6.714  -1.821  -0.645  0.00  0.00     0.161 HD
ENDBRANCH  14  16
ENDBRANCH  12  14
ENDBRANCH   2  12
TORSDOF 4
