REMARK  5 active torsions:
REMARK  status: ('A' for Active; 'I' for Inactive)
REMARK    1  A    between atoms: S_9  and  C_1 
REMARK    2  A    between atoms: N_10  and  C_4 
REMARK    3  A    between atoms: N_8  and  C_12 
REMARK    4  A    between atoms: C_14  and  S_9 
REMARK    5  A    between atoms: N_21  and  C_13 
ROOT
ATOM      1  C   UNL d   1      -0.176  -1.078   0.096  0.00  0.00     0.182 A 
ATOM      2  N   UNL d   1      -1.402  -0.602   0.163  0.00  0.00    -0.167 N 
ATOM      3  HN  UNL d   1      -2.279  -1.118   0.232  1.00  0.00     0.186 HD
ATOM      4  C   UNL d   1      -1.213   0.751   0.117  0.00  0.00     0.700 A 
ATOM      5  N   UNL d   1       0.061   1.137   0.050  0.00  0.00    -0.128 N 
ATOM      6  HN  UNL d   1       0.446   2.082   0.038  1.00  0.00     0.206 HD
ATOM      7  N   UNL d   1       0.709  -0.039   0.002  0.00  0.00    -0.260 N 
ATOM      8  C   UNL d   1       2.134  -0.024  -0.191  0.00  0.00     0.181 C 
ENDROOT
BRANCH   1   9
ATOM      9  S   UNL d   1       0.220  -2.756  -0.079  0.00  0.00    -0.034 SA
BRANCH   9  10
ATOM     10  C   UNL d   1       1.145  -3.048   1.413  0.00  0.00     0.077 A 
ATOM     11  N   UNL d   1       2.366  -2.470   1.509  0.00  0.00    -0.358 N 
ATOM     12  C   UNL d   1       3.118  -2.745   2.606  0.00  0.00     0.124 A 
ATOM     13  HN  UNL d   1       2.711  -1.846   0.779  1.00  0.00     0.166 HD
ATOM     14  C   UNL d   1       2.705  -3.600   3.613  0.00  0.00     0.118 A 
ATOM     15  C   UNL d   1       1.456  -4.213   3.498  0.00  0.00     0.040 A 
ATOM     16  C   UNL d   1       0.667  -3.933   2.378  0.00  0.00     0.040 A 
BRANCH  14  17
ATOM     17  N   UNL d   1       3.575  -3.849   4.756  0.00  0.00    -0.114 N 
ATOM     18  O   UNL d   1       4.666  -3.266   4.785  0.00  0.00    -0.532 OA
ATOM     19  O   UNL d   1       3.166  -4.630   5.625  0.00  0.00    -0.532 OA
ENDBRANCH  14  17
ENDBRANCH   9  10
ENDBRANCH   1   9
BRANCH   4  20
ATOM     20  N   UNL d   1      -2.167   1.762   0.099  0.00  0.00    -0.186 N 
ATOM     21  C   UNL d   1      -3.389   1.356   0.091  0.00  0.00     0.195 C 
ATOM     22  HN  UNL d   1      -1.917   2.751   0.092  1.00  0.00     0.185 HD
BRANCH  21  23
ATOM     23  N   UNL d   1      -4.490   2.189   0.054  0.00  0.00    -0.385 N 
ATOM     24  C   UNL d   1      -5.852   1.693   0.104  0.00  0.00     0.149 C 
ATOM     25  C   UNL d   1      -4.343   3.637  -0.018  0.00  0.00     0.149 C 
ENDBRANCH  21  23
ENDBRANCH   4  20
TORSDOF 5
