REMARK  7 active torsions:
REMARK  status: ('A' for Active; 'I' for Inactive)
REMARK    1  A    between atoms: N_4  and  C_1 
REMARK       I    between atoms: C_5  and  N_4 
REMARK       I    between atoms: N_9  and  C_5 
REMARK    2  A    between atoms: C_10  and  C_6 
REMARK    3  A    between atoms: C_8  and  N_9 
REMARK    4  A    between atoms: C_13  and  C_10 
REMARK    5  A    between atoms: O_20  and  C_13 
REMARK    6  A    between atoms: O_22  and  C_14 
REMARK    7  A    between atoms: C_23  and  O_20 
ROOT
ATOM      1  N   UNL d   1      -0.143  -1.731  -0.320  0.00  0.00    -0.288 N 
ATOM      2  C   UNL d   1       0.512  -2.920  -0.194  0.00  0.00     0.326 C 
ATOM      3  N   UNL d   1       1.838  -3.000  -0.514  0.00  0.00    -0.306 N 
ATOM      4  O   UNL d   1      -0.145  -3.883   0.190  0.00  0.00    -0.247 OA
ATOM      5  H   UNL d   1      -1.117  -1.815  -0.062  0.00  0.00     0.172 HD
ATOM      6  H   UNL d   1       2.217  -2.268  -1.099  0.00  0.00     0.171 HD
ENDROOT
BRANCH   1   7
ATOM      7  C   UNL d   1       0.205  -0.435  -0.626  0.00  0.00     0.152 A 
ATOM      8  N   UNL d   1      -0.677   0.539  -0.591  0.00  0.00    -0.339 N 
ATOM      9  C   UNL d   1      -0.103   1.777  -0.932  0.00  0.00     0.027 A 
ATOM     10  HN  UNL d   1      -1.660   0.413  -0.346  1.00  0.00     0.168 HD
ATOM     11  C   UNL d   1       1.245   1.671  -1.225  0.00  0.00     0.078 A 
ATOM     12  S   UNL d   1       1.775   0.036  -1.071  0.00  0.00    -0.064 SA
BRANCH   9  13
ATOM     13  C   UNL d   1      -0.991   3.004  -0.870  0.00  0.00     0.168 C 
BRANCH  13  14
ATOM     14  C   UNL d   1      -0.545   4.277  -1.585  0.00  0.00     0.264 C 
ATOM     15  O   UNL d   1       0.438   4.405  -2.307  0.00  0.00    -0.265 OA
BRANCH  14  16
ATOM     16  O   UNL d   1      -1.458   5.275  -1.339  0.00  0.00    -0.322 OA
BRANCH  16  17
ATOM     17  C   UNL d   1      -1.400   6.480  -2.134  0.00  0.00     0.174 C 
ATOM     18  C   UNL d   1      -0.708   7.620  -1.406  0.00  0.00     0.034 C 
ENDBRANCH  16  17
ENDBRANCH  14  16
ENDBRANCH  13  14
ENDBRANCH   9  13
ENDBRANCH   1   7
BRANCH   3  19
ATOM     19  C   UNL d   1       2.727  -4.063  -0.205  0.00  0.00     0.071 C 
ATOM     20  C   UNL d   1       2.544  -4.882   0.919  0.00  0.00     0.056 C 
ATOM     21  C   UNL d   1       3.600  -5.674   1.391  0.00  0.00     0.036 C 
ATOM     22 CL   UNL d   1       3.408  -6.573   2.850  0.00  0.00    -0.084 Cl
ATOM     23  C   UNL d   1       4.823  -5.702   0.731  0.00  0.00     0.026 C 
ATOM     24  C   UNL d   1       4.973  -4.988  -0.459  0.00  0.00     0.041 C 
ATOM     25  C   UNL d   1       3.918  -4.200  -0.944  0.00  0.00     0.095 C 
BRANCH  25  26
ATOM     26  O   UNL d   1       4.158  -3.568  -2.141  0.00  0.00    -0.354 OA
ATOM     27  C   UNL d   1       3.107  -3.723  -3.101  0.00  0.00     0.210 C 
ENDBRANCH  25  26
ENDBRANCH   3  19
TORSDOF 7
