REMARK  5 active torsions:
REMARK  status: ('A' for Active; 'I' for Inactive)
REMARK    1  A    between atoms: N_2  and  S_1 
REMARK    2  A    between atoms: C_8  and  S_1 
REMARK       I    between atoms: C_3  and  N_2 
REMARK       I    between atoms: N_11  and  C_3 
REMARK    3  A    between atoms: C_4  and  C_7 
REMARK    4  A    between atoms: C_5  and  C_6 
REMARK    5  A    between atoms: C_10  and  N_11 
ROOT
ATOM      1  N   UNL d   1       0.009   1.512   3.372  0.00  0.00    -0.232 N 
ATOM      2  C   UNL d   1       0.771   0.895   2.385  0.00  0.00     0.334 C 
ATOM      3  N   UNL d   1       1.525  -0.152   2.861  0.00  0.00    -0.308 N 
ATOM      4  O   UNL d   1       0.733   1.274   1.229  0.00  0.00    -0.246 OA
ATOM      5  H   UNL d   1      -0.033   1.191   4.330  0.00  0.00     0.183 HD
ATOM      6  H   UNL d   1       1.442  -0.357   3.844  0.00  0.00     0.170 HD
ENDROOT
BRANCH   3   7
ATOM      7  C   UNL d   1       2.497  -0.878   2.137  0.00  0.00     0.037 A 
ATOM      8  C   UNL d   1       2.771  -0.665   0.783  0.00  0.00     0.045 A 
ATOM      9  C   UNL d   1       3.833  -1.316   0.136  0.00  0.00     0.050 A 
ATOM     10  C   UNL d   1       4.617  -2.220   0.862  0.00  0.00     0.032 A 
ATOM     11  C   UNL d   1       4.351  -2.470   2.217  0.00  0.00     0.050 A 
ATOM     12  C   UNL d   1       3.271  -1.811   2.837  0.00  0.00     0.045 A 
BRANCH   9  13
ATOM     13  C   UNL d   1       4.128  -0.987  -1.309  0.00  0.00     0.417 C 
ATOM     14  F   UNL d   1       5.246  -1.601  -1.784  0.00  0.00    -0.166 F 
ATOM     15  F   UNL d   1       3.117  -1.350  -2.144  0.00  0.00    -0.166 F 
ATOM     16  F   UNL d   1       4.323   0.345  -1.508  0.00  0.00    -0.166 F 
ENDBRANCH   9  13
BRANCH  11  17
ATOM     17  C   UNL d   1       5.230  -3.401   3.019  0.00  0.00     0.417 C 
ATOM     18  F   UNL d   1       6.381  -3.743   2.380  0.00  0.00    -0.166 F 
ATOM     19  F   UNL d   1       5.611  -2.852   4.206  0.00  0.00    -0.166 F 
ATOM     20  F   UNL d   1       4.606  -4.569   3.329  0.00  0.00    -0.166 F 
ENDBRANCH  11  17
ENDBRANCH   3   7
BRANCH   1  21
ATOM     21  S   UNL d   1      -1.026   2.786   3.055  0.00  0.00     0.266 S 
ATOM     22  O   UNL d   1      -0.278   3.880   2.485  0.00  0.00    -0.200 OA
ATOM     23  O   UNL d   1      -1.801   2.961   4.268  0.00  0.00    -0.200 OA
BRANCH  21  24
ATOM     24  C   UNL d   1      -2.112   2.094   1.830  0.00  0.00     0.080 A 
ATOM     25  C   UNL d   1      -3.071   1.156   2.226  0.00  0.00     0.027 A 
ATOM     26  C   UNL d   1      -3.838   0.510   1.255  0.00  0.00     0.025 A 
ATOM     27  C   UNL d   1      -3.649   0.813  -0.095  0.00  0.00     0.034 A 
ATOM     28  C   UNL d   1      -2.722   1.781  -0.484  0.00  0.00     0.025 A 
ATOM     29 CL   UNL d   1      -4.549  -0.036  -1.289  0.00  0.00    -0.084 Cl
ATOM     30  C   UNL d   1      -1.954   2.434   0.482  0.00  0.00     0.027 A 
ENDBRANCH  21  24
ENDBRANCH   1  21
TORSDOF 5
