REMARK  4 active torsions:
REMARK  status: ('A' for Active; 'I' for Inactive)
REMARK    1  A    between atoms: N_3  and  C_1 
REMARK    2  A    between atoms: C_6  and  C_2 
REMARK    3  A    between atoms: N_9  and  C_4 
REMARK    4  A    between atoms: N_10  and  C_5 
ROOT
ATOM      1  C   UNL d   1       1.333  -0.263  -0.003  0.00  0.00     0.130 C 
ATOM      2  C   UNL d   1      -0.494   1.365   0.142  0.00  0.00     0.076 C 
ATOM      3  C   UNL d   1       0.447  -1.343  -0.017  0.00  0.00     0.065 C 
ATOM      4  C   UNL d   1      -1.435   0.339  -0.058  0.00  0.00     0.047 C 
ATOM      5  C   UNL d   1       0.885   1.062   0.080  0.00  0.00     0.057 C 
ATOM      6  C   UNL d   1      -0.917  -0.987  -0.117  0.00  0.00     0.062 C 
ENDROOT
BRANCH   3   7
ATOM      7  N   UNL d   1       0.829  -2.675   0.145  0.00  0.00    -0.379 N 
ATOM      8  C   UNL d   1      -0.110  -3.588   0.819  0.00  0.00     0.123 C 
ATOM      9  C   UNL d   1       0.662  -4.719   1.494  0.00  0.00     0.020 C 
ATOM     10  C   UNL d   1       1.583  -5.432   0.509  0.00  0.00     0.003 C 
ATOM     11  C   UNL d   1       2.484  -4.434  -0.219  0.00  0.00     0.020 C 
ATOM     12  C   UNL d   1       1.668  -3.317  -0.877  0.00  0.00     0.123 C 
ENDBRANCH   3   7
BRANCH   1  13
ATOM     13  N   UNL d   1       2.771  -0.446   0.002  0.00  0.00    -0.113 N 
ATOM     14  O   UNL d   1       3.293  -0.933   1.012  0.00  0.00    -0.532 OA
ATOM     15  O   UNL d   1       3.381  -0.037  -0.995  0.00  0.00    -0.532 OA
ENDBRANCH   1  13
BRANCH   4  16
ATOM     16  N   UNL d   1      -2.798   0.533  -0.204  0.00  0.00    -0.380 N 
ATOM     17  C   UNL d   1      -3.373   1.685  -0.912  0.00  0.00     0.123 C 
ATOM     18  C   UNL d   1      -4.305   1.211  -2.025  0.00  0.00     0.020 C 
ATOM     19  C   UNL d   1      -5.370   0.256  -1.494  0.00  0.00     0.003 C 
ATOM     20  C   UNL d   1      -4.731  -0.900  -0.727  0.00  0.00     0.020 C 
ATOM     21  C   UNL d   1      -3.787  -0.395   0.366  0.00  0.00     0.123 C 
ENDBRANCH   4  16
BRANCH   2  22
ATOM     22  C   UNL d   1      -0.821   2.795   0.505  0.00  0.00     0.419 C 
ATOM     23  F   UNL d   1      -2.067   3.025   1.001  0.00  0.00    -0.166 F 
ATOM     24  F   UNL d   1       0.023   3.274   1.472  0.00  0.00    -0.166 F 
ATOM     25  F   UNL d   1      -0.668   3.647  -0.549  0.00  0.00    -0.166 F 
ENDBRANCH   2  22
TORSDOF 4
