REMARK  2 active torsions:
REMARK  status: ('A' for Active; 'I' for Inactive)
REMARK    1  A    between atoms: N_8  and  C_3 
REMARK    2  A    between atoms: N_12  and  C_4 
ROOT
ATOM      1  N   UNL d   1       1.582   0.467   0.965  0.00  0.00    -0.180 N 
ATOM      2  HN  UNL d   1       2.030   1.014   1.700  1.00  0.00     0.185 HD
ATOM      3  C   UNL d   1       2.316  -0.097  -0.012  0.00  0.00     0.681 A 
ATOM      4  C   UNL d   1       0.248   0.299   0.957  0.00  0.00     0.116 A 
ATOM      5  N   UNL d   1       1.753  -0.809  -1.001  0.00  0.00    -0.200 N 
ATOM      6  HN  UNL d   1       2.321  -1.213  -1.746  1.00  0.00     0.183 HD
ATOM      7  C   UNL d   1      -0.394  -0.446  -0.007  0.00  0.00     0.099 A 
ATOM      8  C   UNL d   1      -1.799  -0.663  -0.030  0.00  0.00     0.104 C 
ATOM      9  N   UNL d   1      -2.946  -0.833  -0.079  0.00  0.00    -0.191 NA
ATOM     10  C   UNL d   1       0.417  -0.974  -0.979  0.00  0.00     0.132 A 
ENDROOT
BRANCH   4  11
ATOM     11  N   UNL d   1      -0.428   0.872   2.037  0.00  0.00    -0.287 NA
ATOM     12  H   UNL d   1       0.243   1.417   2.575  0.00  0.00     0.125 HD
ATOM     13  H   UNL d   1      -1.240   1.419   1.774  0.00  0.00     0.125 HD
ENDBRANCH   4  11
BRANCH   3  14
ATOM     14  N   UNL d   1       3.677   0.063  -0.006  0.00  0.00    -0.218 N 
ATOM     15  C   UNL d   1       4.355   0.774   1.065  0.00  0.00     0.141 C 
ATOM     16  C   UNL d   1       5.181   1.911   0.461  0.00  0.00     0.020 C 
ATOM     17  C   UNL d   1       6.105   1.408  -0.649  0.00  0.00     0.003 C 
ATOM     18  C   UNL d   1       5.333   0.603  -1.696  0.00  0.00     0.020 C 
ATOM     19  C   UNL d   1       4.511  -0.513  -1.049  0.00  0.00     0.141 C 
ENDBRANCH   3  14
TORSDOF 2
