REMARK  5 active torsions:
REMARK  status: ('A' for Active; 'I' for Inactive)
REMARK    1  A    between atoms: C_2  and  C_1 
REMARK       I    between atoms: N_4  and  C_1 
REMARK    2  A    between atoms: C_5  and  C_2 
REMARK    3  A    between atoms: C_6  and  C_2 
REMARK    4  A    between atoms: O_7  and  C_2 
REMARK    5  A    between atoms: N_8  and  N_4 
ROOT
ATOM      1  C   UNL d   1       0.389  -0.852  -0.871  0.00  0.00     0.195 C 
ENDROOT
BRANCH   1   2
ATOM      2  C   UNL d   1       1.200   0.025   0.172  0.00  0.00     0.276 C 
ATOM      3  O   UNL d   1       0.700   0.750   1.033  0.00  0.00    -0.268 OA
ATOM      4  N   UNL d   1       2.589  -0.080   0.028  0.00  0.00    -0.291 N 
ATOM      5  H   UNL d   1       2.961  -0.549  -0.798  0.00  0.00     0.183 HD
BRANCH   4   6
ATOM      6  N   UNL d   1       3.447   0.645   0.881  0.00  0.00    -0.247 NA
ATOM      7  H   UNL d   1       2.882   0.937   1.693  0.00  0.00     0.143 HD
ATOM      8  H   UNL d   1       3.688   1.525   0.422  0.00  0.00     0.143 HD
ENDBRANCH   4   6
ENDBRANCH   1   2
BRANCH   1   9
ATOM      9  C   UNL d   1      -0.434  -1.916  -0.107  0.00  0.00    -0.010 A 
ATOM     10  C   UNL d   1      -1.379  -1.511   0.858  0.00  0.00     0.011 A 
ATOM     11  C   UNL d   1      -2.181  -2.440   1.524  0.00  0.00     0.001 A 
ATOM     12  C   UNL d   1      -2.055  -3.797   1.245  0.00  0.00     0.000 A 
ATOM     13  C   UNL d   1      -1.135  -4.224   0.292  0.00  0.00     0.001 A 
ATOM     14  C   UNL d   1      -0.342  -3.294  -0.387  0.00  0.00     0.011 A 
ENDBRANCH   1   9
BRANCH   1  15
ATOM     15  C   UNL d   1      -0.462   0.027  -1.809  0.00  0.00    -0.010 A 
ATOM     16  C   UNL d   1      -0.039   1.315  -2.187  0.00  0.00     0.011 A 
ATOM     17  C   UNL d   1      -0.814   2.115  -3.033  0.00  0.00     0.001 A 
ATOM     18  C   UNL d   1      -2.021   1.639  -3.536  0.00  0.00     0.000 A 
ATOM     19  C   UNL d   1      -2.447   0.357  -3.204  0.00  0.00     0.001 A 
ATOM     20  C   UNL d   1      -1.671  -0.444  -2.362  0.00  0.00     0.011 A 
ENDBRANCH   1  15
BRANCH   1  21
ATOM     21  O   UNL d   1       1.360  -1.491  -1.734  0.00  0.00    -0.371 OA
ATOM     22  H   UNL d   1       1.749  -2.214  -1.215  0.00  0.00     0.212 HD
ENDBRANCH   1  21
TORSDOF 5
