REMARK  5 active torsions:
REMARK  status: ('A' for Active; 'I' for Inactive)
REMARK    1  A    between atoms: C_4  and  C_1 
REMARK    2  A    between atoms: O_12  and  C_1 
REMARK    3  A    between atoms: N_2  and  C_9 
REMARK    4  A    between atoms: C_10  and  C_5 
REMARK    5  A    between atoms: C_20  and  O_12 
ROOT
ATOM      1  C   UNL d   1       0.094   0.772   0.963  0.00  0.00     0.039 A 
ATOM      2  C   UNL d   1       0.433   2.108   1.214  0.00  0.00     0.020 A 
ATOM      3  C   UNL d   1      -1.038   0.233   1.582  0.00  0.00     0.020 A 
ATOM      4  C   UNL d   1      -1.440   2.338   2.758  0.00  0.00     0.031 A 
ATOM      5  C   UNL d   1      -1.794   1.014   2.470  0.00  0.00     0.030 A 
ATOM      6  C   UNL d   1      -0.336   2.884   2.094  0.00  0.00     0.030 A 
ENDROOT
BRANCH   4   7
ATOM      7  N   UNL d   1      -2.233   3.043   3.687  0.00  0.00    -0.365 N 
ATOM      8  C   UNL d   1      -1.658   3.863   4.508  0.00  0.00     0.099 C 
ATOM      9  HN  UNL d   1      -3.244   2.910   3.711  1.00  0.00     0.165 HD
BRANCH   8  10
ATOM     10  C   UNL d   1      -2.395   4.585   5.569  0.00  0.00    -0.021 A 
ATOM     11  C   UNL d   1      -3.750   4.343   5.816  0.00  0.00     0.014 A 
ATOM     12  C   UNL d   1      -4.392   4.991   6.876  0.00  0.00     0.024 A 
ATOM     13  C   UNL d   1      -3.679   5.881   7.681  0.00  0.00     0.034 A 
ATOM     14  C   UNL d   1      -2.333   6.138   7.429  0.00  0.00     0.024 A 
ATOM     15 CL   UNL d   1      -4.461   6.657   9.002  0.00  0.00    -0.084 Cl
ATOM     16  C   UNL d   1      -1.688   5.489   6.372  0.00  0.00     0.014 A 
ENDBRANCH   8  10
ENDBRANCH   4   7
BRANCH   1  17
ATOM     17  C   UNL d   1       0.964  -0.013   0.039  0.00  0.00     0.293 C 
ATOM     18  O   UNL d   1       1.903   0.474  -0.569  0.00  0.00    -0.259 OA
BRANCH  17  19
ATOM     19  O   UNL d   1       0.579  -1.314   0.000  0.00  0.00    -0.318 OA
BRANCH  19  20
ATOM     20  C   UNL d   1       1.349  -2.168  -0.861  0.00  0.00     0.174 C 
ATOM     21  C   UNL d   1       2.587  -2.678  -0.144  0.00  0.00     0.034 C 
ENDBRANCH  19  20
ENDBRANCH  17  19
ENDBRANCH   1  17
TORSDOF 5
