REMARK  1 active torsions:
REMARK  status: ('A' for Active; 'I' for Inactive)
REMARK    1  A    between atoms: C_15  and  C_12 
ROOT
ATOM      1  N   UNL d   1      -0.804   1.032   0.002  0.00  0.00    -0.196 N 
ATOM      2  C   UNL d   1       0.064  -0.032   0.007  0.00  0.00     0.177 A 
ATOM      3  N   UNL d   1       1.349   0.026   0.020  0.00  0.00    -0.300 N 
ATOM      4  HN  UNL d   1       1.941  -0.804   0.021  1.00  0.00     0.171 HD
ATOM      5  N   UNL d   1      -0.377   2.341   0.013  0.00  0.00    -0.288 N 
ATOM      6  HN  UNL d   1      -1.029   3.126   0.009  1.00  0.00     0.187 HD
ATOM      7  C   UNL d   1      -2.162   0.743  -0.010  0.00  0.00     0.285 A 
ATOM      8  C   UNL d   1      -2.341  -0.740  -0.012  0.00  0.00     0.079 A 
ATOM      9  S   UNL d   1      -0.811  -1.539  -0.005  0.00  0.00    -0.046 SA
ATOM     10  C   UNL d   1       1.857   1.306   0.033  0.00  0.00     0.271 A 
ATOM     11  C   UNL d   1       0.913   2.510   0.028  0.00  0.00     0.090 A 
ATOM     12  C   UNL d   1      -3.561  -1.298  -0.016  0.00  0.00     0.036 C 
ATOM     13  O   UNL d   1      -3.095   1.535  -0.017  0.00  0.00    -0.265 OA
ATOM     14  O   UNL d   1       3.060   1.536   0.047  0.00  0.00    -0.266 OA
ATOM     15  C   UNL d   1       1.493   3.893   0.043  0.00  0.00     0.076 C 
ENDROOT
BRANCH  12  16
ATOM     16  C   UNL d   1      -3.831  -2.738  -0.013  0.00  0.00    -0.035 A 
ATOM     17  C   UNL d   1      -3.964  -3.429   1.196  0.00  0.00     0.011 A 
ATOM     18  C   UNL d   1      -4.189  -4.808   1.196  0.00  0.00     0.001 A 
ATOM     19  C   UNL d   1      -4.289  -5.499  -0.011  0.00  0.00     0.000 A 
ATOM     20  C   UNL d   1      -4.177  -4.811  -1.219  0.00  0.00     0.001 A 
ATOM     21  C   UNL d   1      -3.950  -3.434  -1.221  0.00  0.00     0.011 A 
ENDBRANCH  12  16
TORSDOF 1
