REMARK  2 active torsions:
REMARK  status: ('A' for Active; 'I' for Inactive)
REMARK    1  A    between atoms: C_14  and  C_6 
REMARK    2  A    between atoms: C_9  and  C_7 
ROOT
ATOM      1  N   UNL d   1       1.345  -0.622  -0.039  0.00  0.00    -0.352 N 
ATOM      2  HN  UNL d   1       2.233  -1.125  -0.018  1.00  0.00     0.166 HD
ATOM      3  C   UNL d   1       0.160  -1.201  -0.066  0.00  0.00     0.091 A 
ATOM      4  S   UNL d   1      -1.470  -3.462  -0.159  0.00  0.00    -0.086 SA
ATOM      5  C   UNL d   1       0.029  -2.641  -0.045  0.00  0.00     0.039 A 
ATOM      6  C   UNL d   1       1.226   0.762  -0.045  0.00  0.00     0.024 A 
ATOM      7  C   UNL d   1      -0.752  -5.011   0.003  0.00  0.00     0.022 A 
ATOM      8  S   UNL d   1      -1.168  -0.109  -0.102  0.00  0.00    -0.081 SA
ATOM      9  C   UNL d   1      -0.083   1.210  -0.070  0.00  0.00     0.077 A 
ATOM     10  C   UNL d   1       1.068  -3.548   0.070  0.00  0.00     0.023 A 
ATOM     11  C   UNL d   1       0.622  -4.902   0.104  0.00  0.00     0.021 A 
ENDROOT
BRANCH   6  12
ATOM     12  C   UNL d   1       2.481   1.624  -0.031  0.00  0.00    -0.008 C 
ATOM     13  C   UNL d   1       3.758   0.758  -0.017  0.00  0.00     0.021 C 
ATOM     14  C   UNL d   1       2.521   2.516  -1.287  0.00  0.00     0.021 C 
ATOM     15  C   UNL d   1       2.500   2.521   1.223  0.00  0.00     0.021 C 
ENDBRANCH   6  12
BRANCH   7  16
ATOM     16  C   UNL d   1      -1.559  -6.211   0.041  0.00  0.00     0.021 A 
ATOM     17  S   UNL d   1      -1.038  -7.618   0.882  0.00  0.00    -0.101 SA
ATOM     18  C   UNL d   1      -2.476  -8.463   0.517  0.00  0.00     0.050 A 
ATOM     19  C   UNL d   1      -3.336  -7.711  -0.248  0.00  0.00     0.008 A 
ATOM     20  C   UNL d   1      -2.806  -6.416  -0.525  0.00  0.00     0.021 A 
ENDBRANCH   7  16
TORSDOF 2
