REMARK  5 active torsions:
REMARK  status: ('A' for Active; 'I' for Inactive)
REMARK    1  A    between atoms: C_23  and  N_1 
REMARK    2  A    between atoms: S_10  and  C_2 
REMARK    3  A    between atoms: C_11  and  S_10 
REMARK    4  A    between atoms: N_25  and  C_12 
REMARK    5  A    between atoms: C_26  and  C_23 
ROOT
ATOM      1  N   UNL d   1       3.259   0.150  -2.173  0.00  0.00    -0.326 N 
ATOM      2  HN  UNL d   1       2.285   0.182  -2.473  1.00  0.00     0.169 HD
ATOM      3  C   UNL d   1       3.651  -0.645  -1.162  0.00  0.00     0.153 A 
ATOM      4  C   UNL d   1       4.198   0.901  -2.776  0.00  0.00     0.102 A 
ATOM      5  C   UNL d   1       5.535   0.826  -2.448  0.00  0.00     0.098 A 
ATOM      6  N   UNL d   1       4.933  -0.788  -0.774  0.00  0.00    -0.345 N 
ATOM      7  HN  UNL d   1       5.198  -1.424  -0.022  1.00  0.00     0.167 HD
ATOM      8  C   UNL d   1       6.558   1.582  -3.099  0.00  0.00     0.104 C 
ATOM      9  N   UNL d   1       7.404   2.201  -3.599  0.00  0.00    -0.191 NA
ATOM     10  C   UNL d   1       5.850  -0.048  -1.431  0.00  0.00     0.116 A 
ENDROOT
BRANCH   4  11
ATOM     11  N   UNL d   1       3.724   1.716  -3.806  0.00  0.00    -0.287 NA
ATOM     12  H   UNL d   1       2.707   1.641  -3.814  0.00  0.00     0.125 HD
ATOM     13  H   UNL d   1       4.016   2.685  -3.721  0.00  0.00     0.125 HD
ENDBRANCH   4  11
BRANCH   3  14
ATOM     14  S   UNL d   1       2.483  -1.742  -0.395  0.00  0.00    -0.016 SA
BRANCH  14  15
ATOM     15  C   UNL d   1       1.090  -0.730  -0.229  0.00  0.00     0.171 A 
ATOM     16  N   UNL d   1      -0.191  -1.222  -0.120  0.00  0.00    -0.307 N 
ATOM     17  C   UNL d   1      -1.013  -0.116  -0.033  0.00  0.00     0.141 A 
ATOM     18  N   UNL d   1      -0.249   0.962  -0.006  0.00  0.00    -0.282 N 
ATOM     19  C   UNL d   1      -2.455  -0.074   0.010  0.00  0.00     0.050 A 
ATOM     20  N   UNL d   1       1.065   0.577  -0.123  0.00  0.00    -0.278 N 
ATOM     21  HN  UNL d   1      -0.581   1.922   0.087  1.00  0.00     0.188 HD
ATOM     22  HN  UNL d   1       1.875   1.197  -0.127  1.00  0.00     0.189 HD
ATOM     23  S   UNL d   1      -3.259   1.240   0.782  0.00  0.00    -0.098 SA
ATOM     24  C   UNL d   1      -3.383  -0.945  -0.536  0.00  0.00     0.023 A 
ATOM     25  C   UNL d   1      -4.807   0.642   0.376  0.00  0.00     0.050 A 
ATOM     26  C   UNL d   1      -4.734  -0.537  -0.324  0.00  0.00     0.009 A 
BRANCH  16  27
ATOM     27  C   UNL d   1      -0.584  -2.616  -0.025  0.00  0.00     0.159 C 
BRANCH  27  28
ATOM     28  C   UNL d   1      -0.934  -3.275  -1.335  0.00  0.00    -0.017 C 
ATOM     29  C   UNL d   1      -0.866  -2.742  -2.564  0.00  0.00     0.008 C 
ENDBRANCH  27  28
ENDBRANCH  16  27
ENDBRANCH  14  15
ENDBRANCH   3  14
TORSDOF 5
