REMARK  3 active torsions:
REMARK  status: ('A' for Active; 'I' for Inactive)
REMARK    1  A    between atoms: C_2  and  C_1 
REMARK       I    between atoms: N_3  and  C_2 
REMARK    2  A    between atoms: C_11  and  N_3 
REMARK    3  A    between atoms: C_7  and  C_8 
ROOT
ATOM      1  C   UNL d   1       4.386  -3.320  -0.065  0.00  0.00    -0.051 A 
ATOM      2  C   UNL d   1       4.171  -0.472  -0.006  0.00  0.00     0.035 A 
ATOM      3  C   UNL d   1       5.110  -2.542   0.853  0.00  0.00     0.010 A 
ATOM      4  C   UNL d   1       3.589  -2.628  -0.991  0.00  0.00     0.010 A 
ATOM      5  C   UNL d   1       5.003  -1.147   0.884  0.00  0.00     0.030 A 
ATOM      6  C   UNL d   1       3.478  -1.226  -0.958  0.00  0.00     0.030 A 
ENDROOT
BRANCH   2   7
ATOM      7  N   UNL d   1       3.951   0.925   0.036  0.00  0.00    -0.323 N 
ATOM      8  C   UNL d   1       4.615   1.835   0.843  0.00  0.00     0.256 C 
ATOM      9  O   UNL d   1       5.620   1.586   1.502  0.00  0.00    -0.267 OA
ATOM     10  H   UNL d   1       3.245   1.285  -0.590  0.00  0.00     0.169 HD
BRANCH   8  11
ATOM     11  C   UNL d   1       4.051   3.194   0.865  0.00  0.00     0.039 A 
ATOM     12  C   UNL d   1       4.729   4.226   1.495  0.00  0.00     0.066 A 
ATOM     13  S   UNL d   1       3.904   5.718   1.446  0.00  0.00    -0.113 SA
ATOM     14  C   UNL d   1       2.599   5.021   0.596  0.00  0.00     0.050 A 
ATOM     15  C   UNL d   1       2.796   3.678   0.349  0.00  0.00     0.024 A 
ENDBRANCH   8  11
ENDBRANCH   2   7
BRANCH   1  16
ATOM     16  C   UNL d   1       4.453  -4.854   0.019  0.00  0.00    -0.024 C 
ATOM     17  C   UNL d   1       3.582  -5.575  -1.034  0.00  0.00     0.019 C 
ATOM     18  C   UNL d   1       5.905  -5.341  -0.171  0.00  0.00     0.019 C 
ATOM     19  C   UNL d   1       3.950  -5.305   1.410  0.00  0.00     0.019 C 
ENDBRANCH   1  16
TORSDOF 3
