REMARK  2 active torsions:
REMARK  status: ('A' for Active; 'I' for Inactive)
REMARK    1  A    between atoms: C_3  and  C_1 
REMARK       I    between atoms: N_2  and  C_3 
REMARK       I    between atoms: C_4  and  N_2 
REMARK       I    between atoms: N_8  and  C_4 
REMARK    2  A    between atoms: C_11  and  N_8 
ROOT
ATOM      1  N   UNL d   1       5.249   0.471  -0.327  0.00  0.00    -0.174 NA
ATOM      2  C   UNL d   1       5.989   1.449   0.296  0.00  0.00     0.257 C 
ATOM      3  C   UNL d   1       4.038   0.183   0.234  0.00  0.00     0.305 C 
ATOM      4  N   UNL d   1       3.045   1.056  -0.133  0.00  0.00    -0.312 N 
ATOM      5  O   UNL d   1       3.915  -0.830   0.912  0.00  0.00    -0.253 OA
ATOM      6  O   UNL d   1       5.542   2.525   0.683  0.00  0.00    -0.272 OA
ATOM      7  H   UNL d   1       5.795  -0.384  -0.371  0.00  0.00     0.141 HD
ATOM      8  H   UNL d   1       3.271   1.680  -0.900  0.00  0.00     0.170 HD
ENDROOT
BRANCH   4   9
ATOM      9  C   UNL d   1       1.684   1.000   0.239  0.00  0.00     0.057 A 
ATOM     10  C   UNL d   1       0.733   1.656  -0.564  0.00  0.00     0.060 A 
ATOM     11 CL   UNL d   1       1.206   2.503  -1.998  0.00  0.00    -0.082 Cl
ATOM     12  C   UNL d   1      -0.627   1.606  -0.247  0.00  0.00     0.026 A 
ATOM     13  C   UNL d   1      -1.050   0.925   0.893  0.00  0.00     0.002 A 
ATOM     14  C   UNL d   1      -0.113   0.297   1.712  0.00  0.00     0.002 A 
ATOM     15  C   UNL d   1       1.246   0.329   1.384  0.00  0.00     0.031 A 
ENDBRANCH   4   9
BRANCH   2  16
ATOM     16  C   UNL d   1       7.411   1.124   0.382  0.00  0.00     0.115 A 
ATOM     17  N   UNL d   1       7.947   0.085  -0.381  0.00  0.00    -0.288 N 
ATOM     18  N   UNL d   1       9.248  -0.046  -0.189  0.00  0.00    -0.061 NA
ATOM     19  HN  UNL d   1       7.401  -0.502  -1.011  1.00  0.00     0.183 HD
ATOM     20  S   UNL d   1       9.855   1.041   0.928  0.00  0.00    -0.010 SA
ATOM     21  C   UNL d   1       8.328   1.773   1.193  0.00  0.00     0.101 A 
ENDBRANCH   2  16
TORSDOF 2
