REMARK  5 active torsions:
REMARK  status: ('A' for Active; 'I' for Inactive)
REMARK       I    between atoms: N_2  and  C_1 
REMARK    1  A    between atoms: C_4  and  C_1 
REMARK    2  A    between atoms: C_3  and  N_2 
REMARK    3  A    between atoms: C_8  and  C_4 
REMARK    4  A    between atoms: C_19  and  C_14 
REMARK    5  A    between atoms: C_21  and  C_19 
ROOT
ATOM      1  C   UNL d   1       1.481  -1.087  -0.075  0.00  0.00     0.230 C 
ATOM      2  N   UNL d   1       2.305  -2.182   0.154  0.00  0.00    -0.326 N 
ATOM      3  O   UNL d   1       1.648  -0.246  -0.957  0.00  0.00    -0.272 OA
ATOM      4  H   UNL d   1       2.013  -2.823   0.883  0.00  0.00     0.169 HD
ENDROOT
BRANCH   1   5
ATOM      5  C   UNL d   1       0.253  -1.049   0.845  0.00  0.00     0.107 C 
ATOM      6  C   UNL d   1      -0.817  -0.108   0.271  0.00  0.00     0.025 C 
BRANCH   5   7
ATOM      7  C   UNL d   1       0.616  -0.693   2.278  0.00  0.00    -0.045 A 
ATOM      8  C   UNL d   1       0.874   0.630   2.663  0.00  0.00     0.008 A 
ATOM      9  C   UNL d   1       1.118   0.953   4.000  0.00  0.00     0.007 A 
ATOM     10  C   UNL d   1       1.139  -0.043   4.982  0.00  0.00    -0.058 A 
ATOM     11  C   UNL d   1       0.933  -1.372   4.596  0.00  0.00     0.007 A 
ATOM     12  C   UNL d   1       0.674  -1.694   3.260  0.00  0.00     0.008 A 
BRANCH  10  13
ATOM     13  C   UNL d   1       1.323   0.331   6.435  0.00  0.00     0.042 C 
BRANCH  13  14
ATOM     14  C   UNL d   1       2.554  -0.292   7.119  0.00  0.00    -0.019 C 
ATOM     15  C   UNL d   1       3.864   0.180   6.484  0.00  0.00     0.010 C 
ATOM     16  C   UNL d   1       2.547   0.061   8.609  0.00  0.00     0.010 C 
ENDBRANCH  13  14
ENDBRANCH  10  13
ENDBRANCH   5   7
ENDBRANCH   1   5
BRANCH   2  17
ATOM     17  C   UNL d   1       3.441  -2.556  -0.597  0.00  0.00     0.037 A 
ATOM     18  C   UNL d   1       4.036  -1.733  -1.558  0.00  0.00     0.053 A 
ATOM     19  C   UNL d   1       5.121  -2.194  -2.309  0.00  0.00     0.037 A 
ATOM     20 CL   UNL d   1       5.832  -1.168  -3.494  0.00  0.00    -0.084 Cl
ATOM     21  C   UNL d   1       5.628  -3.473  -2.115  0.00  0.00     0.048 A 
ATOM     22  C   UNL d   1       5.055  -4.284  -1.142  0.00  0.00     0.037 A 
ATOM     23  C   UNL d   1       3.976  -3.830  -0.376  0.00  0.00     0.053 A 
ATOM     24 CL   UNL d   1       5.665  -5.874  -0.894  0.00  0.00    -0.084 Cl
ENDBRANCH   2  17
TORSDOF 5
