REMARK  1 active torsions:
REMARK  status: ('A' for Active; 'I' for Inactive)
REMARK    1  A    between atoms: C_4  and  C_1 
ROOT
ATOM      1  C   UNL d   1       0.682   1.159  -0.361  0.00  0.00     0.032 C 
ATOM      2  C   UNL d   1      -1.480  -0.072  -0.001  0.00  0.00     0.134 C 
ATOM      3  C   UNL d   1       0.687  -1.326   0.047  0.00  0.00     0.134 C 
ATOM      4  C   UNL d   1      -0.779  -1.347   0.374  0.00  0.00     0.156 C 
ATOM      5  C   UNL d   1       1.432  -0.027   0.266  0.00  0.00     0.088 C 
ATOM      6  C   UNL d   1      -0.733   1.219   0.239  0.00  0.00     0.088 C 
ATOM      7  O   UNL d   1      -2.666  -0.065  -0.335  0.00  0.00    -0.298 OA
ATOM      8  O   UNL d   1       1.290  -2.355  -0.259  0.00  0.00    -0.298 OA
ENDROOT
BRANCH   1   9
ATOM      9  C   UNL d   1       0.687   1.229  -1.888  0.00  0.00    -0.052 A 
ATOM     10  C   UNL d   1       1.353   0.297  -2.703  0.00  0.00     0.031 A 
ATOM     11  C   UNL d   1       1.339   0.421  -4.096  0.00  0.00     0.034 A 
ATOM     12 CL   UNL d   1       2.166  -0.740  -5.062  0.00  0.00    -0.084 Cl
ATOM     13  C   UNL d   1       0.673   1.475  -4.708  0.00  0.00     0.024 A 
ATOM     14  C   UNL d   1       0.024   2.421  -3.922  0.00  0.00     0.002 A 
ATOM     15  C   UNL d   1       0.041   2.305  -2.529  0.00  0.00     0.007 A 
ENDBRANCH   1   9
TORSDOF 1
