REMARK  5 active torsions:
REMARK  status: ('A' for Active; 'I' for Inactive)
REMARK    1  A    between atoms: N_6  and  C_1 
REMARK    2  A    between atoms: C_8  and  C_2 
REMARK       I    between atoms: C_7  and  N_6 
REMARK       I    between atoms: N_10  and  C_7 
REMARK    3  A    between atoms: O_15  and  C_8 
REMARK    4  A    between atoms: C_14  and  N_10 
REMARK    5  A    between atoms: C_23  and  O_15 
ROOT
ATOM      1  C   UNL d   1       2.393  -0.332   0.372  0.00  0.00     0.095 C 
ATOM      2  C   UNL d   1       1.980   0.971   0.103  0.00  0.00     0.080 C 
ATOM      3  C   UNL d   1       0.541   1.091   0.264  0.00  0.00    -0.026 C 
ATOM      4  C   UNL d   1      -0.037  -0.126   0.560  0.00  0.00    -0.008 C 
ATOM      5  S   UNL d   1       1.103  -1.334   0.850  0.00  0.00    -0.075 SA
ATOM      6  C   UNL d   1      -0.294   2.316  -0.010  0.00  0.00     0.041 C 
ATOM      7  C   UNL d   1      -1.508  -0.406   0.599  0.00  0.00     0.051 C 
ATOM      8  C   UNL d   1      -1.792   2.082   0.257  0.00  0.00     0.009 C 
ATOM      9  C   UNL d   1      -2.278   0.684  -0.179  0.00  0.00    -0.014 C 
ATOM     10  C   UNL d   1      -2.161   0.489  -1.697  0.00  0.00     0.010 C 
ENDROOT
BRANCH   1  11
ATOM     11  N   UNL d   1       3.663  -0.857   0.204  0.00  0.00    -0.302 N 
ATOM     12  C   UNL d   1       4.219  -2.085   0.449  0.00  0.00     0.325 C 
ATOM     13  N   UNL d   1       3.527  -2.943   1.254  0.00  0.00    -0.309 N 
ATOM     14  O   UNL d   1       5.338  -2.287  -0.019  0.00  0.00    -0.247 OA
ATOM     15  H   UNL d   1       2.666  -2.571   1.625  0.00  0.00     0.170 HD
ATOM     16  H   UNL d   1       4.332  -0.241  -0.251  0.00  0.00     0.171 HD
BRANCH  13  17
ATOM     17  C   UNL d   1       3.956  -4.176   1.781  0.00  0.00     0.036 A 
ATOM     18  C   UNL d   1       5.122  -4.828   1.383  0.00  0.00     0.030 A 
ATOM     19  C   UNL d   1       5.556  -5.975   2.054  0.00  0.00     0.009 A 
ATOM     20  C   UNL d   1       4.829  -6.490   3.132  0.00  0.00    -0.062 A 
ATOM     21  C   UNL d   1       3.618  -5.884   3.480  0.00  0.00     0.009 A 
ATOM     22  C   UNL d   1       5.375  -7.644   3.917  0.00  0.00     0.048 C 
ATOM     23  C   UNL d   1       3.182  -4.741   2.802  0.00  0.00     0.030 A 
ENDBRANCH  13  17
ENDBRANCH   1  11
BRANCH   2  24
ATOM     24  C   UNL d   1       2.844   2.063  -0.367  0.00  0.00     0.296 C 
ATOM     25  O   UNL d   1       2.428   3.192  -0.609  0.00  0.00    -0.259 OA
BRANCH  24  26
ATOM     26  O   UNL d   1       4.139   1.676  -0.577  0.00  0.00    -0.318 OA
BRANCH  26  27
ATOM     27  C   UNL d   1       4.963   2.613  -1.286  0.00  0.00     0.174 C 
ATOM     28  C   UNL d   1       4.837   2.343  -2.774  0.00  0.00     0.034 C 
ENDBRANCH  26  27
ENDBRANCH  24  26
ENDBRANCH   2  24
TORSDOF 5
