REMARK  4 active torsions:
REMARK  status: ('A' for Active; 'I' for Inactive)
REMARK    1  A    between atoms: C_12  and  N_5 
REMARK    2  A    between atoms: O_13  and  C_8 
REMARK    3  A    between atoms: C_11  and  C_12 
REMARK    4  A    between atoms: C_18  and  O_13 
ROOT
ATOM      1  C   UNL d   1      -0.014  -0.806  -0.218  0.00  0.00     0.147 A 
ATOM      2  C   UNL d   1      -0.337   0.521  -0.270  0.00  0.00     0.151 A 
ATOM      3  N   UNL d   1      -1.104  -1.603  -0.199  0.00  0.00    -0.305 N 
ATOM      4  HN  UNL d   1      -1.134  -2.622  -0.175  1.00  0.00     0.171 HD
ATOM      5  N   UNL d   1      -1.715   0.555  -0.318  0.00  0.00    -0.300 N 
ATOM      6  N   UNL d   1       1.283  -1.244  -0.134  0.00  0.00    -0.287 N 
ATOM      7  N   UNL d   1       1.960   1.042  -0.117  0.00  0.00    -0.269 N 
ATOM      8  C   UNL d   1      -2.119  -0.766  -0.220  0.00  0.00     0.233 A 
ATOM      9  C   UNL d   1       2.319  -0.316  -0.078  0.00  0.00     0.332 A 
ATOM     10  C   UNL d   1       0.654   1.538  -0.221  0.00  0.00     0.282 A 
ATOM     11  O   UNL d   1       3.496  -0.677   0.011  0.00  0.00    -0.246 OA
ATOM     12  O   UNL d   1       0.392   2.734  -0.250  0.00  0.00    -0.265 OA
ATOM     13  C   UNL d   1       1.601  -2.659  -0.085  0.00  0.00     0.163 C 
ATOM     14  C   UNL d   1       3.013   2.033  -0.013  0.00  0.00     0.164 C 
ENDROOT
BRANCH   8  15
ATOM     15  O   UNL d   1      -3.391  -1.122  -0.171  0.00  0.00    -0.279 OA
BRANCH  15  16
ATOM     16  C   UNL d   1      -3.789  -2.193   0.583  0.00  0.00     0.080 A 
ATOM     17  C   UNL d   1      -4.682  -3.086  -0.006  0.00  0.00     0.049 A 
ATOM     18  C   UNL d   1      -5.370  -4.014   0.784  0.00  0.00    -0.023 A 
ATOM     19  C   UNL d   1      -6.326  -4.875   0.225  0.00  0.00     0.012 A 
ATOM     20  C   UNL d   1      -5.144  -4.036   2.181  0.00  0.00    -0.026 A 
ATOM     21  C   UNL d   1      -7.116  -5.681   1.044  0.00  0.00     0.001 A 
ATOM     22  C   UNL d   1      -6.943  -5.652   2.425  0.00  0.00     0.001 A 
ATOM     23  C   UNL d   1      -5.945  -4.856   2.989  0.00  0.00     0.012 A 
ATOM     24  C   UNL d   1      -4.157  -3.206   2.736  0.00  0.00     0.015 A 
ATOM     25  C   UNL d   1      -3.484  -2.280   1.940  0.00  0.00     0.038 A 
ENDBRANCH  15  16
ENDBRANCH   8  15
BRANCH   5  26
ATOM     26  C   UNL d   1      -2.601   1.712  -0.170  0.00  0.00     0.175 C 
BRANCH  26  27
ATOM     27  C   UNL d   1      -2.815   2.529  -1.429  0.00  0.00     0.004 A 
ATOM     28  C   UNL d   1      -3.489   2.015  -2.556  0.00  0.00     0.043 A 
ATOM     29 CL   UNL d   1      -4.263   0.473  -2.570  0.00  0.00    -0.084 Cl
ATOM     30  C   UNL d   1      -3.653   2.771  -3.727  0.00  0.00     0.024 A 
ATOM     31  C   UNL d   1      -3.166   4.068  -3.802  0.00  0.00     0.003 A 
ATOM     32  C   UNL d   1      -2.567   4.629  -2.683  0.00  0.00     0.024 A 
ATOM     33  C   UNL d   1      -2.422   3.883  -1.502  0.00  0.00     0.043 A 
ATOM     34 CL   UNL d   1      -1.856   4.774  -0.127  0.00  0.00    -0.084 Cl
ENDBRANCH  26  27
ENDBRANCH   5  26
TORSDOF 4
