REMARK  6 active torsions:
REMARK  status: ('A' for Active; 'I' for Inactive)
REMARK    1  A    between atoms: O_2  and  C_1 
REMARK    2  A    between atoms: C_3  and  C_1 
REMARK    3  A    between atoms: C_5  and  O_2 
REMARK    4  A    between atoms: C_4  and  C_6 
REMARK    5  A    between atoms: O_20  and  C_4 
REMARK    6  A    between atoms: C_22  and  O_20 
ROOT
ATOM      1  C   UNL d   1      -1.148   1.135   0.345  0.00  0.00     0.101 A 
ATOM      2  C   UNL d   1      -3.950   1.183   0.402  0.00  0.00     0.041 A 
ATOM      3  C   UNL d   1      -1.849   0.206   1.124  0.00  0.00     0.069 A 
ATOM      4  C   UNL d   1      -3.247   0.228   1.150  0.00  0.00     0.044 A 
ATOM      5  C   UNL d   1      -3.240   2.145  -0.330  0.00  0.00     0.020 A 
ATOM      6  C   UNL d   1      -1.844   2.127  -0.348  0.00  0.00     0.040 A 
ATOM      7 CL   UNL d   1      -1.025  -0.989   2.054  0.00  0.00    -0.081 Cl
ENDROOT
BRANCH   1   8
ATOM      8  O   UNL d   1       0.268   1.079   0.326  0.00  0.00    -0.273 OA
BRANCH   8   9
ATOM      9  C   UNL d   1       0.935   1.287  -0.872  0.00  0.00     0.298 C 
ATOM     10  O   UNL d   1       0.428   1.506  -1.965  0.00  0.00    -0.259 OA
BRANCH   9  11
ATOM     11  C   UNL d   1       2.410   1.252  -0.678  0.00  0.00     0.041 A 
ATOM     12  C   UNL d   1       3.217   1.677  -1.747  0.00  0.00     0.043 A 
ATOM     13  C   UNL d   1       4.611   1.685  -1.630  0.00  0.00     0.056 A 
ATOM     14 CL   UNL d   1       5.528   2.234  -2.988  0.00  0.00    -0.083 Cl
ATOM     15  C   UNL d   1       5.212   1.261  -0.441  0.00  0.00     0.055 A 
ATOM     16  C   UNL d   1       4.413   0.823   0.621  0.00  0.00     0.026 A 
ATOM     17 CL   UNL d   1       6.925   1.259  -0.218  0.00  0.00    -0.083 Cl
ATOM     18  C   UNL d   1       3.017   0.818   0.506  0.00  0.00     0.019 A 
ENDBRANCH   9  11
ENDBRANCH   8   9
ENDBRANCH   1   8
BRANCH   2  19
ATOM     19  C   UNL d   1      -5.434   1.085   0.350  0.00  0.00     0.293 C 
ATOM     20  O   UNL d   1      -6.071   0.231   0.946  0.00  0.00    -0.259 OA
BRANCH  19  21
ATOM     21  O   UNL d   1      -5.931   1.983  -0.536  0.00  0.00    -0.318 OA
BRANCH  21  22
ATOM     22  C   UNL d   1      -7.252   1.710  -1.024  0.00  0.00     0.174 C 
ATOM     23  C   UNL d   1      -7.123   0.841  -2.263  0.00  0.00     0.034 C 
ENDBRANCH  21  22
ENDBRANCH  19  21
ENDBRANCH   2  19
TORSDOF 6
