REMARK  6 active torsions:
REMARK  status: ('A' for Active; 'I' for Inactive)
REMARK    1  A    between atoms: C_3  and  C_1 
REMARK    2  A    between atoms: N_2  and  C_6 
REMARK       I    between atoms: N_7  and  C_3 
REMARK    3  A    between atoms: O_11  and  C_5 
REMARK    4  A    between atoms: C_14  and  N_7 
REMARK    5  A    between atoms: C_21  and  O_11 
REMARK    6  A    between atoms: O_28  and  C_23 
ROOT
ATOM      1  C   UNL d   1       1.520  -0.260  -0.186  0.00  0.00     0.068 C 
ATOM      2  C   UNL d   1       0.584  -1.238   0.184  0.00  0.00     0.056 C 
ATOM      3  C   UNL d   1       1.079   0.887  -0.891  0.00  0.00     0.091 C 
ATOM      4  C   UNL d   1      -0.778  -1.032  -0.081  0.00  0.00     0.104 C 
ATOM      5  C   UNL d   1      -0.293   1.119  -1.051  0.00  0.00     0.041 C 
ATOM      6  C   UNL d   1      -1.224   0.157  -0.662  0.00  0.00     0.039 C 
ENDROOT
BRANCH   1   7
ATOM      7  C   UNL d   1       2.926  -0.339   0.320  0.00  0.00     0.259 C 
ATOM      8  N   UNL d   1       3.343  -1.532   0.921  0.00  0.00    -0.323 N 
ATOM      9  H   UNL d   1       2.969  -2.403   0.571  0.00  0.00     0.169 HD
ATOM     10  O   UNL d   1       3.645   0.651   0.223  0.00  0.00    -0.267 OA
BRANCH   8  11
ATOM     11  C   UNL d   1       4.550  -1.600   1.656  0.00  0.00     0.037 C 
ATOM     12  C   UNL d   1       5.056  -0.468   2.296  0.00  0.00     0.069 C 
ATOM     13  C   UNL d   1       6.390  -0.433   2.652  0.00  0.00     0.104 C 
ATOM     14  O   UNL d   1       6.917   0.789   2.984  0.00  0.00    -0.346 OA
ATOM     15  C   UNL d   1       7.197  -1.558   2.500  0.00  0.00     0.102 C 
ATOM     16  C   UNL d   1       8.102   0.915   2.197  0.00  0.00     0.202 C 
ATOM     17  C   UNL d   1       9.093  -0.171   2.602  0.00  0.00     0.202 C 
ATOM     18  O   UNL d   1       8.557  -1.508   2.632  0.00  0.00    -0.346 OA
ATOM     19  C   UNL d   1       6.627  -2.762   2.095  0.00  0.00     0.042 C 
ATOM     20  C   UNL d   1       5.297  -2.784   1.656  0.00  0.00     0.032 C 
ENDBRANCH   8  11
ENDBRANCH   1   7
BRANCH   3  21
ATOM     21  O   UNL d   1       2.012   1.810  -1.319  0.00  0.00    -0.310 OA
BRANCH  21  22
ATOM     22  C   UNL d   1       1.851   2.501  -2.499  0.00  0.00     0.076 A 
ATOM     23  C   UNL d   1       2.515   3.729  -2.565  0.00  0.00     0.040 A 
ATOM     24  C   UNL d   1       2.402   4.543  -3.698  0.00  0.00     0.039 A 
ATOM     25  C   UNL d   1       1.623   4.129  -4.776  0.00  0.00     0.068 A 
ATOM     26  C   UNL d   1       1.020   2.870  -4.740  0.00  0.00     0.039 A 
ATOM     27  C   UNL d   1       1.146   2.049  -3.614  0.00  0.00     0.040 A 
BRANCH  25  28
ATOM     28  O   UNL d   1       1.417   4.844  -5.924  0.00  0.00    -0.356 OA
ATOM     29  C   UNL d   1       1.509   6.259  -5.792  0.00  0.00     0.210 C 
ENDBRANCH  25  28
ENDBRANCH  21  22
ENDBRANCH   3  21
BRANCH   4  30
ATOM     30  N   UNL d   1      -1.748  -2.078   0.287  0.00  0.00    -0.116 N 
ATOM     31  O   UNL d   1      -1.298  -3.174   0.630  0.00  0.00    -0.532 OA
ATOM     32  O   UNL d   1      -2.951  -1.790   0.209  0.00  0.00    -0.532 OA
ENDBRANCH   4  30
TORSDOF 6
