REMARK  4 active torsions:
REMARK  status: ('A' for Active; 'I' for Inactive)
REMARK    1  A    between atoms: C_3  and  C_1 
REMARK    2  A    between atoms: C_4  and  C_2 
REMARK       I    between atoms: N_7  and  C_3 
REMARK    3  A    between atoms: C_12  and  N_7 
REMARK    4  A    between atoms: N_18  and  C_8 
ROOT
ATOM      1  C   UNL d   1       1.681  -0.135   0.159  0.00  0.00     0.079 A 
ATOM      2  C   UNL d   1       0.714  -1.124   0.016  0.00  0.00     0.136 A 
ATOM      3  N   UNL d   1      -0.629  -0.815  -0.009  0.00  0.00    -0.328 N 
ATOM      4  HN  UNL d   1      -1.323  -1.556  -0.104  1.00  0.00     0.168 HD
ATOM      5  C   UNL d   1      -1.016   0.453   0.090  0.00  0.00     0.155 A 
ATOM      6  N   UNL d   1      -0.181   1.458   0.270  0.00  0.00    -0.342 N 
ATOM      7  HN  UNL d   1      -0.508   2.418   0.384  1.00  0.00     0.167 HD
ATOM      8  C   UNL d   1       1.134   1.145   0.295  0.00  0.00     0.110 A 
ENDROOT
BRANCH   1   9
ATOM      9  C   UNL d   1       3.182  -0.155   0.176  0.00  0.00     0.259 C 
ATOM     10  N   UNL d   1       3.873  -1.325  -0.056  0.00  0.00    -0.320 N 
ATOM     11  H   UNL d   1       3.370  -2.139  -0.377  0.00  0.00     0.169 HD
ATOM     12  O   UNL d   1       3.732   0.934   0.317  0.00  0.00    -0.267 OA
BRANCH  10  13
ATOM     13  C   UNL d   1       5.285  -1.456  -0.180  0.00  0.00     0.073 A 
ATOM     14  C   UNL d   1       6.242  -0.571   0.334  0.00  0.00     0.143 A 
ATOM     15  F   UNL d   1       5.916   0.424   1.169  0.00  0.00    -0.204 F 
ATOM     16  C   UNL d   1       7.601  -0.746   0.066  0.00  0.00     0.044 A 
ATOM     17  C   UNL d   1       8.032  -1.827  -0.697  0.00  0.00     0.003 A 
ATOM     18  C   UNL d   1       7.103  -2.752  -1.164  0.00  0.00     0.002 A 
ATOM     19  C   UNL d   1       5.740  -2.574  -0.898  0.00  0.00     0.033 A 
ENDBRANCH  10  13
ENDBRANCH   1   9
BRANCH   2  20
ATOM     20  C   UNL d   1       0.952  -2.611  -0.071  0.00  0.00     0.433 C 
ATOM     21  F   UNL d   1       2.212  -2.994  -0.412  0.00  0.00    -0.165 F 
ATOM     22  F   UNL d   1       0.689  -3.249   1.105  0.00  0.00    -0.165 F 
ATOM     23  F   UNL d   1       0.161  -3.218  -1.005  0.00  0.00    -0.165 F 
ENDBRANCH   2  20
BRANCH   5  24
ATOM     24  N   UNL d   1      -2.362   0.726   0.036  0.00  0.00    -0.274 NA
ATOM     25  H   UNL d   1      -2.563   1.602   0.497  0.00  0.00     0.127 HD
ATOM     26  H   UNL d   1      -2.911  -0.079   0.299  0.00  0.00     0.127 HD
ENDBRANCH   5  24
TORSDOF 4
