REMARK  2 active torsions:
REMARK  status: ('A' for Active; 'I' for Inactive)
REMARK    1  A    between atoms: S_2  and  C_1 
REMARK    2  A    between atoms: N_9  and  S_2 
ROOT
ATOM      1  C   UNL d   1      -0.165  -1.299  -0.006  0.00  0.00     0.122 A 
ATOM      2  C   UNL d   1       1.108  -0.649  -0.003  0.00  0.00     0.064 A 
ATOM      3  C   UNL d   1      -1.180  -0.365  -0.009  0.00  0.00     0.100 A 
ATOM      4  S   UNL d   1      -0.630   1.240  -0.011  0.00  0.00    -0.063 SA
ATOM      5  C   UNL d   1       0.980   0.720  -0.006  0.00  0.00     0.095 A 
ATOM      6 BR   UNL d   1       2.796  -1.511   0.005  0.00  0.00    -0.047 Br
ATOM      7 CL   UNL d   1      -2.886  -0.612  -0.011  0.00  0.00    -0.074 Cl
ATOM      8 CL   UNL d   1       2.223   1.912  -0.006  0.00  0.00    -0.075 Cl
ENDROOT
BRANCH   1   9
ATOM      9  S   UNL d   1      -0.510  -2.985  -0.007  0.00  0.00     0.242 S 
ATOM     10  O   UNL d   1      -1.154  -3.202   1.266  0.00  0.00    -0.206 OA
ATOM     11  O   UNL d   1      -1.148  -3.202  -1.281  0.00  0.00    -0.206 OA
BRANCH   9  12
ATOM     12  N   UNL d   1       0.872  -3.914  -0.004  0.00  0.00    -0.225 NA
ATOM     13  H   UNL d   1       1.403  -3.858   0.864  0.00  0.00     0.136 HD
ATOM     14  H   UNL d   1       1.409  -3.854  -0.866  0.00  0.00     0.136 HD
ENDBRANCH   9  12
ENDBRANCH   1   9
TORSDOF 2
