REMARK  4 active torsions:
REMARK  status: ('A' for Active; 'I' for Inactive)
REMARK    1  A    between atoms: C_9  and  C_1 
REMARK    2  A    between atoms: C_5  and  C_12 
REMARK       I    between atoms: C_6  and  N_11 
REMARK       I    between atoms: N_10  and  C_6 
REMARK    3  A    between atoms: C_22  and  N_10 
REMARK    4  A    between atoms: N_11  and  C_21 
ROOT
ATOM      1  C   UNL d   1      -3.380  -1.374   0.592  0.00  0.00    -0.002 A 
ATOM      2  C   UNL d   1      -4.389  -0.627  -0.033  0.00  0.00     0.016 A 
ATOM      3  C   UNL d   1      -3.717  -2.643   1.075  0.00  0.00     0.016 A 
ATOM      4  C   UNL d   1      -5.918  -2.518   0.069  0.00  0.00     0.036 A 
ATOM      5  C   UNL d   1      -4.965  -3.205   0.818  0.00  0.00     0.030 A 
ATOM      6  C   UNL d   1      -5.652  -1.192  -0.289  0.00  0.00     0.030 A 
ENDROOT
BRANCH   4   7
ATOM      7  N   UNL d   1      -7.118  -3.121  -0.378  0.00  0.00    -0.309 N 
ATOM      8  C   UNL d   1      -7.377  -4.485  -0.361  0.00  0.00     0.325 C 
ATOM      9  N   UNL d   1      -8.626  -4.787  -0.881  0.00  0.00    -0.309 N 
ATOM     10  O   UNL d   1      -6.601  -5.339   0.057  0.00  0.00    -0.247 OA
ATOM     11  H   UNL d   1      -9.023  -4.128  -1.534  0.00  0.00     0.170 HD
ATOM     12  H   UNL d   1      -7.779  -2.527  -0.853  0.00  0.00     0.170 HD
BRANCH   9  13
ATOM     13  C   UNL d   1      -9.282  -6.032  -0.740  0.00  0.00     0.036 A 
ATOM     14  C   UNL d   1      -8.914  -6.981   0.218  0.00  0.00     0.030 A 
ATOM     15  C   UNL d   1      -9.656  -8.152   0.396  0.00  0.00     0.018 A 
ATOM     16  C   UNL d   1     -10.793  -8.396  -0.382  0.00  0.00     0.048 A 
ATOM     17  C   UNL d   1     -11.135  -7.470  -1.378  0.00  0.00     0.018 A 
ATOM     18  C   UNL d   1     -10.391  -6.294  -1.550  0.00  0.00     0.030 A 
BRANCH  16  19
ATOM     19  C   UNL d   1     -11.657  -9.607  -0.130  0.00  0.00     0.417 C 
ATOM     20  F   UNL d   1     -11.249 -10.358   0.933  0.00  0.00    -0.166 F 
ATOM     21  F   UNL d   1     -12.950  -9.268   0.134  0.00  0.00    -0.166 F 
ATOM     22  F   UNL d   1     -11.701 -10.455  -1.192  0.00  0.00    -0.166 F 
ENDBRANCH  16  19
ENDBRANCH   9  13
ENDBRANCH   4   7
BRANCH   1  23
ATOM     23  C   UNL d   1      -1.999  -0.864   0.683  0.00  0.00     0.085 A 
ATOM     24  N   UNL d   1      -1.647   0.406   0.679  0.00  0.00    -0.349 N 
ATOM     25  C   UNL d   1      -0.259   0.517   0.737  0.00  0.00     0.050 A 
ATOM     26  HN  UNL d   1      -2.295   1.193   0.638  1.00  0.00     0.166 HD
ATOM     27  C   UNL d   1       0.483   1.715   0.777  0.00  0.00     0.031 A 
ATOM     28  C   UNL d   1       0.439  -0.691   0.756  0.00  0.00     0.033 A 
ATOM     29  C   UNL d   1       1.881   1.670   0.841  0.00  0.00     0.002 A 
ATOM     30  C   UNL d   1       2.550   0.450   0.861  0.00  0.00     0.002 A 
ATOM     31  C   UNL d   1       1.840  -0.751   0.816  0.00  0.00     0.021 A 
ATOM     32  S   UNL d   1      -0.680  -1.981   0.691  0.00  0.00    -0.070 SA
ENDBRANCH   1  23
TORSDOF 4
