REMARK  5 active torsions:
REMARK  status: ('A' for Active; 'I' for Inactive)
REMARK    1  A    between atoms: C_10  and  N_1 
REMARK    2  A    between atoms: C_9  and  C_2 
REMARK    3  A    between atoms: N_13  and  C_11 
REMARK    4  A    between atoms: C_12  and  N_13 
REMARK    5  A    between atoms: O_20  and  C_14 
ROOT
ATOM      1  N   UNL d   1       4.131   0.601   0.320  0.00  0.00    -0.223 N 
ATOM      2  C   UNL d   1       3.767  -0.718  -0.015  0.00  0.00     0.145 A 
ATOM      3  N   UNL d   1       5.811  -0.372  -0.624  0.00  0.00    -0.226 N 
ATOM      4  HN  UNL d   1       6.735  -0.537  -1.024  1.00  0.00     0.210 HD
ATOM      5  N   UNL d   1       5.433   0.756  -0.060  0.00  0.00    -0.219 N 
ATOM      6  HN  UNL d   1       6.006   1.590   0.069  1.00  0.00     0.210 HD
ATOM      7  N   UNL d   1       4.808  -1.286  -0.601  0.00  0.00    -0.268 N 
ATOM      8  HN  UNL d   1       4.849  -2.236  -0.969  1.00  0.00     0.190 HD
ENDROOT
BRANCH   2   9
ATOM      9  C   UNL d   1       2.497  -1.299   0.224  0.00  0.00     0.063 C 
ATOM     10  C   UNL d   1       2.325  -2.586   0.573  0.00  0.00     0.066 C 
BRANCH  10  11
ATOM     11  N   UNL d   1       3.220  -3.610   0.827  0.00  0.00    -0.267 NA
ATOM     12  H   UNL d   1       2.820  -4.495   0.523  0.00  0.00     0.133 HD
BRANCH  11  13
ATOM     13  C   UNL d   1       3.826  -3.865   2.096  0.00  0.00     0.045 A 
ATOM     14  C   UNL d   1       4.591  -5.028   2.359  0.00  0.00     0.089 A 
ATOM     15  C   UNL d   1       5.157  -5.207   3.636  0.00  0.00     0.038 A 
ATOM     16  C   UNL d   1       5.002  -4.267   4.649  0.00  0.00     0.003 A 
ATOM     17  C   UNL d   1       4.278  -3.114   4.394  0.00  0.00     0.002 A 
ATOM     18  C   UNL d   1       3.715  -2.911   3.131  0.00  0.00     0.026 A 
BRANCH  14  19
ATOM     19  O   UNL d   1       4.883  -6.099   1.561  0.00  0.00    -0.354 OA
ATOM     20  C   UNL d   1       4.540  -6.135   0.192  0.00  0.00     0.210 C 
ENDBRANCH  14  19
ENDBRANCH  11  13
ENDBRANCH  10  11
ENDBRANCH   2   9
BRANCH   1  21
ATOM     21  C   UNL d   1       3.462   1.722   0.917  0.00  0.00     0.060 A 
ATOM     22  C   UNL d   1       4.238   2.844   1.275  0.00  0.00     0.032 A 
ATOM     23  C   UNL d   1       3.654   3.991   1.827  0.00  0.00     0.009 A 
ATOM     24  C   UNL d   1       2.274   4.060   2.014  0.00  0.00    -0.062 A 
ATOM     25  C   UNL d   1       1.499   2.946   1.682  0.00  0.00     0.009 A 
ATOM     26  C   UNL d   1       1.649   5.290   2.602  0.00  0.00     0.048 C 
ATOM     27  C   UNL d   1       2.084   1.786   1.144  0.00  0.00     0.032 A 
ENDBRANCH   1  21
TORSDOF 5
