REMARK  5 active torsions:
REMARK  status: ('A' for Active; 'I' for Inactive)
REMARK    1  A    between atoms: C_13  and  N_1 
REMARK    2  A    between atoms: S_18  and  C_3 
REMARK    3  A    between atoms: C_7  and  N_14 
REMARK    4  A    between atoms: N_14  and  C_8 
REMARK    5  A    between atoms: C_20  and  C_13 
ROOT
ATOM      1  N   UNL d   1       1.411  -1.057  -0.083  0.00  0.00    -0.288 N 
ATOM      2  C   UNL d   1       0.085   0.731   0.023  0.00  0.00     0.119 A 
ATOM      3  C   UNL d   1       0.090  -1.369   0.004  0.00  0.00     0.149 A 
ATOM      4  C   UNL d   1       1.505   0.305  -0.086  0.00  0.00     0.278 A 
ATOM      5  N   UNL d   1      -0.737  -0.371   0.088  0.00  0.00    -0.331 N 
ATOM      6  HN  UNL d   1      -1.752  -0.398   0.180  1.00  0.00     0.168 HD
ATOM      7  C   UNL d   1      -0.292   2.010   0.002  0.00  0.00     0.141 C 
ATOM      8  O   UNL d   1       2.490   1.012  -0.191  0.00  0.00    -0.265 OA
ENDROOT
BRANCH   7   9
ATOM      9  N   UNL d   1      -1.567   2.509   0.086  0.00  0.00    -0.199 N 
ATOM     10  H   UNL d   1      -2.332   1.867   0.233  0.00  0.00     0.183 HD
BRANCH   9  11
ATOM     11  C   UNL d   1      -1.936   3.847   0.039  0.00  0.00     0.682 A 
ATOM     12  N   UNL d   1      -0.994   4.780  -0.176  0.00  0.00    -0.196 N 
ATOM     13  C   UNL d   1      -1.374   6.068  -0.211  0.00  0.00     0.024 A 
ATOM     14  HN  UNL d   1      -0.018   4.517  -0.310  1.00  0.00     0.184 HD
ATOM     15  C   UNL d   1      -0.297   7.081  -0.452  0.00  0.00     0.068 C 
ATOM     16  C   UNL d   1      -2.684   6.450  -0.027  0.00  0.00     0.050 A 
ATOM     17  C   UNL d   1      -3.593   5.434   0.188  0.00  0.00     0.024 A 
ATOM     18  N   UNL d   1      -3.235   4.132   0.217  0.00  0.00    -0.196 N 
ATOM     19  C   UNL d   1      -5.041   5.756   0.409  0.00  0.00     0.068 C 
ATOM     20  HN  UNL d   1      -3.924   3.396   0.369  1.00  0.00     0.184 HD
ENDBRANCH   9  11
ENDBRANCH   7   9
BRANCH   1  21
ATOM     21  C   UNL d   1       2.580  -1.906  -0.245  0.00  0.00     0.173 C 
BRANCH  21  22
ATOM     22  C   UNL d   1       3.199  -2.319   1.074  0.00  0.00    -0.038 A 
ATOM     23  C   UNL d   1       2.772  -3.486   1.725  0.00  0.00     0.032 A 
ATOM     24  C   UNL d   1       3.327  -3.858   2.950  0.00  0.00     0.034 A 
ATOM     25 CL   UNL d   1       2.764  -5.279   3.740  0.00  0.00    -0.084 Cl
ATOM     26  C   UNL d   1       4.327  -3.089   3.535  0.00  0.00     0.024 A 
ATOM     27  C   UNL d   1       4.773  -1.934   2.892  0.00  0.00     0.002 A 
ATOM     28  C   UNL d   1       4.207  -1.546   1.673  0.00  0.00     0.009 A 
ENDBRANCH  21  22
ENDBRANCH   1  21
BRANCH   3  29
ATOM     29  S   UNL d   1      -0.421  -3.024  -0.026  0.00  0.00    -0.098 SA
ATOM     30  C   UNL d   1      -2.215  -2.851   0.080  0.00  0.00     0.099 C 
ENDBRANCH   3  29
TORSDOF 5
