REMARK  3 active torsions:
REMARK  status: ('A' for Active; 'I' for Inactive)
REMARK    1  A    between atoms: N_2  and  C_1 
REMARK    2  A    between atoms: C_4  and  N_3 
REMARK    3  A    between atoms: O_12  and  C_10 
ROOT
ATOM      1  N   UNL d   1       0.690  -1.347   0.495  0.00  0.00    -0.355 N 
ATOM      2  N   UNL d   1      -0.625  -3.298   2.174  0.00  0.00    -0.376 N 
ATOM      3  C   UNL d   1       1.126  -1.585   1.889  0.00  0.00     0.145 C 
ATOM      4  C   UNL d   1      -0.709  -1.753   0.256  0.00  0.00     0.145 C 
ATOM      5  C   UNL d   1       0.808  -3.012   2.391  0.00  0.00     0.143 C 
ATOM      6  C   UNL d   1      -1.013  -3.172   0.757  0.00  0.00     0.143 C 
ENDROOT
BRANCH   2   7
ATOM      7  C   UNL d   1      -1.223  -4.284   2.964  0.00  0.00     0.064 A 
ATOM      8  C   UNL d   1      -1.271  -4.201   4.376  0.00  0.00     0.094 A 
ATOM      9  C   UNL d   1      -1.945  -5.160   5.146  0.00  0.00     0.039 A 
ATOM     10  C   UNL d   1      -2.616  -6.214   4.534  0.00  0.00     0.003 A 
ATOM     11  C   UNL d   1      -2.572  -6.336   3.152  0.00  0.00     0.002 A 
ATOM     12  C   UNL d   1      -1.884  -5.386   2.385  0.00  0.00     0.032 A 
BRANCH   8  13
ATOM     13  O   UNL d   1      -0.635  -3.227   5.109  0.00  0.00    -0.354 OA
ATOM     14  C   UNL d   1      -1.165  -1.922   4.885  0.00  0.00     0.210 C 
ENDBRANCH   8  13
ENDBRANCH   2   7
BRANCH   1  15
ATOM     15  C   UNL d   1       1.223  -0.260  -0.177  0.00  0.00     0.169 C 
ATOM     16  S   UNL d   1       0.356   0.947  -0.952  0.00  0.00    -0.041 SA
ATOM     17  N   UNL d   1       2.583  -0.160  -0.228  0.00  0.00    -0.371 N 
ATOM     18  C   UNL d   1       3.520  -1.264  -0.229  0.00  0.00     0.148 C 
ATOM     19  H   UNL d   1       2.893   0.674  -0.715  0.00  0.00     0.161 HD
ENDBRANCH   1  15
TORSDOF 3
