REMARK  3 active torsions:
REMARK  status: ('A' for Active; 'I' for Inactive)
REMARK    1  A    between atoms: N_6  and  C_1 
REMARK       I    between atoms: C_8  and  N_6 
REMARK    2  A    between atoms: C_10  and  C_7 
REMARK       I    between atoms: N_9  and  C_8 
REMARK    3  A    between atoms: C_15  and  N_9 
ROOT
ATOM      1  C   UNL d   1       0.297  -1.123   0.141  0.00  0.00     0.127 C 
ATOM      2  N   UNL d   1       0.778   0.892   1.072  0.00  0.00    -0.296 N 
ATOM      3  HN  UNL d   1       0.673   1.768   1.585  1.00  0.00     0.187 HD
ATOM      4  C   UNL d   1       1.605  -0.819  -0.164  0.00  0.00     0.082 C 
ATOM      5  N   UNL d   1      -0.108  -0.105   0.972  0.00  0.00    -0.281 N 
ATOM      6  C   UNL d   1       1.836   0.491   0.353  0.00  0.00     0.062 C 
ATOM      7  C   UNL d   1      -1.379   0.019   1.647  0.00  0.00     0.179 C 
ENDROOT
BRANCH   1   8
ATOM      8  N   UNL d   1      -0.489  -2.200  -0.225  0.00  0.00    -0.293 N 
ATOM      9  C   UNL d   1      -0.325  -3.217  -1.206  0.00  0.00     0.326 C 
ATOM     10  N   UNL d   1       0.685  -3.064  -2.109  0.00  0.00    -0.309 N 
ATOM     11  O   UNL d   1      -1.149  -4.106  -1.119  0.00  0.00    -0.247 OA
ATOM     12  H   UNL d   1       1.215  -2.213  -2.095  0.00  0.00     0.170 HD
ATOM     13  H   UNL d   1      -1.350  -2.352   0.289  0.00  0.00     0.172 HD
BRANCH  10  14
ATOM     14  C   UNL d   1       1.120  -4.043  -3.029  0.00  0.00     0.036 A 
ATOM     15  C   UNL d   1       0.383  -5.186  -3.350  0.00  0.00     0.029 A 
ATOM     16  C   UNL d   1       0.926  -6.171  -4.180  0.00  0.00     0.002 A 
ATOM     17  C   UNL d   1       2.211  -6.024  -4.693  0.00  0.00     0.000 A 
ATOM     18  C   UNL d   1       2.936  -4.868  -4.417  0.00  0.00     0.002 A 
ATOM     19  C   UNL d   1       2.386  -3.871  -3.606  0.00  0.00     0.029 A 
ENDBRANCH  10  14
ENDBRANCH   1   8
BRANCH   6  20
ATOM     20  C   UNL d   1       2.991   1.373   0.139  0.00  0.00    -0.008 A 
ATOM     21  C   UNL d   1       4.047   1.002  -0.708  0.00  0.00     0.015 A 
ATOM     22  C   UNL d   1       5.089   1.896  -0.980  0.00  0.00     0.024 A 
ATOM     23  C   UNL d   1       5.088   3.164  -0.405  0.00  0.00     0.034 A 
ATOM     24  C   UNL d   1       4.061   3.543   0.453  0.00  0.00     0.024 A 
ATOM     25 CL   UNL d   1       6.352   4.270  -0.770  0.00  0.00    -0.084 Cl
ATOM     26  C   UNL d   1       3.020   2.651   0.725  0.00  0.00     0.015 A 
ENDBRANCH   6  20
TORSDOF 3
