REMARK  3 active torsions:
REMARK  status: ('A' for Active; 'I' for Inactive)
REMARK    1  A    between atoms: O_2  and  C_1 
REMARK       I    between atoms: N_3  and  C_1 
REMARK    2  A    between atoms: C_5  and  O_2 
REMARK    3  A    between atoms: N_8  and  C_7 
ROOT
ATOM      1  C   UNL d   1      -1.040  -0.836   0.893  0.00  0.00     0.082 A 
ATOM      2  C   UNL d   1      -1.781  -1.042  -0.274  0.00  0.00     0.060 A 
ATOM      3  C   UNL d   1      -3.180  -1.088  -0.226  0.00  0.00     0.008 A 
ATOM      4  C   UNL d   1      -3.081  -0.654   2.163  0.00  0.00     0.005 A 
ATOM      5  C   UNL d   1      -1.688  -0.646   2.114  0.00  0.00     0.037 A 
ATOM      6  C   UNL d   1      -3.821  -0.847   0.993  0.00  0.00     0.023 A 
ENDROOT
BRANCH   1   7
ATOM      7  O   UNL d   1       0.371  -0.672   0.906  0.00  0.00    -0.261 OA
BRANCH   7   8
ATOM      8  C   UNL d   1       1.223  -1.309  -0.001  0.00  0.00     0.367 C 
ATOM      9  N   UNL d   1       2.550  -0.898   0.096  0.00  0.00    -0.336 N 
ATOM     10  C   UNL d   1       3.512  -1.395  -0.871  0.00  0.00     0.154 C 
ATOM     11  C   UNL d   1       2.996   0.180   0.960  0.00  0.00     0.154 C 
ATOM     12  O   UNL d   1       0.847  -2.154  -0.812  0.00  0.00    -0.238 OA
ENDBRANCH   7   8
ENDBRANCH   1   7
BRANCH   3  13
ATOM     13  N   UNL d   1      -3.925  -1.118  -1.415  0.00  0.00    -0.303 NA
ATOM     14  H   UNL d   1      -3.458  -1.610  -2.171  0.00  0.00     0.124 HD
ATOM     15  H   UNL d   1      -4.887  -1.416  -1.296  0.00  0.00     0.124 HD
ENDBRANCH   3  13
TORSDOF 3
