REMARK  2 active torsions:
REMARK  status: ('A' for Active; 'I' for Inactive)
REMARK    1  A    between atoms: C_8  and  C_1 
REMARK    2  A    between atoms: C_14  and  C_7 
ROOT
ATOM      1  C   UNL d   1      -0.174  -1.166   0.095  0.00  0.00     0.153 A 
ATOM      2  O   UNL d   1      -1.115  -0.281   0.566  0.00  0.00    -0.276 OA
ATOM      3  N   UNL d   1       1.015  -0.612  -0.054  0.00  0.00    -0.280 N 
ATOM      4  HN  UNL d   1       1.867  -1.073  -0.374  1.00  0.00     0.189 HD
ATOM      5  N   UNL d   1       0.880   0.705   0.307  0.00  0.00    -0.277 N 
ATOM      6  HN  UNL d   1       1.611   1.416   0.297  1.00  0.00     0.189 HD
ATOM      7  C   UNL d   1      -0.376   0.875   0.667  0.00  0.00     0.174 A 
ENDROOT
BRANCH   1   8
ATOM      8  C   UNL d   1      -0.574  -2.568  -0.261  0.00  0.00     0.134 C 
ATOM      9  C   UNL d   1      -1.041  -3.408   0.914  0.00  0.00    -0.008 A 
ATOM     10  C   UNL d   1      -2.019  -4.385   0.705  0.00  0.00     0.083 A 
ATOM     11  C   UNL d   1      -0.430  -3.334   2.179  0.00  0.00     0.011 A 
ATOM     12  C   UNL d   1      -2.379  -5.270   1.726  0.00  0.00     0.038 A 
ATOM     13  O   UNL d   1      -2.668  -4.573  -0.491  0.00  0.00    -0.310 OA
ATOM     14  C   UNL d   1      -1.772  -5.182   2.976  0.00  0.00     0.003 A 
ATOM     15  C   UNL d   1      -0.802  -4.209   3.204  0.00  0.00     0.001 A 
ATOM     16  C   UNL d   1      -2.476  -3.659  -1.496  0.00  0.00     0.083 A 
ATOM     17  C   UNL d   1      -1.520  -2.641  -1.446  0.00  0.00    -0.008 A 
ATOM     18  C   UNL d   1      -3.294  -3.816  -2.619  0.00  0.00     0.038 A 
ATOM     19  C   UNL d   1      -1.395  -1.785  -2.556  0.00  0.00     0.011 A 
ATOM     20  C   UNL d   1      -2.224  -1.934  -3.671  0.00  0.00     0.001 A 
ATOM     21  C   UNL d   1      -3.171  -2.952  -3.704  0.00  0.00     0.003 A 
ENDBRANCH   1   8
BRANCH   7  22
ATOM     22  C   UNL d   1      -1.045   2.095   1.103  0.00  0.00     0.019 A 
ATOM     23  C   UNL d   1      -2.309   2.085   1.702  0.00  0.00     0.058 A 
ATOM     24  C   UNL d   1      -2.889   3.282   2.119  0.00  0.00     0.117 A 
ATOM     25  F   UNL d   1      -4.093   3.260   2.704  0.00  0.00    -0.206 F 
ATOM     26  C   UNL d   1      -2.240   4.500   1.946  0.00  0.00     0.042 A 
ATOM     27  C   UNL d   1      -0.986   4.527   1.345  0.00  0.00     0.004 A 
ATOM     28  C   UNL d   1      -0.393   3.330   0.930  0.00  0.00     0.016 A 
ENDBRANCH   7  22
TORSDOF 2
