REMARK  4 active torsions:
REMARK  status: ('A' for Active; 'I' for Inactive)
REMARK    1  A    between atoms: C_11  and  N_1 
REMARK    2  A    between atoms: C_7  and  C_2 
REMARK       I    between atoms: N_9  and  C_7 
REMARK       I    between atoms: C_8  and  N_10 
REMARK    3  A    between atoms: C_12  and  C_8 
REMARK    4  A    between atoms: N_10  and  N_9 
ROOT
ATOM      1  C   UNL d   1      -0.667   2.545  -0.095  0.00  0.00     0.274 C 
ATOM      2  N   UNL d   1      -1.965   3.001  -0.227  0.00  0.00    -0.263 N 
ATOM      3  O   UNL d   1       0.235   3.383   0.031  0.00  0.00    -0.266 OA
ATOM      4  H   UNL d   1      -2.794   2.443  -0.386  0.00  0.00     0.190 HD
ENDROOT
BRANCH   1   5
ATOM      5  C   UNL d   1      -0.378   1.112  -0.071  0.00  0.00     0.081 A 
ATOM      6  C   UNL d   1      -1.176  -0.038  -0.074  0.00  0.00     0.048 A 
ATOM      7  N   UNL d   1      -0.295  -1.124   0.027  0.00  0.00    -0.260 N 
ATOM      8  C   UNL d   1      -2.653  -0.220  -0.052  0.00  0.00     0.071 C 
ATOM      9  N   UNL d   1       0.979  -0.713   0.196  0.00  0.00    -0.297 N 
ATOM     10  C   UNL d   1       0.953   0.606   0.051  0.00  0.00     0.040 A 
ATOM     11  HN  UNL d   1       1.793  -1.295   0.394  1.00  0.00     0.187 HD
ATOM     12  C   UNL d   1       2.233   1.360   0.084  0.00  0.00     0.071 C 
BRANCH   7  13
ATOM     13  C   UNL d   1      -0.536  -2.531   0.010  0.00  0.00     0.056 A 
ATOM     14  C   UNL d   1       0.344  -3.369   0.720  0.00  0.00     0.031 A 
ATOM     15  C   UNL d   1       0.155  -4.751   0.735  0.00  0.00     0.002 A 
ATOM     16  C   UNL d   1      -0.892  -5.314   0.012  0.00  0.00     0.000 A 
ATOM     17  C   UNL d   1      -1.749  -4.495  -0.724  0.00  0.00     0.002 A 
ATOM     18  C   UNL d   1      -1.579  -3.105  -0.723  0.00  0.00     0.031 A 
ENDBRANCH   7  13
ENDBRANCH   1   5
BRANCH   2  19
ATOM     19  N   UNL d   1      -2.135   4.394  -0.076  0.00  0.00    -0.263 N 
ATOM     20  C   UNL d   1      -3.318   5.001  -0.435  0.00  0.00     0.270 C 
ATOM     21  O   UNL d   1      -4.295   4.366  -0.827  0.00  0.00    -0.266 OA
ATOM     22  H   UNL d   1      -1.264   4.907   0.057  0.00  0.00     0.190 HD
BRANCH  20  23
ATOM     23  C   UNL d   1      -3.354   6.497  -0.332  0.00  0.00     0.033 A 
ATOM     24  C   UNL d   1      -2.411   7.231   0.407  0.00  0.00     0.019 A 
ATOM     25  C   UNL d   1      -2.503   8.626   0.486  0.00  0.00     0.025 A 
ATOM     26  C   UNL d   1      -3.538   9.293  -0.164  0.00  0.00     0.034 A 
ATOM     27  C   UNL d   1      -4.483   8.579  -0.896  0.00  0.00     0.025 A 
ATOM     28 CL   UNL d   1      -3.656  11.005  -0.046  0.00  0.00    -0.084 Cl
ATOM     29  C   UNL d   1      -4.393   7.185  -0.978  0.00  0.00     0.019 A 
ENDBRANCH  20  23
ENDBRANCH   2  19
TORSDOF 4
