REMARK  3 active torsions:
REMARK  status: ('A' for Active; 'I' for Inactive)
REMARK    1  A    between atoms: C_13  and  C_6 
REMARK    2  A    between atoms: O_16  and  C_7 
REMARK    3  A    between atoms: C_23  and  O_16 
ROOT
ATOM      1  C   UNL d   1      -0.830  -0.382  -0.027  0.00  0.00     0.052 A 
ATOM      2  C   UNL d   1      -1.234   0.963   0.009  0.00  0.00    -0.013 A 
ATOM      3  N   UNL d   1      -1.648  -1.432  -0.110  0.00  0.00    -0.335 N 
ATOM      4  HN  UNL d   1      -1.308  -2.394  -0.125  1.00  0.00     0.168 HD
ATOM      5  C   UNL d   1      -3.483   0.190  -0.142  0.00  0.00     0.107 A 
ATOM      6  C   UNL d   1      -2.598   1.297  -0.030  0.00  0.00     0.008 A 
ATOM      7  C   UNL d   1      -2.964  -1.123  -0.171  0.00  0.00     0.165 A 
ATOM      8  C   UNL d   1       0.610  -0.472   0.026  0.00  0.00    -0.002 A 
ATOM      9  C   UNL d   1       0.003   1.840   0.100  0.00  0.00     0.081 A 
ATOM     10  C   UNL d   1       1.132   0.833   0.093  0.00  0.00    -0.041 A 
ATOM     11  C   UNL d   1      -4.903   0.356  -0.272  0.00  0.00     0.104 C 
ATOM     12  N   UNL d   1      -6.049   0.509  -0.370  0.00  0.00    -0.191 NA
ATOM     13  C   UNL d   1       1.456  -1.566  -0.002  0.00  0.00     0.014 A 
ATOM     14  C   UNL d   1       2.495   1.074   0.102  0.00  0.00     0.008 A 
ATOM     15  C   UNL d   1       2.836  -1.336   0.015  0.00  0.00     0.001 A 
ATOM     16  C   UNL d   1       3.350  -0.028   0.059  0.00  0.00     0.001 A 
ENDROOT
BRANCH   7  17
ATOM     17  O   UNL d   1      -3.865  -2.176  -0.208  0.00  0.00    -0.335 OA
BRANCH  17  18
ATOM     18  C   UNL d   1      -3.280  -3.405  -0.650  0.00  0.00     0.173 C 
ATOM     19  C   UNL d   1      -4.328  -4.501  -0.563  0.00  0.00     0.034 C 
ENDBRANCH  17  18
ENDBRANCH   7  17
BRANCH   6  20
ATOM     20  C   UNL d   1      -3.038   2.717   0.087  0.00  0.00    -0.024 A 
ATOM     21  C   UNL d   1      -2.379   3.752  -0.608  0.00  0.00     0.015 A 
ATOM     22  C   UNL d   1      -2.683   5.101  -0.393  0.00  0.00     0.043 A 
ATOM     23  C   UNL d   1      -3.713   5.437   0.468  0.00  0.00     0.116 A 
ATOM     24  C   UNL d   1      -4.437   4.450   1.118  0.00  0.00     0.043 A 
ATOM     25  F   UNL d   1      -4.010   6.727   0.673  0.00  0.00    -0.206 F 
ATOM     26  C   UNL d   1      -4.087   3.104   0.946  0.00  0.00     0.015 A 
ENDBRANCH   6  20
TORSDOF 3
