REMARK  6 active torsions:
REMARK  status: ('A' for Active; 'I' for Inactive)
REMARK    1  A    between atoms: N_3  and  C_1 
REMARK    2  A    between atoms: N_5  and  C_1 
REMARK    3  A    between atoms: C_2  and  N_3 
REMARK    4  A    between atoms: C_4  and  N_5 
REMARK    5  A    between atoms: C_16  and  C_6 
REMARK    6  A    between atoms: C_17  and  C_9 
ROOT
ATOM      1  N   UNL d   1       0.240   0.638   1.087  0.00  0.00    -0.333 N 
ATOM      2  H   UNL d   1       0.339   0.722   0.083  0.00  0.00     0.168 HD
ENDROOT
BRANCH   1   3
ATOM      3  C   UNL d   1       0.949   1.567   1.882  0.00  0.00     0.041 A 
ATOM      4  C   UNL d   1       2.025   2.313   1.362  0.00  0.00    -0.028 A 
ATOM      5  C   UNL d   1       2.599   3.301   2.188  0.00  0.00     0.010 A 
ATOM      6  C   UNL d   1       2.109   3.562   3.471  0.00  0.00     0.008 A 
ATOM      7  C   UNL d   1       1.022   2.847   3.972  0.00  0.00    -0.052 A 
ATOM      8  C   UNL d   1       0.466   1.840   3.171  0.00  0.00     0.037 A 
BRANCH   4   9
ATOM      9  C   UNL d   1       2.583   2.095  -0.042  0.00  0.00     0.013 C 
ATOM     10  C   UNL d   1       1.975   3.114  -1.010  0.00  0.00     0.015 C 
ATOM     11  C   UNL d   1       4.117   2.143  -0.118  0.00  0.00     0.015 C 
ENDBRANCH   4   9
BRANCH   7  12
ATOM     12  C   UNL d   1       0.419   3.199   5.316  0.00  0.00     0.010 C 
ATOM     13  C   UNL d   1      -1.013   3.715   5.154  0.00  0.00     0.015 C 
ATOM     14  C   UNL d   1       0.468   2.018   6.290  0.00  0.00     0.015 C 
ENDBRANCH   7  12
ENDBRANCH   1   3
BRANCH   1  15
ATOM     15  C   UNL d   1      -0.319  -0.553   1.490  0.00  0.00     0.176 C 
ATOM     16  S   UNL d   1       0.236  -1.546   2.719  0.00  0.00    -0.041 SA
BRANCH  15  17
ATOM     17  N   UNL d   1      -1.332  -1.029   0.701  0.00  0.00    -0.332 N 
ATOM     18  H   UNL d   1      -1.482  -2.034   0.775  0.00  0.00     0.168 HD
BRANCH  17  19
ATOM     19  C   UNL d   1      -2.325  -0.326  -0.022  0.00  0.00     0.057 A 
ATOM     20  C   UNL d   1      -2.606   1.026   0.212  0.00  0.00     0.055 A 
ATOM     21  C   UNL d   1      -3.652   1.653  -0.470  0.00  0.00     0.036 A 
ATOM     22 CL   UNL d   1      -4.019   3.301  -0.139  0.00  0.00    -0.084 Cl
ATOM     23  C   UNL d   1      -4.420   0.953  -1.398  0.00  0.00     0.026 A 
ATOM     24  C   UNL d   1      -4.155  -0.397  -1.633  0.00  0.00     0.028 A 
ATOM     25  C   UNL d   1      -3.126  -1.035  -0.937  0.00  0.00     0.060 A 
ATOM     26 CL   UNL d   1      -2.857  -2.717  -1.244  0.00  0.00    -0.082 Cl
ENDBRANCH  17  19
ENDBRANCH  15  17
ENDBRANCH   1  15
TORSDOF 6
