REMARK  1 active torsions:
REMARK  status: ('A' for Active; 'I' for Inactive)
REMARK    1  A    between atoms: C_6  and  C_1 
ROOT
ATOM      1  C   UNL d   1       1.308   0.711  -0.074  0.00  0.00     0.144 A 
ATOM      2  N   UNL d   1       0.055   1.142   0.305  0.00  0.00    -0.323 N 
ATOM      3  HN  UNL d   1      -0.220   2.040   0.702  1.00  0.00     0.169 HD
ATOM      4  N   UNL d   1       1.339  -0.545  -0.546  0.00  0.00    -0.242 N 
ATOM      5  HN  UNL d   1       2.145  -1.075  -0.877  1.00  0.00     0.196 HD
ATOM      6  C   UNL d   1      -0.693   0.101   0.026  0.00  0.00     0.144 A 
ATOM      7  O   UNL d   1       0.009  -0.954  -0.476  0.00  0.00    -0.223 OA
ATOM      8  C   UNL d   1      -2.149  -0.076   0.160  0.00  0.00     0.100 C 
ENDROOT
BRANCH   1   9
ATOM      9  C   UNL d   1       2.513   1.593   0.009  0.00  0.00     0.050 A 
ATOM     10  S   UNL d   1       4.074   1.151  -0.527  0.00  0.00    -0.098 SA
ATOM     11  C   UNL d   1       4.717   2.683  -0.113  0.00  0.00     0.050 A 
ATOM     12  C   UNL d   1       3.766   3.506   0.446  0.00  0.00     0.009 A 
ATOM     13  C   UNL d   1       2.489   2.874   0.520  0.00  0.00     0.023 A 
ENDBRANCH   1   9
TORSDOF 1
