REMARK  8 active torsions:
REMARK  status: ('A' for Active; 'I' for Inactive)
REMARK    1  A    between atoms: N_12  and  N_5 
REMARK    2  A    between atoms: C_16  and  N_7 
REMARK       I    between atoms: C_13  and  N_12 
REMARK    3  A    between atoms: C_17  and  C_13 
REMARK    4  A    between atoms: N_14  and  C_17 
REMARK    5  A    between atoms: C_19  and  N_14 
REMARK    6  A    between atoms: C_20  and  N_14 
REMARK    7  A    between atoms: C_22  and  C_19 
REMARK    8  A    between atoms: C_23  and  C_20 
ROOT
ATOM      1  N   UNL d   1      -3.371   0.924  -1.207  0.00  0.00    -0.258 N 
ATOM      2  C   UNL d   1      -4.260   0.824  -0.145  0.00  0.00     0.265 C 
ATOM      3  O   UNL d   1      -4.820   1.802   0.350  0.00  0.00    -0.270 OA
ATOM      4  H   UNL d   1      -3.120   0.096  -1.735  0.00  0.00     0.190 HD
ENDROOT
BRANCH   1   5
ATOM      5  N   UNL d   1      -3.237   2.191  -1.853  0.00  0.00    -0.203 N 
ATOM      6  C   UNL d   1      -2.025   2.885  -1.787  0.00  0.00     0.104 C 
ATOM      7  N   UNL d   1      -1.855   4.122  -2.178  0.00  0.00    -0.328 N 
ATOM      8  C   UNL d   1      -0.819   2.148  -1.255  0.00  0.00     0.091 C 
ATOM      9  C   UNL d   1      -2.968   4.708  -2.692  0.00  0.00     0.147 A 
ATOM     10  HN  UNL d   1      -0.961   4.607  -2.103  1.00  0.00     0.169 HD
ATOM     11  C   UNL d   1      -4.188   4.098  -2.911  0.00  0.00     0.149 A 
ATOM     12  N   UNL d   1      -3.149   6.037  -3.074  0.00  0.00    -0.292 N 
ATOM     13  C   UNL d   1      -4.372   2.705  -2.515  0.00  0.00     0.298 C 
ATOM     14  N   UNL d   1      -5.082   4.942  -3.497  0.00  0.00    -0.344 N 
ATOM     15  O   UNL d   1      -5.375   2.041  -2.775  0.00  0.00    -0.263 OA
ATOM     16  C   UNL d   1      -4.435   6.083  -3.592  0.00  0.00     0.191 A 
ATOM     17  HN  UNL d   1      -6.036   4.736  -3.795  1.00  0.00     0.167 HD
BRANCH  12  18
ATOM     18  C   UNL d   1      -2.256   7.159  -2.964  0.00  0.00     0.042 A 
ATOM     19  C   UNL d   1      -0.922   6.997  -2.577  0.00  0.00     0.030 A 
ATOM     20  C   UNL d   1      -0.077   8.107  -2.438  0.00  0.00     0.002 A 
ATOM     21  C   UNL d   1      -0.558   9.394  -2.681  0.00  0.00     0.000 A 
ATOM     22  C   UNL d   1      -1.877   9.568  -3.072  0.00  0.00     0.002 A 
ATOM     23  C   UNL d   1      -2.720   8.460  -3.216  0.00  0.00     0.030 A 
ENDBRANCH  12  18
ENDBRANCH   1   5
BRANCH   2  24
ATOM     24  C   UNL d   1      -4.500  -0.604   0.375  0.00  0.00     0.377 C 
BRANCH  24  25
ATOM     25  N   UNL d   1      -3.241  -1.304   0.734  0.00  0.00     0.105 N 
BRANCH  25  26
ATOM     26  C   UNL d   1      -2.423  -0.581   1.730  0.00  0.00     0.311 C 
BRANCH  26  27
ATOM     27  C   UNL d   1      -3.009  -0.259   3.093  0.00  0.00    -0.030 A 
ATOM     28  C   UNL d   1      -2.853  -1.139   4.176  0.00  0.00     0.009 A 
ATOM     29  C   UNL d   1      -3.246  -0.764   5.466  0.00  0.00     0.001 A 
ATOM     30  C   UNL d   1      -3.810   0.489   5.691  0.00  0.00     0.000 A 
ATOM     31  C   UNL d   1      -4.006   1.359   4.624  0.00  0.00     0.001 A 
ATOM     32  C   UNL d   1      -3.609   0.987   3.337  0.00  0.00     0.009 A 
ENDBRANCH  26  27
ENDBRANCH  25  26
BRANCH  25  33
ATOM     33  C   UNL d   1      -3.479  -2.703   1.159  0.00  0.00     0.311 C 
BRANCH  33  34
ATOM     34  C   UNL d   1      -4.199  -3.534   0.115  0.00  0.00    -0.030 A 
ATOM     35  C   UNL d   1      -3.663  -3.703  -1.170  0.00  0.00     0.009 A 
ATOM     36  C   UNL d   1      -4.426  -4.293  -2.179  0.00  0.00     0.001 A 
ATOM     37  C   UNL d   1      -5.717  -4.742  -1.907  0.00  0.00     0.000 A 
ATOM     38  C   UNL d   1      -6.226  -4.657  -0.613  0.00  0.00     0.001 A 
ATOM     39  C   UNL d   1      -5.466  -4.069   0.398  0.00  0.00     0.009 A 
ENDBRANCH  33  34
ENDBRANCH  25  33
ENDBRANCH  24  25
ENDBRANCH   2  24
TORSDOF 8
