REMARK  1 active torsions:
REMARK  status: ('A' for Active; 'I' for Inactive)
REMARK    1  A    between atoms: C_2  and  N_1 
ROOT
ATOM      1  C   UNL d   1       0.008   2.296   0.036  0.00  0.00     0.052 A 
ATOM      2  C   UNL d   1      -0.641   3.030   1.057  0.00  0.00    -0.029 A 
ATOM      3  C   UNL d   1      -0.617   4.447   1.004  0.00  0.00    -0.054 A 
ATOM      4  C   UNL d   1       0.691   2.975  -0.988  0.00  0.00     0.031 A 
ATOM      5  C   UNL d   1      -1.278   2.350   2.245  0.00  0.00     0.051 C 
ATOM      6  C   UNL d   1       0.693   4.365  -1.044  0.00  0.00     0.003 A 
ATOM      7  C   UNL d   1       0.040   5.094  -0.057  0.00  0.00     0.007 A 
ATOM      8  C   UNL d   1      -1.231   5.329   2.062  0.00  0.00     0.049 C 
ENDROOT
BRANCH   1   9
ATOM      9  N   UNL d   1       0.005   0.885   0.009  0.00  0.00    -0.245 N 
ATOM     10  C   UNL d   1      -1.113   0.101   0.020  0.00  0.00     0.255 A 
ATOM     11  C   UNL d   1      -0.659  -1.291  -0.050  0.00  0.00     0.080 A 
ATOM     12  O   UNL d   1      -2.294   0.402   0.035  0.00  0.00    -0.268 OA
ATOM     13  C   UNL d   1       0.669  -1.287  -0.155  0.00  0.00     0.080 A 
ATOM     14  C   UNL d   1       1.116   0.111  -0.171  0.00  0.00     0.255 A 
ATOM     15  O   UNL d   1       2.288   0.419  -0.288  0.00  0.00    -0.268 OA
ENDBRANCH   1   9
TORSDOF 1
