REMARK  8 active torsions:
REMARK  status: ('A' for Active; 'I' for Inactive)
REMARK    1  A    between atoms: N_2  and  S_1 
REMARK    2  A    between atoms: C_4  and  S_1 
REMARK    3  A    between atoms: C_3  and  N_2 
REMARK    4  A    between atoms: O_12  and  C_10 
REMARK    5  A    between atoms: C_19  and  O_12 
REMARK    6  A    between atoms: C_17  and  C_19 
REMARK    7  A    between atoms: C_27  and  C_24 
REMARK    8  A    between atoms: C_28  and  C_27 
ROOT
ATOM      1  C   UNL d   1       0.884  -0.962  -2.527  0.00  0.00     0.128 A 
ATOM      2  N   UNL d   1      -0.128  -0.387  -3.198  0.00  0.00    -0.354 N 
ATOM      3  HN  UNL d   1      -1.013  -0.155  -2.747  1.00  0.00     0.166 HD
ATOM      4  C   UNL d   1       2.126  -1.302  -3.075  0.00  0.00     0.108 A 
ATOM      5  C   UNL d   1       0.095  -0.134  -4.503  0.00  0.00     0.089 A 
ATOM      6  C   UNL d   1       2.320  -1.019  -4.422  0.00  0.00     0.041 A 
ATOM      7  C   UNL d   1       1.287  -0.425  -5.150  0.00  0.00     0.020 A 
ENDROOT
BRANCH   1   8
ATOM      8  N   UNL d   1       0.592  -1.142  -1.150  0.00  0.00    -0.164 NA
ATOM      9  H   UNL d   1      -0.428  -1.198  -1.125  0.00  0.00     0.147 HD
BRANCH   8  10
ATOM     10  S   UNL d   1       0.949   0.182  -0.147  0.00  0.00     0.247 S 
ATOM     11  O   UNL d   1       1.330  -0.356   1.143  0.00  0.00    -0.205 OA
ATOM     12  O   UNL d   1      -0.169   1.094  -0.244  0.00  0.00    -0.205 OA
BRANCH  10  13
ATOM     13  C   UNL d   1       2.368   1.009  -0.832  0.00  0.00     0.074 A 
ATOM     14  C   UNL d   1       2.193   2.021  -1.780  0.00  0.00     0.025 A 
ATOM     15  C   UNL d   1       3.310   2.678  -2.302  0.00  0.00     0.009 A 
ATOM     16  C   UNL d   1       4.601   2.348  -1.862  0.00  0.00    -0.058 A 
ATOM     17  C   UNL d   1       4.754   1.362  -0.875  0.00  0.00     0.009 A 
ATOM     18  C   UNL d   1       3.643   0.691  -0.361  0.00  0.00     0.025 A 
BRANCH  16  19
ATOM     19  C   UNL d   1       5.806   3.073  -2.416  0.00  0.00     0.038 C 
BRANCH  19  20
ATOM     20  C   UNL d   1       6.838   2.164  -3.092  0.00  0.00     0.000 C 
ATOM     21  C   UNL d   1       6.301   1.461  -4.331  0.00  0.00     0.005 C 
ENDBRANCH  19  20
ENDBRANCH  16  19
ENDBRANCH  10  13
ENDBRANCH   8  10
ENDBRANCH   1   8
BRANCH   4  22
ATOM     22  O   UNL d   1       3.011  -1.930  -2.253  0.00  0.00    -0.343 OA
BRANCH  22  23
ATOM     23  C   UNL d   1       4.391  -1.935  -2.604  0.00  0.00     0.214 C 
BRANCH  23  24
ATOM     24  C   UNL d   1       5.116  -2.805  -1.602  0.00  0.00    -0.032 A 
ATOM     25  C   UNL d   1       6.390  -2.456  -1.130  0.00  0.00     0.035 A 
ATOM     26  C   UNL d   1       7.063  -3.281  -0.219  0.00  0.00     0.056 A 
ATOM     27 CL   UNL d   1       8.629  -2.780   0.311  0.00  0.00    -0.083 Cl
ATOM     28  C   UNL d   1       6.468  -4.468   0.224  0.00  0.00     0.055 A 
ATOM     29  C   UNL d   1       5.207  -4.829  -0.252  0.00  0.00     0.026 A 
ATOM     30 CL   UNL d   1       7.237  -5.533   1.346  0.00  0.00    -0.083 Cl
ATOM     31  C   UNL d   1       4.541  -4.008  -1.162  0.00  0.00     0.011 A 
ENDBRANCH  23  24
ENDBRANCH  22  23
ENDBRANCH   4  22
TORSDOF 8
