REMARK  1 active torsions:
REMARK  status: ('A' for Active; 'I' for Inactive)
REMARK    1  A    between atoms: O_6  and  C_2 
ROOT
ATOM      1  C   UNL d   1      -1.458  -0.431   0.017  0.00  0.00     0.085 A 
ATOM      2  C   UNL d   1      -0.496  -1.366   0.008  0.00  0.00     0.064 A 
ATOM      3  C   UNL d   1      -1.101   1.013   0.045  0.00  0.00     0.169 A 
ATOM      4  O   UNL d   1      -1.978   1.878   0.109  0.00  0.00    -0.292 OA
ATOM      5 BR   UNL d   1      -3.278  -0.883   0.005  0.00  0.00    -0.044 Br
ATOM      6  C   UNL d   1       0.973  -1.094   0.028  0.00  0.00     0.066 A 
ATOM      7  C   UNL d   1       0.345   1.436  -0.023  0.00  0.00     0.085 A 
ATOM      8  C   UNL d   1       1.417   0.360  -0.025  0.00  0.00     0.014 A 
ENDROOT
BRANCH   2   9
ATOM      9  O   UNL d   1      -0.787  -2.723  -0.013  0.00  0.00    -0.363 OA
ATOM     10  H   UNL d   1      -1.757  -2.832  -0.017  0.00  0.00     0.217 HD
ENDBRANCH   2   9
TORSDOF 1
