REMARK  3 active torsions:
REMARK  status: ('A' for Active; 'I' for Inactive)
REMARK    1  A    between atoms: N_10  and  C_3 
REMARK    2  A    between atoms: C_13  and  C_4 
REMARK    3  A    between atoms: C_12  and  C_5 
ROOT
ATOM      1  N   UNL d   1       1.369   0.363  -0.181  0.00  0.00    -0.187 N 
ATOM      2  HN  UNL d   1       2.324   0.652  -0.393  1.00  0.00     0.184 HD
ATOM      3  C   UNL d   1       0.424   1.275   0.097  0.00  0.00     0.695 A 
ATOM      4  C   UNL d   1       1.026  -0.957  -0.173  0.00  0.00     0.088 A 
ATOM      5  C   UNL d   1      -0.291  -1.359   0.105  0.00  0.00     0.087 A 
ATOM      6  N   UNL d   1      -1.233  -0.414   0.265  0.00  0.00    -0.283 N 
ATOM      7  HN  UNL d   1      -2.212  -0.677   0.377  1.00  0.00     0.187 HD
ATOM      8  N   UNL d   1      -0.866   0.906   0.278  0.00  0.00    -0.132 N 
ATOM      9  HN  UNL d   1      -1.577   1.623   0.426  1.00  0.00     0.205 HD
ENDROOT
BRANCH   3  10
ATOM     10  N   UNL d   1       0.816   2.573   0.353  0.00  0.00    -0.213 N 
ATOM     11  C   UNL d   1      -0.233   3.560   0.636  0.00  0.00     0.171 C 
ATOM     12  C   UNL d   1       0.396   4.800   1.318  0.00  0.00     0.292 C 
ATOM     13  N   UNL d   1       1.510   5.387   0.539  0.00  0.00     0.087 N 
ATOM     14  C   UNL d   1       2.525   4.343   0.265  0.00  0.00     0.292 C 
ATOM     15  C   UNL d   1       2.115   6.499   1.273  0.00  0.00     0.310 C 
ATOM     16  C   UNL d   1       1.940   3.089  -0.428  0.00  0.00     0.171 C 
ENDBRANCH   3  10
BRANCH   4  17
ATOM     17  C   UNL d   1       2.180  -1.873  -0.356  0.00  0.00    -0.006 C 
ATOM     18  C   UNL d   1       3.417  -1.576   0.248  0.00  0.00     0.014 C 
ATOM     19  C   UNL d   1       4.454  -2.515   0.290  0.00  0.00     0.001 C 
ATOM     20  C   UNL d   1       4.271  -3.776  -0.268  0.00  0.00     0.000 C 
ATOM     21  C   UNL d   1       3.091  -4.067  -0.943  0.00  0.00     0.001 C 
ATOM     22  C   UNL d   1       2.079  -3.104  -1.031  0.00  0.00     0.014 C 
ENDBRANCH   4  17
BRANCH   5  23
ATOM     23  C   UNL d   1      -0.765  -2.746   0.308  0.00  0.00    -0.006 A 
ATOM     24  C   UNL d   1      -0.025  -3.686   1.054  0.00  0.00     0.014 A 
ATOM     25  C   UNL d   1      -0.399  -5.030   1.111  0.00  0.00     0.001 A 
ATOM     26  C   UNL d   1      -1.576  -5.448   0.504  0.00  0.00     0.000 A 
ATOM     27  C   UNL d   1      -2.383  -4.520  -0.150  0.00  0.00     0.001 A 
ATOM     28  C   UNL d   1      -1.978  -3.184  -0.254  0.00  0.00     0.014 A 
ENDBRANCH   5  23
TORSDOF 3
