REMARK  5 active torsions:
REMARK  status: ('A' for Active; 'I' for Inactive)
REMARK    1  A    between atoms: C_21  and  N_1 
REMARK    2  A    between atoms: S_9  and  C_2 
REMARK    3  A    between atoms: C_20  and  C_4 
REMARK    4  A    between atoms: C_5  and  S_9 
REMARK    5  A    between atoms: C_22  and  C_21 
ROOT
ATOM      1  N   UNL d   1       0.550  -1.531   1.175  0.00  0.00    -0.307 N 
ATOM      2  C   UNL d   1       1.722  -0.953   1.599  0.00  0.00     0.169 C 
ATOM      3  C   UNL d   1      -0.180  -0.494   0.624  0.00  0.00     0.135 C 
ATOM      4  N   UNL d   1       0.651   0.521   0.433  0.00  0.00    -0.283 N 
ATOM      5  HN  UNL d   1       0.448   1.364  -0.103  1.00  0.00     0.188 HD
ATOM      6  N   UNL d   1       1.835   0.246   1.079  0.00  0.00    -0.278 N 
ATOM      7  HN  UNL d   1       2.648   0.859   1.141  1.00  0.00     0.189 HD
ENDROOT
BRANCH   2   8
ATOM      8  S   UNL d   1       2.593  -1.526   2.970  0.00  0.00    -0.034 SA
BRANCH   8   9
ATOM      9  C   UNL d   1       4.148  -1.947   2.249  0.00  0.00     0.092 A 
ATOM     10  C   UNL d   1       5.324  -1.299   2.677  0.00  0.00     0.039 A 
ATOM     11  C   UNL d   1       6.483  -2.047   2.502  0.00  0.00     0.089 A 
ATOM     12  C   UNL d   1       5.654  -0.009   3.257  0.00  0.00    -0.029 C 
ATOM     13  S   UNL d   1       7.849  -1.350   3.243  0.00  0.00    -0.075 SA
ATOM     14  N   UNL d   1       6.591  -3.227   1.875  0.00  0.00    -0.346 N 
ATOM     15  C   UNL d   1       6.969   0.029   3.691  0.00  0.00    -0.008 C 
ATOM     16  C   UNL d   1       7.598   1.169   4.424  0.00  0.00     0.047 C 
ATOM     17  C   UNL d   1       6.930   2.477   3.991  0.00  0.00     0.005 C 
ATOM     18  C   UNL d   1       5.402   2.384   4.110  0.00  0.00     0.005 C 
ATOM     19  C   UNL d   1       4.783   1.220   3.314  0.00  0.00     0.040 C 
ATOM     20  C   UNL d   1       5.423  -3.682   1.422  0.00  0.00     0.182 A 
ATOM     21  HN  UNL d   1       7.474  -3.724   1.756  1.00  0.00     0.167 HD
ATOM     22  N   UNL d   1       4.215  -3.131   1.600  0.00  0.00    -0.346 N 
ATOM     23  HN  UNL d   1       3.372  -3.592   1.257  1.00  0.00     0.167 HD
ENDBRANCH   8   9
ENDBRANCH   2   8
BRANCH   1  24
ATOM     24  C   UNL d   1       0.327  -2.955   0.974  0.00  0.00     0.159 C 
BRANCH  24  25
ATOM     25  C   UNL d   1      -0.374  -3.644   2.106  0.00  0.00    -0.017 C 
ATOM     26  C   UNL d   1      -1.470  -4.404   1.960  0.00  0.00     0.008 C 
ENDBRANCH  24  25
ENDBRANCH   1  24
BRANCH   3  27
ATOM     27  C   UNL d   1      -1.621  -0.464   0.358  0.00  0.00     0.009 A 
ATOM     28  C   UNL d   1      -2.542  -1.073   1.223  0.00  0.00     0.015 A 
ATOM     29  C   UNL d   1      -3.919  -0.951   1.015  0.00  0.00     0.001 A 
ATOM     30  C   UNL d   1      -4.396  -0.192  -0.050  0.00  0.00     0.000 A 
ATOM     31  C   UNL d   1      -3.497   0.439  -0.906  0.00  0.00     0.001 A 
ATOM     32  C   UNL d   1      -2.119   0.303  -0.703  0.00  0.00     0.015 A 
ENDBRANCH   3  27
TORSDOF 5
