REMARK  9 active torsions:
REMARK  status: ('A' for Active; 'I' for Inactive)
REMARK       I    between atoms: N_6  and  C_1 
REMARK       I    between atoms: N_7  and  C_1 
REMARK    1  A    between atoms: C_2  and  C_3 
REMARK    2  A    between atoms: O_9  and  C_2 
REMARK    3  A    between atoms: C_3  and  C_8 
REMARK    4  A    between atoms: C_8  and  N_6 
REMARK    5  A    between atoms: C_10  and  N_7 
REMARK    6  A    between atoms: C_11  and  C_10 
REMARK    7  A    between atoms: C_14  and  C_11 
REMARK    8  A    between atoms: C_12  and  C_13 
REMARK    9  A    between atoms: C_13  and  C_14 
ROOT
ATOM      1  C   UNL d   1       1.973   0.795   1.093  0.00  0.00     0.316 C 
ATOM      2  O   UNL d   1       2.246   1.974   1.273  0.00  0.00    -0.247 OA
ATOM      3  N   UNL d   1       1.265   0.049   1.990  0.00  0.00    -0.343 N 
ATOM      4  N   UNL d   1       2.332   0.094  -0.025  0.00  0.00    -0.343 N 
ATOM      5  H   UNL d   1       1.019  -0.907   1.779  0.00  0.00     0.164 HD
ATOM      6  H   UNL d   1       2.104  -0.884  -0.095  0.00  0.00     0.164 HD
ENDROOT
BRANCH   3   7
ATOM      7  C   UNL d   1       0.790   0.622   3.241  0.00  0.00     0.134 C 
BRANCH   7   8
ATOM      8  C   UNL d   1      -0.571   1.300   3.119  0.00  0.00     0.129 C 
BRANCH   8   9
ATOM      9  C   UNL d   1      -1.643   0.300   2.765  0.00  0.00     0.140 C 
ATOM     10  O   UNL d   1      -1.613  -0.883   3.063  0.00  0.00    -0.650 OA
BRANCH   9  11
ATOM     11  O   UNL d   1      -2.691   0.846   2.107  0.00  0.00    -0.776 OA
ATOM     12  H   UNL d   1      -2.595   1.799   1.916  0.00  0.00     0.167 HD
ENDBRANCH   9  11
ENDBRANCH   8   9
ENDBRANCH   7   8
ENDBRANCH   3   7
BRANCH   4  13
ATOM     13  C   UNL d   1       3.130   0.704  -1.074  0.00  0.00     0.124 C 
BRANCH  13  14
ATOM     14  C   UNL d   1       4.638   0.570  -0.849  0.00  0.00     0.020 C 
BRANCH  14  15
ATOM     15  C   UNL d   1       5.107  -0.888  -0.848  0.00  0.00     0.002 C 
BRANCH  15  16
ATOM     16  C   UNL d   1       6.621  -0.995  -0.650  0.00  0.00    -0.000 C 
BRANCH  16  17
ATOM     17  C   UNL d   1       7.080  -2.454  -0.636  0.00  0.00    -0.005 C 
ATOM     18  C   UNL d   1       8.584  -2.561  -0.434  0.00  0.00     0.005 C 
ENDBRANCH  16  17
ENDBRANCH  15  16
ENDBRANCH  14  15
ENDBRANCH  13  14
ENDBRANCH   4  13
TORSDOF 9
