REMARK  4 active torsions:
REMARK  status: ('A' for Active; 'I' for Inactive)
REMARK    1  A    between atoms: N_2  and  S_1 
REMARK    2  A    between atoms: C_3  and  S_1 
REMARK    3  A    between atoms: C_4  and  N_5 
REMARK    4  A    between atoms: N_9  and  C_6 
ROOT
ATOM      1  S   UNL d   1       1.197   0.012   0.336  0.00  0.00     0.245 S 
ATOM      2  O   UNL d   1       0.707   1.298  -0.116  0.00  0.00    -0.206 OA
ATOM      3  O   UNL d   1       2.607  -0.312   0.296  0.00  0.00    -0.206 OA
ENDROOT
BRANCH   1   4
ATOM      4  N   UNL d   1       0.340  -1.212  -0.471  0.00  0.00    -0.203 NA
ATOM      5  C   UNL d   1       1.026  -2.538  -0.606  0.00  0.00     0.128 C 
ATOM      6  C   UNL d   1       2.037  -2.553  -1.778  0.00  0.00     0.157 C 
ATOM      7  N   UNL d   1       1.401  -2.083  -3.019  0.00  0.00    -0.215 N 
ATOM      8  C   UNL d   1       0.695  -0.797  -2.931  0.00  0.00     0.157 C 
ATOM      9  C   UNL d   1      -0.311  -0.831  -1.766  0.00  0.00     0.128 C 
BRANCH   7  10
ATOM     10  C   UNL d   1       2.132  -2.290  -4.185  0.00  0.00     0.679 A 
ATOM     11  N   UNL d   1       1.783  -1.620  -5.298  0.00  0.00    -0.202 N 
ATOM     12  C   UNL d   1       2.416  -1.932  -6.447  0.00  0.00     0.107 A 
ATOM     13  HN  UNL d   1       1.063  -0.899  -5.274  1.00  0.00     0.183 HD
ATOM     14  C   UNL d   1       3.393  -2.887  -6.539  0.00  0.00     0.035 A 
ATOM     15  C   UNL d   1       3.709  -3.501  -5.356  0.00  0.00     0.107 A 
ATOM     16  N   UNL d   1       3.100  -3.223  -4.187  0.00  0.00    -0.202 N 
ATOM     17  HN  UNL d   1       3.366  -3.706  -3.329  1.00  0.00     0.183 HD
ENDBRANCH   7  10
ENDBRANCH   1   4
BRANCH   1  18
ATOM     18  C   UNL d   1       0.653  -0.165   2.006  0.00  0.00     0.090 A 
ATOM     19  C   UNL d   1       1.553  -0.380   3.029  0.00  0.00     0.114 A 
ATOM     20  N   UNL d   1       1.204  -0.388   4.351  0.00  0.00    -0.351 N 
ATOM     21  C   UNL d   1      -0.089  -0.176   4.672  0.00  0.00     0.103 A 
ATOM     22  HN  UNL d   1       1.903  -0.549   5.075  1.00  0.00     0.166 HD
ATOM     23  C   UNL d   1      -1.046   0.031   3.672  0.00  0.00     0.050 A 
ATOM     24  C   UNL d   1      -0.677   0.043   2.330  0.00  0.00     0.030 A 
BRANCH  21  25
ATOM     25  N   UNL d   1      -0.473  -0.062   6.004  0.00  0.00    -0.363 N 
ATOM     26  C   UNL d   1       0.542   0.267   7.016  0.00  0.00     0.150 C 
ATOM     27  C   UNL d   1       0.954  -0.957   7.843  0.00  0.00     0.187 C 
ATOM     28  O   UNL d   1      -0.190  -1.636   8.388  0.00  0.00    -0.388 OA
ATOM     29  C   UNL d   1      -1.036  -2.090   7.323  0.00  0.00     0.187 C 
ATOM     30  C   UNL d   1      -1.571  -0.916   6.488  0.00  0.00     0.150 C 
ENDBRANCH  21  25
ENDBRANCH   1  18
TORSDOF 4
