REMARK  3 active torsions:
REMARK  status: ('A' for Active; 'I' for Inactive)
REMARK       I    between atoms: C_2  and  N_13 
REMARK    1  A    between atoms: C_11  and  C_2 
REMARK    2  A    between atoms: N_13  and  C_10 
REMARK    3  A    between atoms: C_14  and  C_12 
ROOT
ATOM      1  C   UNL d   1      -4.802  -0.585   0.066  0.00  0.00     0.257 C 
ATOM      2  N   UNL d   1      -5.961  -1.348   0.156  0.00  0.00    -0.323 N 
ATOM      3  O   UNL d   1      -3.662  -0.959   0.295  0.00  0.00    -0.267 OA
ATOM      4  H   UNL d   1      -6.832  -0.894  -0.091  0.00  0.00     0.169 HD
ENDROOT
BRANCH   1   5
ATOM      5  C   UNL d   1      -5.005   0.841  -0.287  0.00  0.00     0.043 A 
ATOM      6  C   UNL d   1      -4.231   1.479  -1.280  0.00  0.00    -0.003 A 
ATOM      7  C   UNL d   1      -4.356   2.877  -1.401  0.00  0.00     0.014 A 
ATOM      8  C   UNL d   1      -5.197   3.613  -0.559  0.00  0.00     0.001 A 
ATOM      9  C   UNL d   1      -5.960   2.964   0.406  0.00  0.00     0.001 A 
ATOM     10  C   UNL d   1      -5.869   1.581   0.543  0.00  0.00     0.018 A 
BRANCH   6  11
ATOM     11  C   UNL d   1      -3.318   0.742  -2.180  0.00  0.00     0.016 A 
ATOM     12  S   UNL d   1      -1.739   1.351  -2.502  0.00  0.00    -0.101 SA
ATOM     13  C   UNL d   1      -1.325  -0.004  -3.455  0.00  0.00     0.050 A 
ATOM     14  C   UNL d   1      -2.360  -0.902  -3.550  0.00  0.00     0.008 A 
ATOM     15  C   UNL d   1      -3.515  -0.462  -2.837  0.00  0.00     0.020 A 
ENDBRANCH   6  11
ENDBRANCH   1   5
BRANCH   2  16
ATOM     16  C   UNL d   1      -6.047  -2.685   0.623  0.00  0.00     0.037 A 
ATOM     17  C   UNL d   1      -4.906  -3.426   0.992  0.00  0.00     0.061 A 
ATOM     18  C   UNL d   1      -5.120  -4.729   1.505  0.00  0.00     0.069 A 
ATOM     19  C   UNL d   1      -6.507  -5.289   1.631  0.00  0.00     0.067 A 
ATOM     20  N   UNL d   1      -4.168  -5.577   1.925  0.00  0.00    -0.310 N 
ATOM     21  N   UNL d   1      -6.535  -6.527   2.146  0.00  0.00    -0.310 N 
ATOM     22  C   UNL d   1      -7.628  -4.527   1.230  0.00  0.00     0.035 A 
ATOM     23  S   UNL d   1      -4.952  -6.944   2.445  0.00  0.00     0.068 SA
ATOM     24  HN  UNL d   1      -7.361  -7.099   2.320  1.00  0.00     0.176 HD
ATOM     25  C   UNL d   1      -7.355  -3.236   0.730  0.00  0.00     0.032 A 
ATOM     26  HN  UNL d   1      -3.161  -5.414   1.924  1.00  0.00     0.176 HD
ENDBRANCH   2  16
TORSDOF 3
