REMARK  9 active torsions:
REMARK  status: ('A' for Active; 'I' for Inactive)
REMARK       I    between atoms: C_3  and  N_1 
REMARK    1  A    between atoms: C_8  and  C_2 
REMARK    2  A    between atoms: C_7  and  C_3 
REMARK    3  A    between atoms: O_20  and  C_8 
REMARK    4  A    between atoms: C_10  and  C_9 
REMARK    5  A    between atoms: O_19  and  C_10 
REMARK    6  A    between atoms: O_17  and  C_16 
REMARK    7  A    between atoms: C_21  and  O_17 
REMARK    8  A    between atoms: C_25  and  O_20 
REMARK    9  A    between atoms: C_23  and  C_21 
ROOT
ATOM      1  N   UNL d   1      -1.744  -1.010   0.045  0.00  0.00    -0.272 N 
ATOM      2  C   UNL d   1      -2.547   0.141   0.011  0.00  0.00     0.119 A 
ATOM      3  C   UNL d   1      -2.114  -2.381   0.018  0.00  0.00     0.264 C 
ATOM      4  C   UNL d   1      -1.696   1.234  -0.011  0.00  0.00     0.050 A 
ATOM      5  C   UNL d   1      -0.396  -0.587   0.089  0.00  0.00     0.053 A 
ATOM      6  C   UNL d   1      -0.371   0.796   0.051  0.00  0.00    -0.004 A 
ATOM      7  C   UNL d   1       0.818  -1.317   0.085  0.00  0.00     0.034 A 
ATOM      8  O   UNL d   1      -1.347  -3.164   0.572  0.00  0.00    -0.267 OA
ATOM      9  C   UNL d   1       0.849   1.490   0.065  0.00  0.00     0.050 A 
ATOM     10  C   UNL d   1       2.046   0.781   0.137  0.00  0.00     0.070 A 
ATOM     11  C   UNL d   1       2.028  -0.608   0.105  0.00  0.00     0.039 A 
ENDROOT
BRANCH   2  12
ATOM     12  C   UNL d   1      -3.974   0.356   0.017  0.00  0.00     0.310 C 
ATOM     13  O   UNL d   1      -4.493   1.385  -0.398  0.00  0.00    -0.258 OA
BRANCH  12  14
ATOM     14  O   UNL d   1      -4.667  -0.624   0.660  0.00  0.00    -0.317 OA
BRANCH  14  15
ATOM     15  C   UNL d   1      -5.932  -0.168   1.190  0.00  0.00     0.175 C 
ATOM     16  C   UNL d   1      -7.018   0.076   0.148  0.00  0.00     0.034 C 
ENDBRANCH  14  15
ENDBRANCH  12  14
ENDBRANCH   2  12
BRANCH   3  17
ATOM     17  C   UNL d   1      -3.320  -3.000  -0.586  0.00  0.00     0.049 A 
ATOM     18  C   UNL d   1      -3.924  -2.594  -1.786  0.00  0.00     0.053 A 
ATOM     19  C   UNL d   1      -5.023  -3.313  -2.292  0.00  0.00     0.019 A 
ATOM     20  C   UNL d   1      -5.502  -4.442  -1.627  0.00  0.00     0.001 A 
ATOM     21  C   UNL d   1      -4.878  -4.879  -0.464  0.00  0.00     0.001 A 
ATOM     22  C   UNL d   1      -3.799  -4.164   0.052  0.00  0.00     0.018 A 
BRANCH  18  23
ATOM     23  C   UNL d   1      -3.338  -1.537  -2.634  0.00  0.00     0.177 C 
ATOM     24  O   UNL d   1      -2.139  -1.410  -2.785  0.00  0.00    -0.646 OA
BRANCH  23  25
ATOM     25  O   UNL d   1      -4.251  -0.720  -3.193  0.00  0.00    -0.773 OA
ATOM     26  H   UNL d   1      -5.180  -0.837  -2.918  0.00  0.00     0.167 HD
ENDBRANCH  23  25
ENDBRANCH  18  23
ENDBRANCH   3  17
BRANCH  10  27
ATOM     27  O   UNL d   1       3.278   1.373   0.232  0.00  0.00    -0.347 OA
BRANCH  27  28
ATOM     28  C   UNL d   1       3.252   2.693   0.785  0.00  0.00     0.214 C 
BRANCH  28  29
ATOM     29  C   UNL d   1       4.612   3.036   1.331  0.00  0.00    -0.034 A 
ATOM     30  C   UNL d   1       5.269   4.204   0.928  0.00  0.00     0.009 A 
ATOM     31  C   UNL d   1       6.516   4.528   1.464  0.00  0.00     0.001 A 
ATOM     32  C   UNL d   1       7.106   3.691   2.410  0.00  0.00     0.000 A 
ATOM     33  C   UNL d   1       6.452   2.535   2.828  0.00  0.00     0.001 A 
ATOM     34  C   UNL d   1       5.207   2.209   2.294  0.00  0.00     0.009 A 
ENDBRANCH  28  29
ENDBRANCH  27  28
ENDBRANCH  10  27
TORSDOF 9
