REMARK  6 active torsions:
REMARK  status: ('A' for Active; 'I' for Inactive)
REMARK    1  A    between atoms: C_12  and  C_3 
REMARK    2  A    between atoms: C_16  and  N_4 
REMARK    3  A    between atoms: N_19  and  C_8 
REMARK    4  A    between atoms: C_17  and  C_10 
REMARK    5  A    between atoms: O_20  and  C_12 
REMARK    6  A    between atoms: C_25  and  O_20 
ROOT
ATOM      1  C   UNL d   1      -0.062  -0.775  -0.003  0.00  0.00     0.069 A 
ATOM      2  C   UNL d   1       1.249  -1.474   0.030  0.00  0.00     0.280 A 
ATOM      3  C   UNL d   1       1.221   1.313   0.054  0.00  0.00     0.135 A 
ATOM      4  N   UNL d   1       2.397  -0.678  -0.002  0.00  0.00    -0.219 N 
ATOM      5  N   UNL d   1       2.364   0.695   0.034  0.00  0.00    -0.284 N 
ATOM      6  HN  UNL d   1       3.234   1.227   0.043  1.00  0.00     0.188 HD
ATOM      7  C   UNL d   1      -0.080   0.613   0.073  0.00  0.00     0.017 A 
ATOM      8  C   UNL d   1      -1.276  -1.509  -0.056  0.00  0.00     0.044 A 
ATOM      9  C   UNL d   1      -2.507  -0.804  -0.094  0.00  0.00     0.077 A 
ATOM     10  C   UNL d   1      -2.548   0.607   0.032  0.00  0.00    -0.002 A 
ATOM     11  C   UNL d   1      -1.310   1.285   0.130  0.00  0.00     0.029 A 
ATOM     12  C   UNL d   1      -3.713  -1.578  -0.266  0.00  0.00     0.102 C 
ATOM     13  N   UNL d   1      -4.662  -2.238  -0.344  0.00  0.00    -0.191 NA
ATOM     14  O   UNL d   1       1.243  -2.701   0.145  0.00  0.00    -0.265 OA
ENDROOT
BRANCH   8  15
ATOM     15  N   UNL d   1      -1.261  -2.905  -0.302  0.00  0.00    -0.301 NA
ATOM     16  H   UNL d   1      -0.357  -3.338  -0.066  0.00  0.00     0.124 HD
ATOM     17  H   UNL d   1      -2.037  -3.443   0.078  0.00  0.00     0.124 HD
ENDBRANCH   8  15
BRANCH  10  18
ATOM     18  C   UNL d   1      -3.808   1.405   0.030  0.00  0.00    -0.024 A 
ATOM     19  C   UNL d   1      -4.959   0.993   0.726  0.00  0.00     0.012 A 
ATOM     20  C   UNL d   1      -6.152   1.721   0.670  0.00  0.00     0.001 A 
ATOM     21  C   UNL d   1      -6.208   2.916  -0.036  0.00  0.00     0.000 A 
ATOM     22  C   UNL d   1      -5.074   3.377  -0.695  0.00  0.00     0.001 A 
ATOM     23  C   UNL d   1      -3.894   2.624  -0.673  0.00  0.00     0.012 A 
ENDBRANCH  10  18
BRANCH   4  24
ATOM     24  C   UNL d   1       3.717  -1.235  -0.100  0.00  0.00     0.060 A 
ATOM     25  C   UNL d   1       3.941  -2.509  -0.647  0.00  0.00     0.031 A 
ATOM     26  C   UNL d   1       5.226  -3.053  -0.725  0.00  0.00     0.002 A 
ATOM     27  C   UNL d   1       6.316  -2.332  -0.253  0.00  0.00     0.000 A 
ATOM     28  C   UNL d   1       6.122  -1.059   0.278  0.00  0.00     0.002 A 
ATOM     29  C   UNL d   1       4.836  -0.509   0.339  0.00  0.00     0.031 A 
ENDBRANCH   4  24
BRANCH   3  30
ATOM     30  C   UNL d   1       1.281   2.839  -0.070  0.00  0.00     0.312 C 
ATOM     31  O   UNL d   1       0.489   3.461  -0.756  0.00  0.00    -0.258 OA
BRANCH  30  32
ATOM     32  O   UNL d   1       2.373   3.328   0.554  0.00  0.00    -0.317 OA
BRANCH  32  33
ATOM     33  C   UNL d   1       2.768   4.643   0.133  0.00  0.00     0.175 C 
ATOM     34  C   UNL d   1       3.629   4.525  -1.114  0.00  0.00     0.034 C 
ENDBRANCH  32  33
ENDBRANCH  30  32
ENDBRANCH   3  30
TORSDOF 6
