REMARK  4 active torsions:
REMARK  status: ('A' for Active; 'I' for Inactive)
REMARK    1  A    between atoms: C_15  and  C_5 
REMARK    2  A    between atoms: O_11  and  N_7 
REMARK    3  A    between atoms: C_9  and  O_11 
REMARK       I    between atoms: N_10  and  C_9 
REMARK    4  A    between atoms: C_13  and  N_10 
ROOT
ATOM      1  C   UNL d   1      -1.295  -1.379  -0.298  0.00  0.00     0.048 C 
ATOM      2  O   UNL d   1      -1.385   1.461   0.216  0.00  0.00    -0.340 OA
ATOM      3  C   UNL d   1      -0.075  -0.532  -0.334  0.00  0.00     0.022 A 
ATOM      4  C   UNL d   1      -0.191   0.828  -0.018  0.00  0.00     0.082 A 
ATOM      5  C   UNL d   1      -2.507   0.749  -0.326  0.00  0.00     0.167 C 
ATOM      6  C   UNL d   1      -2.536  -0.672   0.228  0.00  0.00     0.097 C 
ATOM      7  N   UNL d   1      -1.249  -2.638  -0.647  0.00  0.00    -0.259 N 
ATOM      8  HN  UNL d   1      -0.433  -3.114  -1.031  1.00  0.00     0.194 HD
ATOM      9  C   UNL d   1       1.182  -1.085  -0.590  0.00  0.00     0.016 A 
ATOM     10  C   UNL d   1       0.952   1.616   0.107  0.00  0.00     0.038 A 
ATOM     11  C   UNL d   1       2.323  -0.286  -0.482  0.00  0.00     0.001 A 
ATOM     12  C   UNL d   1       2.210   1.057  -0.120  0.00  0.00     0.003 A 
ENDROOT
BRANCH   7  13
ATOM     13  O   UNL d   1      -2.503  -3.237  -0.409  0.00  0.00    -0.181 OA
BRANCH  13  14
ATOM     14  C   UNL d   1      -2.581  -4.577  -0.735  0.00  0.00     0.387 C 
ATOM     15  N   UNL d   1      -1.486  -5.080  -1.400  0.00  0.00    -0.301 N 
ATOM     16  H   UNL d   1      -0.762  -4.383  -1.537  0.00  0.00     0.171 HD
ATOM     17  O   UNL d   1      -3.599  -5.197  -0.441  0.00  0.00    -0.236 OA
BRANCH  15  18
ATOM     18  C   UNL d   1      -1.289  -6.405  -1.850  0.00  0.00     0.038 A 
ATOM     19  C   UNL d   1      -2.226  -7.429  -1.672  0.00  0.00     0.053 A 
ATOM     20  C   UNL d   1      -1.952  -8.730  -2.102  0.00  0.00     0.036 A 
ATOM     21 CL   UNL d   1      -3.113  -9.977  -1.854  0.00  0.00    -0.084 Cl
ATOM     22  C   UNL d   1      -0.744  -9.030  -2.724  0.00  0.00     0.024 A 
ATOM     23  C   UNL d   1       0.188  -8.016  -2.929  0.00  0.00     0.004 A 
ATOM     24  C   UNL d   1      -0.084  -6.710  -2.496  0.00  0.00     0.029 A 
ENDBRANCH  15  18
ENDBRANCH  13  14
ENDBRANCH   7  13
BRANCH   5  25
ATOM     25  C   UNL d   1      -3.766   1.533  -0.006  0.00  0.00    -0.029 A 
ATOM     26  C   UNL d   1      -4.621   1.939  -1.045  0.00  0.00     0.010 A 
ATOM     27  C   UNL d   1      -5.770   2.685  -0.774  0.00  0.00     0.001 A 
ATOM     28  C   UNL d   1      -6.084   3.031   0.537  0.00  0.00     0.000 A 
ATOM     29  C   UNL d   1      -5.250   2.628   1.579  0.00  0.00     0.001 A 
ATOM     30  C   UNL d   1      -4.099   1.884   1.310  0.00  0.00     0.010 A 
ENDBRANCH   5  25
TORSDOF 4
