REMARK  6 active torsions:
REMARK  status: ('A' for Active; 'I' for Inactive)
REMARK    1  A    between atoms: C_13  and  N_1 
REMARK    2  A    between atoms: C_18  and  N_3 
REMARK    3  A    between atoms: C_24  and  C_11 
REMARK    4  A    between atoms: C_25  and  C_12 
REMARK    5  A    between atoms: C_16  and  C_13 
REMARK    6  A    between atoms: C_17  and  C_18 
ROOT
ATOM      1  N   UNL d   1      -0.395   1.129  -0.396  0.00  0.00    -0.261 N 
ATOM      2  C   UNL d   1      -1.131  -0.065  -0.424  0.00  0.00     0.331 C 
ATOM      3  N   UNL d   1      -0.433  -1.230  -0.064  0.00  0.00    -0.304 N 
ATOM      4  C   UNL d   1       0.945   1.201  -0.028  0.00  0.00     0.291 C 
ATOM      5  C   UNL d   1       1.616  -0.087   0.196  0.00  0.00     0.200 C 
ATOM      6  C   UNL d   1       0.916  -1.217   0.207  0.00  0.00     0.143 C 
ATOM      7  O   UNL d   1      -2.334  -0.101  -0.687  0.00  0.00    -0.246 OA
ATOM      8  O   UNL d   1       1.548   2.258   0.166  0.00  0.00    -0.264 OA
ATOM      9  F   UNL d   1       2.926  -0.056   0.505  0.00  0.00    -0.199 F 
ENDROOT
BRANCH   1  10
ATOM     10  C   UNL d   1      -1.151   2.383  -0.488  0.00  0.00     0.172 C 
BRANCH  10  11
ATOM     11  C   UNL d   1      -1.175   3.119  -1.837  0.00  0.00     0.176 C 
ATOM     12  O   UNL d   1      -1.741   2.299  -2.868  0.00  0.00    -0.273 OA
ATOM     13  N   UNL d   1      -0.786   2.112  -3.889  0.00  0.00    -0.270 N 
ATOM     14  C   UNL d   1       0.254   2.829  -3.605  0.00  0.00     0.045 C 
ATOM     15  HN  UNL d   1      -0.895   1.516  -4.709  1.00  0.00     0.194 HD
ATOM     16  C   UNL d   1       0.134   3.652  -2.374  0.00  0.00     0.096 C 
BRANCH  14  17
ATOM     17  C   UNL d   1       1.486   2.824  -4.431  0.00  0.00    -0.012 A 
ATOM     18  C   UNL d   1       2.624   3.551  -4.064  0.00  0.00     0.013 A 
ATOM     19  C   UNL d   1       3.808   3.407  -4.793  0.00  0.00     0.001 A 
ATOM     20  C   UNL d   1       3.854   2.554  -5.896  0.00  0.00     0.000 A 
ATOM     21  C   UNL d   1       2.710   1.865  -6.292  0.00  0.00     0.001 A 
ATOM     22  C   UNL d   1       1.527   2.003  -5.565  0.00  0.00     0.013 A 
ENDBRANCH  14  17
ENDBRANCH  10  11
ENDBRANCH   1  10
BRANCH   3  23
ATOM     23  C   UNL d   1      -1.188  -2.479   0.152  0.00  0.00     0.168 C 
BRANCH  23  24
ATOM     24  C   UNL d   1      -1.133  -3.530  -0.966  0.00  0.00     0.176 A 
ATOM     25  O   UNL d   1       0.193  -4.053  -1.115  0.00  0.00    -0.273 OA
ATOM     26  N   UNL d   1       0.586  -3.944  -2.464  0.00  0.00    -0.270 N 
ATOM     27  C   UNL d   1      -0.373  -3.372  -3.119  0.00  0.00     0.045 A 
ATOM     28  HN  UNL d   1       1.472  -4.262  -2.856  1.00  0.00     0.194 HD
ATOM     29  C   UNL d   1      -1.590  -3.062  -2.326  0.00  0.00     0.096 A 
BRANCH  27  30
ATOM     30  C   UNL d   1      -0.257  -2.978  -4.544  0.00  0.00    -0.012 A 
ATOM     31  C   UNL d   1      -1.280  -2.276  -5.192  0.00  0.00     0.013 A 
ATOM     32  C   UNL d   1      -1.059  -1.736  -6.461  0.00  0.00     0.001 A 
ATOM     33  C   UNL d   1       0.172  -1.912  -7.093  0.00  0.00     0.000 A 
ATOM     34  C   UNL d   1       1.170  -2.665  -6.477  0.00  0.00     0.001 A 
ATOM     35  C   UNL d   1       0.953  -3.206  -5.209  0.00  0.00     0.013 A 
ENDBRANCH  27  30
ENDBRANCH  23  24
ENDBRANCH   3  23
TORSDOF 6
