REMARK  7 active torsions:
REMARK  status: ('A' for Active; 'I' for Inactive)
REMARK    1  A    between atoms: C_7  and  N_1 
REMARK    2  A    between atoms: C_14  and  N_5 
REMARK    3  A    between atoms: C_19  and  C_7 
REMARK    4  A    between atoms: O_24  and  C_9 
REMARK    5  A    between atoms: O_25  and  C_10 
REMARK    6  A    between atoms: C_20  and  C_12 
REMARK    7  A    between atoms: C_18  and  C_19 
ROOT
ATOM      1  N   UNL d   1      -0.455   0.908   0.120  0.00  0.00    -0.297 N 
ATOM      2  C   UNL d   1       0.852   0.483   0.178  0.00  0.00     0.150 C 
ATOM      3  C   UNL d   1      -1.401  -0.087  -0.023  0.00  0.00     0.235 C 
ATOM      4  S   UNL d   1       0.902  -1.228   0.533  0.00  0.00    -0.084 SA
ATOM      5  N   UNL d   1       1.851   1.284  -0.014  0.00  0.00    -0.337 N 
ATOM      6  HN  UNL d   1       1.653   2.275  -0.156  1.00  0.00     0.168 HD
ATOM      7  C   UNL d   1      -0.806  -1.464   0.046  0.00  0.00     0.185 C 
ATOM      8  O   UNL d   1      -2.598   0.077  -0.256  0.00  0.00    -0.272 OA
ENDROOT
BRANCH   1   9
ATOM      9  C   UNL d   1      -0.788   2.327  -0.067  0.00  0.00     0.138 C 
BRANCH   9  10
ATOM     10  C   UNL d   1      -2.096   2.781   0.601  0.00  0.00     0.059 C 
BRANCH  10  11
ATOM     11  C   UNL d   1      -2.329   4.268   0.490  0.00  0.00    -0.054 A 
ATOM     12  C   UNL d   1      -3.019   4.794  -0.617  0.00  0.00     0.046 A 
ATOM     13  C   UNL d   1      -3.263   6.170  -0.742  0.00  0.00     0.102 A 
ATOM     14  C   UNL d   1      -2.821   7.029   0.280  0.00  0.00     0.101 A 
ATOM     15  C   UNL d   1      -2.111   6.505   1.368  0.00  0.00     0.040 A 
ATOM     16  C   UNL d   1      -1.865   5.137   1.477  0.00  0.00     0.010 A 
BRANCH  13  17
ATOM     17  O   UNL d   1      -3.886   6.730  -1.826  0.00  0.00    -0.353 OA
ATOM     18  C   UNL d   1      -4.303   5.871  -2.879  0.00  0.00     0.210 C 
ENDBRANCH  13  17
BRANCH  14  19
ATOM     19  O   UNL d   1      -2.955   8.393   0.330  0.00  0.00    -0.353 OA
ATOM     20  C   UNL d   1      -4.137   8.940  -0.242  0.00  0.00     0.210 C 
ENDBRANCH  14  19
ENDBRANCH  10  11
ENDBRANCH   9  10
ENDBRANCH   1   9
BRANCH   5  21
ATOM     21  C   UNL d   1       3.196   0.865  -0.037  0.00  0.00     0.034 A 
ATOM     22  C   UNL d   1       3.635  -0.226  -0.792  0.00  0.00     0.030 A 
ATOM     23  C   UNL d   1       4.979  -0.610  -0.796  0.00  0.00     0.010 A 
ATOM     24  C   UNL d   1       5.942   0.139  -0.118  0.00  0.00    -0.055 A 
ATOM     25  C   UNL d   1       5.522   1.280   0.584  0.00  0.00     0.010 A 
ATOM     26  C   UNL d   1       4.161   1.628   0.623  0.00  0.00     0.030 A 
BRANCH  24  27
ATOM     27  C   UNL d   1       7.408  -0.257  -0.167  0.00  0.00     0.010 C 
ATOM     28  C   UNL d   1       7.642  -1.609   0.515  0.00  0.00     0.015 C 
ATOM     29  C   UNL d   1       7.924  -0.289  -1.610  0.00  0.00     0.015 C 
ENDBRANCH  24  27
ENDBRANCH   5  21
TORSDOF 7
