REMARK  3 active torsions:
REMARK  status: ('A' for Active; 'I' for Inactive)
REMARK    1  A    between atoms: N_4  and  S_1 
REMARK    2  A    between atoms: C_14  and  S_1 
REMARK    3  A    between atoms: C_3  and  N_6 
ROOT
ATOM      1  N   UNL d   1       0.430  -0.839   1.114  0.00  0.00    -0.203 NA
ATOM      2  N   UNL d   1       1.229  -3.580   0.638  0.00  0.00    -0.364 N 
ATOM      3  C   UNL d   1       1.498  -1.464   1.964  0.00  0.00     0.127 C 
ATOM      4  C   UNL d   1      -0.566  -1.889   0.732  0.00  0.00     0.127 C 
ATOM      5  C   UNL d   1       0.102  -3.003  -0.085  0.00  0.00     0.140 C 
ATOM      6  C   UNL d   1       2.196  -2.656   1.262  0.00  0.00     0.140 C 
ENDROOT
BRANCH   2   7
ATOM      7  C   UNL d   1       1.528  -4.930   0.629  0.00  0.00     0.117 A 
ATOM      8  C   UNL d   1       1.239  -5.889  -0.394  0.00  0.00     0.048 A 
ATOM      9  C   UNL d   1       1.496  -7.215  -0.045  0.00  0.00     0.089 A 
ATOM     10  C   UNL d   1       0.781  -5.845  -1.787  0.00  0.00    -0.039 C 
ATOM     11  S   UNL d   1       1.048  -8.346  -1.234  0.00  0.00    -0.083 SA
ATOM     12  N   UNL d   1       2.029  -7.676   1.096  0.00  0.00    -0.346 N 
ATOM     13  C   UNL d   1       0.587  -7.115  -2.304  0.00  0.00     0.059 C 
ATOM     14  C   UNL d   1       2.337  -6.700   1.937  0.00  0.00     0.182 A 
ATOM     15  HN  UNL d   1       2.181  -8.665   1.294  1.00  0.00     0.167 HD
ATOM     16  N   UNL d   1       2.119  -5.393   1.767  0.00  0.00    -0.338 N 
ATOM     17  HN  UNL d   1       2.397  -4.735   2.495  1.00  0.00     0.168 HD
ATOM     18  C   UNL d   1       0.561  -4.643  -2.644  0.00  0.00     0.050 C 
ENDBRANCH   2   7
BRANCH   1  19
ATOM     19  S   UNL d   1       0.966   0.142  -0.177  0.00  0.00     0.243 S 
ATOM     20  O   UNL d   1      -0.119   0.271  -1.129  0.00  0.00    -0.206 OA
ATOM     21  O   UNL d   1       2.276  -0.296  -0.597  0.00  0.00    -0.206 OA
BRANCH  19  22
ATOM     22  C   UNL d   1       1.141   1.734   0.594  0.00  0.00     0.074 A 
ATOM     23  C   UNL d   1       2.392   2.354   0.654  0.00  0.00     0.026 A 
ATOM     24  C   UNL d   1       2.486   3.659   1.144  0.00  0.00     0.025 A 
ATOM     25  C   UNL d   1       1.335   4.329   1.565  0.00  0.00     0.034 A 
ATOM     26  C   UNL d   1       0.088   3.704   1.510  0.00  0.00     0.025 A 
ATOM     27 CL   UNL d   1       1.452   5.947   2.137  0.00  0.00    -0.084 Cl
ATOM     28  C   UNL d   1      -0.013   2.402   1.020  0.00  0.00     0.026 A 
ENDBRANCH  19  22
ENDBRANCH   1  19
TORSDOF 3
