REMARK  3 active torsions:
REMARK  status: ('A' for Active; 'I' for Inactive)
REMARK    1  A    between atoms: C_12  and  C_2 
REMARK       I    between atoms: C_3  and  N_11 
REMARK       I    between atoms: N_7  and  C_3 
REMARK    2  A    between atoms: C_8  and  N_7 
REMARK    3  A    between atoms: N_11  and  C_12 
ROOT
ATOM      1  C   UNL d   1      -2.641  -3.487   1.062  0.00  0.00     0.321 C 
ATOM      2  N   UNL d   1      -3.994  -3.545   1.214  0.00  0.00    -0.306 N 
ATOM      3  N   UNL d   1      -2.134  -2.606   0.167  0.00  0.00    -0.337 N 
ATOM      4  O   UNL d   1      -1.939  -4.148   1.826  0.00  0.00    -0.247 OA
ATOM      5  H   UNL d   1      -4.222  -4.009   2.084  0.00  0.00     0.171 HD
ATOM      6  H   UNL d   1      -2.720  -2.307  -0.594  0.00  0.00     0.164 HD
ENDROOT
BRANCH   3   7
ATOM      7  C   UNL d   1      -0.719  -2.433  -0.036  0.00  0.00     0.181 C 
BRANCH   7   8
ATOM      8  C   UNL d   1      -0.394  -0.975  -0.129  0.00  0.00     0.029 A 
ATOM      9  N   UNL d   1       0.881  -0.516  -0.408  0.00  0.00    -0.357 N 
ATOM     10  C   UNL d   1       0.911   0.863  -0.325  0.00  0.00     0.007 A 
ATOM     11  C   UNL d   1       2.029  -1.346  -0.719  0.00  0.00     0.156 C 
ATOM     12  C   UNL d   1      -0.374   1.288  -0.058  0.00  0.00     0.027 A 
ATOM     13  C   UNL d   1       2.141   1.688  -0.484  0.00  0.00     0.068 C 
ATOM     14  C   UNL d   1      -1.189   0.142   0.068  0.00  0.00     0.029 A 
ENDBRANCH   7   8
ENDBRANCH   3   7
BRANCH   2  15
ATOM     15  C   UNL d   1      -5.066  -3.005   0.478  0.00  0.00     0.075 A 
ATOM     16  C   UNL d   1      -5.022  -2.653  -0.878  0.00  0.00     0.146 A 
ATOM     17  C   UNL d   1      -6.119  -2.093  -1.524  0.00  0.00     0.086 A 
ATOM     18  F   UNL d   1      -3.927  -2.886  -1.617  0.00  0.00    -0.204 F 
ATOM     19  C   UNL d   1      -7.288  -1.892  -0.809  0.00  0.00     0.119 A 
ATOM     20  C   UNL d   1      -7.384  -2.270   0.525  0.00  0.00     0.044 A 
ATOM     21  F   UNL d   1      -8.343  -1.332  -1.414  0.00  0.00    -0.206 F 
ATOM     22  C   UNL d   1      -6.278  -2.842   1.163  0.00  0.00     0.036 A 
ENDBRANCH   2  15
TORSDOF 3
