REMARK  6 active torsions:
REMARK  status: ('A' for Active; 'I' for Inactive)
REMARK    1  A    between atoms: C_2  and  C_1 
REMARK       I    between atoms: N_6  and  C_2 
REMARK    2  A    between atoms: C_3  and  C_7 
REMARK    3  A    between atoms: C_4  and  C_5 
REMARK    4  A    between atoms: C_7  and  N_6 
REMARK    5  A    between atoms: O_18  and  C_8 
REMARK    6  A    between atoms: O_17  and  C_9 
ROOT
ATOM      1  C   UNL d   1      -0.235   3.209   1.705  0.00  0.00     0.255 C 
ATOM      2  N   UNL d   1       0.529   3.628   0.609  0.00  0.00    -0.348 N 
ATOM      3  O   UNL d   1      -0.441   3.897   2.702  0.00  0.00    -0.267 OA
ATOM      4  C   UNL d   1       0.495   3.006  -0.710  0.00  0.00     0.153 C 
ENDROOT
BRANCH   1   5
ATOM      5  C   UNL d   1      -0.829   1.855   1.748  0.00  0.00     0.062 A 
ATOM      6  C   UNL d   1      -0.591   0.993   2.825  0.00  0.00     0.066 A 
ATOM      7  C   UNL d   1      -1.250  -0.249   2.840  0.00  0.00     0.034 A 
ATOM      8  C   UNL d   1      -2.108  -0.572   1.802  0.00  0.00     0.088 A 
ATOM      9  N   UNL d   1      -2.379   0.261   0.778  0.00  0.00    -0.374 N 
ATOM     10  C   UNL d   1      -1.755   1.464   0.788  0.00  0.00     0.105 A 
ATOM     11  HN  UNL d   1      -3.023  -0.000   0.032  1.00  0.00     0.164 HD
BRANCH   6  12
ATOM     12  C   UNL d   1       0.270   1.375   4.000  0.00  0.00     0.418 C 
ATOM     13  F   UNL d   1       1.363   2.120   3.695  0.00  0.00    -0.166 F 
ATOM     14  F   UNL d   1      -0.418   2.040   4.967  0.00  0.00    -0.166 F 
ATOM     15  F   UNL d   1       0.775   0.268   4.629  0.00  0.00    -0.166 F 
ENDBRANCH   6  12
ENDBRANCH   1   5
BRANCH   2  16
ATOM     16  C   UNL d   1       1.094   4.983   0.685  0.00  0.00     0.169 C 
BRANCH  16  17
ATOM     17  C   UNL d   1       2.513   5.133   0.155  0.00  0.00     0.026 A 
ATOM     18  C   UNL d   1       2.772   5.906  -1.000  0.00  0.00     0.078 A 
ATOM     19  C   UNL d   1       4.090   6.110  -1.422  0.00  0.00     0.037 A 
ATOM     20  C   UNL d   1       5.153   5.557  -0.712  0.00  0.00     0.005 A 
ATOM     21  C   UNL d   1       4.909   4.779   0.417  0.00  0.00     0.037 A 
ATOM     22  C   UNL d   1       3.599   4.560   0.857  0.00  0.00     0.078 A 
BRANCH  18  23
ATOM     23  O   UNL d   1       1.675   6.404  -1.657  0.00  0.00    -0.355 OA
ATOM     24  C   UNL d   1       1.907   7.338  -2.704  0.00  0.00     0.210 C 
ENDBRANCH  18  23
BRANCH  22  25
ATOM     25  O   UNL d   1       3.277   3.808   1.956  0.00  0.00    -0.355 OA
ATOM     26  C   UNL d   1       4.343   3.299   2.748  0.00  0.00     0.210 C 
ENDBRANCH  22  25
ENDBRANCH  16  17
ENDBRANCH   2  16
TORSDOF 6
