REMARK  3 active torsions:
REMARK  status: ('A' for Active; 'I' for Inactive)
REMARK    1  A    between atoms: C_17  and  N_3 
REMARK    2  A    between atoms: C_11  and  C_8 
REMARK    3  A    between atoms: N_18  and  C_9 
ROOT
ATOM      1  C   UNL d   1       0.170  -0.607  -0.011  0.00  0.00     0.180 A 
ATOM      2  C   UNL d   1       0.164   0.768  -0.041  0.00  0.00     0.033 A 
ATOM      3  N   UNL d   1       1.490  -1.020   0.007  0.00  0.00    -0.233 N 
ATOM      4  N   UNL d   1       2.319   0.065   0.057  0.00  0.00    -0.296 N 
ATOM      5  HN  UNL d   1       3.336   0.059   0.135  1.00  0.00     0.187 HD
ATOM      6  C   UNL d   1      -2.315   0.554  -0.051  0.00  0.00     0.081 A 
ATOM      7  O   UNL d   1      -0.898  -1.403   0.008  0.00  0.00    -0.278 OA
ATOM      8  C   UNL d   1      -1.128   1.518  -0.099  0.00  0.00     0.107 A 
ATOM      9  C   UNL d   1      -2.162  -0.796  -0.005  0.00  0.00     0.140 A 
ATOM     10  C   UNL d   1       1.524   1.138  -0.019  0.00  0.00     0.034 A 
ATOM     11  C   UNL d   1      -3.618   1.135  -0.070  0.00  0.00     0.100 C 
ATOM     12  N   UNL d   1      -4.677   1.606  -0.051  0.00  0.00    -0.191 NA
ATOM     13  C   UNL d   1       2.141   2.487  -0.035  0.00  0.00     0.070 C 
ENDROOT
BRANCH   9  14
ATOM     14  N   UNL d   1      -3.186  -1.714   0.043  0.00  0.00    -0.282 NA
ATOM     15  H   UNL d   1      -4.071  -1.373   0.411  0.00  0.00     0.126 HD
ATOM     16  H   UNL d   1      -2.896  -2.596   0.457  0.00  0.00     0.126 HD
ENDBRANCH   9  14
BRANCH   8  17
ATOM     17  C   UNL d   1      -1.106   2.494   1.075  0.00  0.00    -0.022 A 
ATOM     18  C   UNL d   1      -1.232   3.886   0.891  0.00  0.00     0.043 A 
ATOM     19  C   UNL d   1      -1.205   4.762   1.981  0.00  0.00     0.048 A 
ATOM     20 CL   UNL d   1      -1.417   4.599  -0.674  0.00  0.00    -0.084 Cl
ATOM     21  C   UNL d   1      -1.065   4.260   3.270  0.00  0.00     0.035 A 
ATOM     22  C   UNL d   1      -0.960   2.890   3.485  0.00  0.00     0.024 A 
ATOM     23 CL   UNL d   1      -1.022   5.338   4.608  0.00  0.00    -0.084 Cl
ATOM     24  C   UNL d   1      -0.986   2.014   2.398  0.00  0.00     0.011 A 
ENDBRANCH   8  17
BRANCH   3  25
ATOM     25  C   UNL d   1       2.048  -2.333  -0.029  0.00  0.00     0.059 A 
ATOM     26  C   UNL d   1       1.259  -3.473  -0.228  0.00  0.00     0.031 A 
ATOM     27  C   UNL d   1       1.855  -4.737  -0.297  0.00  0.00     0.002 A 
ATOM     28  C   UNL d   1       3.235  -4.875  -0.161  0.00  0.00     0.000 A 
ATOM     29  C   UNL d   1       4.027  -3.750   0.047  0.00  0.00     0.002 A 
ATOM     30  C   UNL d   1       3.439  -2.485   0.111  0.00  0.00     0.031 A 
ENDBRANCH   3  25
TORSDOF 3
