REMARK  6 active torsions:
REMARK  status: ('A' for Active; 'I' for Inactive)
REMARK    1  A    between atoms: S_10  and  C_4 
REMARK    2  A    between atoms: S_12  and  C_4 
REMARK    3  A    between atoms: C_7  and  C_6 
REMARK    4  A    between atoms: C_9  and  C_7 
REMARK    5  A    between atoms: C_8  and  S_10 
REMARK    6  A    between atoms: C_19  and  C_17 
ROOT
ATOM      1  N   UNL d   1       6.633   4.205   2.287  0.00  0.00    -0.282 N 
ATOM      2  HN  UNL d   1       5.837   4.790   2.539  1.00  0.00     0.179 HD
ATOM      3  C   UNL d   1       7.871   4.554   2.650  0.00  0.00     0.183 C 
ATOM      4  C   UNL d   1       6.456   3.119   1.613  0.00  0.00     0.120 C 
ATOM      5  N   UNL d   1       8.938   4.871   2.970  0.00  0.00    -0.172 NA
ENDROOT
BRANCH   4   6
ATOM      6  S   UNL d   1       4.824   2.589   1.208  0.00  0.00    -0.076 SA
BRANCH   6   7
ATOM      7  C   UNL d   1       3.862   4.033   1.198  0.00  0.00     0.056 C 
ATOM      8  C   UNL d   1       2.542   3.944   0.984  0.00  0.00     0.063 C 
BRANCH   8   9
ATOM      9  C   UNL d   1       1.684   5.160   0.945  0.00  0.00     0.182 C 
ATOM     10  O   UNL d   1       2.159   6.280   0.805  0.00  0.00    -0.288 OA
BRANCH   9  11
ATOM     11  C   UNL d   1       0.210   4.953   1.018  0.00  0.00     0.014 A 
ATOM     12  C   UNL d   1      -0.353   3.899   1.748  0.00  0.00     0.016 A 
ATOM     13  C   UNL d   1      -1.739   3.718   1.771  0.00  0.00     0.008 A 
ATOM     14  C   UNL d   1      -2.584   4.595   1.079  0.00  0.00    -0.059 A 
ATOM     15  C   UNL d   1      -2.018   5.663   0.369  0.00  0.00     0.008 A 
ATOM     16  C   UNL d   1      -0.631   5.847   0.345  0.00  0.00     0.016 A 
BRANCH  14  17
ATOM     17  C   UNL d   1      -4.077   4.379   1.086  0.00  0.00     0.034 C 
ATOM     18  C   UNL d   1      -4.533   3.484  -0.057  0.00  0.00     0.010 C 
ENDBRANCH  14  17
ENDBRANCH   9  11
ENDBRANCH   8   9
ENDBRANCH   6   7
ENDBRANCH   4   6
BRANCH   4  19
ATOM     19  S   UNL d   1       7.712   1.992   1.112  0.00  0.00    -0.109 SA
ATOM     20  C   UNL d   1       7.602   2.169  -0.683  0.00  0.00     0.097 C 
ENDBRANCH   4  19
TORSDOF 6
