REMARK  2 active torsions:
REMARK  status: ('A' for Active; 'I' for Inactive)
REMARK    1  A    between atoms: N_2  and  N_4 
REMARK    2  A    between atoms: C_9  and  C_8 
ROOT
ATOM      1  N   UNL d   1       2.629   1.226   0.046  0.00  0.00    -0.290 N 
ATOM      2  HN  UNL d   1       2.167   0.323  -0.058  1.00  0.00     0.187 HD
ATOM      3  C   UNL d   1       3.924   1.363   0.046  0.00  0.00     0.032 C 
ATOM      4  C   UNL d   1       4.633   2.701   0.188  0.00  0.00     0.070 C 
ENDROOT
BRANCH   1   5
ATOM      5  N   UNL d   1       1.929   2.424   0.202  0.00  0.00    -0.132 N 
ATOM      6  C   UNL d   1       0.651   2.262   0.160  0.00  0.00     0.688 C 
ATOM      7  N   UNL d   1      -0.057   1.100  -0.031  0.00  0.00    -0.224 N 
ATOM      8  N   UNL d   1      -0.281   3.249   0.341  0.00  0.00    -0.224 N 
ATOM      9  C   UNL d   1      -1.454   1.259   0.313  0.00  0.00     0.158 C 
ATOM     10  H   UNL d   1       0.465   0.263   0.195  0.00  0.00     0.177 HD
ATOM     11  C   UNL d   1      -1.635   2.779   0.138  0.00  0.00     0.158 C 
ATOM     12  H   UNL d   1      -0.004   4.210   0.204  0.00  0.00     0.177 HD
ATOM     13  HN  UNL d   1       2.381   3.329   0.336  1.00  0.00     0.205 HD
ENDBRANCH   1   5
BRANCH   3  14
ATOM     14  C   UNL d   1       4.783   0.138  -0.092  0.00  0.00    -0.012 A 
ATOM     15  C   UNL d   1       4.179  -1.122  -0.246  0.00  0.00     0.016 A 
ATOM     16  C   UNL d   1       4.963  -2.272  -0.373  0.00  0.00     0.043 A 
ATOM     17  C   UNL d   1       6.348  -2.166  -0.347  0.00  0.00     0.116 A 
ATOM     18  C   UNL d   1       6.965  -0.931  -0.194  0.00  0.00     0.043 A 
ATOM     19  F   UNL d   1       7.100  -3.267  -0.469  0.00  0.00    -0.206 F 
ATOM     20  C   UNL d   1       6.184   0.221  -0.065  0.00  0.00     0.016 A 
ENDBRANCH   3  14
TORSDOF 2
