REMARK  10 active torsions:
REMARK  status: ('A' for Active; 'I' for Inactive)
REMARK    1  A    between atoms: C_9  and  N_1 
REMARK    2  A    between atoms: C_10  and  N_2 
REMARK    3  A    between atoms: C_7  and  C_3 
REMARK    4  A    between atoms: C_24  and  C_3 
REMARK    5  A    between atoms: C_6  and  C_14 
REMARK    6  A    between atoms: O_13  and  C_7 
REMARK    7  A    between atoms: C_8  and  O_13 
REMARK    8  A    between atoms: C_15  and  C_8 
REMARK    9  A    between atoms: C_29  and  C_24 
REMARK   10  A    between atoms: C_30  and  C_29 
ROOT
ATOM      1  N   UNL d   1      -0.597   1.169   0.283  0.00  0.00    -0.213 N 
ATOM      2  N   UNL d   1       0.692   1.160  -0.287  0.00  0.00    -0.213 N 
ATOM      3  C   UNL d   1      -0.019  -1.070  -0.194  0.00  0.00     0.147 C 
ATOM      4  C   UNL d   1      -1.135  -0.125   0.242  0.00  0.00     0.264 C 
ATOM      5  C   UNL d   1       1.183  -0.155  -0.317  0.00  0.00     0.264 C 
ATOM      6  O   UNL d   1      -2.278  -0.464   0.504  0.00  0.00    -0.270 OA
ATOM      7  O   UNL d   1       2.337  -0.528  -0.476  0.00  0.00    -0.270 OA
ENDROOT
BRANCH   3   8
ATOM      8  C   UNL d   1       0.165  -2.130   0.892  0.00  0.00     0.208 C 
BRANCH   8   9
ATOM      9  O   UNL d   1       1.240  -3.051   0.600  0.00  0.00    -0.316 OA
BRANCH   9  10
ATOM     10  C   UNL d   1       2.155  -3.204   1.596  0.00  0.00     0.293 C 
ATOM     11  O   UNL d   1       2.122  -2.635   2.677  0.00  0.00    -0.259 OA
BRANCH  10  12
ATOM     12  C   UNL d   1       3.213  -4.197   1.259  0.00  0.00     0.039 A 
ATOM     13  C   UNL d   1       4.210  -4.428   2.220  0.00  0.00     0.018 A 
ATOM     14  C   UNL d   1       5.233  -5.351   1.986  0.00  0.00     0.017 A 
ATOM     15  C   UNL d   1       5.284  -6.065   0.782  0.00  0.00     0.048 A 
ATOM     16  C   UNL d   1       4.285  -5.837  -0.179  0.00  0.00     0.017 A 
ATOM     17  C   UNL d   1       3.256  -4.909   0.055  0.00  0.00     0.018 A 
BRANCH  15  18
ATOM     18  C   UNL d   1       6.389  -7.064   0.523  0.00  0.00     0.417 C 
ATOM     19  F   UNL d   1       7.298  -7.146   1.535  0.00  0.00    -0.166 F 
ATOM     20  F   UNL d   1       5.917  -8.329   0.346  0.00  0.00    -0.166 F 
ATOM     21  F   UNL d   1       7.105  -6.771  -0.597  0.00  0.00    -0.166 F 
ENDBRANCH  15  18
ENDBRANCH  10  12
ENDBRANCH   9  10
ENDBRANCH   8   9
ENDBRANCH   3   8
BRANCH   3  22
ATOM     22  C   UNL d   1      -0.225  -1.625  -1.616  0.00  0.00     0.031 C 
BRANCH  22  23
ATOM     23  C   UNL d   1      -1.488  -2.455  -1.829  0.00  0.00     0.001 C 
BRANCH  23  24
ATOM     24  C   UNL d   1      -1.541  -2.980  -3.263  0.00  0.00    -0.005 C 
ATOM     25  C   UNL d   1      -2.816  -3.765  -3.512  0.00  0.00     0.005 C 
ENDBRANCH  23  24
ENDBRANCH  22  23
ENDBRANCH   3  22
BRANCH   1  26
ATOM     26  C   UNL d   1      -1.451   2.295   0.208  0.00  0.00     0.060 A 
ATOM     27  C   UNL d   1      -1.811   2.910   1.413  0.00  0.00     0.031 A 
ATOM     28  C   UNL d   1      -2.489   4.128   1.406  0.00  0.00     0.002 A 
ATOM     29  C   UNL d   1      -2.864   4.707   0.196  0.00  0.00     0.000 A 
ATOM     30  C   UNL d   1      -2.562   4.068  -1.008  0.00  0.00     0.002 A 
ATOM     31  C   UNL d   1      -1.839   2.868  -1.007  0.00  0.00     0.031 A 
ENDBRANCH   1  26
BRANCH   2  32
ATOM     32  C   UNL d   1       1.583   2.262  -0.281  0.00  0.00     0.060 A 
ATOM     33  C   UNL d   1       2.539   2.373  -1.300  0.00  0.00     0.031 A 
ATOM     34  C   UNL d   1       3.424   3.453  -1.330  0.00  0.00     0.002 A 
ATOM     35  C   UNL d   1       3.373   4.423  -0.332  0.00  0.00     0.000 A 
ATOM     36  C   UNL d   1       2.435   4.316   0.691  0.00  0.00     0.002 A 
ATOM     37  C   UNL d   1       1.541   3.244   0.712  0.00  0.00     0.031 A 
ENDBRANCH   2  32
TORSDOF 10
