REMARK  5 active torsions:
REMARK  status: ('A' for Active; 'I' for Inactive)
REMARK    1  A    between atoms: C_2  and  N_1 
REMARK    2  A    between atoms: N_7  and  C_2 
REMARK    3  A    between atoms: C_16  and  C_4 
REMARK    4  A    between atoms: C_5  and  C_15 
REMARK    5  A    between atoms: C_9  and  N_7 
ROOT
ATOM      1  N   UNL d   1      -2.603   0.308  -0.178  0.00  0.00    -0.345 N 
ATOM      2  C   UNL d   1      -0.220   0.788   0.203  0.00  0.00    -0.017 A 
ATOM      3  C   UNL d   1      -1.630   1.325   0.306  0.00  0.00     0.154 C 
ATOM      4  C   UNL d   1       0.057  -0.552   0.009  0.00  0.00    -0.007 A 
ATOM      5  C   UNL d   1      -2.354  -1.074   0.305  0.00  0.00     0.131 C 
ATOM      6  S   UNL d   1       1.720  -0.889  -0.060  0.00  0.00    -0.106 SA
ATOM      7  C   UNL d   1      -0.986  -1.609  -0.157  0.00  0.00     0.067 C 
ATOM      8  C   UNL d   1       0.992   1.554   0.264  0.00  0.00     0.018 A 
ATOM      9  C   UNL d   1       2.116   0.762   0.144  0.00  0.00     0.051 A 
ENDROOT
BRANCH   1  10
ATOM     10  C   UNL d   1      -3.394   0.519  -1.302  0.00  0.00     0.175 C 
ATOM     11  S   UNL d   1      -3.143   1.682  -2.486  0.00  0.00    -0.041 SA
BRANCH  10  12
ATOM     12  N   UNL d   1      -4.425  -0.355  -1.524  0.00  0.00    -0.332 N 
ATOM     13  H   UNL d   1      -4.684  -0.458  -2.504  0.00  0.00     0.168 HD
BRANCH  12  14
ATOM     14  C   UNL d   1      -5.457  -0.736  -0.626  0.00  0.00     0.056 A 
ATOM     15  C   UNL d   1      -6.376  -1.723  -1.031  0.00  0.00     0.062 A 
ATOM     16  C   UNL d   1      -7.459  -2.072  -0.222  0.00  0.00     0.050 A 
ATOM     17 CL   UNL d   1      -6.179  -2.561  -2.533  0.00  0.00    -0.082 Cl
ATOM     18  C   UNL d   1      -7.643  -1.415   0.991  0.00  0.00     0.035 A 
ATOM     19  C   UNL d   1      -6.742  -0.439   1.411  0.00  0.00     0.026 A 
ATOM     20 CL   UNL d   1      -9.003  -1.801   1.970  0.00  0.00    -0.084 Cl
ATOM     21  C   UNL d   1      -5.644  -0.107   0.608  0.00  0.00     0.033 A 
ENDBRANCH  12  14
ENDBRANCH  10  12
ENDBRANCH   1  10
BRANCH   3  22
ATOM     22  C   UNL d   1      -1.907   1.713   1.761  0.00  0.00    -0.031 A 
ATOM     23  C   UNL d   1      -2.847   2.731   2.000  0.00  0.00     0.010 A 
ATOM     24  C   UNL d   1      -3.176   3.120   3.301  0.00  0.00     0.017 A 
ATOM     25  C   UNL d   1      -2.578   2.497   4.405  0.00  0.00     0.047 A 
ATOM     26  C   UNL d   1      -1.648   1.476   4.178  0.00  0.00     0.017 A 
ATOM     27  C   UNL d   1      -1.323   1.085   2.876  0.00  0.00     0.010 A 
BRANCH  25  28
ATOM     28  C   UNL d   1      -2.942   2.925   5.805  0.00  0.00     0.417 C 
ATOM     29  F   UNL d   1      -2.293   2.226   6.777  0.00  0.00    -0.166 F 
ATOM     30  F   UNL d   1      -2.664   4.237   6.038  0.00  0.00    -0.166 F 
ATOM     31  F   UNL d   1      -4.272   2.773   6.062  0.00  0.00    -0.166 F 
ENDBRANCH  25  28
ENDBRANCH   3  22
TORSDOF 5
