REMARK  3 active torsions:
REMARK  status: ('A' for Active; 'I' for Inactive)
REMARK    1  A    between atoms: C_8  and  N_1 
REMARK    2  A    between atoms: C_9  and  C_8 
REMARK    3  A    between atoms: O_12  and  C_9 
ROOT
ATOM      1  N   UNL d   1       1.271  -1.173   0.660  0.00  0.00    -0.307 N 
ATOM      2  C   UNL d   1       2.156  -0.849  -0.370  0.00  0.00     0.226 C 
ATOM      3  C   UNL d   1      -0.093  -0.767   0.458  0.00  0.00     0.054 A 
ATOM      4  S   UNL d   1       0.681   1.867   1.016  0.00  0.00    -0.118 SA
ATOM      5  C   UNL d   1       2.716   0.563  -0.388  0.00  0.00     0.123 C 
ATOM      6  C   UNL d   1      -0.474   0.577   0.603  0.00  0.00     0.028 A 
ATOM      7  C   UNL d   1       1.784   1.774  -0.451  0.00  0.00     0.014 C 
ATOM      8  O   UNL d   1       2.694  -1.737  -1.046  0.00  0.00    -0.273 OA
ATOM      9  C   UNL d   1      -1.078  -1.709   0.096  0.00  0.00     0.031 A 
ATOM     10  C   UNL d   1      -1.812   0.950   0.418  0.00  0.00     0.021 A 
ATOM     11  C   UNL d   1       2.655   3.046  -0.375  0.00  0.00     0.027 C 
ATOM     12  C   UNL d   1       0.994   1.819  -1.770  0.00  0.00     0.027 C 
ATOM     13  C   UNL d   1      -2.402  -1.318  -0.119  0.00  0.00     0.002 A 
ATOM     14  C   UNL d   1      -2.771   0.011   0.046  0.00  0.00     0.002 A 
ENDROOT
BRANCH   1  15
ATOM     15  C   UNL d   1       1.462  -2.526   1.193  0.00  0.00     0.242 C 
BRANCH  15  16
ATOM     16  C   UNL d   1       2.840  -2.648   1.843  0.00  0.00     0.158 C 
ATOM     17  O   UNL d   1       3.074  -2.399   3.018  0.00  0.00    -0.649 OA
BRANCH  16  18
ATOM     18  O   UNL d   1       3.821  -2.995   0.972  0.00  0.00    -0.775 OA
ATOM     19  H   UNL d   1       3.529  -2.933   0.028  0.00  0.00     0.167 HD
ENDBRANCH  16  18
ENDBRANCH  15  16
ENDBRANCH   1  15
TORSDOF 3
