REMARK  5 active torsions:
REMARK  status: ('A' for Active; 'I' for Inactive)
REMARK    1  A    between atoms: C_6  and  S_1 
REMARK    2  A    between atoms: N_10  and  S_1 
REMARK    3  A    between atoms: C_4  and  C_9 
REMARK    4  A    between atoms: C_13  and  N_5 
REMARK       I    between atoms: C_9  and  N_11 
REMARK    5  A    between atoms: N_11  and  N_10 
ROOT
ATOM      1  N   UNL d   1       2.138   2.292   0.886  0.00  0.00    -0.220 N 
ATOM      2  H   UNL d   1       2.503   2.954   1.579  0.00  0.00     0.200 HD
ENDROOT
BRANCH   1   3
ATOM      3  S   UNL d   1       3.065   0.916   0.605  0.00  0.00     0.278 S 
ATOM      4  O   UNL d   1       3.997   0.737   1.695  0.00  0.00    -0.199 OA
ATOM      5  O   UNL d   1       2.131  -0.136   0.246  0.00  0.00    -0.199 OA
BRANCH   3   6
ATOM      6  C   UNL d   1       3.964   1.331  -0.867  0.00  0.00     0.108 A 
ATOM      7  C   UNL d   1       4.823   2.434  -0.863  0.00  0.00     0.066 A 
ATOM      8  N   UNL d   1       5.025   3.217   0.224  0.00  0.00    -0.364 N 
ATOM      9  C   UNL d   1       5.491   2.715  -2.080  0.00  0.00    -0.008 A 
ATOM     10  C   UNL d   1       5.889   4.254   0.138  0.00  0.00     0.088 A 
ATOM     11  HN  UNL d   1       4.531   3.027   1.096  1.00  0.00     0.165 HD
ATOM     12  C   UNL d   1       6.575   4.590  -1.010  0.00  0.00     0.018 A 
ATOM     13  C   UNL d   1       6.365   3.808  -2.136  0.00  0.00     0.015 A 
ATOM     14  C   UNL d   1       5.289   1.924  -3.223  0.00  0.00     0.014 A 
ATOM     15  C   UNL d   1       4.429   0.834  -3.187  0.00  0.00     0.003 A 
ATOM     16  C   UNL d   1       3.764   0.533  -2.008  0.00  0.00     0.028 A 
ENDBRANCH   3   6
ENDBRANCH   1   3
BRANCH   1  17
ATOM     17  N   UNL d   1       1.136   2.716  -0.065  0.00  0.00    -0.255 N 
ATOM     18  C   UNL d   1       0.642   4.007  -0.023  0.00  0.00     0.288 C 
ATOM     19  O   UNL d   1       0.999   4.844   0.802  0.00  0.00    -0.264 OA
ATOM     20  H   UNL d   1       0.812   2.082  -0.793  0.00  0.00     0.191 HD
BRANCH  18  21
ATOM     21  C   UNL d   1      -0.342   4.280  -1.079  0.00  0.00     0.119 A 
ATOM     22  N   UNL d   1      -0.755   3.333  -1.935  0.00  0.00    -0.292 N 
ATOM     23  N   UNL d   1      -1.699   3.930  -2.712  0.00  0.00    -0.287 N 
ATOM     24  HN  UNL d   1      -0.430   2.368  -1.992  1.00  0.00     0.187 HD
ATOM     25  C   UNL d   1      -1.855   5.266  -2.389  0.00  0.00     0.028 A 
ATOM     26  C   UNL d   1      -0.975   5.508  -1.353  0.00  0.00     0.063 A 
ATOM     27  C   UNL d   1      -2.797   6.229  -3.013  0.00  0.00     0.070 C 
BRANCH  23  28
ATOM     28  C   UNL d   1      -2.385   3.111  -3.739  0.00  0.00     0.043 C 
ATOM     29  C   UNL d   1      -1.914   1.631  -3.681  0.00  0.00     0.039 C 
ATOM     30  C   UNL d   1      -3.910   3.095  -3.520  0.00  0.00     0.039 C 
ATOM     31  C   UNL d   1      -2.067   3.621  -5.156  0.00  0.00     0.039 C 
ENDBRANCH  23  28
ENDBRANCH  18  21
ENDBRANCH   1  17
TORSDOF 5
