REMARK  4 active torsions:
REMARK  status: ('A' for Active; 'I' for Inactive)
REMARK    1  A    between atoms: C_6  and  C_1 
REMARK    2  A    between atoms: C_9  and  N_2 
REMARK    3  A    between atoms: C_8  and  C_4 
REMARK       I    between atoms: N_7  and  C_6 
REMARK    4  A    between atoms: C_11  and  N_7 
ROOT
ATOM      1  C   UNL d   1      -0.149   1.029  -0.140  0.00  0.00     0.057 C 
ATOM      2  N   UNL d   1       1.028  -0.936   0.127  0.00  0.00    -0.318 N 
ATOM      3  C   UNL d   1       1.057   0.473   0.285  0.00  0.00     0.029 C 
ATOM      4  C   UNL d   1      -0.353  -1.262  -0.024  0.00  0.00     0.025 C 
ATOM      5  C   UNL d   1      -1.012  -0.069  -0.313  0.00  0.00     0.045 C 
ATOM      6  C   UNL d   1       2.189   1.255   0.887  0.00  0.00     0.070 C 
ENDROOT
BRANCH   1   7
ATOM      7  C   UNL d   1      -0.430   2.480  -0.257  0.00  0.00     0.258 C 
ATOM      8  N   UNL d   1      -1.776   2.803  -0.395  0.00  0.00    -0.323 N 
ATOM      9  H   UNL d   1      -2.423   2.036  -0.478  0.00  0.00     0.169 HD
ATOM     10  O   UNL d   1       0.478   3.303  -0.218  0.00  0.00    -0.267 OA
BRANCH   8  11
ATOM     11  C   UNL d   1      -2.365   4.090  -0.306  0.00  0.00     0.035 A 
ATOM     12  C   UNL d   1      -1.649   5.264  -0.081  0.00  0.00     0.030 A 
ATOM     13  C   UNL d   1      -2.314   6.482   0.131  0.00  0.00     0.009 A 
ATOM     14  C   UNL d   1      -3.709   6.543   0.103  0.00  0.00    -0.062 A 
ATOM     15  C   UNL d   1      -4.429   5.382  -0.179  0.00  0.00     0.009 A 
ATOM     16  C   UNL d   1      -4.412   7.821   0.464  0.00  0.00     0.048 C 
ATOM     17  C   UNL d   1      -3.762   4.166  -0.389  0.00  0.00     0.030 A 
ENDBRANCH   8  11
ENDBRANCH   1   7
BRANCH   2  18
ATOM     18  C   UNL d   1       2.217  -1.799   0.146  0.00  0.00     0.039 A 
ATOM     19  C   UNL d   1       3.500  -1.258  -0.059  0.00  0.00     0.030 A 
ATOM     20  C   UNL d   1       4.671  -2.029   0.049  0.00  0.00     0.002 A 
ATOM     21  C   UNL d   1       4.594  -3.389   0.298  0.00  0.00     0.000 A 
ATOM     22  C   UNL d   1       3.346  -3.973   0.413  0.00  0.00     0.002 A 
ATOM     23  C   UNL d   1       2.183  -3.186   0.333  0.00  0.00     0.030 A 
ENDBRANCH   2  18
BRANCH   4  24
ATOM     24  C   UNL d   1      -1.049  -2.633   0.038  0.00  0.00    -0.008 C 
ATOM     25  C   UNL d   1      -2.601  -2.502  -0.082  0.00  0.00     0.021 C 
ATOM     26  C   UNL d   1      -0.655  -3.501  -1.178  0.00  0.00     0.021 C 
ATOM     27  C   UNL d   1      -0.862  -3.285   1.432  0.00  0.00     0.021 C 
ENDBRANCH   4  24
TORSDOF 4
