REMARK  3 active torsions:
REMARK  status: ('A' for Active; 'I' for Inactive)
REMARK    1  A    between atoms: C1_2  and  C3_5 
REMARK    2  A    between atoms: C5_7  and  C2_3 
REMARK    3  A    between atoms: O2_11  and  C3_5 
ROOT
ATOM      1  N1  <1> d   1      -1.329  -0.696   0.021  0.00  0.00    -0.391 N 
ATOM      2  C1  <1> d   1      -1.463   0.764   0.134  0.00  0.00     0.186 C 
ATOM      3  C2  <1> d   1      -0.040  -1.132  -0.483  0.00  0.00     0.173 C 
ATOM      4  S1  <1> d   1       1.119   0.139   0.119  0.00  0.00    -0.137 SA
ATOM      5  C4  <1> d   1      -0.110   1.462   0.085  0.00  0.00     0.112 C 
ATOM      6  H1  <1> d   1      -2.149  -1.185  -0.315  0.00  0.00     0.155 HD
ENDROOT
BRANCH   3   7
ATOM      7  C5  <1> d   1      -0.000  -1.360  -1.996  0.00  0.00    -0.026 A 
ATOM      8  C6  <1> d   1       1.173  -1.147  -2.750  0.00  0.00     0.013 A 
ATOM      9  C9  <1> d   1       1.210  -1.389  -4.127  0.00  0.00     0.043 A 
ATOM     10  C8  <1> d   1       0.080  -1.868  -4.770  0.00  0.00     0.116 A 
ATOM     11  C10 <1> d   1      -1.083  -2.121  -4.060  0.00  0.00     0.043 A 
ATOM     12  F1  <1> d   1       0.117  -2.105  -6.087  0.00  0.00    -0.206 F 
ATOM     13  C7  <1> d   1      -1.117  -1.887  -2.681  0.00  0.00     0.013 A 
ENDBRANCH   3   7
BRANCH   2  14
ATOM     14  C3  <1> d   1      -2.426   1.340  -0.904  0.00  0.00     0.164 C 
ATOM     15  O1  <1> d   1      -3.478   1.892  -0.605  0.00  0.00    -0.648 OA
BRANCH  14  16
ATOM     16  O2  <1> d   1      -2.060   1.186  -2.193  0.00  0.00    -0.775 OA
ATOM     17  H8  <1> d   1      -1.213   0.719  -2.324  0.00  0.00     0.167 HD
ENDBRANCH  14  16
ENDBRANCH   2  14
TORSDOF 3
