REMARK  6 active torsions:
REMARK  status: ('A' for Active; 'I' for Inactive)
REMARK    1  A    between atoms: N_2  and  C_1 
REMARK    2  A    between atoms: N_7  and  C_1 
REMARK    3  A    between atoms: N_5  and  C_13 
REMARK    4  A    between atoms: C_18  and  N_7 
REMARK    5  A    between atoms: C_13  and  C_14 
REMARK    6  A    between atoms: C_14  and  C_18 
ROOT
ATOM      1  N   UNL d   1       3.456  -0.827   0.159  0.00  0.00    -0.367 N 
ATOM      2  H   UNL d   1       3.154  -1.230  -0.717  0.00  0.00     0.161 HD
ENDROOT
BRANCH   1   3
ATOM      3  C   UNL d   1       2.545   0.019   0.765  0.00  0.00     0.169 C 
ATOM      4  S   UNL d   1       2.770   0.735   2.265  0.00  0.00    -0.041 SA
BRANCH   3   5
ATOM      5  N   UNL d   1       1.386   0.158  -0.017  0.00  0.00    -0.357 N 
ATOM      6  C   UNL d   1       0.073   0.106   0.639  0.00  0.00     0.155 C 
ATOM      7  C   UNL d   1      -0.535   1.475   0.970  0.00  0.00     0.291 C 
ATOM      8  N   UNL d   1      -1.368   2.015  -0.120  0.00  0.00     0.085 N 
ATOM      9  C   UNL d   1      -2.122   3.172   0.381  0.00  0.00     0.309 C 
ATOM     10  C   UNL d   1      -0.598   2.402  -1.309  0.00  0.00     0.273 C 
ATOM     11  C   UNL d   1       0.202   1.276  -1.980  0.00  0.00     0.050 C 
ATOM     12  C   UNL d   1       1.504   0.933  -1.254  0.00  0.00     0.127 C 
ENDBRANCH   3   5
ENDBRANCH   1   3
BRANCH   1  13
ATOM     13  C   UNL d   1       4.662  -1.357   0.795  0.00  0.00     0.123 C 
BRANCH  13  14
ATOM     14  C   UNL d   1       5.221  -2.592   0.086  0.00  0.00     0.050 C 
BRANCH  14  15
ATOM     15  C   UNL d   1       4.262  -3.785   0.191  0.00  0.00     0.274 C 
BRANCH  15  16
ATOM     16  N   UNL d   1       4.798  -5.048  -0.350  0.00  0.00     0.092 N 
ATOM     17  C   UNL d   1       5.150  -4.996  -1.786  0.00  0.00     0.298 C 
ATOM     18  C   UNL d   1       3.932  -4.902  -2.719  0.00  0.00     0.198 C 
ATOM     19  O   UNL d   1       3.027  -5.992  -2.505  0.00  0.00    -0.388 OA
ATOM     20  C   UNL d   1       2.608  -6.055  -1.136  0.00  0.00     0.198 C 
ATOM     21  C   UNL d   1       3.813  -6.146  -0.178  0.00  0.00     0.298 C 
ENDBRANCH  15  16
ENDBRANCH  14  15
ENDBRANCH  13  14
ENDBRANCH   1  13
TORSDOF 6
