REMARK  3 active torsions:
REMARK  status: ('A' for Active; 'I' for Inactive)
REMARK    1  A    between atoms: C_4  and  C_1 
REMARK    2  A    between atoms: C_9  and  C_2 
REMARK       I    between atoms: N_3  and  C_4 
REMARK    3  A    between atoms: C_15  and  C_10 
ROOT
ATOM      1  C   UNL d   1      -0.065  -1.232  -0.002  0.00  0.00     0.095 A 
ATOM      2  C   UNL d   1      -1.391  -0.688  -0.084  0.00  0.00     0.088 A 
ATOM      3  N   UNL d   1      -1.317   0.633  -0.319  0.00  0.00    -0.259 N 
ATOM      4  HN  UNL d   1      -2.102   1.262  -0.492  1.00  0.00     0.195 HD
ATOM      5  O   UNL d   1       0.008   0.979  -0.283  0.00  0.00    -0.241 OA
ATOM      6  C   UNL d   1       0.762  -0.126  -0.082  0.00  0.00     0.090 A 
ATOM      7  C   UNL d   1       2.216   0.108   0.040  0.00  0.00     0.080 C 
ENDROOT
BRANCH   1   8
ATOM      8  C   UNL d   1       0.374  -2.598   0.231  0.00  0.00     0.281 C 
ATOM      9  N   UNL d   1       1.424  -3.183  -0.541  0.00  0.00    -0.231 N 
ATOM     10  N   UNL d   1       2.077  -4.291  -0.089  0.00  0.00    -0.290 N 
ATOM     11  C   UNL d   1       1.952  -2.760  -1.746  0.00  0.00     0.122 A 
ATOM     12  C   UNL d   1       3.067  -4.498  -0.965  0.00  0.00     0.067 A 
ATOM     13  HN  UNL d   1       1.858  -4.844   0.740  1.00  0.00     0.187 HD
ATOM     14  C   UNL d   1       3.026  -3.570  -2.027  0.00  0.00     0.051 A 
ATOM     15  O   UNL d   1      -0.143  -3.275   1.116  0.00  0.00    -0.265 OA
BRANCH  12  16
ATOM     16  C   UNL d   1       4.063  -5.606  -0.778  0.00  0.00     0.033 A 
ATOM     17  S   UNL d   1       5.353  -5.952  -1.845  0.00  0.00    -0.100 SA
ATOM     18  C   UNL d   1       5.872  -7.277  -0.893  0.00  0.00     0.050 A 
ATOM     19  C   UNL d   1       5.086  -7.446   0.225  0.00  0.00     0.008 A 
ATOM     20  C   UNL d   1       4.044  -6.475   0.294  0.00  0.00     0.021 A 
ENDBRANCH  12  16
ENDBRANCH   1   8
BRANCH   2  21
ATOM     21  C   UNL d   1      -2.700  -1.351  -0.035  0.00  0.00     0.054 A 
ATOM     22  C   UNL d   1      -2.876  -2.582  -0.683  0.00  0.00     0.130 A 
ATOM     23  F   UNL d   1      -1.853  -3.163  -1.331  0.00  0.00    -0.205 F 
ATOM     24  C   UNL d   1      -4.113  -3.231  -0.723  0.00  0.00     0.043 A 
ATOM     25  C   UNL d   1      -5.225  -2.644  -0.132  0.00  0.00     0.005 A 
ATOM     26  C   UNL d   1      -5.085  -1.419   0.517  0.00  0.00     0.025 A 
ATOM     27  C   UNL d   1      -3.833  -0.782   0.582  0.00  0.00     0.049 A 
ATOM     28 CL   UNL d   1      -3.793   0.697   1.485  0.00  0.00    -0.083 Cl
ENDBRANCH   2  21
TORSDOF 3
