REMARK  2 active torsions:
REMARK  status: ('A' for Active; 'I' for Inactive)
REMARK    1  A    between atoms: C_2  and  N_1 
REMARK       I    between atoms: C_6  and  N_1 
REMARK    2  A    between atoms: C_11  and  C_5 
ROOT
ATOM      1  C   UNL d   1       0.366   1.056  -0.608  0.00  0.00     0.052 A 
ATOM      2  C   UNL d   1       0.686   1.892  -1.686  0.00  0.00     0.038 A 
ATOM      3  C   UNL d   1      -0.062   3.046  -1.931  0.00  0.00     0.029 A 
ATOM      4  C   UNL d   1      -1.112   3.421  -1.075  0.00  0.00    -0.053 A 
ATOM      5  C   UNL d   1      -0.683   1.415   0.241  0.00  0.00     0.031 A 
ATOM      6  C   UNL d   1      -1.413   2.587   0.011  0.00  0.00     0.010 A 
ATOM      7 BR   UNL d   1       2.067   1.443  -2.912  0.00  0.00    -0.049 Br
ENDROOT
BRANCH   1   8
ATOM      8  N   UNL d   1       1.149  -0.081  -0.352  0.00  0.00    -0.326 N 
ATOM      9  C   UNL d   1       0.757  -1.338   0.012  0.00  0.00     0.218 C 
ATOM     10  O   UNL d   1       1.608  -2.159   0.347  0.00  0.00    -0.274 OA
ATOM     11  C   UNL d   1      -0.687  -1.737  -0.113  0.00  0.00     0.117 C 
ATOM     12  H   UNL d   1       2.132  -0.034  -0.604  0.00  0.00     0.169 HD
ENDBRANCH   1   8
BRANCH   4  13
ATOM     13  C   UNL d   1      -1.892   4.692  -1.383  0.00  0.00     0.010 C 
ATOM     14  C   UNL d   1      -3.100   4.378  -2.265  0.00  0.00     0.015 C 
ATOM     15  C   UNL d   1      -2.320   5.477  -0.141  0.00  0.00     0.015 C 
ENDBRANCH   4  13
TORSDOF 2
