REMARK  2 active torsions:
REMARK  status: ('A' for Active; 'I' for Inactive)
REMARK    1  A    between atoms: C_11  and  C_5 
REMARK    2  A    between atoms: O_15  and  C_11 
ROOT
ATOM      1  C   UNL d   1       1.223  -1.068  -0.021  0.00  0.00     0.106 A 
ATOM      2  N   UNL d   1       0.738   0.241  -0.015  0.00  0.00    -0.270 N 
ATOM      3  C   UNL d   1       2.535  -1.353  -0.029  0.00  0.00     0.095 A 
ATOM      4  C   UNL d   1       1.585   1.343  -0.032  0.00  0.00     0.254 A 
ATOM      5  C   UNL d   1       3.484  -0.242   0.003  0.00  0.00     0.068 A 
ATOM      6  S   UNL d   1      -0.068  -2.250  -0.030  0.00  0.00    -0.068 SA
ATOM      7  C   UNL d   1       3.044   1.028  -0.009  0.00  0.00     0.094 A 
ATOM      8  C   UNL d   1      -0.685   0.315  -0.010  0.00  0.00     0.060 A 
ATOM      9  C   UNL d   1      -1.276  -0.955  -0.012  0.00  0.00     0.034 A 
ATOM     10  C   UNL d   1       2.993  -2.704  -0.115  0.00  0.00     0.103 C 
ATOM     11  N   UNL d   1       3.335  -3.808  -0.220  0.00  0.00    -0.191 NA
ATOM     12  O   UNL d   1       1.259   2.526  -0.052  0.00  0.00    -0.268 OA
ATOM     13  C   UNL d   1      -1.494   1.444  -0.005  0.00  0.00     0.031 A 
ATOM     14  C   UNL d   1      -2.651  -1.129  -0.004  0.00  0.00     0.021 A 
ATOM     15  C   UNL d   1      -2.887   1.281  -0.000  0.00  0.00     0.002 A 
ATOM     16  C   UNL d   1      -3.462   0.003   0.001  0.00  0.00     0.002 A 
ENDROOT
BRANCH   5  17
ATOM     17  C   UNL d   1       4.946  -0.508   0.128  0.00  0.00     0.294 C 
ATOM     18  O   UNL d   1       5.395  -1.495   0.689  0.00  0.00    -0.259 OA
BRANCH  17  19
ATOM     19  O   UNL d   1       5.691   0.452  -0.475  0.00  0.00    -0.322 OA
ATOM     20  C   UNL d   1       7.096   0.176  -0.443  0.00  0.00     0.213 C 
ENDBRANCH  17  19
ENDBRANCH   5  17
TORSDOF 2
