REMARK  3 active torsions:
REMARK  status: ('A' for Active; 'I' for Inactive)
REMARK    1  A    between atoms: S_8  and  C_1 
REMARK    2  A    between atoms: C_13  and  S_8 
REMARK    3  A    between atoms: C_9  and  C_13 
REMARK       I    between atoms: N_14  and  C_9 
ROOT
ATOM      1  C   UNL d   1      -3.110   0.185   0.007  0.00  0.00     0.113 A 
ATOM      2  N   UNL d   1      -2.396   1.288  -0.017  0.00  0.00    -0.344 N 
ATOM      3  HN  UNL d   1      -2.776   2.235  -0.045  1.00  0.00     0.167 HD
ATOM      4  S   UNL d   1      -2.231  -1.283   0.028  0.00  0.00    -0.063 SA
ATOM      5  C   UNL d   1      -0.753  -0.397   0.004  0.00  0.00     0.035 A 
ATOM      6  C   UNL d   1      -1.047   0.967   0.001  0.00  0.00     0.050 A 
ATOM      7  C   UNL d   1       0.568  -0.878  -0.005  0.00  0.00     0.045 A 
ATOM      8  C   UNL d   1       0.019   1.890  -0.002  0.00  0.00     0.032 A 
ATOM      9  C   UNL d   1       1.601   0.061  -0.012  0.00  0.00     0.035 A 
ATOM     10  C   UNL d   1       1.340   1.427  -0.008  0.00  0.00     0.026 A 
ATOM     11 CL   UNL d   1       3.235  -0.486  -0.026  0.00  0.00    -0.084 Cl
ENDROOT
BRANCH   1  12
ATOM     12  S   UNL d   1      -4.860   0.214   0.010  0.00  0.00    -0.096 SA
BRANCH  12  13
ATOM     13  C   UNL d   1      -5.197   1.813  -0.773  0.00  0.00     0.184 C 
BRANCH  13  14
ATOM     14  C   UNL d   1      -4.734   1.810  -2.216  0.00  0.00     0.225 C 
ATOM     15  O   UNL d   1      -5.376   1.316  -3.140  0.00  0.00    -0.273 OA
ATOM     16  N   UNL d   1      -3.520   2.396  -2.447  0.00  0.00    -0.369 N 
ATOM     17  H   UNL d   1      -2.856   2.452  -1.679  0.00  0.00     0.159 HD
ATOM     18  H   UNL d   1      -3.140   2.271  -3.376  0.00  0.00     0.159 HD
ENDBRANCH  13  14
ENDBRANCH  12  13
ENDBRANCH   1  12
TORSDOF 3
