REMARK  3 active torsions:
REMARK  status: ('A' for Active; 'I' for Inactive)
REMARK    1  A    between atoms: C_7  and  C_1 
REMARK       I    between atoms: N_10  and  C_7 
REMARK    2  A    between atoms: C_15  and  N_10 
REMARK    3  A    between atoms: C_12  and  C_15 
ROOT
ATOM      1  C   UNL d   1      -1.321  -2.754   0.110  0.00  0.00     0.254 C 
ATOM      2  N   UNL d   1      -0.373  -3.756   0.208  0.00  0.00    -0.352 N 
ATOM      3  O   UNL d   1      -1.010  -1.566   0.072  0.00  0.00    -0.268 OA
ATOM      4  H   UNL d   1      -0.657  -4.723   0.069  0.00  0.00     0.163 HD
ENDROOT
BRANCH   1   5
ATOM      5  C   UNL d   1      -2.755  -3.104   0.019  0.00  0.00     0.061 A 
ATOM      6  C   UNL d   1      -3.280  -4.420   0.036  0.00  0.00     0.082 A 
ATOM      7  N   UNL d   1      -2.607  -5.581   0.133  0.00  0.00    -0.310 N 
ATOM      8  C   UNL d   1      -4.780  -4.635  -0.068  0.00  0.00     0.068 A 
ATOM      9  S   UNL d   1      -3.732  -6.801   0.098  0.00  0.00     0.068 SA
ATOM     10  HN  UNL d   1      -1.596  -5.690   0.213  1.00  0.00     0.176 HD
ATOM     11  N   UNL d   1      -5.135  -5.928  -0.039  0.00  0.00    -0.310 N 
ATOM     12  HN  UNL d   1      -6.083  -6.302  -0.091  1.00  0.00     0.176 HD
ATOM     13  C   UNL d   1      -5.678  -3.546  -0.186  0.00  0.00     0.032 A 
ATOM     14  C   UNL d   1      -5.102  -2.268  -0.205  0.00  0.00     0.003 A 
ATOM     15  C   UNL d   1      -3.708  -2.060  -0.108  0.00  0.00     0.019 A 
ENDBRANCH   1   5
BRANCH   2  16
ATOM     16  C   UNL d   1       1.012  -3.380   0.038  0.00  0.00     0.163 C 
BRANCH  16  17
ATOM     17  C   UNL d   1       2.070  -4.431   0.267  0.00  0.00    -0.019 A 
ATOM     18  C   UNL d   1       2.036  -5.735  -0.247  0.00  0.00     0.042 A 
ATOM     19 CL   UNL d   1       0.685  -6.349  -1.130  0.00  0.00    -0.084 Cl
ATOM     20  C   UNL d   1       3.139  -6.590  -0.096  0.00  0.00     0.024 A 
ATOM     21  C   UNL d   1       4.297  -6.154   0.546  0.00  0.00     0.002 A 
ATOM     22  C   UNL d   1       4.356  -4.860   1.049  0.00  0.00     0.001 A 
ATOM     23  C   UNL d   1       3.255  -4.012   0.913  0.00  0.00     0.010 A 
ENDBRANCH  16  17
ENDBRANCH   2  16
TORSDOF 3
