REMARK  0 active torsions:
REMARK  status: ('A' for Active; 'I' for Inactive)
ROOT
ATOM      1  C   UNL d   1       2.926  -1.049  -0.072  0.00  0.00     0.147 A 
ATOM      2  N   UNL d   1       1.827  -1.401  -0.704  0.00  0.00    -0.335 N 
ATOM      3  HN  UNL d   1       1.753  -2.210  -1.322  1.00  0.00     0.168 HD
ATOM      4  S   UNL d   1       2.763   0.404   0.857  0.00  0.00    -0.052 SA
ATOM      5  C   UNL d   1       0.786  -0.535  -0.423  0.00  0.00     0.053 A 
ATOM      6  N   UNL d   1       4.102  -1.731  -0.149  0.00  0.00    -0.361 N 
ATOM      7  C   UNL d   1       1.113   0.536   0.406  0.00  0.00     0.035 A 
ATOM      8  C   UNL d   1      -0.537  -0.651  -0.897  0.00  0.00     0.054 A 
ATOM      9  C   UNL d   1       0.173   1.517   0.764  0.00  0.00     0.023 A 
ATOM     10  C   UNL d   1      -1.479   0.313  -0.536  0.00  0.00     0.036 A 
ATOM     11  C   UNL d   1      -1.131   1.387   0.278  0.00  0.00     0.025 A 
ATOM     12 CL   UNL d   1      -3.098   0.171  -1.104  0.00  0.00    -0.084 Cl
ATOM     13  C   UNL d   1       4.210  -2.904  -1.013  0.00  0.00     0.125 C 
ATOM     14  C   UNL d   1       4.963  -1.865   1.025  0.00  0.00     0.125 C 
ATOM     15  C   UNL d   1       4.983  -3.921  -0.178  0.00  0.00     0.021 C 
ATOM     16  C   UNL d   1       5.868  -3.048   0.694  0.00  0.00     0.021 C 
ENDROOT
TORSDOF 0
