REMARK  3 active torsions:
REMARK  status: ('A' for Active; 'I' for Inactive)
REMARK    1  A    between atoms: C_2  and  S_1 
REMARK    2  A    between atoms: C_7  and  S_1 
REMARK    3  A    between atoms: C_5  and  C_3 
ROOT
ATOM      1  C   UNL d   1       0.529   0.916   1.400  0.00  0.00     0.144 C 
ATOM      2  C   UNL d   1      -0.290   1.976   1.262  0.00  0.00     0.049 C 
ATOM      3  C   UNL d   1       0.993   0.130   0.319  0.00  0.00     0.112 C 
ATOM      4  N   UNL d   1       1.372  -0.513  -0.569  0.00  0.00    -0.191 NA
ENDROOT
BRANCH   1   5
ATOM      5  S   UNL d   1       0.927   0.409   3.010  0.00  0.00     0.216 S 
ATOM      6  O   UNL d   1      -0.020  -0.612   3.423  0.00  0.00    -0.216 OA
ATOM      7  O   UNL d   1       1.134   1.575   3.852  0.00  0.00    -0.216 OA
BRANCH   5   8
ATOM      8  C   UNL d   1       2.517  -0.392   2.870  0.00  0.00     0.065 A 
ATOM      9  C   UNL d   1       3.686   0.355   3.053  0.00  0.00     0.025 A 
ATOM     10  C   UNL d   1       4.926  -0.282   2.974  0.00  0.00     0.025 A 
ATOM     11  C   UNL d   1       4.989  -1.654   2.724  0.00  0.00     0.034 A 
ATOM     12  C   UNL d   1       3.822  -2.400   2.558  0.00  0.00     0.025 A 
ATOM     13 CL   UNL d   1       6.520  -2.434   2.632  0.00  0.00    -0.084 Cl
ATOM     14  C   UNL d   1       2.578  -1.772   2.641  0.00  0.00     0.025 A 
ENDBRANCH   5   8
ENDBRANCH   1   5
BRANCH   2  15
ATOM     15  C   UNL d   1      -0.789   2.452  -0.032  0.00  0.00     0.005 A 
ATOM     16  C   UNL d   1      -0.042   3.339  -0.817  0.00  0.00     0.129 A 
ATOM     17  C   UNL d   1      -0.500   3.761  -2.060  0.00  0.00     0.085 A 
ATOM     18  F   UNL d   1       1.143   3.787  -0.376  0.00  0.00    -0.205 F 
ATOM     19  C   UNL d   1      -1.719   3.284  -2.521  0.00  0.00     0.119 A 
ATOM     20  C   UNL d   1      -2.482   2.401  -1.761  0.00  0.00     0.043 A 
ATOM     21  F   UNL d   1      -2.171   3.677  -3.718  0.00  0.00    -0.206 F 
ATOM     22  C   UNL d   1      -2.019   1.984  -0.511  0.00  0.00     0.017 A 
ENDBRANCH   2  15
TORSDOF 3
