REMARK  3 active torsions:
REMARK  status: ('A' for Active; 'I' for Inactive)
REMARK    1  A    between atoms: C_13  and  C_3 
REMARK    2  A    between atoms: C_15  and  C_4 
REMARK    3  A    between atoms: C_8  and  C_14 
ROOT
ATOM      1  N   UNL d   1      -1.391  -0.960   0.077  0.00  0.00    -0.348 N 
ATOM      2  HN  UNL d   1      -2.195  -1.581   0.160  1.00  0.00     0.166 HD
ATOM      3  C   UNL d   1      -1.468   0.352  -0.026  0.00  0.00     0.085 A 
ATOM      4  C   UNL d   1      -0.065  -1.384   0.058  0.00  0.00     0.056 A 
ATOM      5  S   UNL d   1       0.052   1.149  -0.102  0.00  0.00    -0.074 SA
ATOM      6  C   UNL d   1       0.867  -0.363  -0.065  0.00  0.00     0.008 A 
ATOM      7  C   UNL d   1       2.353  -0.366  -0.171  0.00  0.00     0.059 C 
ENDROOT
BRANCH   3   8
ATOM      8  C   UNL d   1      -2.727   1.119  -0.024  0.00  0.00    -0.002 A 
ATOM      9  C   UNL d   1      -3.847   0.603   0.648  0.00  0.00     0.015 A 
ATOM     10  C   UNL d   1      -5.054   1.314   0.694  0.00  0.00     0.014 A 
ATOM     11  C   UNL d   1      -5.176   2.555   0.057  0.00  0.00    -0.008 A 
ATOM     12  C   UNL d   1      -4.073   3.058  -0.642  0.00  0.00     0.014 A 
ATOM     13  C   UNL d   1      -2.864   2.350  -0.681  0.00  0.00     0.015 A 
BRANCH  11  14
ATOM     14  C   UNL d   1      -6.411   3.328   0.095  0.00  0.00     0.063 A 
ATOM     15  N   UNL d   1      -6.753   4.188  -0.944  0.00  0.00    -0.292 N 
ATOM     16  N   UNL d   1      -7.898   4.809  -0.718  0.00  0.00    -0.061 NA
ATOM     17  HN  UNL d   1      -6.186   4.324  -1.781  1.00  0.00     0.183 HD
ATOM     18  S   UNL d   1      -8.583   4.393   0.748  0.00  0.00    -0.010 SA
ATOM     19  C   UNL d   1      -7.311   3.312   1.147  0.00  0.00     0.096 A 
ENDBRANCH  11  14
ENDBRANCH   3   8
BRANCH   4  20
ATOM     20  C   UNL d   1       0.238  -2.814   0.107  0.00  0.00    -0.008 A 
ATOM     21  C   UNL d   1      -0.617  -3.715  -0.544  0.00  0.00     0.014 A 
ATOM     22  C   UNL d   1      -0.349  -5.087  -0.543  0.00  0.00     0.001 A 
ATOM     23  C   UNL d   1       0.778  -5.576   0.113  0.00  0.00     0.000 A 
ATOM     24  C   UNL d   1       1.623  -4.696   0.787  0.00  0.00     0.001 A 
ATOM     25  C   UNL d   1       1.346  -3.325   0.796  0.00  0.00     0.014 A 
ENDBRANCH   4  20
TORSDOF 3
