REMARK  2 active torsions:
REMARK  status: ('A' for Active; 'I' for Inactive)
REMARK    1  A    between atoms: N_8  and  C_2 
REMARK       I    between atoms: C_7  and  N_8 
REMARK       I    between atoms: N_10  and  C_7 
REMARK    2  A    between atoms: N_16  and  N_10 
ROOT
ATOM      1  C   UNL d   1      -1.494  -0.844  -0.310  0.00  0.00     0.161 A 
ATOM      2  C   UNL d   1      -0.149  -1.129  -0.511  0.00  0.00     0.099 A 
ATOM      3  O   UNL d   1      -1.690   0.486  -0.530  0.00  0.00    -0.233 OA
ATOM      4  N   UNL d   1      -0.512   1.082  -0.916  0.00  0.00    -0.263 N 
ATOM      5  HN  UNL d   1      -0.372   2.065  -1.151  1.00  0.00     0.194 HD
ATOM      6  C   UNL d   1       0.414   0.113  -0.920  0.00  0.00     0.058 A 
ATOM      7  C   UNL d   1      -2.576  -1.748  -0.056  0.00  0.00     0.113 A 
ATOM      8  O   UNL d   1      -2.402  -3.106   0.054  0.00  0.00    -0.320 OA
ATOM      9  C   UNL d   1      -3.932  -1.472   0.020  0.00  0.00     0.042 A 
ATOM     10  C   UNL d   1      -3.629  -3.676   0.144  0.00  0.00     0.142 A 
ATOM     11  C   UNL d   1      -4.606  -2.712   0.128  0.00  0.00     0.027 A 
ATOM     12  C   UNL d   1       1.804   0.515  -1.244  0.00  0.00     0.072 C 
ENDROOT
BRANCH   2  13
ATOM     13  N   UNL d   1       0.376  -2.394  -0.287  0.00  0.00    -0.303 N 
ATOM     14  C   UNL d   1       1.327  -3.119  -0.943  0.00  0.00     0.335 C 
ATOM     15  N   UNL d   1       1.726  -2.653  -2.174  0.00  0.00    -0.271 N 
ATOM     16  O   UNL d   1       1.690  -4.189  -0.443  0.00  0.00    -0.246 OA
ATOM     17  H   UNL d   1       1.123  -1.964  -2.610  0.00  0.00     0.185 HD
ATOM     18  H   UNL d   1      -0.148  -2.983   0.357  0.00  0.00     0.171 HD
BRANCH  15  19
ATOM     19  N   UNL d   1       2.534  -3.408  -3.072  0.00  0.00    -0.236 NA
ATOM     20  C   UNL d   1       3.779  -3.893  -2.471  0.00  0.00     0.135 C 
ATOM     21  C   UNL d   1       1.795  -4.514  -3.691  0.00  0.00     0.135 C 
ENDBRANCH  15  19
ENDBRANCH   2  13
TORSDOF 2
