REMARK  2 active torsions:
REMARK  status: ('A' for Active; 'I' for Inactive)
REMARK       I    between atoms: C_2  and  N_1 
REMARK    1  A    between atoms: C_9  and  C_2 
REMARK    2  A    between atoms: C_11  and  C_12 
ROOT
ATOM      1  N   UNL d   1       0.701   1.581   0.604  0.00  0.00    -0.307 N 
ATOM      2  C   UNL d   1       1.038   1.893   1.942  0.00  0.00     0.258 C 
ATOM      3  C   UNL d   1      -0.480   0.746   0.374  0.00  0.00     0.098 C 
ATOM      4  N   UNL d   1      -0.891   3.198  -1.341  0.00  0.00    -0.325 N 
ATOM      5  C   UNL d   1       1.266   2.196  -0.533  0.00  0.00     0.064 A 
ATOM      6  C   UNL d   1      -1.904   2.632  -0.642  0.00  0.00     0.224 C 
ATOM      7  C   UNL d   1      -1.741   1.579   0.416  0.00  0.00     0.128 C 
ATOM      8  C   UNL d   1       0.498   2.987  -1.405  0.00  0.00     0.061 A 
ATOM      9  O   UNL d   1       0.418   1.396   2.888  0.00  0.00    -0.267 OA
ATOM     10  O   UNL d   1      -3.044   3.057  -0.889  0.00  0.00    -0.273 OA
ATOM     11  C   UNL d   1      -0.385  -0.174  -0.855  0.00  0.00     0.033 C 
ATOM     12  C   UNL d   1       2.637   2.011  -0.781  0.00  0.00     0.032 A 
ATOM     13  C   UNL d   1       1.158   3.673  -2.439  0.00  0.00     0.032 A 
ATOM     14  C   UNL d   1       3.264   2.664  -1.840  0.00  0.00     0.002 A 
ATOM     15  C   UNL d   1       2.529   3.515  -2.654  0.00  0.00     0.002 A 
ATOM     16  H   UNL d   1      -1.272   3.869  -2.001  0.00  0.00     0.169 HD
ENDROOT
BRANCH   2  17
ATOM     17  C   UNL d   1       2.179   2.788   2.303  0.00  0.00     0.032 C 
ATOM     18  C   UNL d   1       2.534   3.946   1.613  0.00  0.00     0.017 C 
ATOM     19  C   UNL d   1       3.733   4.609   1.914  0.00  0.00     0.009 C 
ATOM     20  C   UNL d   1       4.566   4.187   2.967  0.00  0.00    -0.051 C 
ATOM     21  C   UNL d   1       4.110   3.115   3.749  0.00  0.00     0.009 C 
ATOM     22  C   UNL d   1       2.939   2.423   3.418  0.00  0.00     0.017 C 
BRANCH  20  23
ATOM     23  C   UNL d   1       5.950   4.825   3.179  0.00  0.00    -0.024 C 
ATOM     24  C   UNL d   1       6.592   4.474   4.541  0.00  0.00     0.019 C 
ATOM     25  C   UNL d   1       6.886   4.296   2.070  0.00  0.00     0.019 C 
ATOM     26  C   UNL d   1       5.891   6.365   3.095  0.00  0.00     0.019 C 
ENDBRANCH  20  23
ENDBRANCH   2  17
TORSDOF 2
