REMARK  4 active torsions:
REMARK  status: ('A' for Active; 'I' for Inactive)
REMARK    1  A    between atoms: C_7  and  C_2 
REMARK    2  A    between atoms: C_11  and  C_14 
REMARK    3  A    between atoms: O_12  and  C_13 
REMARK    4  A    between atoms: C_14  and  O_12 
ROOT
ATOM      1  C   UNL d   1       2.430  -1.700  -0.030  0.00  0.00    -0.008 A 
ATOM      2  C   UNL d   1       2.598  -2.635  -1.060  0.00  0.00     0.016 A 
ATOM      3  C   UNL d   1       3.420  -1.603   0.955  0.00  0.00     0.016 A 
ATOM      4  C   UNL d   1       4.718  -3.346  -0.124  0.00  0.00     0.069 A 
ATOM      5  C   UNL d   1       4.561  -2.410   0.899  0.00  0.00     0.037 A 
ATOM      6  C   UNL d   1       3.737  -3.452  -1.109  0.00  0.00     0.037 A 
ENDROOT
BRANCH   1   7
ATOM      7  C   UNL d   1       1.261  -0.832   0.031  0.00  0.00     0.063 A 
ATOM      8  N   UNL d   1       0.770  -0.365   1.247  0.00  0.00    -0.292 N 
ATOM      9  N   UNL d   1      -0.285   0.415   1.090  0.00  0.00    -0.061 NA
ATOM     10  HN  UNL d   1       1.177  -0.598   2.153  1.00  0.00     0.183 HD
ATOM     11  S   UNL d   1      -0.704   0.626  -0.515  0.00  0.00    -0.010 SA
ATOM     12  C   UNL d   1       0.570  -0.376  -1.079  0.00  0.00     0.096 A 
ENDBRANCH   1   7
BRANCH   4  13
ATOM     13  O   UNL d   1       5.883  -4.062  -0.085  0.00  0.00    -0.344 OA
BRANCH  13  14
ATOM     14  C   UNL d   1       5.840  -5.350  -0.684  0.00  0.00     0.253 C 
BRANCH  14  15
ATOM     15  C   UNL d   1       7.197  -6.014  -0.526  0.00  0.00     0.146 C 
ATOM     16  O   UNL d   1       7.808  -6.470  -1.497  0.00  0.00    -0.296 OA
ATOM     17  C   UNL d   1       7.735  -6.166   0.871  0.00  0.00     0.093 C 
ENDBRANCH  14  15
ENDBRANCH  13  14
ENDBRANCH   4  13
TORSDOF 4
