REMARK  2 active torsions:
REMARK  status: ('A' for Active; 'I' for Inactive)
REMARK    1  A    between atoms: C_16  and  N_9 
REMARK    2  A    between atoms: C_14  and  C_16 
ROOT
ATOM      1  C   UNL d   1       0.763   0.402  -0.034  0.00  0.00     0.073 A 
ATOM      2  C   UNL d   1       1.299  -0.868  -0.021  0.00  0.00     0.091 A 
ATOM      3  C   UNL d   1       1.678   1.529  -0.000  0.00  0.00     0.262 A 
ATOM      4  C   UNL d   1      -0.668   0.393  -0.069  0.00  0.00    -0.026 A 
ATOM      5  N   UNL d   1       2.618  -1.188   0.017  0.00  0.00    -0.346 N 
ATOM      6  HN  UNL d   1       2.955  -2.151   0.027  1.00  0.00     0.167 HD
ATOM      7  C   UNL d   1      -1.153  -0.902  -0.039  0.00  0.00    -0.008 A 
ATOM      8  S   UNL d   1       0.086  -2.069  -0.044  0.00  0.00    -0.075 SA
ATOM      9  N   UNL d   1       3.022   1.163   0.021  0.00  0.00    -0.306 N 
ATOM     10  C   UNL d   1       3.412  -0.164   0.039  0.00  0.00     0.187 A 
ATOM     11  C   UNL d   1      -1.575   1.589  -0.062  0.00  0.00     0.041 C 
ATOM     12  C   UNL d   1      -2.604  -1.280  -0.012  0.00  0.00     0.051 C 
ATOM     13  O   UNL d   1       1.287   2.693   0.009  0.00  0.00    -0.267 OA
ATOM     14  C   UNL d   1      -3.042   1.201  -0.309  0.00  0.00     0.009 C 
ATOM     15  C   UNL d   1      -3.468  -0.080   0.441  0.00  0.00    -0.014 C 
ATOM     16  C   UNL d   1      -3.414   0.110   1.961  0.00  0.00     0.010 C 
ENDROOT
BRANCH   9  17
ATOM     17  C   UNL d   1       4.028   2.209  -0.011  0.00  0.00     0.159 C 
BRANCH  17  18
ATOM     18  C   UNL d   1       4.397   2.598   1.392  0.00  0.00    -0.017 C 
ATOM     19  C   UNL d   1       5.646   2.590   1.879  0.00  0.00     0.008 C 
ENDBRANCH  17  18
ENDBRANCH   9  17
TORSDOF 2
