REMARK  4 active torsions:
REMARK  status: ('A' for Active; 'I' for Inactive)
REMARK    1  A    between atoms: C_5  and  C_1 
REMARK    2  A    between atoms: N_6  and  C_2 
REMARK       I    between atoms: C_7  and  N_6 
REMARK       I    between atoms: N_10  and  C_7 
REMARK    3  A    between atoms: C_12  and  N_11 
REMARK    4  A    between atoms: O_23  and  C_20 
ROOT
ATOM      1  N   UNL d   1       0.642  -2.836   0.869  0.00  0.00    -0.304 N 
ATOM      2  C   UNL d   1       1.405  -2.641  -0.263  0.00  0.00     0.323 C 
ATOM      3  N   UNL d   1       2.380  -1.661  -0.108  0.00  0.00    -0.332 N 
ATOM      4  N   UNL d   1       4.444   0.334   0.083  0.00  0.00    -0.278 NA
ATOM      5  O   UNL d   1       1.305  -3.313  -1.286  0.00  0.00    -0.247 OA
ATOM      6  C   UNL d   1       2.337  -0.629   0.938  0.00  0.00     0.142 C 
ATOM      7  C   UNL d   1       3.687  -1.876  -0.742  0.00  0.00     0.142 C 
ATOM      8  C   UNL d   1       3.072   0.664   0.536  0.00  0.00     0.115 C 
ATOM      9  C   UNL d   1       4.425  -0.570  -1.089  0.00  0.00     0.115 C 
ATOM     10  H   UNL d   1       1.162  -2.738   1.728  0.00  0.00     0.171 HD
ENDROOT
BRANCH   1  11
ATOM     11  C   UNL d   1      -0.449  -3.692   0.918  0.00  0.00     0.097 C 
ATOM     12  C   UNL d   1      -1.517  -3.938  -0.003  0.00  0.00     0.097 C 
ATOM     13  N   UNL d   1      -2.341  -4.882   0.490  0.00  0.00    -0.258 N 
ATOM     14  O   UNL d   1      -1.890  -5.173   1.756  0.00  0.00    -0.240 OA
ATOM     15  HN  UNL d   1      -3.143  -5.299   0.017  1.00  0.00     0.195 HD
ATOM     16  C   UNL d   1      -0.807  -4.407   2.038  0.00  0.00     0.101 C 
ATOM     17  C   UNL d   1      -0.298  -4.492   3.419  0.00  0.00     0.081 C 
BRANCH  12  18
ATOM     18  C   UNL d   1      -1.930  -3.186  -1.190  0.00  0.00     0.038 A 
ATOM     19  C   UNL d   1      -2.230  -3.828  -2.403  0.00  0.00     0.048 A 
ATOM     20 CL   UNL d   1      -1.936  -5.515  -2.677  0.00  0.00    -0.083 Cl
ATOM     21  C   UNL d   1      -2.802  -3.117  -3.471  0.00  0.00     0.025 A 
ATOM     22  C   UNL d   1      -3.071  -1.756  -3.352  0.00  0.00     0.003 A 
ATOM     23  C   UNL d   1      -2.762  -1.099  -2.167  0.00  0.00     0.025 A 
ATOM     24  C   UNL d   1      -2.208  -1.804  -1.091  0.00  0.00     0.048 A 
ATOM     25 CL   UNL d   1      -1.982  -0.881   0.363  0.00  0.00    -0.083 Cl
ENDBRANCH  12  18
ENDBRANCH   1  11
BRANCH   4  26
ATOM     26  C   UNL d   1       5.302   1.451   0.049  0.00  0.00     0.044 A 
ATOM     27  C   UNL d   1       5.716   2.110   1.235  0.00  0.00     0.089 A 
ATOM     28  C   UNL d   1       6.541   3.242   1.189  0.00  0.00     0.038 A 
ATOM     29  C   UNL d   1       7.007   3.735  -0.027  0.00  0.00     0.003 A 
ATOM     30  C   UNL d   1       6.633   3.095  -1.204  0.00  0.00     0.002 A 
ATOM     31  C   UNL d   1       5.793   1.976  -1.163  0.00  0.00     0.026 A 
BRANCH  27  32
ATOM     32  O   UNL d   1       5.329   1.758   2.508  0.00  0.00    -0.354 OA
ATOM     33  C   UNL d   1       5.565   0.391   2.829  0.00  0.00     0.210 C 
ENDBRANCH  27  32
ENDBRANCH   4  26
TORSDOF 4
