REMARK  5 active torsions:
REMARK  status: ('A' for Active; 'I' for Inactive)
REMARK    1  A    between atoms: N_3  and  S_1 
REMARK    2  A    between atoms: C_9  and  S_1 
REMARK    3  A    between atoms: C_5  and  C_2 
REMARK       I    between atoms: C_6  and  N_3 
REMARK    4  A    between atoms: C_4  and  N_7 
REMARK       I    between atoms: N_10  and  C_6 
REMARK    5  A    between atoms: N_7  and  N_10 
ROOT
ATOM      1  N   UNL d   1       0.289   0.614  -1.403  0.00  0.00    -0.231 N 
ATOM      2  C   UNL d   1       0.788   1.795  -1.933  0.00  0.00     0.344 C 
ATOM      3  N   UNL d   1       1.625   2.560  -1.151  0.00  0.00    -0.268 N 
ATOM      4  O   UNL d   1       0.447   2.132  -3.062  0.00  0.00    -0.245 OA
ATOM      5  H   UNL d   1      -0.415   0.135  -1.957  0.00  0.00     0.183 HD
ATOM      6  H   UNL d   1       1.605   2.407  -0.141  0.00  0.00     0.186 HD
ENDROOT
BRANCH   3   7
ATOM      7  N   UNL d   1       1.847   3.904  -1.547  0.00  0.00    -0.199 NA
ATOM      8  H   UNL d   1       1.461   4.050  -2.494  0.00  0.00     0.153 HD
BRANCH   7   9
ATOM      9  C   UNL d   1       3.194   4.350  -1.405  0.00  0.00     0.064 A 
ATOM     10  C   UNL d   1       3.732   5.270  -2.342  0.00  0.00     0.073 A 
ATOM     11  C   UNL d   1       5.046   5.768  -2.177  0.00  0.00     0.042 A 
ATOM     12  C   UNL d   1       5.822   5.391  -1.091  0.00  0.00     0.036 A 
ATOM     13  C   UNL d   1       5.302   4.538  -0.134  0.00  0.00     0.049 A 
ATOM     14 CL   UNL d   1       7.412   6.016  -0.910  0.00  0.00    -0.084 Cl
ATOM     15  C   UNL d   1       3.998   4.045  -0.272  0.00  0.00     0.059 A 
ATOM     16 CL   UNL d   1       3.431   3.120   1.082  0.00  0.00    -0.082 Cl
BRANCH  10  17
ATOM     17  C   UNL d   1       2.976   5.792  -3.542  0.00  0.00     0.419 C 
ATOM     18  F   UNL d   1       1.734   5.258  -3.704  0.00  0.00    -0.166 F 
ATOM     19  F   UNL d   1       2.798   7.142  -3.487  0.00  0.00    -0.166 F 
ATOM     20  F   UNL d   1       3.636   5.553  -4.708  0.00  0.00    -0.166 F 
ENDBRANCH  10  17
ENDBRANCH   7   9
ENDBRANCH   3   7
BRANCH   1  21
ATOM     21  S   UNL d   1       0.667  -0.130   0.024  0.00  0.00     0.266 S 
ATOM     22  O   UNL d   1      -0.339  -1.143   0.256  0.00  0.00    -0.200 OA
ATOM     23  O   UNL d   1       0.954   0.903   0.994  0.00  0.00    -0.200 OA
BRANCH  21  24
ATOM     24  C   UNL d   1       2.179  -0.967  -0.378  0.00  0.00     0.080 A 
ATOM     25  C   UNL d   1       3.347  -0.703   0.339  0.00  0.00     0.026 A 
ATOM     26  C   UNL d   1       4.530  -1.355  -0.016  0.00  0.00     0.008 A 
ATOM     27  C   UNL d   1       4.550  -2.269  -1.080  0.00  0.00    -0.062 A 
ATOM     28  C   UNL d   1       3.363  -2.541  -1.773  0.00  0.00     0.008 A 
ATOM     29  C   UNL d   1       5.832  -2.952  -1.459  0.00  0.00     0.048 C 
ATOM     30  C   UNL d   1       2.177  -1.895  -1.423  0.00  0.00     0.026 A 
ENDBRANCH  21  24
ENDBRANCH   1  21
TORSDOF 5
