REMARK  2 active torsions:
REMARK  status: ('A' for Active; 'I' for Inactive)
REMARK       I    between atoms: C_9  and  N_11 
REMARK    1  A    between atoms: C_14  and  C_9 
REMARK    2  A    between atoms: N_11  and  C_10 
ROOT
ATOM      1  C   UNL d   1      -4.180  -4.167   2.267  0.00  0.00     0.069 A 
ATOM      2  S   UNL d   1      -4.021  -6.134   3.655  0.00  0.00     0.068 SA
ATOM      3  C   UNL d   1      -2.775  -4.692   2.178  0.00  0.00     0.067 A 
ATOM      4  C   UNL d   1      -4.574  -3.015   1.541  0.00  0.00     0.061 A 
ATOM      5  N   UNL d   1      -4.963  -4.893   3.080  0.00  0.00    -0.310 N 
ATOM      6  HN  UNL d   1      -5.943  -4.718   3.302  1.00  0.00     0.176 HD
ATOM      7  N   UNL d   1      -2.572  -5.796   2.913  0.00  0.00    -0.310 N 
ATOM      8  HN  UNL d   1      -1.703  -6.322   2.999  1.00  0.00     0.176 HD
ATOM      9  C   UNL d   1      -3.592  -2.399   0.742  0.00  0.00     0.037 A 
ATOM     10  C   UNL d   1      -1.811  -4.039   1.379  0.00  0.00     0.035 A 
ATOM     11  C   UNL d   1      -2.257  -2.894   0.686  0.00  0.00     0.032 A 
ENDROOT
BRANCH   9  12
ATOM     12  N   UNL d   1      -3.862  -1.257  -0.054  0.00  0.00    -0.323 N 
ATOM     13  C   UNL d   1      -5.107  -0.709  -0.320  0.00  0.00     0.256 C 
ATOM     14  O   UNL d   1      -6.179  -1.131   0.102  0.00  0.00    -0.267 OA
ATOM     15  H   UNL d   1      -3.057  -0.818  -0.475  0.00  0.00     0.169 HD
BRANCH  13  16
ATOM     16  C   UNL d   1      -5.133   0.505  -1.195  0.00  0.00     0.032 A 
ATOM     17  C   UNL d   1      -4.118   0.823  -2.110  0.00  0.00     0.023 A 
ATOM     18  C   UNL d   1      -4.207   1.985  -2.895  0.00  0.00    -0.061 A 
ATOM     19  C   UNL d   1      -3.128   2.342  -3.876  0.00  0.00     0.048 C 
ATOM     20  C   UNL d   1      -5.333   2.808  -2.780  0.00  0.00     0.007 A 
ATOM     21  C   UNL d   1      -6.357   2.486  -1.892  0.00  0.00     0.002 A 
ATOM     22  C   UNL d   1      -6.257   1.340  -1.104  0.00  0.00     0.017 A 
ENDBRANCH  13  16
ENDBRANCH   9  12
TORSDOF 2
