REMARK  2 active torsions:
REMARK  status: ('A' for Active; 'I' for Inactive)
REMARK    1  A    between atoms: N_14  and  N_6 
REMARK    2  A    between atoms: C_13  and  N_7 
ROOT
ATOM      1  C   UNL d   1      -0.165  -0.662   0.015  0.00  0.00     0.146 A 
ATOM      2  C   UNL d   1      -0.229   0.710  -0.017  0.00  0.00     0.096 A 
ATOM      3  N   UNL d   1       0.971  -1.408   0.026  0.00  0.00    -0.329 N 
ATOM      4  HN  UNL d   1       0.957  -2.427   0.065  1.00  0.00     0.168 HD
ATOM      5  C   UNL d   1       0.979   1.482  -0.027  0.00  0.00     0.279 A 
ATOM      6  N   UNL d   1       2.140   0.675  -0.043  0.00  0.00    -0.232 N 
ATOM      7  N   UNL d   1      -1.485  -1.117  -0.006  0.00  0.00    -0.239 N 
ATOM      8  C   UNL d   1       2.081  -0.723  -0.018  0.00  0.00     0.099 A 
ATOM      9  N   UNL d   1      -2.356  -0.056  -0.063  0.00  0.00    -0.302 N 
ATOM     10  HN  UNL d   1      -3.375  -0.091  -0.099  1.00  0.00     0.186 HD
ATOM     11  C   UNL d   1      -1.583   1.031  -0.061  0.00  0.00     0.128 A 
ATOM     12  O   UNL d   1       0.998   2.709  -0.021  0.00  0.00    -0.265 OA
ATOM     13  C   UNL d   1       3.372  -1.512  -0.032  0.00  0.00     0.091 C 
ENDROOT
BRANCH   7  14
ATOM     14  C   UNL d   1      -1.991  -2.453   0.016  0.00  0.00     0.058 A 
ATOM     15  C   UNL d   1      -1.151  -3.562   0.180  0.00  0.00     0.031 A 
ATOM     16  C   UNL d   1      -1.681  -4.856   0.195  0.00  0.00     0.002 A 
ATOM     17  C   UNL d   1      -3.051  -5.056   0.044  0.00  0.00     0.000 A 
ATOM     18  C   UNL d   1      -3.896  -3.962  -0.119  0.00  0.00     0.002 A 
ATOM     19  C   UNL d   1      -3.372  -2.666  -0.129  0.00  0.00     0.031 A 
ENDBRANCH   7  14
BRANCH   6  20
ATOM     20  N   UNL d   1       3.398   1.353  -0.127  0.00  0.00    -0.238 NA
ATOM     21  H   UNL d   1       3.838   1.294   0.792  0.00  0.00     0.143 HD
ATOM     22  H   UNL d   1       3.180   2.352  -0.243  0.00  0.00     0.143 HD
ENDBRANCH   6  20
TORSDOF 2
