REMARK  2 active torsions:
REMARK  status: ('A' for Active; 'I' for Inactive)
REMARK    1  A    between atoms: C_7  and  N_1 
REMARK    2  A    between atoms: N_10  and  N_4 
ROOT
ATOM      1  N   UNL d   1       0.713   1.129  -0.445  0.00  0.00    -0.308 N 
ATOM      2  C   UNL d   1       1.465   0.009  -0.058  0.00  0.00     0.244 C 
ATOM      3  C   UNL d   1      -1.445  -0.023   0.255  0.00  0.00     0.252 C 
ATOM      4  N   UNL d   1      -0.676  -1.141   0.579  0.00  0.00    -0.275 N 
ATOM      5  C   UNL d   1       0.653  -1.281   0.009  0.00  0.00     0.249 C 
ATOM      6  C   UNL d   1      -0.645   1.262   0.081  0.00  0.00     0.236 C 
ATOM      7  O   UNL d   1      -2.675  -0.023   0.329  0.00  0.00    -0.270 OA
ATOM      8  O   UNL d   1       2.694  -0.037   0.012  0.00  0.00    -0.271 OA
ENDROOT
BRANCH   1   9
ATOM      9  C   UNL d   1       1.327   2.269  -1.071  0.00  0.00     0.037 A 
ATOM     10  C   UNL d   1       2.488   2.122  -1.844  0.00  0.00     0.030 A 
ATOM     11  C   UNL d   1       3.042   3.200  -2.545  0.00  0.00     0.009 A 
ATOM     12  C   UNL d   1       2.449   4.462  -2.492  0.00  0.00    -0.062 A 
ATOM     13  C   UNL d   1       1.304   4.631  -1.713  0.00  0.00     0.009 A 
ATOM     14  C   UNL d   1       3.022   5.592  -3.293  0.00  0.00     0.048 C 
ATOM     15  C   UNL d   1       0.752   3.548  -1.012  0.00  0.00     0.030 A 
ENDBRANCH   1   9
BRANCH   4  16
ATOM     16  N   UNL d   1      -1.385  -2.363   0.805  0.00  0.00    -0.244 NA
ATOM     17  H   UNL d   1      -2.378  -2.173   0.602  0.00  0.00     0.143 HD
ATOM     18  H   UNL d   1      -1.369  -2.543   1.812  0.00  0.00     0.143 HD
ENDBRANCH   4  16
TORSDOF 2
