REMARK  4 active torsions:
REMARK  status: ('A' for Active; 'I' for Inactive)
REMARK    1  A    between atoms: C_12  and  N_4 
REMARK    2  A    between atoms: C_11  and  C_12 
REMARK       I    between atoms: N_21  and  C_11 
REMARK    3  A    between atoms: C_15  and  C_23 
REMARK    4  A    between atoms: N_16  and  N_21 
ROOT
ATOM      1  C   UNL d   1       0.630   0.620   0.257  0.00  0.00     0.073 C 
ATOM      2  C   UNL d   1       1.115  -0.593   0.708  0.00  0.00     0.091 C 
ATOM      3  C   UNL d   1       1.587   1.706   0.111  0.00  0.00     0.262 C 
ATOM      4  N   UNL d   1       2.896   1.353   0.427  0.00  0.00    -0.301 N 
ATOM      5  C   UNL d   1      -0.790   0.579   0.047  0.00  0.00    -0.026 C 
ATOM      6  N   UNL d   1       2.372  -0.853   1.145  0.00  0.00    -0.346 N 
ATOM      7  HN  UNL d   1       2.641  -1.746   1.558  1.00  0.00     0.167 HD
ATOM      8  C   UNL d   1      -1.265  -0.715   0.181  0.00  0.00    -0.008 C 
ATOM      9  S   UNL d   1      -0.068  -1.819   0.658  0.00  0.00    -0.075 SA
ATOM     10  C   UNL d   1       3.200   0.127   0.992  0.00  0.00     0.187 C 
ATOM     11  C   UNL d   1      -1.715   1.744  -0.180  0.00  0.00     0.041 C 
ATOM     12  C   UNL d   1      -2.698  -1.120   0.029  0.00  0.00     0.051 C 
ATOM     13  O   UNL d   1       1.279   2.828  -0.302  0.00  0.00    -0.267 OA
ATOM     14  C   UNL d   1      -3.188   1.320  -0.369  0.00  0.00     0.009 C 
ATOM     15  C   UNL d   1      -3.600   0.063   0.432  0.00  0.00    -0.014 C 
ATOM     16  C   UNL d   1      -3.560   0.292   1.949  0.00  0.00     0.010 C 
ENDROOT
BRANCH   4  17
ATOM     17  C   UNL d   1       3.982   2.224   0.016  0.00  0.00     0.237 C 
BRANCH  17  18
ATOM     18  C   UNL d   1       4.526   3.035   1.178  0.00  0.00     0.254 C 
ATOM     19  N   UNL d   1       4.093   4.353   1.206  0.00  0.00    -0.269 N 
ATOM     20  H   UNL d   1       3.378   4.694   0.568  0.00  0.00     0.190 HD
ATOM     21  O   UNL d   1       5.263   2.514   2.014  0.00  0.00    -0.270 OA
BRANCH  19  22
ATOM     22  N   UNL d   1       4.606   5.175   2.161  0.00  0.00    -0.308 N 
ATOM     23  C   UNL d   1       4.172   6.398   2.188  0.00  0.00     0.120 C 
ATOM     24  HN  UNL d   1       5.302   4.844   2.829  1.00  0.00     0.186 HD
BRANCH  23  25
ATOM     25  C   UNL d   1       4.696   7.353   3.196  0.00  0.00     0.003 A 
ATOM     26  C   UNL d   1       4.233   8.673   3.283  0.00  0.00     0.047 A 
ATOM     27  C   UNL d   1       4.769   9.542   4.242  0.00  0.00     0.048 A 
ATOM     28 CL   UNL d   1       3.005   9.303   2.246  0.00  0.00    -0.083 Cl
ATOM     29  C   UNL d   1       5.764   9.095   5.110  0.00  0.00     0.035 A 
ATOM     30  C   UNL d   1       6.228   7.785   5.036  0.00  0.00     0.025 A 
ATOM     31 CL   UNL d   1       6.425  10.169   6.280  0.00  0.00    -0.084 Cl
ATOM     32  C   UNL d   1       5.695   6.916   4.082  0.00  0.00     0.016 A 
ENDBRANCH  23  25
ENDBRANCH  19  22
ENDBRANCH  17  18
ENDBRANCH   4  17
TORSDOF 4
