REMARK  3 active torsions:
REMARK  status: ('A' for Active; 'I' for Inactive)
REMARK    1  A    between atoms: C_3  and  C_1 
REMARK    2  A    between atoms: C_2  and  C_4 
REMARK    3  A    between atoms: N_13  and  C_2 
ROOT
ATOM      1  C   UNL d   1       0.593   0.601  -1.240  0.00  0.00     0.048 A 
ATOM      2  C   UNL d   1      -0.248   1.872  -3.623  0.00  0.00     0.001 A 
ATOM      3  C   UNL d   1      -0.120  -0.110  -2.215  0.00  0.00     0.017 A 
ATOM      4  C   UNL d   1       0.874   1.957  -1.467  0.00  0.00     0.017 A 
ATOM      5  C   UNL d   1       0.462   2.586  -2.646  0.00  0.00     0.015 A 
ATOM      6  C   UNL d   1      -0.538   0.519  -3.393  0.00  0.00     0.015 A 
ENDROOT
BRANCH   2   7
ATOM      7  C   UNL d   1      -0.662   2.543  -4.889  0.00  0.00     0.104 C 
ATOM      8  S   UNL d   1      -0.789   1.802  -6.384  0.00  0.00    -0.060 SA
BRANCH   7   9
ATOM      9  N   UNL d   1      -0.960   3.880  -4.815  0.00  0.00    -0.390 N 
ATOM     10  H   UNL d   1      -1.018   4.399  -3.947  0.00  0.00     0.157 HD
ATOM     11  H   UNL d   1      -1.274   4.349  -5.657  0.00  0.00     0.157 HD
ENDBRANCH   7   9
ENDBRANCH   2   7
BRANCH   1  12
ATOM     12  C   UNL d   1       1.070  -0.069   0.027  0.00  0.00     0.417 C 
ATOM     13  F   UNL d   1       0.747  -1.390   0.102  0.00  0.00    -0.166 F 
ATOM     14  F   UNL d   1       0.547   0.507   1.145  0.00  0.00    -0.166 F 
ATOM     15  F   UNL d   1       2.422  -0.004   0.171  0.00  0.00    -0.166 F 
ENDBRANCH   1  12
TORSDOF 3
