REMARK  6 active torsions:
REMARK  status: ('A' for Active; 'I' for Inactive)
REMARK    1  A    between atoms: C_18  and  N_2 
REMARK    2  A    between atoms: C_17  and  C_3 
REMARK    3  A    between atoms: S_14  and  C_6 
REMARK    4  A    between atoms: C_10  and  C_16 
REMARK    5  A    between atoms: C_16  and  S_14 
REMARK    6  A    between atoms: C_19  and  C_18 
ROOT
ATOM      1  N   UNL d   1       0.708  -0.079   0.021  0.00  0.00    -0.315 N 
ATOM      2  C   UNL d   1      -0.101   1.038  -0.080  0.00  0.00     0.134 A 
ATOM      3  N   UNL d   1      -1.360   0.625  -0.070  0.00  0.00    -0.283 N 
ATOM      4  HN  UNL d   1      -2.181   1.230  -0.088  1.00  0.00     0.188 HD
ATOM      5  C   UNL d   1      -0.140  -1.156   0.004  0.00  0.00     0.163 A 
ATOM      6  N   UNL d   1      -1.383  -0.746  -0.032  0.00  0.00    -0.278 N 
ATOM      7  HN  UNL d   1      -2.215  -1.337  -0.032  1.00  0.00     0.189 HD
ATOM      8  C   UNL d   1       2.138  -0.130   0.184  0.00  0.00     0.160 C 
ENDROOT
BRANCH   5   9
ATOM      9  S   UNL d   1       0.393  -2.799   0.022  0.00  0.00    -0.085 SA
BRANCH   9  10
ATOM     10  C   UNL d   1      -1.194  -3.685   0.027  0.00  0.00     0.160 C 
BRANCH  10  11
ATOM     11  C   UNL d   1      -1.012  -5.188   0.053  0.00  0.00     0.110 A 
ATOM     12  N   UNL d   1      -2.080  -6.030   0.076  0.00  0.00    -0.307 N 
ATOM     13  C   UNL d   1      -1.543  -7.295   0.117  0.00  0.00     0.194 A 
ATOM     14  S   UNL d   1      -2.281  -8.777   0.182  0.00  0.00    -0.039 SA
ATOM     15  N   UNL d   1      -0.170  -7.124   0.098  0.00  0.00    -0.275 N 
ATOM     16  N   UNL d   1       0.142  -5.800   0.062  0.00  0.00    -0.286 N 
ATOM     17  H   UNL d   1       0.537  -7.849   0.124  0.00  0.00     0.189 HD
ATOM     18  HN  UNL d   1       1.071  -5.378   0.046  1.00  0.00     0.188 HD
BRANCH  12  19
ATOM     19  C   UNL d   1      -3.495  -5.686   0.092  0.00  0.00     0.159 C 
BRANCH  19  20
ATOM     20  C   UNL d   1      -4.118  -5.708  -1.277  0.00  0.00    -0.017 C 
ATOM     21  C   UNL d   1      -3.530  -5.916  -2.464  0.00  0.00     0.008 C 
ENDBRANCH  19  20
ENDBRANCH  12  19
ENDBRANCH  10  11
ENDBRANCH   9  10
ENDBRANCH   5   9
BRANCH   2  22
ATOM     22  C   UNL d   1       0.305   2.449  -0.142  0.00  0.00     0.009 A 
ATOM     23  C   UNL d   1       1.437   2.889  -0.842  0.00  0.00     0.015 A 
ATOM     24  C   UNL d   1       1.773   4.247  -0.879  0.00  0.00     0.001 A 
ATOM     25  C   UNL d   1       0.967   5.186  -0.239  0.00  0.00     0.000 A 
ATOM     26  C   UNL d   1      -0.178   4.770   0.432  0.00  0.00     0.001 A 
ATOM     27  C   UNL d   1      -0.506   3.412   0.478  0.00  0.00     0.015 A 
ENDBRANCH   2  22
TORSDOF 6
