REMARK  5 active torsions:
REMARK  status: ('A' for Active; 'I' for Inactive)
REMARK    1  A    between atoms: C_8  and  C_1 
REMARK    2  A    between atoms: N_26  and  C_2 
REMARK    3  A    between atoms: N_6  and  N_12 
REMARK    4  A    between atoms: C_18  and  N_7 
REMARK       I    between atoms: N_12  and  C_8 
REMARK    5  A    between atoms: C_14  and  C_19 
ROOT
ATOM      1  C   UNL d   1       4.916  -0.571   1.226  0.00  0.00     0.279 C 
ATOM      2  N   UNL d   1       4.637  -1.196   0.013  0.00  0.00    -0.260 N 
ATOM      3  O   UNL d   1       4.705  -1.127   2.306  0.00  0.00    -0.265 OA
ATOM      4  H   UNL d   1       4.619  -0.651  -0.846  0.00  0.00     0.190 HD
ENDROOT
BRANCH   2   5
ATOM      5  N   UNL d   1       4.152  -2.531  -0.098  0.00  0.00    -0.248 N 
ATOM      6  C   UNL d   1       3.121  -2.775  -0.998  0.00  0.00     0.257 C 
ATOM      7  C   UNL d   1       2.471  -4.135  -0.770  0.00  0.00     0.236 C 
ATOM      8  O   UNL d   1       2.710  -1.951  -1.808  0.00  0.00    -0.270 OA
ATOM      9  N   UNL d   1       3.497  -5.162  -0.527  0.00  0.00    -0.308 N 
ATOM     10  C   UNL d   1       4.412  -4.900   0.514  0.00  0.00     0.244 C 
ATOM     11  C   UNL d   1       4.406  -3.450   1.005  0.00  0.00     0.255 C 
ATOM     12  O   UNL d   1       5.142  -5.723   1.071  0.00  0.00    -0.271 OA
BRANCH   9  13
ATOM     13  C   UNL d   1       3.420  -6.426  -1.210  0.00  0.00     0.038 A 
ATOM     14  C   UNL d   1       3.962  -7.605  -0.671  0.00  0.00     0.046 A 
ATOM     15  C   UNL d   1       3.907  -8.836  -1.353  0.00  0.00     0.050 A 
ATOM     16  C   UNL d   1       3.296  -8.889  -2.610  0.00  0.00     0.016 A 
ATOM     17  C   UNL d   1       2.756  -7.737  -3.167  0.00  0.00     0.003 A 
ATOM     18  C   UNL d   1       2.821  -6.522  -2.476  0.00  0.00     0.030 A 
BRANCH  15  19
ATOM     19  C   UNL d   1       4.490 -10.090  -0.747  0.00  0.00     0.417 C 
ATOM     20  F   UNL d   1       5.056  -9.904   0.477  0.00  0.00    -0.166 F 
ATOM     21  F   UNL d   1       3.551 -11.063  -0.577  0.00  0.00    -0.166 F 
ATOM     22  F   UNL d   1       5.460 -10.643  -1.528  0.00  0.00    -0.166 F 
ENDBRANCH  15  19
ENDBRANCH   9  13
ENDBRANCH   2   5
BRANCH   1  23
ATOM     23  C   UNL d   1       5.527   0.756   1.154  0.00  0.00     0.103 A 
ATOM     24  C   UNL d   1       5.993   1.524   2.217  0.00  0.00     0.062 A 
ATOM     25  C   UNL d   1       6.675   2.730   1.805  0.00  0.00     0.032 A 
ATOM     26  C   UNL d   1       7.340   3.801   2.481  0.00  0.00    -0.045 A 
ATOM     27  C   UNL d   1       6.680   2.793   0.413  0.00  0.00     0.088 A 
ATOM     28  C   UNL d   1       8.011   4.745   1.676  0.00  0.00     0.032 A 
ATOM     29  C   UNL d   1       7.399   4.045   3.966  0.00  0.00     0.049 C 
ATOM     30  C   UNL d   1       7.977   4.649   0.292  0.00  0.00     0.006 A 
ATOM     31  N   UNL d   1       7.284   3.709  -0.369  0.00  0.00    -0.354 N 
ATOM     32  C   UNL d   1       8.733   5.643  -0.541  0.00  0.00     0.068 C 
ATOM     33  HN  UNL d   1       7.219   3.689  -1.387  1.00  0.00     0.166 HD
ATOM     34  S   UNL d   1       5.809   1.536  -0.334  0.00  0.00    -0.064 SA
BRANCH  24  35
ATOM     35  N   UNL d   1       5.841   1.104   3.492  0.00  0.00    -0.397 N 
ATOM     36  H   UNL d   1       5.427   0.189   3.696  0.00  0.00     0.156 HD
ATOM     37  H   UNL d   1       6.205   1.565   4.313  0.00  0.00     0.156 HD
ENDBRANCH  24  35
ENDBRANCH   1  23
TORSDOF 5
