REMARK  5 active torsions:
REMARK  status: ('A' for Active; 'I' for Inactive)
REMARK    1  A    between atoms: S_2  and  C_1 
REMARK    2  A    between atoms: N_5  and  C_1 
REMARK    3  A    between atoms: C_3  and  S_2 
REMARK    4  A    between atoms: C_13  and  N_5 
REMARK    5  A    between atoms: C_15  and  C_8 
ROOT
ATOM      1  C   UNL d   1       1.214  -0.604  -0.574  0.00  0.00     0.144 C 
ATOM      2  S   UNL d   1       1.197  -0.457  -2.239  0.00  0.00    -0.052 SA
ENDROOT
BRANCH   1   3
ATOM      3  S   UNL d   1       2.698  -0.366   0.336  0.00  0.00    -0.058 SA
BRANCH   3   4
ATOM      4  C   UNL d   1       2.571   1.257   1.078  0.00  0.00     0.046 A 
ATOM      5  C   UNL d   1       1.401   2.016   1.231  0.00  0.00     0.136 A 
ATOM      6  C   UNL d   1       1.401   3.229   1.917  0.00  0.00     0.086 A 
ATOM      7  F   UNL d   1       0.228   1.597   0.738  0.00  0.00    -0.205 F 
ATOM      8  C   UNL d   1       2.586   3.709   2.452  0.00  0.00     0.119 A 
ATOM      9  C   UNL d   1       3.771   2.998   2.294  0.00  0.00     0.044 A 
ATOM     10  F   UNL d   1       2.589   4.858   3.134  0.00  0.00    -0.206 F 
ATOM     11  C   UNL d   1       3.761   1.782   1.611  0.00  0.00     0.025 A 
ENDBRANCH   3   4
ENDBRANCH   1   3
BRANCH   1  12
ATOM     12  N   UNL d   1       0.239  -1.097   0.261  0.00  0.00    -0.342 N 
ATOM     13  H   UNL d   1       0.584  -1.388   1.168  0.00  0.00     0.167 HD
BRANCH  12  14
ATOM     14  C   UNL d   1      -1.155  -1.202   0.081  0.00  0.00     0.033 A 
ATOM     15  C   UNL d   1      -1.848  -2.067   0.931  0.00  0.00     0.030 A 
ATOM     16  C   UNL d   1      -3.240  -2.175   0.858  0.00  0.00     0.010 A 
ATOM     17  C   UNL d   1      -3.973  -1.390  -0.042  0.00  0.00    -0.055 A 
ATOM     18  C   UNL d   1      -3.273  -0.521  -0.888  0.00  0.00     0.010 A 
ATOM     19  C   UNL d   1      -1.879  -0.430  -0.827  0.00  0.00     0.030 A 
BRANCH  17  20
ATOM     20  C   UNL d   1      -5.489  -1.430  -0.088  0.00  0.00     0.010 C 
ATOM     21  C   UNL d   1      -6.008  -2.801  -0.525  0.00  0.00     0.015 C 
ATOM     22  C   UNL d   1      -6.093  -1.017   1.257  0.00  0.00     0.015 C 
ENDBRANCH  17  20
ENDBRANCH  12  14
ENDBRANCH   1  12
TORSDOF 5
