REMARK  2 active torsions:
REMARK  status: ('A' for Active; 'I' for Inactive)
REMARK       I    between atoms: C_3  and  N_1 
REMARK    1  A    between atoms: C_6  and  C_3 
REMARK    2  A    between atoms: C_12  and  C_4 
ROOT
ATOM      1  N   UNL d   1      -2.499   0.337  -0.385  0.00  0.00    -0.334 N 
ATOM      2  C   UNL d   1      -0.177   0.815   0.136  0.00  0.00    -0.017 A 
ATOM      3  C   UNL d   1      -3.569   0.597  -1.255  0.00  0.00     0.261 C 
ATOM      4  C   UNL d   1      -1.592   1.342   0.196  0.00  0.00     0.155 C 
ATOM      5  C   UNL d   1       0.109  -0.529  -0.029  0.00  0.00    -0.007 A 
ATOM      6  C   UNL d   1      -2.325  -1.044   0.105  0.00  0.00     0.132 C 
ATOM      7  S   UNL d   1       1.775  -0.854  -0.085  0.00  0.00    -0.106 SA
ATOM      8  C   UNL d   1      -0.923  -1.601  -0.199  0.00  0.00     0.067 C 
ATOM      9  C   UNL d   1       1.026   1.592   0.167  0.00  0.00     0.018 A 
ATOM     10  C   UNL d   1       2.155   0.808   0.062  0.00  0.00     0.051 A 
ATOM     11  O   UNL d   1      -4.333  -0.315  -1.564  0.00  0.00    -0.267 OA
ENDROOT
BRANCH   3  12
ATOM     12  C   UNL d   1      -3.771   1.948  -1.783  0.00  0.00     0.072 A 
ATOM     13  S   UNL d   1      -5.391   2.514  -1.936  0.00  0.00    -0.097 SA
ATOM     14  C   UNL d   1      -4.886   4.033  -2.529  0.00  0.00     0.050 A 
ATOM     15  C   UNL d   1      -3.518   4.113  -2.639  0.00  0.00     0.009 A 
ATOM     16  C   UNL d   1      -2.885   2.886  -2.285  0.00  0.00     0.025 A 
ENDBRANCH   3  12
BRANCH   4  17
ATOM     17  C   UNL d   1      -1.936   1.706   1.638  0.00  0.00    -0.031 A 
ATOM     18  C   UNL d   1      -2.864   2.746   1.851  0.00  0.00     0.011 A 
ATOM     19  C   UNL d   1      -3.244   3.123   3.142  0.00  0.00     0.024 A 
ATOM     20  C   UNL d   1      -2.709   2.460   4.242  0.00  0.00     0.034 A 
ATOM     21  C   UNL d   1      -1.796   1.426   4.060  0.00  0.00     0.024 A 
ATOM     22 CL   UNL d   1      -3.183   2.915   5.830  0.00  0.00    -0.084 Cl
ATOM     23  C   UNL d   1      -1.415   1.050   2.768  0.00  0.00     0.011 A 
ENDBRANCH   4  17
TORSDOF 2
