REMARK  5 active torsions:
REMARK  status: ('A' for Active; 'I' for Inactive)
REMARK    1  A    between atoms: C_13  and  N_3 
REMARK    2  A    between atoms: C_14  and  N_4 
REMARK    3  A    between atoms: C_10  and  C_9 
REMARK    4  A    between atoms: N_11  and  C_15 
REMARK    5  A    between atoms: O_35  and  C_31 
ROOT
ATOM      1  C   UNL d   1       0.046   0.691  -0.256  0.00  0.00     0.220 C 
ATOM      2  C   UNL d   1       0.118  -0.723   0.292  0.00  0.00     0.165 C 
ATOM      3  N   UNL d   1      -1.193   1.117   0.368  0.00  0.00    -0.277 N 
ATOM      4  N   UNL d   1       2.172  -0.054  -0.390  0.00  0.00    -0.250 N 
ATOM      5  C   UNL d   1       1.452   1.062   0.064  0.00  0.00     0.257 C 
ATOM      6  C   UNL d   1       1.325  -1.164  -0.423  0.00  0.00     0.243 C 
ATOM      7  N   UNL d   1      -2.067   0.021   0.256  0.00  0.00    -0.300 N 
ATOM      8  HN  UNL d   1      -3.086   0.047   0.281  1.00  0.00     0.187 HD
ATOM      9  C   UNL d   1      -1.313  -1.038   0.111  0.00  0.00     0.053 C 
ATOM     10  O   UNL d   1       1.864   2.087   0.575  0.00  0.00    -0.270 OA
ATOM     11  O   UNL d   1       1.491  -2.286  -0.868  0.00  0.00    -0.272 OA
ENDROOT
BRANCH   3  12
ATOM     12  C   UNL d   1      -1.726   2.402   0.180  0.00  0.00     0.052 A 
ATOM     13  C   UNL d   1      -3.119   2.607   0.139  0.00  0.00     0.033 A 
ATOM     14  C   UNL d   1      -3.684   3.888   0.069  0.00  0.00     0.038 A 
ATOM     15  C   UNL d   1      -2.848   5.006   0.053  0.00  0.00     0.103 A 
ATOM     16  C   UNL d   1      -1.463   4.841   0.064  0.00  0.00     0.038 A 
ATOM     17  C   UNL d   1      -0.920   3.550   0.122  0.00  0.00     0.033 A 
BRANCH  15  18
ATOM     18  N   UNL d   1      -3.421   6.356   0.059  0.00  0.00    -0.116 N 
ATOM     19  O   UNL d   1      -2.638   7.315   0.091  0.00  0.00    -0.532 OA
ATOM     20  O   UNL d   1      -4.657   6.459   0.039  0.00  0.00    -0.532 OA
ENDBRANCH  15  18
ENDBRANCH   3  12
BRANCH   9  21
ATOM     21  C   UNL d   1      -1.817  -2.416  -0.027  0.00  0.00     0.011 A 
ATOM     22  C   UNL d   1      -2.900  -2.741  -0.855  0.00  0.00     0.048 A 
ATOM     23  C   UNL d   1      -3.382  -4.056  -0.896  0.00  0.00     0.048 A 
ATOM     24 CL   UNL d   1      -3.655  -1.595  -1.904  0.00  0.00    -0.083 Cl
ATOM     25  C   UNL d   1      -2.780  -5.041  -0.117  0.00  0.00     0.035 A 
ATOM     26  C   UNL d   1      -1.694  -4.732   0.697  0.00  0.00     0.025 A 
ATOM     27 CL   UNL d   1      -3.383  -6.652  -0.157  0.00  0.00    -0.084 Cl
ATOM     28  C   UNL d   1      -1.211  -3.421   0.744  0.00  0.00     0.017 A 
ENDBRANCH   9  21
BRANCH   4  29
ATOM     29  C   UNL d   1       3.524  -0.013  -0.832  0.00  0.00     0.045 A 
ATOM     30  C   UNL d   1       4.194   1.211  -0.992  0.00  0.00     0.033 A 
ATOM     31  C   UNL d   1       5.482   1.280  -1.536  0.00  0.00     0.039 A 
ATOM     32  C   UNL d   1       6.136   0.120  -1.931  0.00  0.00     0.068 A 
ATOM     33  C   UNL d   1       5.513  -1.108  -1.726  0.00  0.00     0.039 A 
ATOM     34  C   UNL d   1       4.219  -1.176  -1.190  0.00  0.00     0.033 A 
BRANCH  32  35
ATOM     35  O   UNL d   1       7.380   0.070  -2.494  0.00  0.00    -0.356 OA
ATOM     36  C   UNL d   1       7.761   1.228  -3.234  0.00  0.00     0.210 C 
ENDBRANCH  32  35
ENDBRANCH   4  29
TORSDOF 5
