REMARK  11 active torsions:
REMARK  status: ('A' for Active; 'I' for Inactive)
REMARK    1  A    between atoms: C_4  and  S_1 
REMARK    2  A    between atoms: N_5  and  S_1 
REMARK    3  A    between atoms: C_2  and  N_9 
REMARK    4  A    between atoms: C_3  and  C_10 
REMARK       I    between atoms: N_6  and  C_3 
REMARK    5  A    between atoms: C_21  and  N_5 
REMARK    6  A    between atoms: C_22  and  N_5 
REMARK    7  A    between atoms: N_9  and  N_6 
REMARK    8  A    between atoms: C_20  and  N_17 
REMARK    9  A    between atoms: C_18  and  C_20 
REMARK   10  A    between atoms: C_24  and  C_21 
REMARK   11  A    between atoms: C_23  and  C_22 
ROOT
ATOM      1  C   UNL d   1       0.682   1.633   0.140  0.00  0.00     0.074 A 
ATOM      2  C   UNL d   1      -0.168   4.291   0.425  0.00  0.00     0.033 A 
ATOM      3  C   UNL d   1      -0.625   1.905   0.553  0.00  0.00     0.026 A 
ATOM      4  C   UNL d   1       1.578   2.678  -0.089  0.00  0.00     0.026 A 
ATOM      5  C   UNL d   1       1.149   4.004   0.031  0.00  0.00     0.018 A 
ATOM      6  C   UNL d   1      -1.047   3.233   0.693  0.00  0.00     0.018 A 
ENDROOT
BRANCH   2   7
ATOM      7  C   UNL d   1      -0.697   5.687   0.486  0.00  0.00     0.270 C 
ATOM      8  N   UNL d   1       0.231   6.707   0.536  0.00  0.00    -0.264 N 
ATOM      9  H   UNL d   1       1.234   6.574   0.611  0.00  0.00     0.190 HD
ATOM     10  O   UNL d   1      -1.908   5.899   0.454  0.00  0.00    -0.266 OA
BRANCH   8  11
ATOM     11  N   UNL d   1      -0.194   7.998   0.207  0.00  0.00    -0.274 N 
ATOM     12  H   UNL d   1      -1.203   8.102   0.096  0.00  0.00     0.189 HD
BRANCH  11  13
ATOM     13  C   UNL d   1       0.583   9.095   0.476  0.00  0.00     0.186 C 
ATOM     14  S   UNL d   1       2.020   9.075   1.330  0.00  0.00    -0.040 SA
ATOM     15  N   UNL d   1       0.168  10.272  -0.074  0.00  0.00    -0.363 N 
ATOM     16  H   UNL d   1       0.743  11.073   0.159  0.00  0.00     0.162 HD
BRANCH  15  17
ATOM     17  C   UNL d   1      -0.751  10.407  -1.185  0.00  0.00     0.148 C 
BRANCH  17  18
ATOM     18  C   UNL d   1      -0.363  11.628  -1.957  0.00  0.00    -0.018 C 
ATOM     19  C   UNL d   1      -1.184  12.651  -2.228  0.00  0.00     0.008 C 
ENDBRANCH  17  18
ENDBRANCH  15  17
ENDBRANCH  11  13
ENDBRANCH   8  11
ENDBRANCH   2   7
BRANCH   1  20
ATOM     20  S   UNL d   1       1.234  -0.060   0.016  0.00  0.00     0.243 S 
ATOM     21  O   UNL d   1       0.244  -0.874   0.683  0.00  0.00    -0.206 OA
ATOM     22  O   UNL d   1       2.623  -0.092   0.435  0.00  0.00    -0.206 OA
BRANCH  20  23
ATOM     23  N   UNL d   1       1.174  -0.353  -1.701  0.00  0.00    -0.206 NA
BRANCH  23  24
ATOM     24  C   UNL d   1       2.474   0.001  -2.374  0.00  0.00     0.107 C 
BRANCH  24  25
ATOM     25  C   UNL d   1       2.449   0.011  -3.903  0.00  0.00     0.011 C 
ATOM     26  C   UNL d   1       1.449   0.981  -4.504  0.00  0.00     0.006 C 
ENDBRANCH  24  25
ENDBRANCH  23  24
BRANCH  23  27
ATOM     27  C   UNL d   1       0.659  -1.710  -2.067  0.00  0.00     0.107 C 
BRANCH  27  28
ATOM     28  C   UNL d   1      -0.866  -1.824  -1.968  0.00  0.00     0.011 C 
ATOM     29  C   UNL d   1      -1.629  -0.733  -2.702  0.00  0.00     0.006 C 
ENDBRANCH  27  28
ENDBRANCH  23  27
ENDBRANCH  20  23
ENDBRANCH   1  20
TORSDOF 11
