REMARK  8 active torsions:
REMARK  status: ('A' for Active; 'I' for Inactive)
REMARK    1  A    between atoms: C_12  and  C_1 
REMARK    2  A    between atoms: C_2  and  N_11 
REMARK    3  A    between atoms: N_6  and  C_2 
REMARK    4  A    between atoms: C_3  and  C_8 
REMARK    5  A    between atoms: O_19  and  C_3 
REMARK    6  A    between atoms: N_11  and  N_4 
REMARK    7  A    between atoms: C_16  and  N_6 
REMARK    8  A    between atoms: C_25  and  O_19 
ROOT
ATOM      1  C   UNL d   1      -4.456   5.074  -0.692  0.00  0.00     0.191 C 
ATOM      2  S   UNL d   1      -6.117   5.136  -0.522  0.00  0.00    -0.039 SA
ENDROOT
BRANCH   1   3
ATOM      3  N   UNL d   1      -3.828   6.098  -1.372  0.00  0.00    -0.276 N 
ATOM      4  H   UNL d   1      -4.434   6.793  -1.800  0.00  0.00     0.189 HD
BRANCH   3   5
ATOM      5  N   UNL d   1      -2.547   5.941  -1.820  0.00  0.00    -0.309 N 
ATOM      6  C   UNL d   1      -2.186   6.779  -2.739  0.00  0.00     0.122 C 
ATOM      7  HN  UNL d   1      -1.924   5.219  -1.459  1.00  0.00     0.186 HD
BRANCH   6   8
ATOM      8  C   UNL d   1      -0.864   6.676  -3.381  0.00  0.00     0.024 A 
ATOM      9  C   UNL d   1      -0.381   5.450  -3.863  0.00  0.00     0.047 A 
ATOM     10 CL   UNL d   1      -1.332   4.005  -3.898  0.00  0.00    -0.083 Cl
ATOM     11  C   UNL d   1       0.902   5.371  -4.416  0.00  0.00     0.025 A 
ATOM     12  C   UNL d   1       1.701   6.510  -4.504  0.00  0.00     0.003 A 
ATOM     13  C   UNL d   1       1.208   7.737  -4.065  0.00  0.00     0.025 A 
ATOM     14  C   UNL d   1      -0.074   7.825  -3.512  0.00  0.00     0.047 A 
ATOM     15 CL   UNL d   1      -0.610   9.384  -2.989  0.00  0.00    -0.083 Cl
ENDBRANCH   6   8
ENDBRANCH   3   5
ENDBRANCH   1   3
BRANCH   1  16
ATOM     16  N   UNL d   1      -3.591   4.124  -0.198  0.00  0.00    -0.332 N 
ATOM     17  H   UNL d   1      -2.654   4.483  -0.060  0.00  0.00     0.168 HD
BRANCH  16  18
ATOM     18  C   UNL d   1      -3.807   2.759   0.050  0.00  0.00     0.034 A 
ATOM     19  C   UNL d   1      -4.726   2.010  -0.688  0.00  0.00     0.030 A 
ATOM     20  C   UNL d   1      -4.828   0.631  -0.498  0.00  0.00     0.020 A 
ATOM     21  C   UNL d   1      -4.026  -0.016   0.450  0.00  0.00     0.039 A 
ATOM     22  C   UNL d   1      -3.112   0.736   1.200  0.00  0.00     0.020 A 
ATOM     23  C   UNL d   1      -2.988   2.114   0.982  0.00  0.00     0.030 A 
BRANCH  21  24
ATOM     24  C   UNL d   1      -4.187  -1.486   0.600  0.00  0.00     0.293 C 
ATOM     25  O   UNL d   1      -4.970  -2.146  -0.061  0.00  0.00    -0.259 OA
BRANCH  24  26
ATOM     26  O   UNL d   1      -3.370  -1.960   1.574  0.00  0.00    -0.318 OA
BRANCH  26  27
ATOM     27  C   UNL d   1      -3.523  -3.357   1.871  0.00  0.00     0.174 C 
ATOM     28  C   UNL d   1      -4.623  -3.533   2.901  0.00  0.00     0.034 C 
ENDBRANCH  26  27
ENDBRANCH  24  26
ENDBRANCH  21  24
ENDBRANCH  16  18
ENDBRANCH   1  16
TORSDOF 8
