REMARK  6 active torsions:
REMARK  status: ('A' for Active; 'I' for Inactive)
REMARK    1  A    between atoms: C_17  and  N_1 
REMARK    2  A    between atoms: S_10  and  C_2 
REMARK    3  A    between atoms: C_19  and  C_3 
REMARK    4  A    between atoms: C_11  and  S_10 
REMARK    5  A    between atoms: N_21  and  C_12 
REMARK    6  A    between atoms: C_25  and  C_17 
ROOT
ATOM      1  N   UNL d   1       2.750   0.726  -3.168  0.00  0.00    -0.326 N 
ATOM      2  HN  UNL d   1       1.777   0.615  -3.454  1.00  0.00     0.169 HD
ATOM      3  C   UNL d   1       3.255   0.042  -2.123  0.00  0.00     0.153 A 
ATOM      4  C   UNL d   1       3.579   1.563  -3.822  0.00  0.00     0.102 A 
ATOM      5  C   UNL d   1       4.912   1.703  -3.487  0.00  0.00     0.098 A 
ATOM      6  N   UNL d   1       4.544   0.097  -1.738  0.00  0.00    -0.345 N 
ATOM      7  HN  UNL d   1       4.898  -0.466  -0.964  1.00  0.00     0.167 HD
ATOM      8  C   UNL d   1       5.821   2.553  -4.187  0.00  0.00     0.104 C 
ATOM      9  N   UNL d   1       6.585   3.206  -4.762  0.00  0.00    -0.191 NA
ATOM     10  C   UNL d   1       5.343   0.937  -2.427  0.00  0.00     0.116 A 
ENDROOT
BRANCH   4  11
ATOM     11  N   UNL d   1       2.986   2.306  -4.845  0.00  0.00    -0.287 NA
ATOM     12  H   UNL d   1       2.009   2.030  -4.915  0.00  0.00     0.125 HD
ATOM     13  H   UNL d   1       3.465   2.243  -5.736  0.00  0.00     0.125 HD
ENDBRANCH   4  11
BRANCH   3  14
ATOM     14  S   UNL d   1       2.279  -1.233  -1.359  0.00  0.00    -0.016 SA
BRANCH  14  15
ATOM     15  C   UNL d   1       0.858  -0.367  -0.888  0.00  0.00     0.171 C 
ATOM     16  N   UNL d   1      -0.320  -0.985  -0.523  0.00  0.00    -0.306 N 
ATOM     17  C   UNL d   1      -1.238   0.041  -0.326  0.00  0.00     0.135 C 
ATOM     18  N   UNL d   1      -0.575   1.185  -0.414  0.00  0.00    -0.283 N 
ATOM     19  N   UNL d   1       0.723   0.930  -0.773  0.00  0.00    -0.278 N 
ATOM     20  HN  UNL d   1      -0.969   2.110  -0.241  1.00  0.00     0.188 HD
ATOM     21  HN  UNL d   1       1.453   1.627  -0.925  1.00  0.00     0.189 HD
BRANCH  16  22
ATOM     22  C   UNL d   1      -0.487  -2.401  -0.216  0.00  0.00     0.171 C 
BRANCH  22  23
ATOM     23  C   UNL d   1      -1.237  -3.182  -1.270  0.00  0.00    -0.040 A 
ATOM     24  C   UNL d   1      -1.137  -2.893  -2.641  0.00  0.00     0.009 A 
ATOM     25  C   UNL d   1      -1.988  -3.515  -3.556  0.00  0.00     0.001 A 
ATOM     26  C   UNL d   1      -2.915  -4.461  -3.123  0.00  0.00     0.000 A 
ATOM     27  C   UNL d   1      -2.965  -4.819  -1.778  0.00  0.00     0.001 A 
ATOM     28  C   UNL d   1      -2.122  -4.194  -0.858  0.00  0.00     0.009 A 
ENDBRANCH  22  23
ENDBRANCH  16  22
BRANCH  17  29
ATOM     29  C   UNL d   1      -2.685  -0.034  -0.052  0.00  0.00     0.010 A 
ATOM     30  C   UNL d   1      -3.283   0.938   0.767  0.00  0.00     0.017 A 
ATOM     31  C   UNL d   1      -4.670   0.962   0.977  0.00  0.00     0.025 A 
ATOM     32  C   UNL d   1      -5.481   0.003   0.379  0.00  0.00     0.034 A 
ATOM     33  C   UNL d   1      -4.918  -0.961  -0.444  0.00  0.00     0.025 A 
ATOM     34 CL   UNL d   1      -7.184   0.032   0.617  0.00  0.00    -0.084 Cl
ATOM     35  C   UNL d   1      -3.537  -0.954  -0.675  0.00  0.00     0.017 A 
ENDBRANCH  17  29
ENDBRANCH  14  15
ENDBRANCH   3  14
TORSDOF 6
