REMARK  7 active torsions:
REMARK  status: ('A' for Active; 'I' for Inactive)
REMARK    1  A    between atoms: N_10  and  C_3 
REMARK    2  A    between atoms: C_8  and  C_7 
REMARK    3  A    between atoms: C_13  and  C_7 
REMARK    4  A    between atoms: C_11  and  C_9 
REMARK    5  A    between atoms: C_16  and  C_9 
REMARK    6  A    between atoms: C_12  and  C_11 
REMARK    7  A    between atoms: C_15  and  C_12 
ROOT
ATOM      1  N   UNL d   1      -0.149   1.538  -0.121  0.00  0.00    -0.303 N 
ATOM      2  HN  UNL d   1      -0.639   2.432  -0.078  1.00  0.00     0.171 HD
ATOM      3  C   UNL d   1       1.129   1.425   0.037  0.00  0.00     0.150 C 
ATOM      4  C   UNL d   1       0.125  -0.830  -0.119  0.00  0.00     0.087 C 
ATOM      5  S   UNL d   1       1.747  -0.214  -0.072  0.00  0.00    -0.048 SA
ATOM      6  C   UNL d   1      -0.784   0.344  -0.353  0.00  0.00     0.265 C 
ATOM      7  C   UNL d   1      -0.276  -2.114   0.048  0.00  0.00    -0.003 C 
ATOM      8  O   UNL d   1      -1.942   0.260  -0.735  0.00  0.00    -0.267 OA
ENDROOT
BRANCH   7   9
ATOM      9  C   UNL d   1      -1.716  -2.449   0.036  0.00  0.00     0.022 C 
ATOM     10  C   UNL d   1      -2.487  -2.991   1.017  0.00  0.00    -0.040 C 
BRANCH  10  11
ATOM     11  C   UNL d   1      -1.902  -3.490   2.319  0.00  0.00     0.123 C 
BRANCH  11  12
ATOM     12  C   UNL d   1      -1.955  -2.763   3.669  0.00  0.00     0.163 C 
ATOM     13  O   UNL d   1      -1.409  -3.326   4.630  0.00  0.00    -0.292 OA
BRANCH  12  14
ATOM     14  C   UNL d   1      -2.628  -1.453   3.950  0.00  0.00     0.010 A 
ATOM     15  C   UNL d   1      -3.161  -0.588   2.997  0.00  0.00     0.015 A 
ATOM     16  C   UNL d   1      -3.842   0.575   3.391  0.00  0.00     0.007 A 
ATOM     17  C   UNL d   1      -3.982   0.907   4.742  0.00  0.00    -0.062 A 
ATOM     18  C   UNL d   1      -3.394   0.082   5.699  0.00  0.00     0.007 A 
ATOM     19  C   UNL d   1      -4.773   2.114   5.148  0.00  0.00     0.048 C 
ATOM     20  C   UNL d   1      -2.729  -1.082   5.306  0.00  0.00     0.015 A 
ENDBRANCH  12  14
ENDBRANCH  11  12
ENDBRANCH  10  11
BRANCH  10  21
ATOM     21  C   UNL d   1      -3.980  -3.184   0.836  0.00  0.00    -0.029 A 
ATOM     22  C   UNL d   1      -4.664  -2.796  -0.333  0.00  0.00     0.012 A 
ATOM     23  C   UNL d   1      -6.048  -2.960  -0.473  0.00  0.00     0.001 A 
ATOM     24  C   UNL d   1      -6.796  -3.514   0.562  0.00  0.00     0.000 A 
ATOM     25  C   UNL d   1      -6.164  -3.901   1.729  0.00  0.00     0.001 A 
ATOM     26  C   UNL d   1      -4.778  -3.738   1.863  0.00  0.00     0.012 A 
ENDBRANCH  10  21
ENDBRANCH   7   9
BRANCH   7  27
ATOM     27  C   UNL d   1       0.741  -3.200   0.128  0.00  0.00    -0.024 A 
ATOM     28  C   UNL d   1       1.437  -3.479   1.312  0.00  0.00     0.013 A 
ATOM     29  C   UNL d   1       2.268  -4.600   1.399  0.00  0.00     0.007 A 
ATOM     30  C   UNL d   1       2.461  -5.429   0.289  0.00  0.00    -0.062 A 
ATOM     31  C   UNL d   1       1.822  -5.112  -0.914  0.00  0.00     0.007 A 
ATOM     32  C   UNL d   1       3.306  -6.662   0.414  0.00  0.00     0.048 C 
ATOM     33  C   UNL d   1       0.963  -4.011  -0.992  0.00  0.00     0.013 A 
ENDBRANCH   7  27
BRANCH   3  34
ATOM     34  N   UNL d   1       1.964   2.470   0.362  0.00  0.00    -0.357 N 
ATOM     35  C   UNL d   1       3.271   2.658  -0.296  0.00  0.00     0.151 C 
ATOM     36  C   UNL d   1       4.170   3.573   0.553  0.00  0.00     0.187 C 
ATOM     37  O   UNL d   1       3.532   4.825   0.847  0.00  0.00    -0.388 OA
ATOM     38  C   UNL d   1       2.304   4.602   1.553  0.00  0.00     0.187 C 
ATOM     39  C   UNL d   1       1.337   3.761   0.715  0.00  0.00     0.151 C 
ENDBRANCH   3  34
TORSDOF 7
