REMARK  3 active torsions:
REMARK  status: ('A' for Active; 'I' for Inactive)
REMARK    1  A    between atoms: C_2  and  S_1 
REMARK    2  A    between atoms: N_10  and  S_1 
REMARK    3  A    between atoms: C_3  and  C_5 
ROOT
ATOM      1  C   UNL d   1       0.281  -1.551   0.292  0.00  0.00     0.096 A 
ATOM      2  C   UNL d   1      -1.009  -1.806   0.759  0.00  0.00     0.057 A 
ATOM      3  C   UNL d   1      -0.569  -4.207   0.653  0.00  0.00     0.049 A 
ATOM      4  C   UNL d   1       1.146  -2.616  -0.007  0.00  0.00     0.027 A 
ATOM      5  C   UNL d   1      -1.426  -3.132   0.938  0.00  0.00     0.041 A 
ATOM      6  C   UNL d   1       0.721  -3.935   0.174  0.00  0.00     0.018 A 
ATOM      7 CL   UNL d   1      -2.157  -0.579   1.158  0.00  0.00    -0.083 Cl
ENDROOT
BRANCH   1   8
ATOM      8  S   UNL d   1       0.862   0.097   0.051  0.00  0.00     0.241 S 
ATOM      9  O   UNL d   1      -0.076   0.820  -0.772  0.00  0.00    -0.206 OA
ATOM     10  O   UNL d   1       2.272   0.054  -0.266  0.00  0.00    -0.206 OA
BRANCH   8  11
ATOM     11  N   UNL d   1       0.788   0.753   1.593  0.00  0.00    -0.225 NA
ATOM     12  H   UNL d   1       0.036   1.444   1.649  0.00  0.00     0.136 HD
ATOM     13  H   UNL d   1       1.704   1.111   1.864  0.00  0.00     0.136 HD
ENDBRANCH   8  11
ENDBRANCH   1   8
BRANCH   3  14
ATOM     14  C   UNL d   1      -1.018  -5.634   0.860  0.00  0.00     0.417 C 
ATOM     15  F   UNL d   1      -2.288  -5.738   1.339  0.00  0.00    -0.166 F 
ATOM     16  F   UNL d   1      -0.989  -6.359  -0.290  0.00  0.00    -0.166 F 
ATOM     17  F   UNL d   1      -0.229  -6.299   1.747  0.00  0.00    -0.166 F 
ENDBRANCH   3  14
TORSDOF 3
