REMARK  5 active torsions:
REMARK  status: ('A' for Active; 'I' for Inactive)
REMARK    1  A    between atoms: C_6  and  C_1 
REMARK    2  A    between atoms: N_17  and  C_2 
REMARK    3  A    between atoms: C_16  and  C_5 
REMARK       I    between atoms: N_15  and  C_6 
REMARK    4  A    between atoms: C_8  and  C_14 
REMARK    5  A    between atoms: N_9  and  N_15 
ROOT
ATOM      1  C   UNL d   1      -0.004   1.543   0.056  0.00  0.00     0.068 A 
ATOM      2  C   UNL d   1       0.761   0.384   0.079  0.00  0.00     0.084 A 
ATOM      3  C   UNL d   1      -1.403   1.203   0.044  0.00  0.00     0.039 A 
ATOM      4  S   UNL d   1      -0.190  -1.034   0.040  0.00  0.00    -0.071 SA
ATOM      5  C   UNL d   1      -1.655  -0.157   0.021  0.00  0.00     0.018 A 
ENDROOT
BRANCH   1   6
ATOM      6  C   UNL d   1       0.597   2.889   0.053  0.00  0.00     0.272 C 
ATOM      7  N   UNL d   1      -0.311   3.944   0.140  0.00  0.00    -0.266 N 
ATOM      8  H   UNL d   1      -1.290   3.762  -0.039  0.00  0.00     0.190 HD
ATOM      9  O   UNL d   1       1.815   3.049  -0.040  0.00  0.00    -0.266 OA
BRANCH   7  10
ATOM     10  N   UNL d   1       0.003   5.285   0.085  0.00  0.00    -0.306 N 
ATOM     11  C   UNL d   1       1.136   5.680   0.580  0.00  0.00     0.144 C 
ATOM     12  HN  UNL d   1      -0.643   5.953  -0.336  1.00  0.00     0.186 HD
BRANCH  11  13
ATOM     13  C   UNL d   1       1.515   7.064   0.510  0.00  0.00     0.092 A 
ATOM     14  O   UNL d   1       2.691   7.446   1.098  0.00  0.00    -0.314 OA
ATOM     15  C   UNL d   1       2.816   8.791   0.915  0.00  0.00     0.050 A 
ATOM     16  C   UNL d   1       4.019   9.438   1.479  0.00  0.00     0.076 C 
ATOM     17  C   UNL d   1       1.735   9.277   0.213  0.00  0.00     0.035 A 
ATOM     18  C   UNL d   1       0.900   8.166  -0.051  0.00  0.00     0.041 A 
ENDBRANCH  11  13
ENDBRANCH   7  10
ENDBRANCH   1   6
BRANCH   2  19
ATOM     19  N   UNL d   1       2.106   0.288   0.130  0.00  0.00    -0.393 N 
ATOM     20  H   UNL d   1       2.673   1.125  -0.025  0.00  0.00     0.156 HD
ATOM     21  H   UNL d   1       2.573  -0.592  -0.060  0.00  0.00     0.156 HD
ENDBRANCH   2  19
BRANCH   5  22
ATOM     22  C   UNL d   1      -2.962  -0.830  -0.042  0.00  0.00    -0.019 A 
ATOM     23  C   UNL d   1      -4.016  -0.218  -0.742  0.00  0.00     0.013 A 
ATOM     24  C   UNL d   1      -5.285  -0.795  -0.786  0.00  0.00     0.001 A 
ATOM     25  C   UNL d   1      -5.521  -2.002  -0.137  0.00  0.00     0.000 A 
ATOM     26  C   UNL d   1      -4.487  -2.632   0.553  0.00  0.00     0.001 A 
ATOM     27  C   UNL d   1      -3.216  -2.050   0.603  0.00  0.00     0.013 A 
ENDBRANCH   5  22
TORSDOF 5
