REMARK  5 active torsions:
REMARK  status: ('A' for Active; 'I' for Inactive)
REMARK    1  A    between atoms: C_7  and  C_1 
REMARK    2  A    between atoms: C_8  and  C_2 
REMARK    3  A    between atoms: S_9  and  C_5 
REMARK    4  A    between atoms: C_12  and  S_9 
REMARK    5  A    between atoms: C_10  and  C_12 
ROOT
ATOM      1  C   UNL d   1      -0.439  -1.090   0.159  0.00  0.00     0.072 A 
ATOM      2  C   UNL d   1       0.914  -0.781   0.027  0.00  0.00     0.072 A 
ATOM      3  N   UNL d   1      -1.210   0.061   0.180  0.00  0.00    -0.334 N 
ATOM      4  HN  UNL d   1      -2.225   0.128   0.258  1.00  0.00     0.168 HD
ATOM      5  C   UNL d   1      -0.353   1.042   0.080  0.00  0.00     0.145 A 
ATOM      6  N   UNL d   1       0.925   0.596  -0.027  0.00  0.00    -0.334 N 
ATOM      7  H   UNL d   1       1.735   1.186  -0.142  0.00  0.00     0.168 HD
ENDROOT
BRANCH   1   8
ATOM      8  C   UNL d   1      -1.038  -2.417   0.241  0.00  0.00    -0.007 A 
ATOM      9  C   UNL d   1      -0.418  -3.472   0.928  0.00  0.00     0.014 A 
ATOM     10  C   UNL d   1      -0.979  -4.751   0.927  0.00  0.00     0.001 A 
ATOM     11  C   UNL d   1      -2.184  -4.984   0.269  0.00  0.00     0.000 A 
ATOM     12  C   UNL d   1      -2.835  -3.935  -0.379  0.00  0.00     0.001 A 
ATOM     13  C   UNL d   1      -2.264  -2.658  -0.390  0.00  0.00     0.014 A 
ENDBRANCH   1   8
BRANCH   2  14
ATOM     14  C   UNL d   1       2.140  -1.572  -0.071  0.00  0.00    -0.007 A 
ATOM     15  C   UNL d   1       2.199  -2.716  -0.878  0.00  0.00     0.014 A 
ATOM     16  C   UNL d   1       3.345  -3.514  -0.903  0.00  0.00     0.001 A 
ATOM     17  C   UNL d   1       4.458  -3.159  -0.144  0.00  0.00     0.000 A 
ATOM     18  C   UNL d   1       4.427  -2.005   0.635  0.00  0.00     0.001 A 
ATOM     19  C   UNL d   1       3.274  -1.216   0.673  0.00  0.00     0.014 A 
ENDBRANCH   2  14
BRANCH   5  20
ATOM     20  S   UNL d   1      -0.661   2.736   0.060  0.00  0.00    -0.090 SA
BRANCH  20  21
ATOM     21  C   UNL d   1      -2.311   2.790   0.812  0.00  0.00     0.108 C 
BRANCH  21  22
ATOM     22  C   UNL d   1      -2.757   4.222   0.891  0.00  0.00    -0.026 C 
ATOM     23  C   UNL d   1      -2.981   4.891   2.031  0.00  0.00     0.007 C 
ENDBRANCH  21  22
ENDBRANCH  20  21
ENDBRANCH   5  20
TORSDOF 5
