REMARK  1 active torsions:
REMARK  status: ('A' for Active; 'I' for Inactive)
REMARK       I    between atoms: N_2  and  C_1 
REMARK       I    between atoms: N_4  and  C_1 
REMARK    1  A    between atoms: C_5  and  N_2 
ROOT
ATOM      1  C   UNL d   1       0.995  -2.398   0.555  0.00  0.00     0.035 A 
ATOM      2  C   UNL d   1       2.409  -4.726   1.215  0.00  0.00     0.034 A 
ATOM      3 CL   UNL d   1       3.276  -6.155   1.618  0.00  0.00    -0.084 Cl
ATOM      4  C   UNL d   1       0.609  -3.634   0.028  0.00  0.00     0.031 A 
ATOM      5  C   UNL d   1       2.103  -2.339   1.410  0.00  0.00     0.031 A 
ATOM      6  C   UNL d   1       2.807  -3.501   1.743  0.00  0.00     0.026 A 
ATOM      7  C   UNL d   1       1.314  -4.796   0.357  0.00  0.00     0.026 A 
ENDROOT
BRANCH   1   8
ATOM      8  N   UNL d   1       0.343  -1.188   0.251  0.00  0.00    -0.314 N 
ATOM      9  C   UNL d   1      -0.850  -1.030  -0.400  0.00  0.00     0.296 C 
ATOM     10  O   UNL d   1      -1.645  -1.890  -0.750  0.00  0.00    -0.254 OA
ATOM     11  N   UNL d   1      -1.123   0.284  -0.645  0.00  0.00    -0.254 NA
ATOM     12  H   UNL d   1      -0.349   0.848  -0.967  0.00  0.00     0.128 HD
ATOM     13  H   UNL d   1      -1.963   0.398  -1.201  0.00  0.00     0.128 HD
ATOM     14  H   UNL d   1       0.702  -0.349   0.683  0.00  0.00     0.170 HD
ENDBRANCH   1   8
TORSDOF 1
