REMARK  10 active torsions:
REMARK  status: ('A' for Active; 'I' for Inactive)
REMARK    1  A    between atoms: C_9  and  N_1 
REMARK    2  A    between atoms: S_8  and  C_2 
REMARK    3  A    between atoms: C_20  and  C_7 
REMARK    4  A    between atoms: C_13  and  S_8 
REMARK    5  A    between atoms: C_10  and  C_13 
REMARK    6  A    between atoms: C_12  and  C_10 
REMARK    7  A    between atoms: C_15  and  C_24 
REMARK    8  A    between atoms: S_18  and  C_20 
REMARK    9  A    between atoms: C_24  and  S_18 
REMARK   10  A    between atoms: O_25  and  C_21 
ROOT
ATOM      1  N   UNL d   1      -0.463  -1.130  -0.036  0.00  0.00    -0.278 N 
ATOM      2  C   UNL d   1       0.786  -0.518  -0.135  0.00  0.00     0.168 A 
ATOM      3  N   UNL d   1       0.670   0.786  -0.068  0.00  0.00    -0.278 N 
ATOM      4  HN  UNL d   1       1.436   1.459  -0.075  1.00  0.00     0.189 HD
ATOM      5  N   UNL d   1      -0.657   1.081   0.013  0.00  0.00    -0.286 N 
ATOM      6  HN  UNL d   1      -1.053   2.020   0.060  1.00  0.00     0.188 HD
ATOM      7  C   UNL d   1      -1.352  -0.045   0.019  0.00  0.00     0.114 A 
ENDROOT
BRANCH   7   8
ATOM      8  C   UNL d   1      -2.846  -0.107   0.090  0.00  0.00     0.152 C 
BRANCH   8   9
ATOM      9  S   UNL d   1      -3.606   1.042   1.299  0.00  0.00    -0.157 SA
BRANCH   9  10
ATOM     10  C   UNL d   1      -3.499   2.615   0.381  0.00  0.00     0.113 C 
BRANCH  10  11
ATOM     11  C   UNL d   1      -4.000   3.808   1.182  0.00  0.00    -0.038 A 
ATOM     12  C   UNL d   1      -5.224   4.489   0.902  0.00  0.00    -0.019 A 
ATOM     13  C   UNL d   1      -5.478   5.726   1.555  0.00  0.00    -0.025 A 
ATOM     14  C   UNL d   1      -6.213   4.024   0.005  0.00  0.00     0.013 A 
ATOM     15  C   UNL d   1      -6.609   6.489   1.217  0.00  0.00     0.012 A 
ATOM     16  C   UNL d   1      -4.597   6.198   2.538  0.00  0.00     0.012 A 
ATOM     17  C   UNL d   1      -7.532   6.027   0.283  0.00  0.00     0.001 A 
ATOM     18  C   UNL d   1      -7.351   4.780  -0.298  0.00  0.00     0.001 A 
ATOM     19  C   UNL d   1      -3.453   5.482   2.870  0.00  0.00     0.001 A 
ATOM     20  C   UNL d   1      -3.147   4.312   2.185  0.00  0.00     0.009 A 
ENDBRANCH  10  11
ENDBRANCH   9  10
ENDBRANCH   8   9
ENDBRANCH   7   8
BRANCH   1  21
ATOM     21  C   UNL d   1      -0.744  -2.532  -0.021  0.00  0.00     0.043 A 
ATOM     22  C   UNL d   1       0.128  -3.415   0.641  0.00  0.00     0.030 A 
ATOM     23  C   UNL d   1      -0.095  -4.794   0.618  0.00  0.00     0.002 A 
ATOM     24  C   UNL d   1      -1.203  -5.308  -0.044  0.00  0.00     0.000 A 
ATOM     25  C   UNL d   1      -2.086  -4.443  -0.685  0.00  0.00     0.002 A 
ATOM     26  C   UNL d   1      -1.858  -3.060  -0.682  0.00  0.00     0.030 A 
ENDBRANCH   1  21
BRANCH   2  27
ATOM     27  S   UNL d   1       2.269  -1.325  -0.555  0.00  0.00    -0.084 SA
BRANCH  27  28
ATOM     28  C   UNL d   1       3.483   0.008  -0.347  0.00  0.00     0.166 C 
BRANCH  28  29
ATOM     29  C   UNL d   1       4.907  -0.483  -0.594  0.00  0.00     0.169 C 
ATOM     30  O   UNL d   1       5.201  -1.671  -0.750  0.00  0.00    -0.291 OA
BRANCH  29  31
ATOM     31  C   UNL d   1       6.006   0.528  -0.629  0.00  0.00     0.011 A 
ATOM     32  C   UNL d   1       5.799   1.886  -0.360  0.00  0.00     0.018 A 
ATOM     33  C   UNL d   1       6.865   2.795  -0.416  0.00  0.00     0.037 A 
ATOM     34  C   UNL d   1       8.149   2.356  -0.742  0.00  0.00     0.068 A 
ATOM     35  C   UNL d   1       8.369   0.999  -0.978  0.00  0.00     0.037 A 
ATOM     36  C   UNL d   1       7.308   0.091  -0.931  0.00  0.00     0.018 A 
BRANCH  34  37
ATOM     37  O   UNL d   1       9.259   3.149  -0.815  0.00  0.00    -0.356 OA
ATOM     38  C   UNL d   1       9.023   4.508  -1.168  0.00  0.00     0.210 C 
ENDBRANCH  34  37
ENDBRANCH  29  31
ENDBRANCH  28  29
ENDBRANCH  27  28
ENDBRANCH   2  27
TORSDOF 10
