REMARK  4 active torsions:
REMARK  status: ('A' for Active; 'I' for Inactive)
REMARK    1  A    between atoms: C_6  and  N_1 
REMARK    2  A    between atoms: C_3  and  C_2 
REMARK       I    between atoms: N_5  and  C_3 
REMARK       I    between atoms: C_4  and  N_8 
REMARK       I    between atoms: N_10  and  C_4 
REMARK    3  A    between atoms: N_8  and  N_5 
REMARK    4  A    between atoms: C_17  and  N_10 
ROOT
ATOM      1  C   UNL d   1       2.179  -1.335   0.131  0.00  0.00     0.287 C 
ATOM      2  N   UNL d   1       3.287  -0.668   0.626  0.00  0.00    -0.261 N 
ATOM      3  O   UNL d   1       2.263  -2.475  -0.320  0.00  0.00    -0.264 OA
ATOM      4  H   UNL d   1       3.181   0.159   1.213  0.00  0.00     0.190 HD
ENDROOT
BRANCH   1   5
ATOM      5  C   UNL d   1       0.947  -0.568   0.168  0.00  0.00     0.109 A 
ATOM      6  N   UNL d   1      -0.339  -1.079   0.372  0.00  0.00    -0.318 N 
ATOM      7  C   UNL d   1      -1.242  -0.065   0.091  0.00  0.00     0.098 A 
ATOM      8  C   UNL d   1      -0.564   1.092  -0.200  0.00  0.00     0.020 A 
ATOM      9  C   UNL d   1       0.809   0.784  -0.134  0.00  0.00     0.037 A 
BRANCH   6  10
ATOM     10  C   UNL d   1      -0.727  -2.375   0.837  0.00  0.00     0.039 A 
ATOM     11  C   UNL d   1       0.103  -3.114   1.692  0.00  0.00     0.033 A 
ATOM     12  C   UNL d   1      -0.304  -4.371   2.152  0.00  0.00     0.044 A 
ATOM     13  C   UNL d   1      -1.533  -4.885   1.761  0.00  0.00     0.116 A 
ATOM     14  C   UNL d   1      -2.374  -4.163   0.926  0.00  0.00     0.044 A 
ATOM     15  F   UNL d   1      -1.916  -6.092   2.199  0.00  0.00    -0.206 F 
ATOM     16  C   UNL d   1      -1.977  -2.903   0.468  0.00  0.00     0.033 A 
ENDBRANCH   6  10
ENDBRANCH   1   5
BRANCH   2  17
ATOM     17  N   UNL d   1       4.481  -1.401   0.821  0.00  0.00    -0.248 N 
ATOM     18  C   UNL d   1       5.353  -0.938   1.794  0.00  0.00     0.339 C 
ATOM     19  N   UNL d   1       6.506  -1.690   1.863  0.00  0.00    -0.308 N 
ATOM     20  O   UNL d   1       5.050   0.028   2.493  0.00  0.00    -0.245 OA
ATOM     21  H   UNL d   1       6.528  -2.522   1.290  0.00  0.00     0.170 HD
ATOM     22  H   UNL d   1       4.833  -1.875  -0.004  0.00  0.00     0.192 HD
BRANCH  19  23
ATOM     23  C   UNL d   1       7.629  -1.467   2.692  0.00  0.00     0.036 A 
ATOM     24  C   UNL d   1       7.738  -0.389   3.572  0.00  0.00     0.029 A 
ATOM     25  C   UNL d   1       8.900  -0.196   4.327  0.00  0.00     0.002 A 
ATOM     26  C   UNL d   1       9.966  -1.083   4.212  0.00  0.00     0.000 A 
ATOM     27  C   UNL d   1       9.863  -2.175   3.356  0.00  0.00     0.002 A 
ATOM     28  C   UNL d   1       8.699  -2.369   2.601  0.00  0.00     0.029 A 
ENDBRANCH  19  23
ENDBRANCH   2  17
TORSDOF 4
