REMARK  10 active torsions:
REMARK  status: ('A' for Active; 'I' for Inactive)
REMARK    1  A    between atoms: N_4  and  C_1 
REMARK       I    between atoms: C_7  and  N_4 
REMARK    2  A    between atoms: C_8  and  C_5 
REMARK    3  A    between atoms: C_14  and  C_7 
REMARK    4  A    between atoms: C_10  and  C_8 
REMARK    5  A    between atoms: O_19  and  C_10 
REMARK    6  A    between atoms: C_11  and  C_17 
REMARK    7  A    between atoms: O_18  and  C_11 
REMARK    8  A    between atoms: C_12  and  C_14 
REMARK    9  A    between atoms: C_17  and  C_12 
REMARK   10  A    between atoms: C_22  and  O_19 
ROOT
ATOM      1  N   UNL d   1       0.197  -2.566  -0.009  0.00  0.00    -0.307 N 
ATOM      2  C   UNL d   1       1.250  -3.451  -0.111  0.00  0.00     0.224 C 
ATOM      3  O   UNL d   1       2.426  -3.173  -0.320  0.00  0.00    -0.273 OA
ATOM      4  H   UNL d   1      -0.762  -2.904  -0.044  0.00  0.00     0.171 HD
ENDROOT
BRANCH   1   5
ATOM      5  C   UNL d   1       0.321  -1.195  -0.077  0.00  0.00     0.151 A 
ATOM      6  N   UNL d   1      -0.693  -0.395  -0.325  0.00  0.00    -0.339 N 
ATOM      7  C   UNL d   1      -0.257   0.930  -0.349  0.00  0.00     0.027 A 
ATOM      8  HN  UNL d   1      -1.655  -0.698  -0.478  1.00  0.00     0.168 HD
ATOM      9  C   UNL d   1       1.083   1.097  -0.058  0.00  0.00     0.078 A 
ATOM     10  S   UNL d   1       1.806  -0.415   0.251  0.00  0.00    -0.064 SA
BRANCH   7  11
ATOM     11  C   UNL d   1      -1.216   2.019  -0.703  0.00  0.00     0.168 C 
BRANCH  11  12
ATOM     12  C   UNL d   1      -1.451   2.979   0.440  0.00  0.00     0.264 C 
ATOM     13  O   UNL d   1      -0.893   2.967   1.528  0.00  0.00    -0.265 OA
BRANCH  12  14
ATOM     14  O   UNL d   1      -2.434   3.860   0.082  0.00  0.00    -0.322 OA
BRANCH  14  15
ATOM     15  C   UNL d   1      -3.071   4.533   1.177  0.00  0.00     0.174 C 
ATOM     16  C   UNL d   1      -4.218   3.657   1.646  0.00  0.00     0.034 C 
ENDBRANCH  14  15
ENDBRANCH  12  14
ENDBRANCH  11  12
ENDBRANCH   7  11
ENDBRANCH   1   5
BRANCH   2  17
ATOM     17  C   UNL d   1       0.866  -4.912   0.064  0.00  0.00     0.112 C 
BRANCH  17  18
ATOM     18  C   UNL d   1       0.962  -5.438   1.522  0.00  0.00    -0.030 C 
ATOM     19  C   UNL d   1       0.778  -6.970   1.487  0.00  0.00     0.016 C 
ATOM     20  C   UNL d   1       2.359  -5.160   2.115  0.00  0.00     0.016 C 
BRANCH  18  21
ATOM     21  C   UNL d   1      -0.086  -4.796   2.459  0.00  0.00     0.119 C 
BRANCH  21  22
ATOM     22  C   UNL d   1      -1.503  -4.982   1.982  0.00  0.00     0.140 C 
ATOM     23  O   UNL d   1      -2.022  -4.258   1.141  0.00  0.00    -0.650 OA
BRANCH  22  24
ATOM     24  O   UNL d   1      -2.125  -6.056   2.506  0.00  0.00    -0.776 OA
ATOM     25  H   UNL d   1      -1.580  -6.572   3.131  0.00  0.00     0.167 HD
ENDBRANCH  22  24
ENDBRANCH  21  22
ENDBRANCH  18  21
ENDBRANCH  17  18
ENDBRANCH   2  17
TORSDOF 10
