REMARK  2 active torsions:
REMARK  status: ('A' for Active; 'I' for Inactive)
REMARK    1  A    between atoms: C_3  and  C_1 
REMARK    2  A    between atoms: N_2  and  C_3 
ROOT
ATOM      1  C   UNL d   1       0.854  -1.220   0.305  0.00  0.00    -0.019 A 
ATOM      2  C   UNL d   1       0.362  -0.401  -0.756  0.00  0.00    -0.018 A 
ATOM      3  C   UNL d   1       0.126   0.978  -0.502  0.00  0.00    -0.025 A 
ATOM      4  C   UNL d   1       1.020  -0.650   1.586  0.00  0.00     0.010 A 
ATOM      5  C   UNL d   1       0.778   0.698   1.818  0.00  0.00     0.002 A 
ATOM      6  C   UNL d   1       0.074  -0.869  -2.062  0.00  0.00     0.013 A 
ATOM      7  C   UNL d   1       0.346   1.509   0.776  0.00  0.00     0.012 A 
ATOM      8  C   UNL d   1      -0.344   1.821  -1.524  0.00  0.00     0.012 A 
ATOM      9  C   UNL d   1      -0.402  -0.017  -3.065  0.00  0.00     0.001 A 
ATOM     10  C   UNL d   1      -0.606   1.327  -2.799  0.00  0.00     0.001 A 
ENDROOT
BRANCH   1  11
ATOM     11  C   UNL d   1       1.157  -2.705   0.164  0.00  0.00     0.311 C 
BRANCH  11  12
ATOM     12  N   UNL d   1       2.533  -3.147  -0.088  0.00  0.00     0.096 N 
ATOM     13  C   UNL d   1       3.566  -2.704   0.854  0.00  0.00     0.302 C 
ATOM     14  C   UNL d   1       4.250  -1.359   0.511  0.00  0.00     0.299 C 
ATOM     15  N   UNL d   1       4.692  -1.230  -0.885  0.00  0.00     0.086 N 
ATOM     16  C   UNL d   1       3.649  -1.668  -1.821  0.00  0.00     0.299 C 
ATOM     17  H   UNL d   1       4.897  -0.248  -1.069  0.00  0.00     0.315 HD
ATOM     18  C   UNL d   1       3.014  -3.027  -1.466  0.00  0.00     0.302 C 
ENDBRANCH  11  12
ENDBRANCH   1  11
TORSDOF 2
