REMARK  3 active torsions:
REMARK  status: ('A' for Active; 'I' for Inactive)
REMARK    1  A    between atoms: C_8  and  N_2 
REMARK    2  A    between atoms: C_9  and  N_3 
REMARK    3  A    between atoms: C_12  and  C_6 
ROOT
ATOM      1  C   UNL d   1       0.003   1.379  -0.046  0.00  0.00     0.343 C 
ATOM      2  N   UNL d   1       1.191   0.639  -0.030  0.00  0.00    -0.232 N 
ATOM      3  N   UNL d   1      -1.188   0.647   0.029  0.00  0.00    -0.232 N 
ATOM      4  C   UNL d   1       1.277  -0.746   0.056  0.00  0.00     0.250 C 
ATOM      5  C   UNL d   1      -1.271  -0.740   0.125  0.00  0.00     0.250 C 
ATOM      6  C   UNL d   1      -0.003  -1.509  -0.110  0.00  0.00     0.204 C 
ATOM      7  O   UNL d   1       0.007   2.612  -0.107  0.00  0.00    -0.245 OA
ATOM      8  O   UNL d   1      -2.320  -1.360   0.323  0.00  0.00    -0.271 OA
ATOM      9  O   UNL d   1       2.329  -1.363   0.244  0.00  0.00    -0.271 OA
ENDROOT
BRANCH   2  10
ATOM     10  C   UNL d   1       2.426   1.361  -0.047  0.00  0.00     0.047 A 
ATOM     11  C   UNL d   1       2.712   2.313   0.941  0.00  0.00     0.030 A 
ATOM     12  C   UNL d   1       3.956   2.946   0.964  0.00  0.00     0.002 A 
ATOM     13  C   UNL d   1       4.904   2.662  -0.019  0.00  0.00     0.000 A 
ATOM     14  C   UNL d   1       4.610   1.748  -1.029  0.00  0.00     0.002 A 
ATOM     15  C   UNL d   1       3.380   1.091  -1.038  0.00  0.00     0.030 A 
ENDBRANCH   2  10
BRANCH   3  16
ATOM     16  C   UNL d   1      -2.418   1.388   0.037  0.00  0.00     0.047 A 
ATOM     17  C   UNL d   1      -2.734   2.257  -1.019  0.00  0.00     0.030 A 
ATOM     18  C   UNL d   1      -3.962   2.924  -1.041  0.00  0.00     0.002 A 
ATOM     19  C   UNL d   1      -4.869   2.754   0.004  0.00  0.00     0.000 A 
ATOM     20  C   UNL d   1      -4.549   1.921   1.074  0.00  0.00     0.002 A 
ATOM     21  C   UNL d   1      -3.333   1.235   1.087  0.00  0.00     0.030 A 
ENDBRANCH   3  16
BRANCH   6  22
ATOM     22  C   UNL d   1      -0.001  -2.234  -1.450  0.00  0.00    -0.036 A 
ATOM     23  C   UNL d   1      -0.119  -1.526  -2.658  0.00  0.00     0.008 A 
ATOM     24  C   UNL d   1      -0.016  -2.193  -3.879  0.00  0.00     0.001 A 
ATOM     25  C   UNL d   1       0.203  -3.566  -3.912  0.00  0.00     0.000 A 
ATOM     26  C   UNL d   1       0.306  -4.284  -2.721  0.00  0.00     0.001 A 
ATOM     27  C   UNL d   1       0.204  -3.621  -1.497  0.00  0.00     0.008 A 
ENDBRANCH   6  22
TORSDOF 3
