REMARK  6 active torsions:
REMARK  status: ('A' for Active; 'I' for Inactive)
REMARK    1  A    between atoms: C_10  and  N_1 
REMARK    2  A    between atoms: C_13  and  C_2 
REMARK    3  A    between atoms: S_11  and  C_3 
REMARK       I    between atoms: N_8  and  C_12 
REMARK       I    between atoms: C_9  and  N_8 
REMARK       I    between atoms: N_16  and  C_9 
REMARK    4  A    between atoms: C_17  and  S_11 
REMARK    5  A    between atoms: C_12  and  C_17 
REMARK    6  A    between atoms: C_21  and  C_13 
ROOT
ATOM      1  N   UNL d   1      -0.265  -1.411   0.172  0.00  0.00    -0.279 N 
ATOM      2  C   UNL d   1       0.996  -0.828  -0.030  0.00  0.00     0.109 C 
ATOM      3  C   UNL d   1      -1.082  -0.294   0.316  0.00  0.00     0.168 C 
ATOM      4  N   UNL d   1       0.874   0.482  -0.127  0.00  0.00    -0.286 N 
ATOM      5  HN  UNL d   1       1.631   1.138  -0.320  1.00  0.00     0.188 HD
ATOM      6  N   UNL d   1      -0.421   0.809   0.070  0.00  0.00    -0.278 N 
ATOM      7  HN  UNL d   1      -0.815   1.749   0.033  1.00  0.00     0.189 HD
ENDROOT
BRANCH   3   8
ATOM      8  S   UNL d   1      -2.759  -0.200   0.726  0.00  0.00    -0.083 SA
BRANCH   8   9
ATOM      9  C   UNL d   1      -2.599   0.173   2.493  0.00  0.00     0.185 C 
BRANCH   9  10
ATOM     10  C   UNL d   1      -2.188   1.587   2.880  0.00  0.00     0.235 C 
ATOM     11  N   UNL d   1      -1.773   2.445   1.886  0.00  0.00    -0.279 N 
ATOM     12  C   UNL d   1      -1.222   3.699   2.005  0.00  0.00     0.322 C 
ATOM     13  H   UNL d   1      -1.692   2.097   0.938  0.00  0.00     0.173 HD
ATOM     14  O   UNL d   1      -0.848   4.308   1.009  0.00  0.00    -0.247 OA
ATOM     15  N   UNL d   1      -1.115   4.186   3.275  0.00  0.00    -0.347 N 
ATOM     16  C   UNL d   1      -0.570   5.480   3.570  0.00  0.00     0.151 C 
ATOM     17  H   UNL d   1      -1.558   3.644   4.014  0.00  0.00     0.163 HD
ATOM     18  O   UNL d   1      -2.242   1.915   4.069  0.00  0.00    -0.272 OA
ENDBRANCH   9  10
ENDBRANCH   8   9
ENDBRANCH   3   8
BRANCH   1  19
ATOM     19  C   UNL d   1      -0.611  -2.803   0.206  0.00  0.00     0.043 A 
ATOM     20  C   UNL d   1      -1.704  -3.280   0.944  0.00  0.00     0.032 A 
ATOM     21  C   UNL d   1      -2.077  -4.631   0.896  0.00  0.00     0.026 A 
ATOM     22  C   UNL d   1      -1.348  -5.529   0.128  0.00  0.00     0.034 A 
ATOM     23  C   UNL d   1      -0.247  -5.085  -0.591  0.00  0.00     0.026 A 
ATOM     24 CL   UNL d   1      -1.818  -7.180   0.055  0.00  0.00    -0.084 Cl
ATOM     25  C   UNL d   1       0.111  -3.731  -0.560  0.00  0.00     0.032 A 
ENDBRANCH   1  19
BRANCH   2  26
ATOM     26  C   UNL d   1       2.338  -1.489   0.004  0.00  0.00     0.117 C 
BRANCH  26  27
ATOM     27  C   UNL d   1       2.885  -1.896  -1.348  0.00  0.00    -0.051 A 
ATOM     28  C   UNL d   1       2.554  -1.215  -2.530  0.00  0.00     0.007 A 
ATOM     29  C   UNL d   1       3.013  -1.673  -3.765  0.00  0.00     0.001 A 
ATOM     30  C   UNL d   1       3.834  -2.796  -3.832  0.00  0.00     0.000 A 
ATOM     31  C   UNL d   1       4.218  -3.446  -2.661  0.00  0.00     0.001 A 
ATOM     32  C   UNL d   1       3.755  -2.995  -1.426  0.00  0.00     0.007 A 
ENDBRANCH  26  27
ENDBRANCH   2  26
TORSDOF 6
