REMARK  3 active torsions:
REMARK  status: ('A' for Active; 'I' for Inactive)
REMARK       I    between atoms: N_2  and  C_1 
REMARK    1  A    between atoms: C_3  and  C_1 
REMARK    2  A    between atoms: C_4  and  C_8 
REMARK    3  A    between atoms: O_13  and  C_10 
ROOT
ATOM      1  C   UNL d   1       2.662   0.327   0.145  0.00  0.00     0.254 C 
ATOM      2  N   UNL d   1       3.575  -0.687  -0.223  0.00  0.00    -0.348 N 
ATOM      3  O   UNL d   1       1.623   0.546  -0.468  0.00  0.00    -0.267 OA
ATOM      4  C   UNL d   1       3.148  -1.495  -1.361  0.00  0.00     0.127 C 
ATOM      5  C   UNL d   1       4.410  -1.337   0.792  0.00  0.00     0.127 C 
ATOM      6  C   UNL d   1       5.013  -3.180  -0.937  0.00  0.00     0.024 C 
ATOM      7  C   UNL d   1       5.450  -2.317   0.254  0.00  0.00     0.029 C 
ATOM      8  C   UNL d   1       4.265  -2.327  -1.969  0.00  0.00     0.029 C 
ENDROOT
BRANCH   1   9
ATOM      9  C   UNL d   1       2.978   1.206   1.299  0.00  0.00     0.038 A 
ATOM     10  C   UNL d   1       2.059   1.418   2.345  0.00  0.00    -0.046 A 
ATOM     11  C   UNL d   1       0.716   0.746   2.406  0.00  0.00     0.049 C 
ATOM     12  C   UNL d   1       2.382   2.353   3.341  0.00  0.00     0.007 A 
ATOM     13  C   UNL d   1       3.594   3.046   3.308  0.00  0.00     0.001 A 
ATOM     14  C   UNL d   1       4.496   2.832   2.268  0.00  0.00     0.001 A 
ATOM     15  C   UNL d   1       4.184   1.925   1.258  0.00  0.00     0.017 A 
ENDBRANCH   1   9
BRANCH   6  16
ATOM     16  C   UNL d   1       4.283  -4.474  -0.594  0.00  0.00    -0.021 A 
ATOM     17  C   UNL d   1       4.720  -5.721  -1.082  0.00  0.00     0.074 A 
ATOM     18  C   UNL d   1       4.043  -6.905  -0.755  0.00  0.00     0.037 A 
ATOM     19  C   UNL d   1       2.906  -6.867   0.047  0.00  0.00     0.003 A 
ATOM     20  C   UNL d   1       2.453  -5.649   0.536  0.00  0.00     0.001 A 
ATOM     21  C   UNL d   1       3.134  -4.470   0.219  0.00  0.00     0.010 A 
BRANCH  17  22
ATOM     22  O   UNL d   1       5.888  -5.886  -1.782  0.00  0.00    -0.355 OA
ATOM     23  C   UNL d   1       5.816  -5.420  -3.128  0.00  0.00     0.210 C 
ENDBRANCH  17  22
ENDBRANCH   6  16
TORSDOF 3
