REMARK  5 active torsions:
REMARK  status: ('A' for Active; 'I' for Inactive)
REMARK    1  A    between atoms: N_11  and  N_1 
REMARK    2  A    between atoms: C_19  and  C_2 
REMARK    3  A    between atoms: C_5  and  C_16 
REMARK    4  A    between atoms: C_15  and  C_6 
REMARK    5  A    between atoms: C_20  and  N_8 
ROOT
ATOM      1  N   UNL d   1       0.899  -3.152  -0.204  0.00  0.00    -0.300 N 
ATOM      2  HN  UNL d   1       0.844  -4.116  -0.533  1.00  0.00     0.186 HD
ATOM      3  C   UNL d   1       2.046  -2.632   0.072  0.00  0.00     0.123 C 
ENDROOT
BRANCH   3   4
ATOM      4  C   UNL d   1       3.207  -3.482  -0.055  0.00  0.00     0.028 A 
ATOM      5  C   UNL d   1       3.446  -4.643  -0.838  0.00  0.00     0.078 A 
ATOM      6  N   UNL d   1       4.600  -5.230  -0.498  0.00  0.00    -0.292 N 
ATOM      7  N   UNL d   1       5.161  -4.424   0.432  0.00  0.00    -0.266 N 
ATOM      8  HN  UNL d   1       4.978  -6.104  -0.865  1.00  0.00     0.187 HD
ATOM      9  C   UNL d   1       4.345  -3.352   0.716  0.00  0.00     0.132 A 
BRANCH   5  10
ATOM     10  C   UNL d   1       2.577  -5.220  -1.926  0.00  0.00     0.034 A 
ATOM     11  S   UNL d   1       2.576  -6.876  -2.363  0.00  0.00    -0.100 SA
ATOM     12  C   UNL d   1       1.328  -6.642  -3.510  0.00  0.00     0.050 A 
ATOM     13  C   UNL d   1       0.975  -5.317  -3.623  0.00  0.00     0.008 A 
ATOM     14  C   UNL d   1       1.710  -4.495  -2.720  0.00  0.00     0.021 A 
ENDBRANCH   5  10
BRANCH   7  15
ATOM     15  C   UNL d   1       6.430  -4.732   1.002  0.00  0.00     0.056 A 
ATOM     16  C   UNL d   1       6.974  -3.953   2.034  0.00  0.00     0.031 A 
ATOM     17  C   UNL d   1       8.219  -4.282   2.579  0.00  0.00     0.002 A 
ATOM     18  C   UNL d   1       8.929  -5.380   2.097  0.00  0.00     0.000 A 
ATOM     19  C   UNL d   1       8.398  -6.156   1.069  0.00  0.00     0.002 A 
ATOM     20  C   UNL d   1       7.151  -5.838   0.524  0.00  0.00     0.031 A 
ENDBRANCH   7  15
ENDBRANCH   3   4
BRANCH   1  21
ATOM     21  N   UNL d   1      -0.236  -2.422  -0.058  0.00  0.00    -0.211 N 
ATOM     22  C   UNL d   1      -1.467  -2.993   0.169  0.00  0.00     0.154 A 
ATOM     23  N   UNL d   1      -2.468  -2.166   0.006  0.00  0.00    -0.281 N 
ATOM     24  N   UNL d   1      -1.886  -0.985  -0.363  0.00  0.00    -0.273 N 
ATOM     25  HN  UNL d   1      -3.462  -2.360   0.127  1.00  0.00     0.188 HD
ATOM     26  C   UNL d   1      -0.505  -1.131  -0.485  0.00  0.00     0.214 A 
ATOM     27  H   UNL d   1      -2.437  -0.181  -0.642  0.00  0.00     0.189 HD
ATOM     28  S   UNL d   1       0.471   0.064  -1.098  0.00  0.00    -0.037 SA
BRANCH  22  29
ATOM     29  C   UNL d   1      -1.656  -4.411   0.563  0.00  0.00     0.014 A 
ATOM     30  C   UNL d   1      -0.675  -5.153   1.221  0.00  0.00     0.032 A 
ATOM     31  C   UNL d   1      -0.960  -6.460   1.574  0.00  0.00     0.088 A 
ATOM     32  N   UNL d   1      -2.147  -7.056   1.340  0.00  0.00    -0.375 N 
ATOM     33  C   UNL d   1      -3.088  -6.317   0.717  0.00  0.00     0.088 A 
ATOM     34  HN  UNL d   1      -2.324  -8.021   1.621  1.00  0.00     0.164 HD
ATOM     35  C   UNL d   1      -2.895  -5.007   0.312  0.00  0.00     0.032 A 
ENDBRANCH  22  29
ENDBRANCH   1  21
TORSDOF 5
