REMARK  2 active torsions:
REMARK  status: ('A' for Active; 'I' for Inactive)
REMARK    1  A    between atoms: C_6  and  N_1 
REMARK    2  A    between atoms: S_15  and  C_12 
ROOT
ATOM      1  N   UNL d   1      -2.277  -0.011  -0.250  0.00  0.00    -0.252 N 
ATOM      2  C   UNL d   1      -1.487   1.117  -0.174  0.00  0.00     0.236 C 
ATOM      3  C   UNL d   1      -1.549  -1.131   0.088  0.00  0.00     0.236 C 
ATOM      4  C   UNL d   1      -0.255   0.797   0.644  0.00  0.00     0.095 C 
ATOM      5  C   UNL d   1      -0.245  -0.720   0.733  0.00  0.00     0.095 C 
ATOM      6  O   UNL d   1      -1.713   2.245  -0.591  0.00  0.00    -0.272 OA
ATOM      7  O   UNL d   1      -1.837  -2.310  -0.081  0.00  0.00    -0.272 OA
ATOM      8  C   UNL d   1       2.020   0.664  -0.516  0.00  0.00    -0.030 C 
ATOM      9  C   UNL d   1       1.994  -0.670  -0.516  0.00  0.00    -0.030 C 
ATOM     10  C   UNL d   1       0.997   1.519   0.153  0.00  0.00     0.042 C 
ATOM     11  C   UNL d   1       0.941  -1.492   0.146  0.00  0.00     0.042 C 
ENDROOT
BRANCH   1  12
ATOM     12  C   UNL d   1      -3.659  -0.027  -0.644  0.00  0.00     0.046 A 
ATOM     13  C   UNL d   1      -4.315   1.117  -1.148  0.00  0.00     0.048 A 
ATOM     14  C   UNL d   1      -5.691   1.134  -1.430  0.00  0.00     0.002 A 
ATOM     15  C   UNL d   1      -6.437  -0.025  -1.205  0.00  0.00     0.018 A 
ATOM     16  C   UNL d   1      -5.821  -1.175  -0.726  0.00  0.00     0.004 A 
ATOM     17  C   UNL d   1      -4.451  -1.174  -0.453  0.00  0.00     0.030 A 
BRANCH  14  18
ATOM     18  S   UNL d   1      -6.604   2.548  -2.046  0.00  0.00    -0.134 SA
ATOM     19  C   UNL d   1      -5.331   3.818  -2.278  0.00  0.00     0.095 C 
ENDBRANCH  14  18
ENDBRANCH   1  12
TORSDOF 2
