REMARK  4 active torsions:
REMARK  status: ('A' for Active; 'I' for Inactive)
REMARK    1  A    between atoms: N_5  and  C_3 
REMARK    2  A    between atoms: C_12  and  C_4 
REMARK       I    between atoms: C_6  and  N_5 
REMARK       I    between atoms: N_10  and  C_6 
REMARK    3  A    between atoms: C_7  and  C_11 
REMARK    4  A    between atoms: C_23  and  N_10 
ROOT
ATOM      1  N   UNL d   1       1.008  -0.561   0.589  0.00  0.00    -0.336 N 
ATOM      2  HN  UNL d   1       1.836  -1.124   0.780  1.00  0.00     0.168 HD
ATOM      3  C   UNL d   1       1.005   0.798   0.350  0.00  0.00     0.116 A 
ATOM      4  C   UNL d   1      -0.237  -1.022   0.531  0.00  0.00     0.086 A 
ATOM      5  S   UNL d   1      -1.452   0.192   0.300  0.00  0.00    -0.080 SA
ATOM      6  C   UNL d   1      -0.236   1.371   0.171  0.00  0.00     0.100 A 
ENDROOT
BRANCH   3   7
ATOM      7  N   UNL d   1       2.136   1.566   0.245  0.00  0.00    -0.294 N 
ATOM      8  C   UNL d   1       3.455   1.289   0.373  0.00  0.00     0.326 C 
ATOM      9  N   UNL d   1       3.831   0.059   0.822  0.00  0.00    -0.307 N 
ATOM     10  O   UNL d   1       4.220   2.219   0.114  0.00  0.00    -0.247 OA
ATOM     11  H   UNL d   1       3.080  -0.532   1.165  0.00  0.00     0.170 HD
ATOM     12  H   UNL d   1       2.001   2.533  -0.020  0.00  0.00     0.172 HD
BRANCH   9  13
ATOM     13  C   UNL d   1       5.180  -0.322   1.056  0.00  0.00     0.051 A 
ATOM     14  C   UNL d   1       6.283   0.337   0.513  0.00  0.00     0.117 A 
ATOM     15  N   UNL d   1       7.579   0.017   0.768  0.00  0.00    -0.373 N 
ATOM     16  C   UNL d   1       7.789  -1.009   1.614  0.00  0.00     0.088 A 
ATOM     17  HN  UNL d   1       8.352   0.527   0.341  1.00  0.00     0.164 HD
ATOM     18  C   UNL d   1       6.768  -1.745   2.188  0.00  0.00     0.019 A 
ATOM     19  C   UNL d   1       5.443  -1.406   1.891  0.00  0.00     0.032 A 
ENDBRANCH   9  13
ENDBRANCH   3   7
BRANCH   4  20
ATOM     20  C   UNL d   1      -0.638  -2.443   0.489  0.00  0.00    -0.002 A 
ATOM     21  C   UNL d   1      -1.919  -2.882   0.870  0.00  0.00     0.015 A 
ATOM     22  C   UNL d   1      -2.334  -4.198   0.630  0.00  0.00     0.017 A 
ATOM     23  C   UNL d   1      -1.471  -5.112   0.017  0.00  0.00     0.048 A 
ATOM     24  C   UNL d   1      -0.166  -4.701  -0.292  0.00  0.00     0.017 A 
ATOM     25  C   UNL d   1       0.246  -3.385  -0.054  0.00  0.00     0.015 A 
BRANCH  23  26
ATOM     26  C   UNL d   1      -1.934  -6.503  -0.348  0.00  0.00     0.417 C 
ATOM     27  F   UNL d   1      -3.238  -6.742  -0.034  0.00  0.00    -0.166 F 
ATOM     28  F   UNL d   1      -1.825  -6.747  -1.684  0.00  0.00    -0.166 F 
ATOM     29  F   UNL d   1      -1.213  -7.475   0.271  0.00  0.00    -0.166 F 
ENDBRANCH  23  26
ENDBRANCH   4  20
TORSDOF 4
