REMARK  1 active torsions:
REMARK  status: ('A' for Active; 'I' for Inactive)
REMARK    1  A    between atoms: C_9  and  C_4 
ROOT
ATOM      1  C   UNL d   1      -2.040   0.327   0.099  0.00  0.00     0.018 C 
ATOM      2  C   UNL d   1      -1.104  -0.832   0.045  0.00  0.00     0.193 C 
ATOM      3  C   UNL d   1       0.332  -0.483   0.043  0.00  0.00     0.048 A 
ATOM      4  C   UNL d   1      -3.328   0.117  -0.224  0.00  0.00     0.024 C 
ATOM      5  O   UNL d   1      -0.193   1.880  -0.169  0.00  0.00    -0.346 OA
ATOM      6  C   UNL d   1       0.710   0.855  -0.076  0.00  0.00     0.083 A 
ATOM      7  C   UNL d   1      -1.407   1.606   0.543  0.00  0.00     0.218 C 
ATOM      8  O   UNL d   1      -1.482  -1.995   0.016  0.00  0.00    -0.287 OA
ATOM      9  C   UNL d   1       1.307  -1.484   0.117  0.00  0.00     0.018 A 
ATOM     10  C   UNL d   1       2.059   1.197  -0.147  0.00  0.00     0.038 A 
ATOM     11  C   UNL d   1       2.659  -1.137   0.074  0.00  0.00     0.001 A 
ATOM     12  C   UNL d   1       3.034   0.202  -0.061  0.00  0.00     0.003 A 
ENDROOT
BRANCH   4  13
ATOM     13  C   UNL d   1      -4.361   1.153  -0.215  0.00  0.00    -0.035 A 
ATOM     14  C   UNL d   1      -4.605   1.908  -1.368  0.00  0.00     0.013 A 
ATOM     15  C   UNL d   1      -5.617   2.872  -1.376  0.00  0.00     0.024 A 
ATOM     16  C   UNL d   1      -6.382   3.080  -0.230  0.00  0.00     0.034 A 
ATOM     17  C   UNL d   1      -6.132   2.347   0.929  0.00  0.00     0.024 A 
ATOM     18 CL   UNL d   1      -7.651   4.243  -0.249  0.00  0.00    -0.084 Cl
ATOM     19  C   UNL d   1      -5.119   1.385   0.938  0.00  0.00     0.013 A 
ENDBRANCH   4  13
TORSDOF 1
