REMARK  5 active torsions:
REMARK  status: ('A' for Active; 'I' for Inactive)
REMARK    1  A    between atoms: O_9  and  C_1 
REMARK    2  A    between atoms: C_8  and  N_2 
REMARK    3  A    between atoms: C_7  and  C_3 
REMARK    4  A    between atoms: O_13  and  C_7 
REMARK    5  A    between atoms: C_18  and  O_13 
ROOT
ATOM      1  C   UNL d   1      -0.370  -1.316  -0.060  0.00  0.00     0.195 C 
ATOM      2  N   UNL d   1       0.889  -0.792   0.226  0.00  0.00    -0.216 N 
ATOM      3  C   UNL d   1      -1.214  -0.223   0.023  0.00  0.00     0.174 C 
ATOM      4  N   UNL d   1       0.755   0.484   0.661  0.00  0.00    -0.012 NA
ATOM      5  N   UNL d   1      -0.500   0.861   0.474  0.00  0.00    -0.274 N 
ATOM      6  HN  UNL d   1      -0.874   1.795   0.637  1.00  0.00     0.184 HD
ENDROOT
BRANCH   2   7
ATOM      7  C   UNL d   1       2.172  -1.390   0.102  0.00  0.00     0.057 A 
ATOM      8  C   UNL d   1       2.378  -2.509  -0.718  0.00  0.00     0.033 A 
ATOM      9  C   UNL d   1       3.648  -3.086  -0.808  0.00  0.00     0.026 A 
ATOM     10  C   UNL d   1       4.713  -2.545  -0.091  0.00  0.00     0.034 A 
ATOM     11  C   UNL d   1       4.526  -1.415   0.702  0.00  0.00     0.026 A 
ATOM     12 CL   UNL d   1       6.269  -3.271  -0.193  0.00  0.00    -0.084 Cl
ATOM     13  C   UNL d   1       3.260  -0.828   0.790  0.00  0.00     0.033 A 
ENDBRANCH   2   7
BRANCH   1  14
ATOM     14  O   UNL d   1      -0.629  -2.597  -0.335  0.00  0.00    -0.343 OA
ATOM     15  H   UNL d   1       0.001  -3.165   0.144  0.00  0.00     0.219 HD
ENDBRANCH   1  14
BRANCH   3  16
ATOM     16  C   UNL d   1      -2.633  -0.172  -0.282  0.00  0.00     0.315 C 
ATOM     17  O   UNL d   1      -3.298  -1.148  -0.616  0.00  0.00    -0.257 OA
BRANCH  16  18
ATOM     18  O   UNL d   1      -3.127   1.099  -0.213  0.00  0.00    -0.317 OA
BRANCH  18  19
ATOM     19  C   UNL d   1      -4.449   1.281  -0.739  0.00  0.00     0.175 C 
ATOM     20  C   UNL d   1      -4.361   1.499  -2.239  0.00  0.00     0.034 C 
ENDBRANCH  18  19
ENDBRANCH  16  18
ENDBRANCH   3  16
TORSDOF 5
