REMARK  1 active torsions:
REMARK  status: ('A' for Active; 'I' for Inactive)
REMARK    1  A    between atoms: C_3  and  N_1 
ROOT
ATOM      1  N   UNL d   1      -3.574  -5.160  -2.876  0.00  0.00    -0.191 NA
ATOM      2  C   UNL d   1      -0.753  -2.469   0.015  0.00  0.00     0.039 A 
ATOM      3  C   UNL d   1      -2.878  -4.775  -2.031  0.00  0.00     0.099 C 
ATOM      4  C   UNL d   1      -1.619  -2.948  -0.981  0.00  0.00     0.052 A 
ATOM      5  C   UNL d   1      -2.014  -4.294  -0.994  0.00  0.00     0.046 A 
ATOM      6  C   UNL d   1      -0.302  -3.359   1.003  0.00  0.00     0.030 A 
ATOM      7  C   UNL d   1      -0.705  -4.698   0.993  0.00  0.00     0.004 A 
ATOM      8  C   UNL d   1      -1.557  -5.167  -0.004  0.00  0.00     0.023 A 
ENDROOT
BRANCH   2   9
ATOM      9  N   UNL d   1      -0.332  -1.102   0.020  0.00  0.00    -0.333 N 
ATOM     10  C   UNL d   1      -0.732  -0.110  -0.859  0.00  0.00     0.096 A 
ATOM     11  C   UNL d   1      -0.099   1.071  -0.538  0.00  0.00     0.019 A 
ATOM     12  C   UNL d   1       0.724   0.813   0.573  0.00  0.00     0.019 A 
ATOM     13  C   UNL d   1       0.562  -0.516   0.899  0.00  0.00     0.096 A 
ENDBRANCH   2   9
TORSDOF 1
