REMARK  4 active torsions:
REMARK  status: ('A' for Active; 'I' for Inactive)
REMARK    1  A    between atoms: N_6  and  C_2 
REMARK       I    between atoms: C_3  and  N_5 
REMARK       I    between atoms: N_15  and  C_3 
REMARK    2  A    between atoms: C_9  and  O_22 
REMARK    3  A    between atoms: C_23  and  N_15 
REMARK    4  A    between atoms: O_22  and  C_27 
ROOT
ATOM      1  C   UNL d   1      -0.595  -6.833  -0.990  0.00  0.00     0.323 C 
ATOM      2  N   UNL d   1      -0.977  -5.626  -0.401  0.00  0.00    -0.332 N 
ATOM      3  N   UNL d   1      -1.326  -2.763   0.001  0.00  0.00    -0.265 NA
ATOM      4  N   UNL d   1       0.479  -7.470  -0.412  0.00  0.00    -0.309 N 
ATOM      5  O   UNL d   1      -1.197  -7.269  -1.968  0.00  0.00    -0.247 OA
ATOM      6  C   UNL d   1      -2.160  -4.928  -0.932  0.00  0.00     0.142 C 
ATOM      7  C   UNL d   1      -0.407  -4.957   0.779  0.00  0.00     0.142 C 
ATOM      8  C   UNL d   1      -0.110  -3.476   0.483  0.00  0.00     0.117 C 
ATOM      9  C   UNL d   1      -1.886  -3.431  -1.206  0.00  0.00     0.117 C 
ATOM     10  H   UNL d   1       0.900  -7.028   0.388  0.00  0.00     0.170 HD
ENDROOT
BRANCH   4  11
ATOM     11  C   UNL d   1       1.058  -8.712  -0.756  0.00  0.00     0.036 A 
ATOM     12  C   UNL d   1       0.638  -9.524  -1.814  0.00  0.00     0.032 A 
ATOM     13  C   UNL d   1       1.249 -10.768  -2.062  0.00  0.00     0.039 A 
ATOM     14  C   UNL d   1       2.308 -11.206  -1.271  0.00  0.00     0.078 A 
ATOM     15  C   UNL d   1       2.731 -10.396  -0.215  0.00  0.00     0.039 A 
ATOM     16  C   UNL d   1       2.118  -9.165   0.039  0.00  0.00     0.032 A 
BRANCH  14  17
ATOM     17  O   UNL d   1       3.023 -12.356  -1.405  0.00  0.00    -0.255 OA
BRANCH  17  18
ATOM     18  C   UNL d   1       2.725 -13.239  -2.474  0.00  0.00     0.530 C 
ATOM     19  F   UNL d   1       2.635 -12.594  -3.655  0.00  0.00    -0.144 F 
ATOM     20  F   UNL d   1       3.728 -14.143  -2.574  0.00  0.00    -0.144 F 
ATOM     21  F   UNL d   1       1.577 -13.905  -2.235  0.00  0.00    -0.144 F 
ENDBRANCH  17  18
ENDBRANCH  14  17
ENDBRANCH   4  11
BRANCH   3  22
ATOM     22  C   UNL d   1      -0.991  -1.419  -0.329  0.00  0.00     0.097 A 
ATOM     23  C   UNL d   1      -1.866  -0.308  -0.170  0.00  0.00     0.043 A 
ATOM     24  C   UNL d   1      -1.328   0.925  -0.531  0.00  0.00     0.088 A 
ATOM     25  C   UNL d   1      -3.230  -0.128   0.316  0.00  0.00    -0.039 A 
ATOM     26  S   UNL d   1      -2.395   2.231  -0.313  0.00  0.00    -0.083 SA
ATOM     27  N   UNL d   1      -0.098   1.172  -1.007  0.00  0.00    -0.346 N 
ATOM     28  C   UNL d   1      -3.610   1.203   0.279  0.00  0.00     0.059 A 
ATOM     29  C   UNL d   1       0.632   0.069  -1.114  0.00  0.00     0.182 A 
ATOM     30  HN  UNL d   1       0.238   2.101  -1.258  1.00  0.00     0.167 HD
ATOM     31  N   UNL d   1       0.260  -1.179  -0.808  0.00  0.00    -0.342 N 
ATOM     32  HN  UNL d   1       0.915  -1.951  -0.934  1.00  0.00     0.167 HD
ATOM     33  C   UNL d   1      -4.154  -1.186   0.822  0.00  0.00     0.050 C 
ENDBRANCH   3  22
TORSDOF 4
