REMARK  5 active torsions:
REMARK  status: ('A' for Active; 'I' for Inactive)
REMARK    1  A    between atoms: C_2  and  S_1 
REMARK    2  A    between atoms: N_5  and  S_1 
REMARK    3  A    between atoms: C_11  and  C_10 
REMARK    4  A    between atoms: C_12  and  C_11 
REMARK    5  A    between atoms: C_13  and  C_12 
ROOT
ATOM      1  C   UNL d   1       0.437  -0.913  -1.227  0.00  0.00     0.074 A 
ATOM      2  C   UNL d   1       0.848  -2.249  -1.200  0.00  0.00     0.025 A 
ATOM      3  C   UNL d   1      -0.364  -0.436  -2.264  0.00  0.00     0.025 A 
ATOM      4  C   UNL d   1      -0.728  -1.300  -3.300  0.00  0.00     0.009 A 
ATOM      5  C   UNL d   1       0.485  -3.105  -2.239  0.00  0.00     0.009 A 
ATOM      6  C   UNL d   1      -0.292  -2.635  -3.307  0.00  0.00    -0.058 A 
ENDROOT
BRANCH   1   7
ATOM      7  S   UNL d   1       0.929   0.141   0.098  0.00  0.00     0.239 S 
ATOM      8  O   UNL d   1       1.217  -0.655   1.265  0.00  0.00    -0.206 OA
ATOM      9  O   UNL d   1       0.056   1.299   0.147  0.00  0.00    -0.206 OA
BRANCH   7  10
ATOM     10  N   UNL d   1       2.416   0.702  -0.450  0.00  0.00    -0.225 NA
ATOM     11  H   UNL d   1       3.178   0.175  -0.021  0.00  0.00     0.136 HD
ATOM     12  H   UNL d   1       2.476   1.709  -0.302  0.00  0.00     0.136 HD
ENDBRANCH   7  10
ENDBRANCH   1   7
BRANCH   6  13
ATOM     13  C   UNL d   1      -0.650  -3.564  -4.443  0.00  0.00     0.038 C 
BRANCH  13  14
ATOM     14  C   UNL d   1      -0.160  -3.093  -5.818  0.00  0.00     0.004 C 
BRANCH  14  15
ATOM     15  C   UNL d   1       1.365  -2.979  -5.914  0.00  0.00    -0.004 C 
ATOM     16  C   UNL d   1       1.788  -2.512  -7.298  0.00  0.00     0.005 C 
ENDBRANCH  14  15
ENDBRANCH  13  14
ENDBRANCH   6  13
TORSDOF 5
