REMARK  4 active torsions:
REMARK  status: ('A' for Active; 'I' for Inactive)
REMARK    1  A    between atoms: C_7  and  C_1 
REMARK    2  A    between atoms: C_9  and  N_2 
REMARK    3  A    between atoms: O_8  and  C_7 
REMARK    4  A    between atoms: C_12  and  O_8 
ROOT
ATOM      1  C   UNL d   1      -0.082  -1.227   0.174  0.00  0.00     0.087 C 
ATOM      2  N   UNL d   1       1.161   0.628   0.180  0.00  0.00    -0.260 N 
ATOM      3  N   UNL d   1      -0.102   1.039   0.454  0.00  0.00    -0.297 N 
ATOM      4  HN  UNL d   1      -0.407   1.984   0.685  1.00  0.00     0.187 HD
ATOM      5  C   UNL d   1       1.228  -0.755   0.123  0.00  0.00     0.049 C 
ATOM      6  C   UNL d   1      -0.862  -0.056   0.357  0.00  0.00     0.041 C 
ATOM      7  C   UNL d   1       2.496  -1.543   0.087  0.00  0.00     0.071 C 
ATOM      8  C   UNL d   1      -2.337   0.090   0.482  0.00  0.00     0.071 C 
ENDROOT
BRANCH   1   9
ATOM      9  C   UNL d   1      -0.477  -2.631   0.076  0.00  0.00     0.302 C 
ATOM     10  O   UNL d   1       0.335  -3.548   0.136  0.00  0.00    -0.259 OA
BRANCH   9  11
ATOM     11  O   UNL d   1      -1.847  -2.805  -0.111  0.00  0.00    -0.275 OA
BRANCH  11  12
ATOM     12  C   UNL d   1      -2.377  -4.061  -0.484  0.00  0.00     0.079 A 
ATOM     13  C   UNL d   1      -1.700  -4.957  -1.313  0.00  0.00     0.037 A 
ATOM     14  C   UNL d   1      -2.334  -6.128  -1.732  0.00  0.00     0.003 A 
ATOM     15  C   UNL d   1      -3.646  -6.392  -1.340  0.00  0.00     0.000 A 
ATOM     16  C   UNL d   1      -4.322  -5.493  -0.513  0.00  0.00     0.003 A 
ATOM     17  C   UNL d   1      -3.688  -4.325  -0.082  0.00  0.00     0.037 A 
ENDBRANCH  11  12
ENDBRANCH   9  11
ENDBRANCH   1   9
BRANCH   2  18
ATOM     18  C   UNL d   1       2.195   1.593   0.011  0.00  0.00     0.056 A 
ATOM     19  C   UNL d   1       3.284   1.351  -0.833  0.00  0.00     0.031 A 
ATOM     20  C   UNL d   1       4.308   2.295  -0.943  0.00  0.00     0.002 A 
ATOM     21  C   UNL d   1       4.246   3.484  -0.220  0.00  0.00     0.000 A 
ATOM     22  C   UNL d   1       3.142   3.749   0.590  0.00  0.00     0.002 A 
ATOM     23  C   UNL d   1       2.107   2.816   0.692  0.00  0.00     0.031 A 
ENDBRANCH   2  18
TORSDOF 4
