REMARK  2 active torsions:
REMARK  status: ('A' for Active; 'I' for Inactive)
REMARK    1  A    between atoms: C_8  and  C_4 
REMARK    2  A    between atoms: C_5  and  C_9 
ROOT
ATOM      1  C   UNL d   1      -1.169  -0.728   0.083  0.00  0.00     0.045 A 
ATOM      2  C   UNL d   1      -1.781   0.655   0.122  0.00  0.00     0.257 A 
ATOM      3  N   UNL d   1      -0.700   1.521   0.124  0.00  0.00    -0.322 N 
ATOM      4  C   UNL d   1      -1.836  -1.892   0.029  0.00  0.00     0.031 C 
ATOM      5  C   UNL d   1       0.287  -0.549   0.071  0.00  0.00     0.006 A 
ATOM      6  C   UNL d   1       0.507   0.833   0.089  0.00  0.00     0.046 A 
ATOM      7  O   UNL d   1      -2.955   0.967   0.155  0.00  0.00    -0.267 OA
ATOM      8  C   UNL d   1       1.357  -1.425   0.024  0.00  0.00     0.015 A 
ATOM      9  C   UNL d   1       1.769   1.388   0.062  0.00  0.00     0.030 A 
ATOM     10  C   UNL d   1       2.649  -0.883  -0.006  0.00  0.00     0.001 A 
ATOM     11  C   UNL d   1       2.852   0.510   0.013  0.00  0.00     0.002 A 
ATOM     12  H   UNL d   1      -0.810   2.523   0.140  0.00  0.00     0.169 HD
ENDROOT
BRANCH   4  13
ATOM     13  C   UNL d   1      -3.300  -1.969  -0.060  0.00  0.00    -0.013 A 
ATOM     14  C   UNL d   1      -3.966  -1.996  -1.296  0.00  0.00     0.045 A 
ATOM     15  C   UNL d   1      -5.363  -1.944  -1.351  0.00  0.00     0.040 A 
ATOM     16 CL   UNL d   1      -3.103  -2.075  -2.794  0.00  0.00    -0.083 Cl
ATOM     17  C   UNL d   1      -6.120  -1.867  -0.172  0.00  0.00     0.049 A 
ATOM     18  C   UNL d   1      -5.453  -1.876   1.062  0.00  0.00     0.017 A 
ATOM     19  C   UNL d   1      -4.056  -1.928   1.118  0.00  0.00     0.014 A 
BRANCH  17  20
ATOM     20  C   UNL d   1      -7.623  -1.751  -0.221  0.00  0.00     0.417 C 
ATOM     21  F   UNL d   1      -8.127  -1.722  -1.486  0.00  0.00    -0.166 F 
ATOM     22  F   UNL d   1      -8.243  -2.792   0.402  0.00  0.00    -0.166 F 
ATOM     23  F   UNL d   1      -8.082  -0.624   0.389  0.00  0.00    -0.166 F 
ENDBRANCH  17  20
ENDBRANCH   4  13
TORSDOF 2
