REMARK  2 active torsions:
REMARK  status: ('A' for Active; 'I' for Inactive)
REMARK    1  A    between atoms: N_7  and  N_1 
REMARK    2  A    between atoms: C_11  and  N_7 
ROOT
ATOM      1  N   UNL d   1       2.248  -0.077   0.166  0.00  0.00    -0.200 N 
ATOM      2  C   UNL d   1       1.573  -1.307   0.190  0.00  0.00     0.276 C 
ATOM      3  C   UNL d   1       1.637   1.172   0.333  0.00  0.00     0.276 C 
ATOM      4  C   UNL d   1       0.095  -1.236   0.090  0.00  0.00     0.046 A 
ATOM      5  C   UNL d   1       0.178   1.209   0.092  0.00  0.00     0.046 A 
ATOM      6  C   UNL d   1      -0.542   0.012   0.028  0.00  0.00     0.006 A 
ATOM      7  O   UNL d   1       2.103  -2.406   0.352  0.00  0.00    -0.266 OA
ATOM      8  O   UNL d   1       2.187   2.198   0.724  0.00  0.00    -0.266 OA
ATOM      9  C   UNL d   1      -1.954   0.066  -0.063  0.00  0.00    -0.024 A 
ATOM     10  C   UNL d   1      -0.658  -2.421   0.081  0.00  0.00     0.018 A 
ATOM     11  C   UNL d   1      -0.472   2.448   0.004  0.00  0.00     0.018 A 
ATOM     12  C   UNL d   1      -1.857   2.498  -0.115  0.00  0.00     0.002 A 
ATOM     13  C   UNL d   1      -2.046  -2.364   0.011  0.00  0.00     0.002 A 
ATOM     14  C   UNL d   1      -2.690  -1.128  -0.066  0.00  0.00     0.012 A 
ATOM     15  C   UNL d   1      -2.594   1.314  -0.135  0.00  0.00     0.012 A 
ENDROOT
BRANCH   1  16
ATOM     16  N   UNL d   1       3.648  -0.177   0.489  0.00  0.00    -0.193 NA
ATOM     17  H   UNL d   1       3.772  -0.109   1.497  0.00  0.00     0.153 HD
BRANCH  16  18
ATOM     18  C   UNL d   1       4.505   0.722  -0.196  0.00  0.00     0.028 A 
ATOM     19  C   UNL d   1       5.589   1.283   0.499  0.00  0.00     0.025 A 
ATOM     20  C   UNL d   1       6.435   2.207  -0.116  0.00  0.00     0.002 A 
ATOM     21  C   UNL d   1       6.230   2.554  -1.448  0.00  0.00     0.000 A 
ATOM     22  C   UNL d   1       5.201   1.953  -2.171  0.00  0.00     0.002 A 
ATOM     23  C   UNL d   1       4.355   1.027  -1.553  0.00  0.00     0.025 A 
ENDBRANCH  16  18
ENDBRANCH   1  16
TORSDOF 2
