REMARK  4 active torsions:
REMARK  status: ('A' for Active; 'I' for Inactive)
REMARK       I    between atoms: C_3  and  N_1 
REMARK       I    between atoms: N_2  and  C_4 
REMARK    1  A    between atoms: C_5  and  C_3 
REMARK    2  A    between atoms: C_4  and  C_5 
REMARK    3  A    between atoms: C_17  and  C_5 
REMARK    4  A    between atoms: C_16  and  C_17 
ROOT
ATOM      1  C   UNL d   1       3.366   2.870  -0.035  0.00  0.00     0.174 C 
ENDROOT
BRANCH   1   2
ATOM      2  C   UNL d   1       3.753   3.683   1.200  0.00  0.00     0.237 C 
ATOM      3  N   UNL d   1       3.697   5.067   1.176  0.00  0.00    -0.316 N 
ATOM      4  C   UNL d   1       3.265   5.997   0.213  0.00  0.00     0.043 A 
ATOM      5  C   UNL d   1       4.315   5.802   2.291  0.00  0.00     0.137 A 
ATOM      6  C   UNL d   1       3.686   7.279   0.581  0.00  0.00    -0.030 A 
ATOM      7  C   UNL d   1       2.538   5.831  -0.951  0.00  0.00     0.030 A 
ATOM      8  C   UNL d   1       3.501   8.379  -0.246  0.00  0.00     0.009 A 
ATOM      9  C   UNL d   1       4.300   7.289   1.943  0.00  0.00     0.061 A 
ATOM     10  C   UNL d   1       2.834   8.194  -1.454  0.00  0.00     0.001 A 
ATOM     11  C   UNL d   1       2.330   6.933  -1.790  0.00  0.00     0.002 A 
ATOM     12  O   UNL d   1       4.178   3.109   2.213  0.00  0.00    -0.272 OA
ENDBRANCH   1   2
BRANCH   1  13
ATOM     13  C   UNL d   1       1.874   2.535   0.016  0.00  0.00     0.237 C 
ATOM     14  N   UNL d   1       1.241   2.207  -1.176  0.00  0.00    -0.316 N 
ATOM     15  C   UNL d   1      -0.119   1.841  -1.292  0.00  0.00     0.043 A 
ATOM     16  C   UNL d   1       1.835   2.124  -2.528  0.00  0.00     0.137 C 
ATOM     17  C   UNL d   1      -0.468   1.676  -2.633  0.00  0.00    -0.030 A 
ATOM     18  C   UNL d   1      -1.065   1.646  -0.295  0.00  0.00     0.030 A 
ATOM     19  C   UNL d   1      -1.756   1.320  -3.010  0.00  0.00     0.009 A 
ATOM     20  C   UNL d   1       0.681   2.000  -3.530  0.00  0.00     0.061 C 
ATOM     21  C   UNL d   1      -2.707   1.116  -2.010  0.00  0.00     0.001 A 
ATOM     22  C   UNL d   1      -2.364   1.278  -0.661  0.00  0.00     0.002 A 
ATOM     23  O   UNL d   1       1.279   2.577   1.095  0.00  0.00    -0.272 OA
ENDBRANCH   1  13
BRANCH   1  24
ATOM     24  C   UNL d   1       4.168   1.550  -0.085  0.00  0.00     0.050 C 
BRANCH  24  25
ATOM     25  C   UNL d   1       5.661   1.624  -0.322  0.00  0.00    -0.036 C 
ATOM     26  C   UNL d   1       6.436   2.710  -0.436  0.00  0.00     0.007 C 
ENDBRANCH  24  25
ENDBRANCH   1  24
TORSDOF 4
