REMARK  9 active torsions:
REMARK  status: ('A' for Active; 'I' for Inactive)
REMARK    1  A    between atoms: N_8  and  C_1 
REMARK    2  A    between atoms: S_10  and  C_3 
REMARK       I    between atoms: C_13  and  N_8 
REMARK    3  A    between atoms: C_11  and  S_10 
REMARK    4  A    between atoms: C_24  and  C_13 
REMARK    5  A    between atoms: C_25  and  C_24 
REMARK    6  A    between atoms: C_28  and  C_25 
REMARK    7  A    between atoms: C_26  and  C_27 
REMARK    8  A    between atoms: C_27  and  C_29 
REMARK    9  A    between atoms: C_29  and  C_28 
ROOT
ATOM      1  C   UNL d   1       0.132   1.103  -0.014  0.00  0.00     0.168 A 
ATOM      2  S   UNL d   1      -1.517   0.674   0.153  0.00  0.00    -0.026 SA
ATOM      3  C   UNL d   1      -1.011  -0.964   0.071  0.00  0.00     0.135 A 
ATOM      4  N   UNL d   1       0.955   0.088  -0.109  0.00  0.00    -0.278 N 
ATOM      5  HN  UNL d   1       1.967   0.180  -0.197  1.00  0.00     0.189 HD
ATOM      6  N   UNL d   1       0.286  -1.123  -0.076  0.00  0.00    -0.286 N 
ATOM      7  HN  UNL d   1       0.744  -2.031  -0.156  1.00  0.00     0.188 HD
ENDROOT
BRANCH   3   8
ATOM      8  S   UNL d   1      -2.117  -2.321   0.071  0.00  0.00    -0.063 SA
BRANCH   8   9
ATOM      9  C   UNL d   1      -1.906  -2.896   1.765  0.00  0.00     0.021 A 
ATOM     10  C   UNL d   1      -3.008  -3.021   2.656  0.00  0.00     0.008 A 
ATOM     11  C   UNL d   1      -2.732  -3.504   3.957  0.00  0.00     0.045 A 
ATOM     12  C   UNL d   1      -4.354  -2.704   2.331  0.00  0.00     0.017 A 
ATOM     13  C   UNL d   1      -3.764  -3.630   4.875  0.00  0.00     0.054 A 
ATOM     14  N   UNL d   1      -1.502  -3.860   4.355  0.00  0.00    -0.365 N 
ATOM     15  C   UNL d   1      -5.075  -3.302   4.540  0.00  0.00     0.036 A 
ATOM     16  C   UNL d   1      -5.378  -2.845   3.268  0.00  0.00     0.025 A 
ATOM     17 CL   UNL d   1      -6.326  -3.464   5.710  0.00  0.00    -0.084 Cl
ATOM     18  C   UNL d   1      -0.487  -3.761   3.474  0.00  0.00     0.090 A 
ATOM     19  HN  UNL d   1      -1.338  -4.197   5.303  1.00  0.00     0.165 HD
ATOM     20  C   UNL d   1      -0.635  -3.295   2.185  0.00  0.00     0.037 A 
ENDBRANCH   8   9
ENDBRANCH   3   8
BRANCH   1  21
ATOM     21  N   UNL d   1       0.374   2.450  -0.029  0.00  0.00    -0.306 N 
ATOM     22  C   UNL d   1       1.653   2.958  -0.047  0.00  0.00     0.223 C 
ATOM     23  O   UNL d   1       2.695   2.308  -0.082  0.00  0.00    -0.273 OA
ATOM     24  H   UNL d   1      -0.429   3.055   0.015  0.00  0.00     0.171 HD
BRANCH  22  25
ATOM     25  C   UNL d   1       1.697   4.480  -0.041  0.00  0.00     0.103 C 
BRANCH  25  26
ATOM     26  C   UNL d   1       0.994   5.065   1.181  0.00  0.00     0.009 C 
BRANCH  26  27
ATOM     27  C   UNL d   1       1.075   6.590   1.238  0.00  0.00     0.000 C 
BRANCH  27  28
ATOM     28  C   UNL d   1       0.302   7.101   2.456  0.00  0.00     0.000 C 
BRANCH  28  29
ATOM     29  C   UNL d   1       0.328   8.624   2.564  0.00  0.00    -0.000 C 
BRANCH  29  30
ATOM     30  C   UNL d   1      -0.455   9.093   3.791  0.00  0.00    -0.005 C 
ATOM     31  C   UNL d   1      -0.441  10.607   3.918  0.00  0.00     0.005 C 
ENDBRANCH  29  30
ENDBRANCH  28  29
ENDBRANCH  27  28
ENDBRANCH  26  27
ENDBRANCH  25  26
ENDBRANCH  22  25
ENDBRANCH   1  21
TORSDOF 9
