REMARK  6 active torsions:
REMARK  status: ('A' for Active; 'I' for Inactive)
REMARK    1  A    between atoms: C_10  and  N_1 
REMARK    2  A    between atoms: C_8  and  O_11 
REMARK    3  A    between atoms: C_16  and  C_10 
REMARK    4  A    between atoms: O_11  and  C_15 
REMARK    5  A    between atoms: C_15  and  C_17 
REMARK    6  A    between atoms: C_17  and  C_16 
ROOT
ATOM      1  N   UNL d   1       1.901   0.067  -0.049  0.00  0.00    -0.280 N 
ATOM      2  C   UNL d   1       1.212   0.605   1.003  0.00  0.00     0.261 A 
ATOM      3  C   UNL d   1       1.059  -0.522  -0.955  0.00  0.00     0.261 A 
ATOM      4  C   UNL d   1      -0.205   0.390   0.731  0.00  0.00     0.048 A 
ATOM      5  C   UNL d   1      -0.300  -0.308  -0.458  0.00  0.00     0.048 A 
ATOM      6  O   UNL d   1       1.323  -1.131  -1.973  0.00  0.00    -0.267 OA
ATOM      7  O   UNL d   1       1.635   1.151   2.006  0.00  0.00    -0.267 OA
ATOM      8  C   UNL d   1      -1.319   0.752   1.462  0.00  0.00     0.018 A 
ATOM      9  C   UNL d   1      -1.520  -0.698  -0.978  0.00  0.00     0.018 A 
ATOM     10  C   UNL d   1      -2.664  -0.350  -0.253  0.00  0.00     0.001 A 
ATOM     11  C   UNL d   1      -2.565   0.372   0.956  0.00  0.00     0.001 A 
ENDROOT
BRANCH   1  12
ATOM     12  C   UNL d   1       3.351   0.026  -0.136  0.00  0.00     0.135 C 
BRANCH  12  13
ATOM     13  C   UNL d   1       3.959   1.427  -0.192  0.00  0.00     0.022 C 
BRANCH  13  14
ATOM     14  C   UNL d   1       5.482   1.386  -0.266  0.00  0.00     0.028 C 
BRANCH  14  15
ATOM     15  C   UNL d   1       6.059   2.798  -0.315  0.00  0.00     0.178 C 
BRANCH  15  16
ATOM     16  O   UNL d   1       7.489   2.751  -0.408  0.00  0.00    -0.322 OA
BRANCH  16  17
ATOM     17  C   UNL d   1       7.986   2.578  -1.662  0.00  0.00     0.254 C 
ATOM     18  O   UNL d   1       7.319   2.440  -2.679  0.00  0.00    -0.266 OA
ATOM     19  C   UNL d   1       9.483   2.565  -1.643  0.00  0.00     0.126 C 
ENDBRANCH  16  17
ENDBRANCH  15  16
ENDBRANCH  14  15
ENDBRANCH  13  14
ENDBRANCH  12  13
ENDBRANCH   1  12
TORSDOF 6
