REMARK  6 active torsions:
REMARK  status: ('A' for Active; 'I' for Inactive)
REMARK    1  A    between atoms: S_10  and  C_2 
REMARK    2  A    between atoms: N_18  and  C_3 
REMARK       I    between atoms: N_8  and  C_9 
REMARK    3  A    between atoms: C_9  and  C_14 
REMARK    4  A    between atoms: C_14  and  S_10 
REMARK    5  A    between atoms: C_11  and  C_15 
REMARK    6  A    between atoms: O_21  and  C_17 
ROOT
ATOM      1  N   UNL d   1       6.402  -1.024  -0.430  0.00  0.00    -0.351 N 
ATOM      2  C   UNL d   1       6.035   0.320  -0.274  0.00  0.00     0.229 C 
ATOM      3  C   UNL d   1       5.676  -1.765  -1.457  0.00  0.00     0.126 C 
ATOM      4  C   UNL d   1       7.316  -1.712   0.477  0.00  0.00     0.126 C 
ATOM      5  C   UNL d   1       6.568  -3.977  -0.581  0.00  0.00     0.024 C 
ATOM      6  O   UNL d   1       5.139   0.812  -0.972  0.00  0.00    -0.273 OA
ATOM      7  C   UNL d   1       7.477  -3.227   0.386  0.00  0.00     0.029 C 
ATOM      8  C   UNL d   1       6.254  -3.123  -1.807  0.00  0.00     0.029 C 
ENDROOT
BRANCH   2   9
ATOM      9  C   UNL d   1       6.634   1.157   0.852  0.00  0.00     0.184 C 
BRANCH   9  10
ATOM     10  S   UNL d   1       8.422   1.398   0.774  0.00  0.00    -0.094 SA
BRANCH  10  11
ATOM     11  C   UNL d   1       8.634   2.395  -0.638  0.00  0.00     0.130 A 
ATOM     12  S   UNL d   1      10.193   2.814  -1.216  0.00  0.00    -0.027 SA
ATOM     13  C   UNL d   1       9.416   3.728  -2.444  0.00  0.00     0.159 A 
ATOM     14  N   UNL d   1       8.104   3.689  -2.379  0.00  0.00    -0.279 N 
ATOM     15  N   UNL d   1       7.646   2.917  -1.325  0.00  0.00    -0.286 N 
ATOM     16  HN  UNL d   1       7.491   4.176  -3.033  1.00  0.00     0.189 HD
ATOM     17  HN  UNL d   1       6.659   2.771  -1.109  1.00  0.00     0.188 HD
BRANCH  13  18
ATOM     18  N   UNL d   1      10.122   4.421  -3.354  0.00  0.00    -0.379 N 
ATOM     19  H   UNL d   1      11.076   4.676  -3.129  0.00  0.00     0.158 HD
ATOM     20  H   UNL d   1       9.607   5.131  -3.868  0.00  0.00     0.158 HD
ENDBRANCH  13  18
ENDBRANCH  10  11
ENDBRANCH   9  10
ENDBRANCH   2   9
BRANCH   5  21
ATOM     21  C   UNL d   1       5.344  -4.607   0.069  0.00  0.00    -0.021 A 
ATOM     22  C   UNL d   1       5.066  -5.984  -0.054  0.00  0.00     0.074 A 
ATOM     23  C   UNL d   1       3.961  -6.554   0.589  0.00  0.00     0.037 A 
ATOM     24  C   UNL d   1       3.096  -5.763   1.345  0.00  0.00     0.003 A 
ATOM     25  C   UNL d   1       3.352  -4.403   1.477  0.00  0.00     0.001 A 
ATOM     26  C   UNL d   1       4.466  -3.834   0.853  0.00  0.00     0.010 A 
BRANCH  22  27
ATOM     27  O   UNL d   1       5.907  -6.870  -0.671  0.00  0.00    -0.355 OA
ATOM     28  C   UNL d   1       5.936  -6.743  -2.091  0.00  0.00     0.210 C 
ENDBRANCH  22  27
ENDBRANCH   5  21
TORSDOF 6
