REMARK  4 active torsions:
REMARK  status: ('A' for Active; 'I' for Inactive)
REMARK    1  A    between atoms: C_5  and  C_1 
REMARK       I    between atoms: C_2  and  N_4 
REMARK    2  A    between atoms: C_3  and  C_2 
REMARK    3  A    between atoms: N_4  and  C_8 
REMARK    4  A    between atoms: O_14  and  N_6 
ROOT
ATOM      1  C   UNL d   1      -2.190   3.026  -4.280  0.00  0.00     0.050 A 
ATOM      2  C   UNL d   1      -0.860   1.918  -2.557  0.00  0.00     0.035 A 
ATOM      3  C   UNL d   1      -1.976   1.955  -3.398  0.00  0.00     0.045 A 
ATOM      4  C   UNL d   1      -1.306   4.112  -4.256  0.00  0.00     0.016 A 
ATOM      5  C   UNL d   1      -0.219   4.111  -3.383  0.00  0.00     0.003 A 
ATOM      6  C   UNL d   1       0.012   3.011  -2.548  0.00  0.00     0.029 A 
ENDROOT
BRANCH   2   7
ATOM      7  N   UNL d   1      -0.527   0.790  -1.776  0.00  0.00    -0.322 N 
ATOM      8  C   UNL d   1      -1.244  -0.385  -1.684  0.00  0.00     0.270 C 
ATOM      9  O   UNL d   1      -2.372  -0.613  -2.105  0.00  0.00    -0.266 OA
ATOM     10  H   UNL d   1       0.364   0.791  -1.286  0.00  0.00     0.169 HD
BRANCH   8  11
ATOM     11  C   UNL d   1      -0.498  -1.515  -0.979  0.00  0.00     0.096 C 
ATOM     12  N   UNL d   1       0.657  -1.247  -0.435  0.00  0.00    -0.268 N 
ATOM     13  HN  UNL d   1       1.111  -0.334  -0.454  1.00  0.00     0.194 HD
ATOM     14  C   UNL d   1      -1.177  -2.862  -0.949  0.00  0.00     0.076 C 
BRANCH  12  15
ATOM     15  O   UNL d   1       1.186  -2.392   0.180  0.00  0.00    -0.290 OA
ATOM     16  H   UNL d   1       2.039  -2.079   0.535  0.00  0.00     0.244 HD
ENDBRANCH  12  15
ENDBRANCH   8  11
ENDBRANCH   2   7
BRANCH   1  17
ATOM     17  C   UNL d   1      -3.304   2.964  -5.297  0.00  0.00     0.417 C 
ATOM     18  F   UNL d   1      -4.114   1.877  -5.166  0.00  0.00    -0.166 F 
ATOM     19  F   UNL d   1      -2.823   2.913  -6.572  0.00  0.00    -0.166 F 
ATOM     20  F   UNL d   1      -4.124   4.050  -5.253  0.00  0.00    -0.166 F 
ENDBRANCH   1  17
TORSDOF 4
