REMARK  2 active torsions:
REMARK  status: ('A' for Active; 'I' for Inactive)
REMARK    1  A    between atoms: C_6  and  S_8 
REMARK    2  A    between atoms: S_8  and  C_7 
ROOT
ATOM      1  C   UNL d   1       1.276   1.021   0.013  0.00  0.00     0.068 A 
ATOM      2  C   UNL d   1      -1.189   0.872  -0.002  0.00  0.00     0.088 A 
ATOM      3  C   UNL d   1      -0.626  -0.399  -0.015  0.00  0.00     0.032 A 
ATOM      4  S   UNL d   1      -0.041   2.122   0.021  0.00  0.00    -0.066 SA
ATOM      5  C   UNL d   1       0.818  -0.297  -0.014  0.00  0.00     0.067 A 
ATOM      6  C   UNL d   1       2.653   1.248   0.038  0.00  0.00     0.098 A 
ATOM      7  N   UNL d   1      -2.501   1.182   0.004  0.00  0.00    -0.354 N 
ATOM      8  HN  UNL d   1      -2.836   2.145   0.017  1.00  0.00     0.166 HD
ATOM      9  C   UNL d   1      -1.532  -1.497  -0.020  0.00  0.00    -0.045 A 
ATOM     10  N   UNL d   1       3.498   0.193   0.066  0.00  0.00    -0.345 N 
ATOM     11  HN  UNL d   1       4.507   0.328   0.126  1.00  0.00     0.167 HD
ATOM     12  N   UNL d   1       1.675  -1.353  -0.021  0.00  0.00    -0.350 N 
ATOM     13  HN  UNL d   1       1.351  -2.320  -0.050  1.00  0.00     0.166 HD
ATOM     14  C   UNL d   1       2.968  -1.031   0.012  0.00  0.00     0.181 A 
ATOM     15  C   UNL d   1      -2.905  -1.194  -0.019  0.00  0.00     0.032 A 
ATOM     16  C   UNL d   1      -3.334   0.127  -0.009  0.00  0.00     0.006 A 
ATOM     17  C   UNL d   1      -1.141  -2.950  -0.021  0.00  0.00     0.049 C 
ATOM     18  C   UNL d   1      -4.806   0.425  -0.009  0.00  0.00     0.068 C 
ENDROOT
BRANCH   6  19
ATOM     19  S   UNL d   1       3.348   2.873   0.168  0.00  0.00    -0.035 SA
BRANCH  19  20
ATOM     20  C   UNL d   1       3.632   3.182  -1.514  0.00  0.00     0.152 A 
ATOM     21  N   UNL d   1       4.545   4.100  -1.963  0.00  0.00    -0.340 N 
ATOM     22  C   UNL d   1       4.495   4.085  -3.336  0.00  0.00     0.109 A 
ATOM     23  C   UNL d   1       5.431   4.956  -1.212  0.00  0.00     0.158 C 
ATOM     24  C   UNL d   1       3.530   3.160  -3.651  0.00  0.00     0.107 A 
ATOM     25  N   UNL d   1       2.995   2.613  -2.515  0.00  0.00    -0.345 N 
ATOM     26  HN  UNL d   1       2.256   1.911  -2.458  1.00  0.00     0.167 HD
ENDBRANCH  19  20
ENDBRANCH   6  19
TORSDOF 2
