REMARK  2 active torsions:
REMARK  status: ('A' for Active; 'I' for Inactive)
REMARK    1  A    between atoms: N_3  and  C_1 
REMARK    2  A    between atoms: C_5  and  C_8 
ROOT
ATOM      1  N   UNL d   1       0.456  -3.281   1.184  0.00  0.00    -0.335 N 
ATOM      2  C   UNL d   1       0.437  -4.624   1.437  0.00  0.00     0.255 C 
ATOM      3  C   UNL d   1      -0.194  -2.734   0.030  0.00  0.00     0.203 C 
ATOM      4  N   UNL d   1       0.204  -3.506  -1.135  0.00  0.00    -0.266 NA
ATOM      5  C   UNL d   1       0.167  -5.499   0.281  0.00  0.00     0.053 A 
ATOM      6  C   UNL d   1       0.026  -4.895  -0.977  0.00  0.00     0.026 A 
ATOM      7  O   UNL d   1       0.639  -5.066   2.562  0.00  0.00    -0.268 OA
ATOM      8  C   UNL d   1       0.081  -6.885   0.444  0.00  0.00     0.019 A 
ATOM      9  C   UNL d   1      -0.146  -5.723  -2.090  0.00  0.00     0.024 A 
ATOM     10  C   UNL d   1      -0.136  -7.691  -0.670  0.00  0.00     0.001 A 
ATOM     11  C   UNL d   1      -0.246  -7.111  -1.935  0.00  0.00     0.002 A 
ATOM     12  H   UNL d   1       0.520  -2.714   2.017  0.00  0.00     0.164 HD
ATOM     13  H   UNL d   1      -0.226  -3.159  -1.987  0.00  0.00     0.130 HD
ENDROOT
BRANCH   3  14
ATOM     14  C   UNL d   1       0.196  -1.280  -0.049  0.00  0.00     0.022 A 
ATOM     15  S   UNL d   1      -1.005  -0.053   0.009  0.00  0.00    -0.067 SA
ATOM     16  C   UNL d   1       0.163   1.181  -0.037  0.00  0.00     0.144 A 
ATOM     17  C   UNL d   1       1.449   0.695  -0.123  0.00  0.00     0.045 A 
ATOM     18  C   UNL d   1       1.465  -0.731  -0.144  0.00  0.00     0.021 A 
BRANCH  16  19
ATOM     19  N   UNL d   1      -0.230   2.567   0.019  0.00  0.00    -0.108 N 
ATOM     20  O   UNL d   1       0.688   3.398  -0.001  0.00  0.00    -0.531 OA
ATOM     21  O   UNL d   1      -1.437   2.832   0.083  0.00  0.00    -0.531 OA
ENDBRANCH  16  19
ENDBRANCH   3  14
TORSDOF 2
