REMARK  3 active torsions:
REMARK  status: ('A' for Active; 'I' for Inactive)
REMARK    1  A    between atoms: C_4  and  C_1 
REMARK    2  A    between atoms: O_12  and  C_3 
REMARK    3  A    between atoms: C_10  and  N_6 
ROOT
ATOM      1  C   UNL d   1      -0.002   2.658   0.042  0.00  0.00     0.015 A 
ATOM      2  C   UNL d   1       1.116   0.512   0.066  0.00  0.00     0.041 A 
ATOM      3  C   UNL d   1       1.180   1.911   0.083  0.00  0.00     0.093 A 
ATOM      4  C   UNL d   1      -0.120  -0.137   0.006  0.00  0.00     0.039 A 
ATOM      5  C   UNL d   1      -1.242   2.011  -0.024  0.00  0.00     0.033 A 
ATOM      6  C   UNL d   1      -1.293   0.618  -0.039  0.00  0.00     0.008 A 
ATOM      7  I   UNL d   1       2.851  -0.654   0.126  0.00  0.00    -0.042 I 
ATOM      8  I   UNL d   1      -3.133  -0.345  -0.126  0.00  0.00    -0.045 I 
ENDROOT
BRANCH   1   9
ATOM      9  C   UNL d   1       0.054   4.135   0.068  0.00  0.00     0.102 C 
ATOM     10  N   UNL d   1      -1.008   4.862  -0.080  0.00  0.00    -0.365 N 
ATOM     11  HN  UNL d   1      -1.921   4.424  -0.203  1.00  0.00     0.165 HD
BRANCH  10  12
ATOM     12  C   UNL d   1      -0.886   6.265  -0.068  0.00  0.00     0.032 A 
ATOM     13  C   UNL d   1       0.201   6.951  -0.629  0.00  0.00     0.036 A 
ATOM     14  C   UNL d   1       0.266   8.351  -0.616  0.00  0.00    -0.060 A 
ATOM     15  C   UNL d   1       1.454   9.064  -1.191  0.00  0.00     0.048 C 
ATOM     16  C   UNL d   1      -0.793   9.075  -0.064  0.00  0.00     0.007 A 
ATOM     17  C   UNL d   1      -1.895   8.410   0.475  0.00  0.00     0.003 A 
ATOM     18  C   UNL d   1      -1.935   7.011   0.473  0.00  0.00     0.029 A 
ENDBRANCH  10  12
ENDBRANCH   1   9
BRANCH   3  19
ATOM     19  O   UNL d   1       2.384   2.565   0.132  0.00  0.00    -0.358 OA
ATOM     20  H   UNL d   1       3.091   1.894   0.148  0.00  0.00     0.217 HD
ENDBRANCH   3  19
TORSDOF 3
