REMARK  4 active torsions:
REMARK  status: ('A' for Active; 'I' for Inactive)
REMARK    1  A    between atoms: C_3  and  C_1 
REMARK       I    between atoms: N_7  and  C_3 
REMARK    2  A    between atoms: C_5  and  N_10 
REMARK    3  A    between atoms: O_27  and  C_17 
REMARK    4  A    between atoms: O_28  and  C_19 
ROOT
ATOM      1  C   UNL d   1      -2.983  -2.350  -0.126  0.00  0.00     0.260 C 
ATOM      2  N   UNL d   1      -2.874  -3.705  -0.398  0.00  0.00    -0.345 N 
ATOM      3  N   UNL d   1      -2.365  -6.415  -1.243  0.00  0.00    -0.377 N 
ATOM      4  O   UNL d   1      -2.516  -1.845   0.895  0.00  0.00    -0.267 OA
ATOM      5  C   UNL d   1      -2.055  -4.584   0.456  0.00  0.00     0.146 C 
ATOM      6  C   UNL d   1      -3.829  -4.439  -1.224  0.00  0.00     0.146 C 
ATOM      7  C   UNL d   1      -3.130  -5.487  -2.087  0.00  0.00     0.143 C 
ATOM      8  C   UNL d   1      -1.403  -5.760  -0.326  0.00  0.00     0.143 C 
ENDROOT
BRANCH   1   9
ATOM      9  C   UNL d   1      -3.704  -1.484  -1.115  0.00  0.00     0.108 A 
ATOM     10  C   UNL d   1      -3.449  -1.592  -2.572  0.00  0.00     0.304 A 
ATOM     11  O   UNL d   1      -4.196  -0.771  -3.408  0.00  0.00    -0.274 OA
ATOM     12  O   UNL d   1      -2.646  -2.384  -3.054  0.00  0.00    -0.259 OA
ATOM     13  C   UNL d   1      -5.120   0.157  -2.902  0.00  0.00     0.092 A 
ATOM     14  C   UNL d   1      -5.328   0.282  -1.540  0.00  0.00     0.002 A 
ATOM     15  C   UNL d   1      -5.803   0.931  -3.838  0.00  0.00     0.077 A 
ATOM     16  C   UNL d   1      -4.568  -0.572  -0.633  0.00  0.00     0.037 A 
ATOM     17  C   UNL d   1      -6.274   1.214  -1.111  0.00  0.00     0.054 A 
ATOM     18  C   UNL d   1      -6.988   2.012  -2.033  0.00  0.00     0.102 A 
ATOM     19  C   UNL d   1      -6.745   1.876  -3.416  0.00  0.00     0.104 A 
BRANCH  18  20
ATOM     20  O   UNL d   1      -7.876   2.854  -1.407  0.00  0.00    -0.353 OA
ATOM     21  C   UNL d   1      -8.670   3.729  -2.195  0.00  0.00     0.210 C 
ENDBRANCH  18  20
BRANCH  19  22
ATOM     22  O   UNL d   1      -7.436   2.670  -4.290  0.00  0.00    -0.353 OA
ATOM     23  C   UNL d   1      -7.159   2.550  -5.681  0.00  0.00     0.210 C 
ENDBRANCH  19  22
ENDBRANCH   1   9
BRANCH   3  24
ATOM     24  C   UNL d   1      -2.511  -7.794  -1.357  0.00  0.00     0.044 A 
ATOM     25  C   UNL d   1      -2.811  -8.477  -2.591  0.00  0.00     0.017 A 
ATOM     26  C   UNL d   1      -3.112  -9.861  -2.520  0.00  0.00     0.044 A 
ATOM     27  C   UNL d   1      -2.820  -7.893  -3.889  0.00  0.00     0.016 A 
ATOM     28  C   UNL d   1      -3.482 -10.544  -3.675  0.00  0.00     0.030 A 
ATOM     29  N   UNL d   1      -3.052 -10.573  -1.389  0.00  0.00    -0.359 N 
ATOM     30  C   UNL d   1      -3.566  -9.921  -4.918  0.00  0.00     0.002 A 
ATOM     31  C   UNL d   1      -3.229  -8.586  -5.029  0.00  0.00     0.001 A 
ATOM     32  C   UNL d   1      -2.715  -9.941  -0.250  0.00  0.00     0.007 A 
ATOM     33  HN  UNL d   1      -3.257 -11.572  -1.390  1.00  0.00     0.166 HD
ATOM     34  C   UNL d   1      -2.447  -8.579  -0.199  0.00  0.00     0.054 A 
ATOM     35  C   UNL d   1      -2.657 -10.773   1.001  0.00  0.00     0.068 C 
ENDBRANCH   3  24
TORSDOF 4
