REMARK  6 active torsions:
REMARK  status: ('A' for Active; 'I' for Inactive)
REMARK    1  A    between atoms: C_2  and  N_1 
REMARK       I    between atoms: C_3  and  N_1 
REMARK    2  A    between atoms: N_4  and  C_2 
REMARK    3  A    between atoms: C_8  and  C_3 
REMARK    4  A    between atoms: C_5  and  N_4 
REMARK    5  A    between atoms: C_14  and  C_9 
REMARK    6  A    between atoms: C_15  and  C_10 
ROOT
ATOM      1  C   UNL d   1       0.123   0.483   0.891  0.00  0.00     0.179 C 
ATOM      2  S   UNL d   1      -1.541   0.332   0.859  0.00  0.00    -0.040 SA
ENDROOT
BRANCH   1   3
ATOM      3  N   UNL d   1       1.052  -0.227   0.153  0.00  0.00    -0.299 N 
ATOM      4  C   UNL d   1       0.870  -1.059  -0.954  0.00  0.00     0.257 C 
ATOM      5  O   UNL d   1      -0.213  -1.312  -1.462  0.00  0.00    -0.267 OA
ATOM      6  H   UNL d   1       1.985  -0.111   0.505  0.00  0.00     0.171 HD
BRANCH   4   7
ATOM      7  C   UNL d   1       2.101  -1.648  -1.583  0.00  0.00     0.032 A 
ATOM      8  C   UNL d   1       3.413  -1.356  -1.179  0.00  0.00     0.017 A 
ATOM      9  C   UNL d   1       4.502  -1.925  -1.851  0.00  0.00     0.001 A 
ATOM     10  C   UNL d   1       4.297  -2.788  -2.925  0.00  0.00     0.000 A 
ATOM     11  C   UNL d   1       3.002  -3.087  -3.335  0.00  0.00     0.001 A 
ATOM     12  C   UNL d   1       1.913  -2.520  -2.670  0.00  0.00     0.017 A 
ENDBRANCH   4   7
ENDBRANCH   1   3
BRANCH   1  13
ATOM     13  N   UNL d   1       0.641   1.351   1.821  0.00  0.00    -0.332 N 
ATOM     14  H   UNL d   1      -0.043   1.603   2.526  0.00  0.00     0.168 HD
BRANCH  13  15
ATOM     15  C   UNL d   1       1.882   2.030   1.907  0.00  0.00     0.046 A 
ATOM     16  C   UNL d   1       2.580   2.534   0.773  0.00  0.00    -0.031 A 
ATOM     17  C   UNL d   1       3.815   3.179   0.987  0.00  0.00     0.009 A 
ATOM     18  C   UNL d   1       4.321   3.391   2.265  0.00  0.00     0.001 A 
ATOM     19  C   UNL d   1       3.605   2.956   3.369  0.00  0.00     0.009 A 
ATOM     20  C   UNL d   1       2.382   2.280   3.214  0.00  0.00    -0.031 A 
BRANCH  16  21
ATOM     21  C   UNL d   1       2.060   2.441  -0.653  0.00  0.00     0.036 C 
ATOM     22  C   UNL d   1       2.348   3.601  -1.605  0.00  0.00     0.010 C 
ENDBRANCH  16  21
BRANCH  20  23
ATOM     23  C   UNL d   1       1.725   1.782   4.489  0.00  0.00     0.036 C 
ATOM     24  C   UNL d   1       2.335   0.475   4.978  0.00  0.00     0.010 C 
ENDBRANCH  20  23
ENDBRANCH  13  15
ENDBRANCH   1  13
TORSDOF 6
