REMARK  4 active torsions:
REMARK  status: ('A' for Active; 'I' for Inactive)
REMARK    1  A    between atoms: N_2  and  S_1 
REMARK    2  A    between atoms: C_9  and  S_1 
REMARK    3  A    between atoms: C_3  and  N_2 
REMARK    4  A    between atoms: N_4  and  C_12 
ROOT
ATOM      1  S   UNL d   1       1.136  -0.008   0.070  0.00  0.00     0.248 S 
ATOM      2  O   UNL d   1       0.377  -0.813   1.004  0.00  0.00    -0.205 OA
ATOM      3  O   UNL d   1       2.575  -0.145  -0.003  0.00  0.00    -0.205 OA
ENDROOT
BRANCH   1   4
ATOM      4  N   UNL d   1       0.696   1.579   0.378  0.00  0.00    -0.151 NA
ATOM      5  H   UNL d   1       0.582   1.700   1.379  0.00  0.00     0.149 HD
BRANCH   4   6
ATOM      6  C   UNL d   1       1.579   2.518  -0.148  0.00  0.00     0.171 A 
ATOM      7  N   UNL d   1       1.384   2.908  -1.409  0.00  0.00    -0.336 N 
ATOM      8  C   UNL d   1       2.291   3.778  -1.895  0.00  0.00     0.009 A 
ATOM      9  HN  UNL d   1       0.601   2.570  -1.968  1.00  0.00     0.168 HD
ATOM     10  C   UNL d   1       2.080   4.297  -3.287  0.00  0.00     0.068 C 
ATOM     11  C   UNL d   1       3.389   4.190  -1.160  0.00  0.00     0.049 A 
ATOM     12  C   UNL d   1       3.498   3.694   0.127  0.00  0.00     0.009 A 
ATOM     13  N   UNL d   1       2.573   2.877   0.665  0.00  0.00    -0.336 N 
ATOM     14  C   UNL d   1       4.686   4.040   0.972  0.00  0.00     0.068 C 
ATOM     15  HN  UNL d   1       2.629   2.554   1.631  1.00  0.00     0.168 HD
ENDBRANCH   4   6
ENDBRANCH   1   4
BRANCH   1  16
ATOM     16  C   UNL d   1       0.474  -0.329  -1.548  0.00  0.00     0.075 A 
ATOM     17  C   UNL d   1       1.267  -0.087  -2.668  0.00  0.00     0.027 A 
ATOM     18  C   UNL d   1       0.775  -0.375  -3.943  0.00  0.00     0.031 A 
ATOM     19  C   UNL d   1      -0.507  -0.924  -4.107  0.00  0.00     0.038 A 
ATOM     20  C   UNL d   1      -1.279  -1.200  -2.966  0.00  0.00     0.031 A 
ATOM     21  C   UNL d   1      -0.788  -0.907  -1.687  0.00  0.00     0.027 A 
BRANCH  19  22
ATOM     22  N   UNL d   1      -1.016  -1.188  -5.418  0.00  0.00    -0.333 N 
ATOM     23  C   UNL d   1      -2.289  -1.625  -5.740  0.00  0.00     0.096 A 
ATOM     24  C   UNL d   1      -2.405  -1.733  -7.110  0.00  0.00     0.019 A 
ATOM     25  C   UNL d   1      -1.165  -1.363  -7.663  0.00  0.00     0.019 A 
ATOM     26  C   UNL d   1      -0.334  -1.039  -6.614  0.00  0.00     0.096 A 
ENDBRANCH  19  22
ENDBRANCH   1  16
TORSDOF 4
