REMARK  5 active torsions:
REMARK  status: ('A' for Active; 'I' for Inactive)
REMARK    1  A    between atoms: C_4  and  C_1 
REMARK    2  A    between atoms: N_2  and  C_3 
REMARK    3  A    between atoms: O_7  and  C_4 
REMARK    4  A    between atoms: C_12  and  O_7 
REMARK    5  A    between atoms: O_20  and  C_14 
ROOT
ATOM      1  C   UNL d   1       3.756   0.052   0.004  0.00  0.00     0.301 C 
ATOM      2  O   UNL d   1       2.578   0.103  -0.311  0.00  0.00    -0.259 OA
ENDROOT
BRANCH   1   3
ATOM      3  C   UNL d   1       4.446   1.221   0.586  0.00  0.00     0.072 A 
ATOM      4  C   UNL d   1       5.673   1.729   0.147  0.00  0.00     0.120 A 
ATOM      5  C   UNL d   1       6.255   2.846   0.774  0.00  0.00     0.060 A 
ATOM      6  C   UNL d   1       5.586   3.463   1.829  0.00  0.00     0.036 A 
ATOM      7  C   UNL d   1       4.350   2.985   2.260  0.00  0.00     0.025 A 
ATOM      8 CL   UNL d   1       6.277   4.842   2.589  0.00  0.00    -0.084 Cl
ATOM      9  C   UNL d   1       3.782   1.867   1.642  0.00  0.00     0.022 A 
BRANCH   4  10
ATOM     10  N   UNL d   1       6.349   1.180  -1.019  0.00  0.00    -0.115 N 
ATOM     11  O   UNL d   1       5.646   0.773  -1.950  0.00  0.00    -0.532 OA
ATOM     12  O   UNL d   1       7.586   1.198  -1.014  0.00  0.00    -0.532 OA
ENDBRANCH   4  10
ENDBRANCH   1   3
BRANCH   1  13
ATOM     13  O   UNL d   1       4.592  -1.049   0.076  0.00  0.00    -0.275 OA
BRANCH  13  14
ATOM     14  C   UNL d   1       4.165  -2.387  -0.136  0.00  0.00     0.079 A 
ATOM     15  C   UNL d   1       2.832  -2.785  -0.209  0.00  0.00     0.040 A 
ATOM     16  C   UNL d   1       2.511  -4.145  -0.311  0.00  0.00     0.039 A 
ATOM     17  C   UNL d   1       3.518  -5.110  -0.324  0.00  0.00     0.068 A 
ATOM     18  C   UNL d   1       4.853  -4.699  -0.289  0.00  0.00     0.039 A 
ATOM     19  C   UNL d   1       5.180  -3.343  -0.192  0.00  0.00     0.040 A 
BRANCH  17  20
ATOM     20  O   UNL d   1       3.325  -6.464  -0.365  0.00  0.00    -0.356 OA
ATOM     21  C   UNL d   1       1.996  -6.924  -0.142  0.00  0.00     0.210 C 
ENDBRANCH  17  20
ENDBRANCH  13  14
ENDBRANCH   1  13
TORSDOF 5
