REMARK  4 active torsions:
REMARK  status: ('A' for Active; 'I' for Inactive)
REMARK    1  A    between atoms: C_4  and  N_1 
REMARK    2  A    between atoms: N_5  and  C_2 
REMARK    3  A    between atoms: C_3  and  N_6 
REMARK    4  A    between atoms: N_6  and  N_5 
ROOT
ATOM      1  C   UNL d   1      -0.317  -3.142   1.112  0.00  0.00     0.126 A 
ATOM      2  C   UNL d   1      -0.683  -2.414  -0.035  0.00  0.00     0.078 A 
ATOM      3  N   UNL d   1      -0.758  -4.416   1.316  0.00  0.00    -0.354 N 
ATOM      4  HN  UNL d   1      -0.528  -4.917   2.174  1.00  0.00     0.166 HD
ATOM      5  C   UNL d   1      -1.465  -3.058  -1.009  0.00  0.00     0.035 A 
ATOM      6  C   UNL d   1      -1.507  -4.999   0.357  0.00  0.00     0.089 A 
ATOM      7  C   UNL d   1      -1.879  -4.370  -0.814  0.00  0.00     0.019 A 
ENDROOT
BRANCH   1   8
ATOM      8  N   UNL d   1       0.556  -2.594   2.082  0.00  0.00    -0.186 NA
ATOM      9  H   UNL d   1       1.450  -2.347   1.649  0.00  0.00     0.154 HD
BRANCH   8  10
ATOM     10  N   UNL d   1       0.741  -3.409   3.216  0.00  0.00    -0.292 N 
ATOM     11  H   UNL d   1      -0.060  -4.009   3.394  0.00  0.00     0.183 HD
BRANCH  10  12
ATOM     12  C   UNL d   1       1.504  -2.936   4.253  0.00  0.00     0.182 C 
ATOM     13  S   UNL d   1       2.547  -1.626   4.174  0.00  0.00    -0.040 SA
ATOM     14  N   UNL d   1       1.444  -3.619   5.429  0.00  0.00    -0.371 N 
ATOM     15  C   UNL d   1       0.840  -4.903   5.712  0.00  0.00     0.148 C 
ATOM     16  H   UNL d   1       2.015  -3.213   6.162  0.00  0.00     0.161 HD
ENDBRANCH  10  12
ENDBRANCH   8  10
ENDBRANCH   1   8
BRANCH   2  17
ATOM     17  N   UNL d   1      -0.342  -1.039  -0.233  0.00  0.00    -0.330 N 
ATOM     18  C   UNL d   1      -0.286  -0.386  -1.454  0.00  0.00     0.097 A 
ATOM     19  C   UNL d   1       0.036   0.938  -1.253  0.00  0.00     0.019 A 
ATOM     20  C   UNL d   1       0.180   1.125   0.133  0.00  0.00     0.019 A 
ATOM     21  C   UNL d   1      -0.060  -0.091   0.737  0.00  0.00     0.097 A 
ENDBRANCH   2  17
TORSDOF 4
