REMARK  3 active torsions:
REMARK  status: ('A' for Active; 'I' for Inactive)
REMARK    1  A    between atoms: C_19  and  C_2 
REMARK    2  A    between atoms: O_21  and  C_2 
REMARK    3  A    between atoms: N_23  and  C_12 
ROOT
ATOM      1  C   UNL d   1       0.998   0.129   0.051  0.00  0.00     0.032 C 
ATOM      2  C   UNL d   1       1.243  -2.624  -0.228  0.00  0.00     0.178 C 
ATOM      3  C   UNL d   1       0.176  -2.166   0.800  0.00  0.00     0.166 C 
ATOM      4  C   UNL d   1       2.271  -0.425  -0.135  0.00  0.00     0.066 C 
ATOM      5  C   UNL d   1      -0.133  -0.653   0.661  0.00  0.00     0.084 C 
ATOM      6  C   UNL d   1       0.799   1.474  -0.212  0.00  0.00     0.158 C 
ATOM      7  N   UNL d   1       2.432  -1.811   0.006  0.00  0.00    -0.352 N 
ATOM      8  C   UNL d   1       3.341   0.454  -0.348  0.00  0.00     0.109 C 
ATOM      9  N   UNL d   1       1.818   2.328  -0.462  0.00  0.00    -0.326 N 
ATOM     10  HN  UNL d   1       1.646   3.319  -0.631  1.00  0.00     0.169 HD
ATOM     11  C   UNL d   1      -1.460  -0.189   0.106  0.00  0.00    -0.012 A 
ATOM     12  C   UNL d   1       3.069   1.823  -0.480  0.00  0.00     0.103 C 
ATOM     13  O   UNL d   1      -0.470   2.030  -0.208  0.00  0.00    -0.293 OA
ATOM     14  C   UNL d   1      -1.559   1.174  -0.225  0.00  0.00     0.085 A 
ATOM     15  C   UNL d   1       0.680  -2.373   2.187  0.00  0.00     0.070 C 
ATOM     16  C   UNL d   1       4.684  -0.034  -0.451  0.00  0.00     0.105 C 
ATOM     17  N   UNL d   1       1.013  -2.452   3.296  0.00  0.00    -0.197 NA
ATOM     18  N   UNL d   1       5.756  -0.455  -0.585  0.00  0.00    -0.191 NA
ATOM     19  C   UNL d   1      -2.623  -0.975   0.093  0.00  0.00     0.034 A 
ATOM     20  C   UNL d   1      -2.803   1.740  -0.525  0.00  0.00     0.039 A 
ATOM     21  C   UNL d   1      -3.852  -0.413  -0.251  0.00  0.00     0.034 A 
ATOM     22  C   UNL d   1      -3.951   0.944  -0.539  0.00  0.00     0.026 A 
ATOM     23 CL   UNL d   1      -5.256  -1.409  -0.280  0.00  0.00    -0.084 Cl
ATOM     24  H   UNL d   1       3.291  -2.247  -0.314  0.00  0.00     0.163 HD
ENDROOT
BRANCH   2  25
ATOM     25  C   UNL d   1       0.827  -2.583  -1.716  0.00  0.00    -0.002 A 
ATOM     26  C   UNL d   1       1.800  -2.456  -2.731  0.00  0.00     0.012 A 
ATOM     27  C   UNL d   1       1.442  -2.303  -4.073  0.00  0.00     0.001 A 
ATOM     28  C   UNL d   1       0.103  -2.303  -4.441  0.00  0.00     0.000 A 
ATOM     29  C   UNL d   1      -0.873  -2.515  -3.473  0.00  0.00     0.001 A 
ATOM     30  C   UNL d   1      -0.512  -2.683  -2.131  0.00  0.00     0.012 A 
ENDBRANCH   2  25
BRANCH   2  31
ATOM     31  O   UNL d   1       1.607  -3.971   0.043  0.00  0.00    -0.365 OA
ATOM     32  H   UNL d   1       1.096  -4.549  -0.548  0.00  0.00     0.213 HD
ENDBRANCH   2  31
BRANCH  12  33
ATOM     33  N   UNL d   1       4.084   2.776  -0.536  0.00  0.00    -0.287 NA
ATOM     34  H   UNL d   1       3.666   3.693  -0.656  0.00  0.00     0.125 HD
ATOM     35  H   UNL d   1       4.822   2.583  -1.202  0.00  0.00     0.125 HD
ENDBRANCH  12  33
TORSDOF 3
