REMARK  5 active torsions:
REMARK  status: ('A' for Active; 'I' for Inactive)
REMARK    1  A    between atoms: C_2  and  C_1 
REMARK    2  A    between atoms: O_4  and  C_2 
REMARK    3  A    between atoms: C_9  and  O_4 
REMARK    4  A    between atoms: C_6  and  C_9 
REMARK    5  A    between atoms: C_7  and  C_6 
ROOT
ATOM      1  O   UNL d   1      -3.541  -1.077  -0.402  0.00  0.00    -0.310 OA
ENDROOT
BRANCH   1   2
ATOM      2  C   UNL d   1      -2.594  -0.181  -0.012  0.00  0.00     0.295 C 
ATOM      3  O   UNL d   1      -1.446  -0.492   0.262  0.00  0.00    -0.259 OA
BRANCH   2   4
ATOM      4  C   UNL d   1      -3.195   1.194   0.132  0.00  0.00     0.056 A 
ATOM      5  C   UNL d   1      -2.446   2.341   0.456  0.00  0.00     0.022 A 
ATOM      6  C   UNL d   1      -3.089   3.580   0.631  0.00  0.00     0.020 A 
ATOM      7  I   UNL d   1      -0.355   2.417   0.705  0.00  0.00    -0.043 I 
ATOM      8  C   UNL d   1      -4.471   3.699   0.488  0.00  0.00     0.008 A 
ATOM      9  C   UNL d   1      -5.237   2.579   0.167  0.00  0.00    -0.061 A 
ATOM     10  C   UNL d   1      -4.595   1.343  -0.011  0.00  0.00     0.025 A 
ATOM     11  C   UNL d   1      -6.721   2.717  -0.005  0.00  0.00     0.048 C 
ENDBRANCH   2   4
ENDBRANCH   1   2
BRANCH   1  12
ATOM     12  C   UNL d   1      -3.152  -2.451  -0.322  0.00  0.00     0.263 C 
BRANCH  12  13
ATOM     13  C   UNL d   1      -2.547  -3.045  -1.597  0.00  0.00     0.183 C 
ATOM     14  O   UNL d   1      -2.508  -2.430  -2.660  0.00  0.00    -0.290 OA
BRANCH  13  15
ATOM     15  C   UNL d   1      -2.012  -4.447  -1.532  0.00  0.00     0.012 A 
ATOM     16  C   UNL d   1      -2.151  -5.249  -0.389  0.00  0.00     0.016 A 
ATOM     17  C   UNL d   1      -1.599  -6.535  -0.352  0.00  0.00     0.020 A 
ATOM     18  C   UNL d   1      -0.914  -7.029  -1.459  0.00  0.00     0.011 A 
ATOM     19  C   UNL d   1      -0.794  -6.258  -2.613  0.00  0.00     0.020 A 
ATOM     20 BR   UNL d   1      -0.132  -8.748  -1.385  0.00  0.00    -0.051 Br
ATOM     21  C   UNL d   1      -1.345  -4.971  -2.649  0.00  0.00     0.016 A 
ENDBRANCH  13  15
ENDBRANCH  12  13
ENDBRANCH   1  12
TORSDOF 5
