REMARK  0 active torsions:
REMARK  status: ('A' for Active; 'I' for Inactive)
ROOT
ATOM      1  N   UNL d   1       1.179   1.377  -0.041  0.00  0.00    -0.359 N 
ATOM      2  HN  UNL d   1       1.163   2.397  -0.058  1.00  0.00     0.166 HD
ATOM      3  C   UNL d   1       0.033   0.674  -0.030  0.00  0.00     0.042 A 
ATOM      4  C   UNL d   1       0.014  -0.737  -0.005  0.00  0.00    -0.006 A 
ATOM      5  C   UNL d   1      -1.208  -1.430  -0.005  0.00  0.00     0.056 A 
ATOM      6  C   UNL d   1      -1.181   1.351  -0.050  0.00  0.00     0.033 A 
ATOM      7  C   UNL d   1       2.354   0.704  -0.029  0.00  0.00     0.005 A 
ATOM      8  C   UNL d   1       1.240  -1.410   0.014  0.00  0.00     0.016 A 
ATOM      9  C   UNL d   1      -2.401  -0.719  -0.032  0.00  0.00     0.117 A 
ATOM     10  C   UNL d   1       2.425  -0.682  -0.001  0.00  0.00     0.025 A 
ATOM     11  C   UNL d   1      -2.400   0.667  -0.053  0.00  0.00     0.044 A 
ATOM     12  F   UNL d   1      -3.565  -1.381  -0.040  0.00  0.00    -0.206 F 
ATOM     13  C   UNL d   1       3.611   1.521  -0.071  0.00  0.00     0.068 C 
ENDROOT
TORSDOF 0
