REMARK  5 active torsions:
REMARK  status: ('A' for Active; 'I' for Inactive)
REMARK    1  A    between atoms: C_7  and  O_9 
REMARK    2  A    between atoms: C_20  and  C_7 
REMARK    3  A    between atoms: O_9  and  C_8 
REMARK    4  A    between atoms: C_17  and  O_21 
REMARK    5  A    between atoms: O_21  and  C_22 
ROOT
ATOM      1  C   UNL d   1      -5.020  -0.650   1.774  0.00  0.00    -0.017 C 
ATOM      2  C   UNL d   1      -7.053   0.157  -2.013  0.00  0.00    -0.013 C 
ATOM      3  C   UNL d   1      -3.498  -0.695   1.631  0.00  0.00    -0.072 C 
ATOM      4  C   UNL d   1      -5.707  -0.543   0.382  0.00  0.00     0.003 C 
ATOM      5  C   UNL d   1      -5.515  -0.235  -2.092  0.00  0.00     0.001 C 
ATOM      6  C   UNL d   1      -5.016  -1.086  -0.881  0.00  0.00    -0.001 C 
ATOM      7  C   UNL d   1      -6.957   1.699  -1.791  0.00  0.00     0.140 C 
ATOM      8  C   UNL d   1      -2.862  -1.002   0.490  0.00  0.00    -0.023 C 
ATOM      9  C   UNL d   1      -7.913  -0.446  -0.870  0.00  0.00     0.012 C 
ATOM     10  C   UNL d   1      -3.494  -1.236  -0.835  0.00  0.00     0.033 C 
ATOM     11  C   UNL d   1      -7.161  -1.030   0.321  0.00  0.00     0.007 C 
ATOM     12  C   UNL d   1      -5.468   0.648   2.551  0.00  0.00     0.016 C 
ATOM     13  C   UNL d   1      -4.774   1.134  -2.311  0.00  0.00     0.008 C 
ATOM     14  C   UNL d   1      -2.668  -0.239   2.819  0.00  0.00     0.067 C 
ATOM     15  C   UNL d   1      -5.855   2.156  -2.713  0.00  0.00     0.034 C 
ATOM     16  C   UNL d   1      -3.130   1.147   3.290  0.00  0.00     0.136 C 
ATOM     17  C   UNL d   1      -4.588   1.026   3.736  0.00  0.00     0.034 C 
ATOM     18  C   UNL d   1      -5.505  -1.877   2.576  0.00  0.00     0.020 C 
ATOM     19  C   UNL d   1      -7.676  -0.271  -3.361  0.00  0.00     0.018 C 
ENDROOT
BRANCH   7  20
ATOM     20  O   UNL d   1      -8.137   2.471  -1.548  0.00  0.00    -0.311 OA
BRANCH  20  21
ATOM     21  C   UNL d   1      -8.913   3.053  -2.459  0.00  0.00     0.293 C 
ATOM     22  O   UNL d   1      -8.859   2.908  -3.673  0.00  0.00    -0.259 OA
BRANCH  21  23
ATOM     23  C   UNL d   1      -9.873   3.960  -1.741  0.00  0.00     0.039 A 
ATOM     24  C   UNL d   1     -10.975   4.457  -2.434  0.00  0.00     0.017 A 
ATOM     25  C   UNL d   1     -11.861   5.344  -1.802  0.00  0.00     0.001 A 
ATOM     26  C   UNL d   1     -11.646   5.732  -0.484  0.00  0.00     0.000 A 
ATOM     27  C   UNL d   1     -10.551   5.235   0.223  0.00  0.00     0.001 A 
ATOM     28  C   UNL d   1      -9.666   4.346  -0.401  0.00  0.00     0.017 A 
ENDBRANCH  21  23
ENDBRANCH  20  21
ENDBRANCH   7  20
BRANCH  16  29
ATOM     29  O   UNL d   1      -3.007   2.058   2.164  0.00  0.00    -0.316 OA
BRANCH  29  30
ATOM     30  C   UNL d   1      -3.179   3.380   2.405  0.00  0.00     0.255 C 
ATOM     31  O   UNL d   1      -3.264   3.890   3.511  0.00  0.00    -0.266 OA
ATOM     32  C   UNL d   1      -3.359   4.132   1.116  0.00  0.00     0.126 C 
ENDBRANCH  29  30
ENDBRANCH  16  29
TORSDOF 5
