REMARK  6 active torsions:
REMARK  status: ('A' for Active; 'I' for Inactive)
REMARK    1  A    between atoms: C_2  and  S_1 
REMARK    2  A    between atoms: N_7  and  S_1 
REMARK    3  A    between atoms: C_4  and  O_10 
REMARK    4  A    between atoms: C_24  and  C_6 
REMARK    5  A    between atoms: C_25  and  N_7 
REMARK    6  A    between atoms: O_10  and  C_18 
ROOT
ATOM      1  N   UNL d   1       2.251   4.308   1.285  0.00  0.00    -0.344 N 
ATOM      2  HN  UNL d   1       3.199   4.510   1.604  1.00  0.00     0.167 HD
ATOM      3  C   UNL d   1       1.242   5.192   1.452  0.00  0.00     0.149 A 
ATOM      4  C   UNL d   1       0.654   2.804   0.248  0.00  0.00     0.058 A 
ATOM      5  C   UNL d   1       1.938   3.140   0.670  0.00  0.00     0.120 A 
ATOM      6  C   UNL d   1      -0.079   4.919   1.117  0.00  0.00     0.059 A 
ATOM      7  C   UNL d   1      -0.373   3.708   0.496  0.00  0.00     0.036 A 
ENDROOT
BRANCH   4   8
ATOM      8  N   UNL d   1       0.389   1.600  -0.451  0.00  0.00    -0.279 N 
ATOM      9  H   UNL d   1      -0.007   1.655  -1.391  0.00  0.00     0.179 HD
BRANCH   8  10
ATOM     10  S   UNL d   1       0.020   0.198   0.382  0.00  0.00     0.269 S 
ATOM     11  O   UNL d   1      -0.394  -0.774  -0.611  0.00  0.00    -0.200 OA
ATOM     12  O   UNL d   1       1.104  -0.081   1.305  0.00  0.00    -0.200 OA
BRANCH  10  13
ATOM     13  C   UNL d   1      -1.410   0.422   1.433  0.00  0.00     0.121 A 
ATOM     14  S   UNL d   1      -2.896   0.816   0.681  0.00  0.00    -0.074 SA
ATOM     15  C   UNL d   1      -3.753   0.811   2.175  0.00  0.00     0.033 A 
ATOM     16  C   UNL d   1      -2.893   0.534   3.225  0.00  0.00     0.023 A 
ATOM     17  C   UNL d   1      -1.560   0.286   2.798  0.00  0.00     0.034 A 
BRANCH  15  18
ATOM     18  C   UNL d   1      -5.199   1.070   2.256  0.00  0.00     0.049 A 
ATOM     19  N   UNL d   1      -5.590   1.667   3.412  0.00  0.00    -0.365 N 
ATOM     20  C   UNL d   1      -6.915   1.860   3.598  0.00  0.00     0.088 A 
ATOM     21  HN  UNL d   1      -4.909   1.959   4.113  1.00  0.00     0.165 HD
ATOM     22  C   UNL d   1      -7.886   1.474   2.690  0.00  0.00     0.017 A 
ATOM     23  C   UNL d   1      -7.470   0.867   1.511  0.00  0.00     0.004 A 
ATOM     24  C   UNL d   1      -6.109   0.664   1.285  0.00  0.00     0.031 A 
ENDBRANCH  15  18
ENDBRANCH  10  13
ENDBRANCH   8  10
ENDBRANCH   4   8
BRANCH   3  25
ATOM     25  O   UNL d   1       1.464   6.397   2.099  0.00  0.00    -0.276 OA
BRANCH  25  26
ATOM     26  C   UNL d   1       2.663   7.052   1.844  0.00  0.00     0.163 A 
ATOM     27  C   UNL d   1       3.165   7.865   2.866  0.00  0.00     0.042 A 
ATOM     28  C   UNL d   1       4.336   8.560   2.540  0.00  0.00     0.049 A 
ATOM     29  C   UNL d   1       2.579   8.021   4.146  0.00  0.00     0.020 A 
ATOM     30  C   UNL d   1       4.901   9.394   3.496  0.00  0.00     0.054 A 
ATOM     31  N   UNL d   1       4.926   8.451   1.343  0.00  0.00    -0.351 N 
ATOM     32  C   UNL d   1       4.327   9.542   4.760  0.00  0.00     0.036 A 
ATOM     33  C   UNL d   1       3.164   8.858   5.091  0.00  0.00     0.025 A 
ATOM     34 CL   UNL d   1       5.065  10.578   5.918  0.00  0.00    -0.084 Cl
ATOM     35  C   UNL d   1       4.333   7.656   0.440  0.00  0.00     0.182 A 
ATOM     36  HN  UNL d   1       5.788   8.951   1.128  1.00  0.00     0.166 HD
ATOM     37  N   UNL d   1       3.200   6.973   0.611  0.00  0.00    -0.332 N 
ATOM     38  HN  UNL d   1       2.770   6.430  -0.138  1.00  0.00     0.168 HD
ENDBRANCH  25  26
ENDBRANCH   3  25
TORSDOF 6
