REMARK  3 active torsions:
REMARK  status: ('A' for Active; 'I' for Inactive)
REMARK    1  A    between atoms: C_9  and  C_3 
REMARK    2  A    between atoms: C_8  and  C_4 
REMARK    3  A    between atoms: C_10  and  C_5 
ROOT
ATOM      1  N   UNL d   1      -1.338  -0.042   0.002  0.00  0.00    -0.355 N 
ATOM      2  HN  UNL d   1      -2.358  -0.077   0.009  1.00  0.00     0.166 HD
ATOM      3  C   UNL d   1      -0.687   1.147  -0.044  0.00  0.00     0.043 A 
ATOM      4  C   UNL d   1      -0.606  -1.183   0.039  0.00  0.00     0.043 A 
ATOM      5  C   UNL d   1       1.482   0.052  -0.019  0.00  0.00    -0.022 A 
ATOM      6  C   UNL d   1       0.706   1.216  -0.082  0.00  0.00     0.042 A 
ATOM      7  C   UNL d   1       0.788  -1.158   0.056  0.00  0.00     0.042 A 
ENDROOT
BRANCH   3   8
ATOM      8  C   UNL d   1      -1.534   2.361  -0.066  0.00  0.00    -0.009 A 
ATOM      9  C   UNL d   1      -1.109   3.573   0.516  0.00  0.00     0.015 A 
ATOM     10  C   UNL d   1      -1.897   4.728   0.459  0.00  0.00     0.020 A 
ATOM     11  C   UNL d   1      -3.134   4.687  -0.174  0.00  0.00     0.011 A 
ATOM     12  C   UNL d   1      -3.594   3.501  -0.738  0.00  0.00     0.020 A 
ATOM     13 BR   UNL d   1      -4.193   6.250  -0.266  0.00  0.00    -0.051 Br
ATOM     14  C   UNL d   1      -2.800   2.349  -0.679  0.00  0.00     0.015 A 
ENDBRANCH   3   8
BRANCH   4  15
ATOM     15  C   UNL d   1      -1.366  -2.453   0.077  0.00  0.00    -0.009 A 
ATOM     16  C   UNL d   1      -0.871  -3.631  -0.520  0.00  0.00     0.015 A 
ATOM     17  C   UNL d   1      -1.567  -4.843  -0.438  0.00  0.00     0.020 A 
ATOM     18  C   UNL d   1      -2.781  -4.892   0.236  0.00  0.00     0.011 A 
ATOM     19  C   UNL d   1      -3.312  -3.743   0.812  0.00  0.00     0.020 A 
ATOM     20 BR   UNL d   1      -3.713  -6.532   0.368  0.00  0.00    -0.051 Br
ATOM     21  C   UNL d   1      -2.609  -2.534   0.728  0.00  0.00     0.015 A 
ENDBRANCH   4  15
BRANCH   5  22
ATOM     22  C   UNL d   1       2.963   0.103  -0.035  0.00  0.00    -0.026 A 
ATOM     23  C   UNL d   1       3.726  -0.917  -0.636  0.00  0.00     0.012 A 
ATOM     24  C   UNL d   1       5.123  -0.873  -0.653  0.00  0.00     0.001 A 
ATOM     25  C   UNL d   1       5.794   0.203  -0.081  0.00  0.00     0.000 A 
ATOM     26  C   UNL d   1       5.068   1.227   0.516  0.00  0.00     0.001 A 
ATOM     27  C   UNL d   1       3.671   1.173   0.545  0.00  0.00     0.012 A 
ENDBRANCH   5  22
TORSDOF 3
