REMARK  2 active torsions:
REMARK  status: ('A' for Active; 'I' for Inactive)
REMARK    1  A    between atoms: C_5  and  C_1 
REMARK       I    between atoms: N_9  and  C_5 
REMARK    2  A    between atoms: N_10  and  N_9 
ROOT
ATOM      1  C   UNL d   1      -2.647   0.745   0.011  0.00  0.00     0.096 A 
ATOM      2  S   UNL d   1      -1.290   1.862  -0.112  0.00  0.00    -0.081 SA
ATOM      3  C   UNL d   1      -2.474  -0.605   0.005  0.00  0.00     0.028 A 
ATOM      4  N   UNL d   1      -1.233  -1.233  -0.080  0.00  0.00    -0.358 N 
ATOM      5  C   UNL d   1       0.128   0.796  -0.056  0.00  0.00     0.032 A 
ATOM      6  C   UNL d   1       0.015  -0.598  -0.046  0.00  0.00     0.049 A 
ATOM      7  C   UNL d   1      -3.593  -1.628   0.095  0.00  0.00     0.070 C 
ATOM      8  C   UNL d   1       1.395   1.395  -0.029  0.00  0.00     0.021 A 
ATOM      9  C   UNL d   1       1.185  -1.374  -0.030  0.00  0.00     0.031 A 
ATOM     10  C   UNL d   1       2.445  -0.770  -0.001  0.00  0.00     0.002 A 
ATOM     11  C   UNL d   1       2.550   0.615   0.003  0.00  0.00     0.002 A 
ATOM     12  H   UNL d   1      -1.227  -2.244  -0.004  0.00  0.00     0.166 HD
ENDROOT
BRANCH   1  13
ATOM     13  C   UNL d   1      -4.006   1.435   0.094  0.00  0.00     0.274 C 
ATOM     14  O   UNL d   1      -5.086   0.849   0.095  0.00  0.00    -0.266 OA
ATOM     15  N   UNL d   1      -3.959   2.826   0.167  0.00  0.00    -0.289 N 
ATOM     16  H   UNL d   1      -3.054   3.293   0.212  0.00  0.00     0.183 HD
BRANCH  15  17
ATOM     17  N   UNL d   1      -5.144   3.582   0.287  0.00  0.00    -0.247 NA
ATOM     18  H   UNL d   1      -5.878   2.932   0.597  0.00  0.00     0.143 HD
ATOM     19  H   UNL d   1      -5.439   3.848  -0.657  0.00  0.00     0.143 HD
ENDBRANCH  15  17
ENDBRANCH   1  13
TORSDOF 2
