REMARK  4 active torsions:
REMARK  status: ('A' for Active; 'I' for Inactive)
REMARK    1  A    between atoms: C_7  and  C_1 
REMARK    2  A    between atoms: C_9  and  N_3 
REMARK    3  A    between atoms: O_10  and  C_4 
REMARK    4  A    between atoms: C_12  and  C_7 
ROOT
ATOM      1  C   UNL d   1       2.394  -0.681  -0.195  0.00  0.00     0.049 C 
ATOM      2  C   UNL d   1       2.360   0.811  -0.335  0.00  0.00     0.262 C 
ATOM      3  N   UNL d   1       1.134   1.444  -0.143  0.00  0.00    -0.278 N 
ATOM      4  C   UNL d   1       1.247  -1.361  -0.019  0.00  0.00     0.090 C 
ATOM      5  C   UNL d   1      -0.094   0.729  -0.014  0.00  0.00     0.056 A 
ATOM      6  C   UNL d   1      -0.052  -0.674   0.021  0.00  0.00     0.025 A 
ATOM      7  O   UNL d   1       3.413   1.410  -0.560  0.00  0.00    -0.267 OA
ATOM      8  C   UNL d   1      -1.348   1.369   0.006  0.00  0.00     0.031 A 
ATOM      9  C   UNL d   1      -1.253  -1.403   0.085  0.00  0.00     0.016 A 
ATOM     10  C   UNL d   1      -2.534   0.633   0.064  0.00  0.00     0.002 A 
ATOM     11  C   UNL d   1      -2.487  -0.754   0.102  0.00  0.00     0.001 A 
ENDROOT
BRANCH   1  12
ATOM     12  C   UNL d   1       3.775  -1.298  -0.177  0.00  0.00     0.085 C 
BRANCH  12  13
ATOM     13  C   UNL d   1       4.154  -1.956  -1.486  0.00  0.00    -0.054 A 
ATOM     14  C   UNL d   1       4.339  -1.183  -2.640  0.00  0.00     0.007 A 
ATOM     15  C   UNL d   1       4.657  -1.790  -3.857  0.00  0.00     0.001 A 
ATOM     16  C   UNL d   1       4.803  -3.173  -3.930  0.00  0.00     0.000 A 
ATOM     17  C   UNL d   1       4.643  -3.950  -2.785  0.00  0.00     0.001 A 
ATOM     18  C   UNL d   1       4.328  -3.344  -1.567  0.00  0.00     0.007 A 
ENDBRANCH  12  13
ENDBRANCH   1  12
BRANCH   4  19
ATOM     19  O   UNL d   1       1.184  -2.732   0.134  0.00  0.00    -0.359 OA
ATOM     20  H   UNL d   1       2.030  -3.122  -0.138  0.00  0.00     0.217 HD
ENDBRANCH   4  19
BRANCH   3  21
ATOM     21  C   UNL d   1       1.114   2.861  -0.057  0.00  0.00     0.043 A 
ATOM     22  C   UNL d   1       1.421   3.642  -1.176  0.00  0.00     0.030 A 
ATOM     23  C   UNL d   1       1.459   5.033  -1.067  0.00  0.00     0.002 A 
ATOM     24  C   UNL d   1       1.221   5.644   0.164  0.00  0.00     0.000 A 
ATOM     25  C   UNL d   1       0.933   4.869   1.287  0.00  0.00     0.002 A 
ATOM     26  C   UNL d   1       0.872   3.479   1.178  0.00  0.00     0.030 A 
ENDBRANCH   3  21
TORSDOF 4
