REMARK  2 active torsions:
REMARK  status: ('A' for Active; 'I' for Inactive)
REMARK    1  A    between atoms: C_10  and  N_1 
REMARK    2  A    between atoms: C_13  and  C_9 
ROOT
ATOM      1  N   UNL d   1       2.194   0.662   0.083  0.00  0.00    -0.254 N 
ATOM      2  C   UNL d   1      -0.219   0.650  -0.007  0.00  0.00     0.068 A 
ATOM      3  C   UNL d   1      -0.136  -0.702   0.009  0.00  0.00     0.092 A 
ATOM      4  C   UNL d   1       2.225  -0.756   0.142  0.00  0.00     0.186 A 
ATOM      5  C   UNL d   1       1.001   1.433  -0.011  0.00  0.00     0.267 A 
ATOM      6  N   UNL d   1       1.019  -1.412   0.056  0.00  0.00    -0.326 N 
ATOM      7  C   UNL d   1      -1.589   1.060  -0.013  0.00  0.00     0.039 A 
ATOM      8  S   UNL d   1      -1.598  -1.511  -0.019  0.00  0.00    -0.071 SA
ATOM      9  C   UNL d   1      -2.472  -0.016   0.002  0.00  0.00     0.018 A 
ATOM     10  S   UNL d   1       3.565  -1.752   0.372  0.00  0.00    -0.040 SA
ATOM     11  O   UNL d   1       0.945   2.657  -0.113  0.00  0.00    -0.267 OA
ATOM     12  H   UNL d   1       0.993  -2.425   0.104  0.00  0.00     0.169 HD
ENDROOT
BRANCH   1  13
ATOM     13  C   UNL d   1       3.423   1.407   0.040  0.00  0.00     0.051 A 
ATOM     14  C   UNL d   1       3.764   2.351   1.031  0.00  0.00    -0.035 A 
ATOM     15  C   UNL d   1       2.937   2.614   2.259  0.00  0.00     0.050 C 
ATOM     16  C   UNL d   1       4.963   3.075   0.894  0.00  0.00     0.009 A 
ATOM     17  C   UNL d   1       5.819   2.857  -0.185  0.00  0.00     0.001 A 
ATOM     18  C   UNL d   1       5.488   1.916  -1.153  0.00  0.00     0.002 A 
ATOM     19  C   UNL d   1       4.295   1.204  -1.046  0.00  0.00     0.031 A 
ENDBRANCH   1  13
BRANCH   9  20
ATOM     20  C   UNL d   1      -3.947  -0.014   0.005  0.00  0.00    -0.019 A 
ATOM     21  C   UNL d   1      -4.654   1.025  -0.621  0.00  0.00     0.013 A 
ATOM     22  C   UNL d   1      -6.053   1.040  -0.629  0.00  0.00     0.001 A 
ATOM     23  C   UNL d   1      -6.767   0.017  -0.011  0.00  0.00     0.000 A 
ATOM     24  C   UNL d   1      -6.085  -1.017   0.622  0.00  0.00     0.001 A 
ATOM     25  C   UNL d   1      -4.687  -1.029   0.634  0.00  0.00     0.013 A 
ENDBRANCH   9  20
TORSDOF 2
