REMARK  1 active torsions:
REMARK  status: ('A' for Active; 'I' for Inactive)
REMARK    1  A    between atoms: C_6  and  C_1 
ROOT
ATOM      1  C   UNL d   1      -2.402  -0.119  -0.058  0.00  0.00     0.043 A 
ATOM      2  N   UNL d   1      -1.575   0.985  -0.043  0.00  0.00    -0.355 N 
ATOM      3  C   UNL d   1      -1.568  -1.224  -0.019  0.00  0.00     0.044 A 
ATOM      4  C   UNL d   1      -0.251   0.615  -0.031  0.00  0.00     0.043 A 
ATOM      5  C   UNL d   1      -0.218  -0.776  -0.015  0.00  0.00    -0.007 A 
ATOM      6  C   UNL d   1       0.908   1.400  -0.031  0.00  0.00     0.030 A 
ATOM      7  C   UNL d   1       1.031  -1.426  -0.001  0.00  0.00     0.014 A 
ATOM      8  C   UNL d   1       2.138   0.735  -0.022  0.00  0.00     0.002 A 
ATOM      9  C   UNL d   1       2.201  -0.657  -0.008  0.00  0.00     0.001 A 
ATOM     10  H   UNL d   1      -1.895   1.942  -0.031  0.00  0.00     0.166 HD
ENDROOT
BRANCH   1  11
ATOM     11  C   UNL d   1      -3.862  -0.024  -0.083  0.00  0.00    -0.009 A 
ATOM     12  C   UNL d   1      -4.508   1.022  -0.762  0.00  0.00     0.017 A 
ATOM     13  C   UNL d   1      -5.903   1.108  -0.773  0.00  0.00     0.043 A 
ATOM     14  C   UNL d   1      -6.655   0.148  -0.108  0.00  0.00     0.116 A 
ATOM     15  C   UNL d   1      -6.039  -0.901   0.561  0.00  0.00     0.043 A 
ATOM     16  F   UNL d   1      -7.991   0.234  -0.116  0.00  0.00    -0.206 F 
ATOM     17  C   UNL d   1      -4.645  -0.988   0.573  0.00  0.00     0.017 A 
ENDBRANCH   1  11
TORSDOF 1
