REMARK  3 active torsions:
REMARK  status: ('A' for Active; 'I' for Inactive)
REMARK    1  A    between atoms: N_2  and  C_1 
REMARK    2  A    between atoms: N_4  and  C_1 
REMARK    3  A    between atoms: C_5  and  N_2 
ROOT
ATOM      1  C   UNL d   1       0.869  -2.501   0.603  0.00  0.00     0.034 A 
ATOM      2  C   UNL d   1       1.595  -5.095   1.375  0.00  0.00     0.034 A 
ATOM      3 CL   UNL d   1       2.041  -6.687   1.846  0.00  0.00    -0.084 Cl
ATOM      4  C   UNL d   1      -0.068  -3.353   1.201  0.00  0.00     0.031 A 
ATOM      5  C   UNL d   1       2.163  -2.975   0.368  0.00  0.00     0.031 A 
ATOM      6  C   UNL d   1       0.296  -4.644   1.595  0.00  0.00     0.026 A 
ATOM      7  C   UNL d   1       2.530  -4.266   0.759  0.00  0.00     0.026 A 
ENDROOT
BRANCH   1   8
ATOM      8  N   UNL d   1       0.427  -1.228   0.180  0.00  0.00    -0.333 N 
ATOM      9  H   UNL d   1      -0.568  -1.064   0.249  0.00  0.00     0.168 HD
BRANCH   8  10
ATOM     10  C   UNL d   1       1.166  -0.078  -0.066  0.00  0.00     0.173 C 
ATOM     11  S   UNL d   1       2.525   0.340   0.840  0.00  0.00    -0.041 SA
BRANCH  10  12
ATOM     12  N   UNL d   1       0.610   0.731  -1.078  0.00  0.00    -0.367 N 
ATOM     13  C   UNL d   1       1.106   2.078  -1.374  0.00  0.00     0.151 C 
ATOM     14  C   UNL d   1      -0.531   0.332  -1.903  0.00  0.00     0.151 C 
ENDBRANCH  10  12
ENDBRANCH   8  10
ENDBRANCH   1   8
TORSDOF 3
