REMARK  4 active torsions:
REMARK  status: ('A' for Active; 'I' for Inactive)
REMARK    1  A    between atoms: C_2  and  C_1 
REMARK    2  A    between atoms: C_8  and  C_2 
REMARK    3  A    between atoms: C_5  and  C_10 
REMARK       I    between atoms: N_11  and  C_5 
REMARK    4  A    between atoms: C_14  and  N_11 
ROOT
ATOM      1  C   UNL d   1      -3.883   1.144   0.160  0.00  0.00     0.030 A 
ATOM      2  C   UNL d   1      -5.068   1.456  -0.547  0.00  0.00     0.046 A 
ATOM      3  C   UNL d   1      -3.958   0.294   1.277  0.00  0.00     0.016 A 
ATOM      4  C   UNL d   1      -6.274   0.826  -0.190  0.00  0.00     0.018 A 
ATOM      5  C   UNL d   1      -5.163  -0.326   1.617  0.00  0.00     0.001 A 
ATOM      6  C   UNL d   1      -6.315  -0.072   0.876  0.00  0.00     0.001 A 
ENDROOT
BRANCH   1   7
ATOM      7  C   UNL d   1      -2.554   1.703  -0.226  0.00  0.00     0.194 C 
ATOM      8  O   UNL d   1      -2.556   2.885  -0.564  0.00  0.00    -0.287 OA
BRANCH   7   9
ATOM      9  C   UNL d   1      -1.243   0.916  -0.134  0.00  0.00     0.028 C 
ATOM     10  C   UNL d   1      -0.035   1.629   0.148  0.00  0.00    -0.041 C 
ATOM     11  C   UNL d   1       1.220   0.954   0.112  0.00  0.00    -0.049 C 
ATOM     12  C   UNL d   1      -0.021   3.114   0.450  0.00  0.00     0.050 C 
ATOM     13  C   UNL d   1       2.533   1.713   0.184  0.00  0.00     0.049 C 
ATOM     14  C   UNL d   1       1.269  -0.456   0.003  0.00  0.00    -0.049 C 
ATOM     15  C   UNL d   1       0.071  -1.185  -0.171  0.00  0.00    -0.049 C 
ATOM     16  C   UNL d   1       2.620  -1.147   0.016  0.00  0.00     0.049 C 
ATOM     17  C   UNL d   1      -1.165  -0.493  -0.360  0.00  0.00    -0.041 C 
ATOM     18  C   UNL d   1       0.136  -2.700  -0.191  0.00  0.00     0.049 C 
ATOM     19  C   UNL d   1      -2.341  -1.319  -0.835  0.00  0.00     0.050 C 
ENDBRANCH   7   9
ENDBRANCH   1   7
BRANCH   2  20
ATOM     20  C   UNL d   1      -5.098   2.333  -1.752  0.00  0.00     0.257 C 
ATOM     21  N   UNL d   1      -6.105   3.296  -1.768  0.00  0.00    -0.323 N 
ATOM     22  H   UNL d   1      -6.714   3.337  -0.960  0.00  0.00     0.169 HD
ATOM     23  O   UNL d   1      -4.292   2.099  -2.650  0.00  0.00    -0.267 OA
BRANCH  21  24
ATOM     24  C   UNL d   1      -6.253   4.354  -2.702  0.00  0.00     0.036 A 
ATOM     25  C   UNL d   1      -5.438   4.514  -3.824  0.00  0.00     0.054 A 
ATOM     26  C   UNL d   1      -5.516   5.670  -4.615  0.00  0.00     0.053 A 
ATOM     27 CL   UNL d   1      -4.413   5.806  -5.940  0.00  0.00    -0.083 Cl
ATOM     28  C   UNL d   1      -6.440   6.670  -4.303  0.00  0.00     0.032 A 
ATOM     29  C   UNL d   1      -7.319   6.482  -3.234  0.00  0.00     0.023 A 
ATOM     30 BR   UNL d   1      -6.532   8.319  -5.244  0.00  0.00    -0.049 Br
ATOM     31  C   UNL d   1      -7.229   5.328  -2.444  0.00  0.00     0.031 A 
ENDBRANCH  21  24
ENDBRANCH   2  20
TORSDOF 4
