REMARK  4 active torsions:
REMARK  status: ('A' for Active; 'I' for Inactive)
REMARK    1  A    between atoms: C_8  and  C_1 
REMARK    2  A    between atoms: N_3  and  C_2 
REMARK       I    between atoms: C_5  and  N_3 
REMARK    3  A    between atoms: C_9  and  C_5 
REMARK    4  A    between atoms: O_14  and  C_8 
ROOT
ATOM      1  N   UNL d   1      -2.127  -2.156  -0.270  0.00  0.00    -0.321 N 
ATOM      2  C   UNL d   1      -1.971  -3.505  -0.017  0.00  0.00     0.256 C 
ATOM      3  O   UNL d   1      -0.932  -4.068   0.310  0.00  0.00    -0.267 OA
ATOM      4  H   UNL d   1      -3.065  -1.797  -0.373  0.00  0.00     0.169 HD
ENDROOT
BRANCH   1   5
ATOM      5  C   UNL d   1      -1.128  -1.183  -0.190  0.00  0.00     0.059 A 
ATOM      6  C   UNL d   1       0.310  -1.282  -0.332  0.00  0.00     0.079 A 
ATOM      7  C   UNL d   1       0.924  -0.065  -0.028  0.00  0.00    -0.003 A 
ATOM      8  S   UNL d   1      -0.206   1.177   0.288  0.00  0.00    -0.103 SA
ATOM      9  C   UNL d   1       2.384   0.271   0.004  0.00  0.00     0.057 C 
ATOM     10  C   UNL d   1      -1.516   0.120   0.054  0.00  0.00     0.080 A 
BRANCH   6  11
ATOM     11  C   UNL d   1       1.098  -2.433  -0.782  0.00  0.00     0.296 C 
ATOM     12  O   UNL d   1       2.221  -2.687  -0.359  0.00  0.00    -0.259 OA
BRANCH  11  13
ATOM     13  O   UNL d   1       0.495  -3.095  -1.815  0.00  0.00    -0.322 OA
ATOM     14  C   UNL d   1       1.172  -4.263  -2.280  0.00  0.00     0.213 C 
ENDBRANCH  11  13
ENDBRANCH   6  11
ENDBRANCH   1   5
BRANCH   2  15
ATOM     15  C   UNL d   1      -3.218  -4.325  -0.117  0.00  0.00     0.032 A 
ATOM     16  C   UNL d   1      -3.102  -5.661  -0.529  0.00  0.00     0.018 A 
ATOM     17  C   UNL d   1      -4.236  -6.477  -0.618  0.00  0.00     0.025 A 
ATOM     18  C   UNL d   1      -5.486  -5.960  -0.286  0.00  0.00     0.034 A 
ATOM     19  C   UNL d   1      -5.614  -4.639   0.136  0.00  0.00     0.025 A 
ATOM     20 CL   UNL d   1      -6.881  -6.964  -0.383  0.00  0.00    -0.084 Cl
ATOM     21  C   UNL d   1      -4.482  -3.821   0.228  0.00  0.00     0.018 A 
ENDBRANCH   2  15
TORSDOF 4
