REMARK  3 active torsions:
REMARK  status: ('A' for Active; 'I' for Inactive)
REMARK    1  A    between atoms: C_2  and  C_1 
REMARK    2  A    between atoms: C_13  and  N_3 
REMARK    3  A    between atoms: C_9  and  C_4 
ROOT
ATOM      1  C   UNL d   1      -0.452  -2.752  -0.009  0.00  0.00     0.056 A 
ATOM      2  C   UNL d   1       0.074  -3.590   0.963  0.00  0.00     0.075 A 
ATOM      3  N   UNL d   1      -1.297  -4.830  -0.388  0.00  0.00    -0.310 N 
ATOM      4  HN  UNL d   1      -1.829  -5.614  -0.767  1.00  0.00     0.186 HD
ATOM      5  N   UNL d   1      -0.454  -4.825   0.657  0.00  0.00    -0.299 N 
ATOM      6  C   UNL d   1      -1.273  -3.570  -0.812  0.00  0.00     0.124 A 
ATOM      7  H   UNL d   1      -0.281  -5.702   1.139  0.00  0.00     0.187 HD
ENDROOT
BRANCH   1   8
ATOM      8  C   UNL d   1      -0.192  -1.302  -0.201  0.00  0.00     0.152 C 
ATOM      9  N   UNL d   1      -1.038  -0.356  -0.759  0.00  0.00    -0.224 N 
ATOM     10  N   UNL d   1      -0.295   0.726  -1.087  0.00  0.00     0.001 NA
ATOM     11  N   UNL d   1       0.889   0.528  -0.525  0.00  0.00    -0.007 NA
ATOM     12  N   UNL d   1       0.960  -0.712   0.055  0.00  0.00    -0.269 N 
ATOM     13  HN  UNL d   1       1.744  -1.100   0.579  1.00  0.00     0.185 HD
BRANCH   9  14
ATOM     14  C   UNL d   1      -2.452  -0.333  -0.851  0.00  0.00     0.056 A 
ATOM     15  C   UNL d   1      -3.240  -1.101   0.020  0.00  0.00     0.033 A 
ATOM     16  C   UNL d   1      -4.634  -1.045  -0.060  0.00  0.00     0.026 A 
ATOM     17  C   UNL d   1      -5.241  -0.224  -1.006  0.00  0.00     0.034 A 
ATOM     18  C   UNL d   1      -4.467   0.556  -1.863  0.00  0.00     0.026 A 
ATOM     19 CL   UNL d   1      -6.957  -0.162  -1.102  0.00  0.00    -0.084 Cl
ATOM     20  C   UNL d   1      -3.072   0.517  -1.779  0.00  0.00     0.033 A 
ENDBRANCH   9  14
ENDBRANCH   1   8
BRANCH   2  21
ATOM     21  C   UNL d   1       0.887  -3.357   2.170  0.00  0.00     0.015 A 
ATOM     22  C   UNL d   1       1.839  -4.271   2.665  0.00  0.00     0.046 A 
ATOM     23 CL   UNL d   1       2.211  -5.764   1.869  0.00  0.00    -0.083 Cl
ATOM     24  C   UNL d   1       2.540  -4.005   3.850  0.00  0.00     0.025 A 
ATOM     25  C   UNL d   1       2.311  -2.827   4.557  0.00  0.00     0.002 A 
ATOM     26  C   UNL d   1       1.377  -1.914   4.086  0.00  0.00     0.001 A 
ATOM     27  C   UNL d   1       0.669  -2.181   2.912  0.00  0.00     0.015 A 
ENDBRANCH   2  21
TORSDOF 3
