REMARK  5 active torsions:
REMARK  status: ('A' for Active; 'I' for Inactive)
REMARK    1  A    between atoms: C_4  and  C_1 
REMARK    2  A    between atoms: O_11  and  C_2 
REMARK    3  A    between atoms: O_16  and  C_4 
REMARK    4  A    between atoms: C_6  and  C_10 
REMARK    5  A    between atoms: C_15  and  O_11 
ROOT
ATOM      1  C   UNL d   1       1.593  -5.763   0.037  0.00  0.00    -0.035 A 
ATOM      2  C   UNL d   1       0.652  -5.508  -0.977  0.00  0.00     0.012 A 
ATOM      3  C   UNL d   1       1.685  -4.851   1.102  0.00  0.00     0.012 A 
ATOM      4  C   UNL d   1      -0.025  -3.454   0.106  0.00  0.00     0.078 A 
ATOM      5  C   UNL d   1      -0.147  -4.360  -0.945  0.00  0.00     0.038 A 
ATOM      6  C   UNL d   1       0.898  -3.697   1.125  0.00  0.00     0.038 A 
ENDROOT
BRANCH   4   7
ATOM      7  O   UNL d   1      -0.766  -2.299   0.021  0.00  0.00    -0.288 OA
BRANCH   7   8
ATOM      8  C   UNL d   1      -1.200  -1.678   1.113  0.00  0.00     0.191 A 
ATOM      9  O   UNL d   1      -1.332  -0.331   0.972  0.00  0.00    -0.281 OA
ATOM     10  C   UNL d   1      -1.730   0.174   2.183  0.00  0.00     0.153 A 
ATOM     11  C   UNL d   1      -1.880  -0.868   3.082  0.00  0.00     0.048 A 
ATOM     12  C   UNL d   1      -1.561  -2.058   2.389  0.00  0.00     0.067 A 
BRANCH  10  13
ATOM     13  C   UNL d   1      -1.920   1.593   2.361  0.00  0.00     0.317 C 
ATOM     14  O   UNL d   1      -2.266   2.131   3.406  0.00  0.00    -0.257 OA
BRANCH  13  15
ATOM     15  O   UNL d   1      -1.654   2.262   1.200  0.00  0.00    -0.321 OA
ATOM     16  C   UNL d   1      -1.819   3.676   1.289  0.00  0.00     0.213 C 
ENDBRANCH  13  15
ENDBRANCH  10  13
ENDBRANCH   7   8
ENDBRANCH   4   7
BRANCH   1  17
ATOM     17  C   UNL d   1       2.539  -6.939  -0.090  0.00  0.00     0.141 C 
ATOM     18  S   UNL d   1       2.501  -8.074   1.331  0.00  0.00    -0.148 SA
ATOM     19  C   UNL d   1       4.251  -8.526   1.243  0.00  0.00     0.085 C 
ATOM     20  C   UNL d   1       5.021  -7.241   1.019  0.00  0.00     0.085 C 
ATOM     21  S   UNL d   1       4.260  -6.377  -0.381  0.00  0.00    -0.148 SA
ENDBRANCH   1  17
TORSDOF 5
