REMARK  2 active torsions:
REMARK  status: ('A' for Active; 'I' for Inactive)
REMARK    1  A    between atoms: C_7  and  C_1 
REMARK    2  A    between atoms: O_11  and  N_8 
ROOT
ATOM      1  C   UNL d   1      -0.004   1.234   0.027  0.00  0.00     0.088 A 
ATOM      2  N   UNL d   1       1.342   1.141   0.030  0.00  0.00    -0.296 N 
ATOM      3  HN  UNL d   1       2.022   1.901   0.040  1.00  0.00     0.187 HD
ATOM      4  C   UNL d   1      -0.595  -0.059   0.011  0.00  0.00     0.080 A 
ATOM      5  N   UNL d   1       1.583  -0.182   0.015  0.00  0.00    -0.306 N 
ATOM      6  C   UNL d   1       0.456  -0.943   0.003  0.00  0.00     0.136 A 
ATOM      7 CL   UNL d   1      -2.240  -0.471   0.003  0.00  0.00    -0.080 Cl
ATOM      8  C   UNL d   1       2.940  -0.673   0.015  0.00  0.00     0.177 C 
ENDROOT
BRANCH   1   9
ATOM      9  C   UNL d   1      -0.624   2.547   0.041  0.00  0.00     0.146 C 
ATOM     10  N   UNL d   1      -1.913   2.672   0.044  0.00  0.00    -0.278 N 
ATOM     11  HN  UNL d   1      -2.580   1.901   0.036  1.00  0.00     0.193 HD
BRANCH  10  12
ATOM     12  O   UNL d   1      -2.248   4.032   0.058  0.00  0.00    -0.290 OA
ATOM     13  H   UNL d   1      -3.224   4.005   0.060  0.00  0.00     0.244 HD
ENDBRANCH  10  12
ENDBRANCH   1   9
TORSDOF 2
