REMARK  7 active torsions:
REMARK  status: ('A' for Active; 'I' for Inactive)
REMARK    1  A    between atoms: C_2  and  C_1 
REMARK       I    between atoms: N_5  and  C_1 
REMARK    2  A    between atoms: C_4  and  C_2 
REMARK    3  A    between atoms: C_8  and  N_3 
REMARK    4  A    between atoms: S_6  and  C_4 
REMARK    5  A    between atoms: C_11  and  N_5 
REMARK    6  A    between atoms: C_14  and  S_6 
REMARK    7  A    between atoms: C_17  and  C_8 
ROOT
ATOM      1  C   UNL d   1       0.990  -0.249  -0.311  0.00  0.00     0.219 C 
ATOM      2  N   UNL d   1       0.199  -1.037   0.498  0.00  0.00    -0.356 N 
ATOM      3  O   UNL d   1       0.564   0.419  -1.245  0.00  0.00    -0.274 OA
ATOM      4  H   UNL d   1       0.680  -1.751   1.028  0.00  0.00     0.162 HD
ENDROOT
BRANCH   2   5
ATOM      5  C   UNL d   1      -1.251  -1.239   0.334  0.00  0.00     0.087 C 
ATOM      6  C   UNL d   1      -2.067   0.007  -0.028  0.00  0.00     0.055 C 
ATOM      7  C   UNL d   1      -2.008   1.054   1.085  0.00  0.00     0.275 C 
ATOM      8  N   UNL d   1      -2.508   0.525   2.367  0.00  0.00     0.092 N 
ATOM      9  C   UNL d   1      -1.821  -0.724   2.744  0.00  0.00     0.275 C 
ATOM     10  C   UNL d   1      -1.836  -1.790   1.642  0.00  0.00     0.055 C 
BRANCH   8  11
ATOM     11  C   UNL d   1      -2.321   1.516   3.451  0.00  0.00     0.311 C 
BRANCH  11  12
ATOM     12  C   UNL d   1      -3.034   2.838   3.249  0.00  0.00    -0.030 A 
ATOM     13  C   UNL d   1      -4.433   2.900   3.201  0.00  0.00     0.009 A 
ATOM     14  C   UNL d   1      -5.082   4.126   3.044  0.00  0.00     0.001 A 
ATOM     15  C   UNL d   1      -4.340   5.301   2.931  0.00  0.00     0.000 A 
ATOM     16  C   UNL d   1      -2.949   5.252   2.970  0.00  0.00     0.001 A 
ATOM     17  C   UNL d   1      -2.298   4.027   3.129  0.00  0.00     0.009 A 
ENDBRANCH  11  12
ENDBRANCH   8  11
ENDBRANCH   2   5
BRANCH   1  18
ATOM     18  C   UNL d   1       2.451  -0.194   0.115  0.00  0.00     0.122 C 
BRANCH  18  19
ATOM     19  C   UNL d   1       3.425  -1.125  -0.633  0.00  0.00     0.014 C 
ATOM     20  C   UNL d   1       4.838  -0.949  -0.047  0.00  0.00     0.027 C 
ATOM     21  C   UNL d   1       3.011  -2.596  -0.424  0.00  0.00     0.027 C 
BRANCH  19  22
ATOM     22  S   UNL d   1       3.485  -0.894  -2.479  0.00  0.00    -0.120 SA
BRANCH  22  23
ATOM     23  C   UNL d   1       4.132   0.750  -2.728  0.00  0.00     0.001 A 
ATOM     24  C   UNL d   1       5.396   0.910  -3.312  0.00  0.00     0.020 A 
ATOM     25  C   UNL d   1       5.867   2.183  -3.658  0.00  0.00     0.025 A 
ATOM     26  C   UNL d   1       5.072   3.304  -3.422  0.00  0.00     0.034 A 
ATOM     27  C   UNL d   1       3.814   3.159  -2.849  0.00  0.00     0.025 A 
ATOM     28 CL   UNL d   1       5.630   4.865  -3.881  0.00  0.00    -0.084 Cl
ATOM     29  C   UNL d   1       3.344   1.884  -2.517  0.00  0.00     0.020 A 
ENDBRANCH  22  23
ENDBRANCH  19  22
ENDBRANCH  18  19
ENDBRANCH   1  18
TORSDOF 7
