REMARK  7 active torsions:
REMARK  status: ('A' for Active; 'I' for Inactive)
REMARK    1  A    between atoms: S_9  and  C_4 
REMARK    2  A    between atoms: S_11  and  C_4 
REMARK    3  A    between atoms: C_7  and  C_6 
REMARK    4  A    between atoms: C_10  and  C_7 
REMARK    5  A    between atoms: C_8  and  S_11 
REMARK    6  A    between atoms: C_15  and  S_9 
REMARK    7  A    between atoms: C_19  and  C_15 
ROOT
ATOM      1  N   UNL d   1       2.927  -1.040   0.034  0.00  0.00    -0.282 N 
ATOM      2  HN  UNL d   1       3.826  -1.025  -0.448  1.00  0.00     0.179 HD
ATOM      3  C   UNL d   1       2.361  -2.208   0.349  0.00  0.00     0.183 C 
ATOM      4  C   UNL d   1       2.341   0.072   0.338  0.00  0.00     0.121 C 
ATOM      5  N   UNL d   1       1.896  -3.237   0.601  0.00  0.00    -0.172 NA
ENDROOT
BRANCH   4   6
ATOM      6  S   UNL d   1       0.784   0.217   1.174  0.00  0.00    -0.100 SA
BRANCH   6   7
ATOM      7  C   UNL d   1       0.076   1.708   0.437  0.00  0.00     0.120 C 
BRANCH   7   8
ATOM      8  C   UNL d   1      -1.331   2.071   0.862  0.00  0.00    -0.049 A 
ATOM      9  C   UNL d   1      -1.572   3.329   1.445  0.00  0.00     0.008 A 
ATOM     10  C   UNL d   1      -2.874   3.793   1.640  0.00  0.00     0.001 A 
ATOM     11  C   UNL d   1      -3.956   3.001   1.270  0.00  0.00     0.000 A 
ATOM     12  C   UNL d   1      -3.736   1.730   0.741  0.00  0.00     0.001 A 
ATOM     13  C   UNL d   1      -2.431   1.264   0.541  0.00  0.00     0.008 A 
ENDBRANCH   7   8
ENDBRANCH   6   7
ENDBRANCH   4   6
BRANCH   4  14
ATOM     14  S   UNL d   1       3.153   1.581  -0.103  0.00  0.00    -0.076 SA
BRANCH  14  15
ATOM     15  C   UNL d   1       4.851   1.232  -0.118  0.00  0.00     0.056 C 
ATOM     16  C   UNL d   1       5.716   2.184  -0.500  0.00  0.00     0.063 C 
BRANCH  16  17
ATOM     17  C   UNL d   1       7.184   1.935  -0.506  0.00  0.00     0.182 C 
ATOM     18  O   UNL d   1       7.682   1.005   0.119  0.00  0.00    -0.288 OA
BRANCH  17  19
ATOM     19  C   UNL d   1       8.038   2.897  -1.261  0.00  0.00     0.014 A 
ATOM     20  C   UNL d   1       9.343   3.138  -0.818  0.00  0.00     0.016 A 
ATOM     21  C   UNL d   1      10.169   4.035  -1.508  0.00  0.00     0.007 A 
ATOM     22  C   UNL d   1       9.705   4.690  -2.656  0.00  0.00    -0.062 A 
ATOM     23  C   UNL d   1       8.405   4.432  -3.107  0.00  0.00     0.007 A 
ATOM     24  C   UNL d   1      10.597   5.646  -3.394  0.00  0.00     0.048 C 
ATOM     25  C   UNL d   1       7.578   3.539  -2.418  0.00  0.00     0.016 A 
ENDBRANCH  17  19
ENDBRANCH  16  17
ENDBRANCH  14  15
ENDBRANCH   4  14
TORSDOF 7
