REMARK  3 active torsions:
REMARK  status: ('A' for Active; 'I' for Inactive)
REMARK    1  A    between atoms: C_6  and  C_2 
REMARK    2  A    between atoms: C_11  and  C_4 
REMARK    3  A    between atoms: O_17  and  C_11 
ROOT
ATOM      1  C   UNL d   1       0.334  -0.668   0.002  0.00  0.00     0.070 A 
ATOM      2  C   UNL d   1      -0.971   1.457   0.005  0.00  0.00     0.072 A 
ATOM      3  C   UNL d   1       0.255   0.713   0.004  0.00  0.00     0.048 A 
ATOM      4  C   UNL d   1       1.674  -1.172   0.000  0.00  0.00     0.074 A 
ATOM      5  S   UNL d   1       1.813   1.408   0.005  0.00  0.00    -0.098 SA
ATOM      6  N   UNL d   1      -0.838  -1.404  -0.000  0.00  0.00    -0.321 N 
ATOM      7  C   UNL d   1       2.570  -0.117   0.002  0.00  0.00     0.070 A 
ATOM      8  C   UNL d   1      -2.089   0.692   0.004  0.00  0.00     0.092 A 
ATOM      9  C   UNL d   1      -2.070  -0.799   0.001  0.00  0.00     0.246 A 
ATOM     10  O   UNL d   1      -3.122  -1.428  -0.002  0.00  0.00    -0.268 OA
ATOM     11  H   UNL d   1      -0.801  -2.420  -0.003  0.00  0.00     0.169 HD
ENDROOT
BRANCH   2  12
ATOM     12  C   UNL d   1      -1.141   2.955   0.006  0.00  0.00     0.419 C 
ATOM     13  F   UNL d   1       0.020   3.655   0.007  0.00  0.00    -0.166 F 
ATOM     14  F   UNL d   1      -1.839   3.373  -1.083  0.00  0.00    -0.166 F 
ATOM     15  F   UNL d   1      -1.839   3.372   1.096  0.00  0.00    -0.166 F 
ENDBRANCH   2  12
BRANCH   4  16
ATOM     16  C   UNL d   1       2.079  -2.573  -0.002  0.00  0.00     0.295 C 
ATOM     17  O   UNL d   1       1.278  -3.500  -0.005  0.00  0.00    -0.259 OA
BRANCH  16  18
ATOM     18  O   UNL d   1       3.436  -2.719   0.001  0.00  0.00    -0.322 OA
ATOM     19  C   UNL d   1       3.900  -4.068  -0.001  0.00  0.00     0.213 C 
ENDBRANCH  16  18
ENDBRANCH   4  16
TORSDOF 3
