REMARK  9 active torsions:
REMARK  status: ('A' for Active; 'I' for Inactive)
REMARK    1  A    between atoms: N_3  and  C_1 
REMARK    2  A    between atoms: S_12  and  C_1 
REMARK    3  A    between atoms: C_2  and  S_11 
REMARK    4  A    between atoms: N_4  and  C_2 
REMARK    5  A    between atoms: C_5  and  N_3 
REMARK    6  A    between atoms: C_6  and  N_4 
REMARK    7  A    between atoms: S_11  and  C_19 
REMARK    8  A    between atoms: C_20  and  S_12 
REMARK    9  A    between atoms: C_19  and  C_20 
ROOT
ATOM      1  C   UNL d   1       4.916   0.701  -1.781  0.00  0.00     0.092 C 
ENDROOT
BRANCH   1   2
ATOM      2  S   UNL d   1       5.729   0.460  -3.382  0.00  0.00    -0.100 SA
BRANCH   2   3
ATOM      3  C   UNL d   1       5.166   1.776  -4.405  0.00  0.00     0.139 C 
ATOM      4  S   UNL d   1       4.773   3.313  -3.881  0.00  0.00    -0.053 SA
BRANCH   3   5
ATOM      5  N   UNL d   1       4.961   1.481  -5.738  0.00  0.00    -0.340 N 
ATOM      6  H   UNL d   1       4.270   2.063  -6.196  0.00  0.00     0.167 HD
BRANCH   5   7
ATOM      7  C   UNL d   1       5.539   0.471  -6.549  0.00  0.00     0.055 A 
ATOM      8  C   UNL d   1       4.844   0.002  -7.678  0.00  0.00     0.060 A 
ATOM      9 CL   UNL d   1       3.296   0.643  -8.108  0.00  0.00    -0.082 Cl
ATOM     10  C   UNL d   1       5.377  -1.025  -8.463  0.00  0.00     0.026 A 
ATOM     11  C   UNL d   1       6.627  -1.564  -8.155  0.00  0.00     0.002 A 
ATOM     12  C   UNL d   1       7.357  -1.049  -7.090  0.00  0.00     0.002 A 
ATOM     13  C   UNL d   1       6.822  -0.030  -6.303  0.00  0.00     0.031 A 
ENDBRANCH   5   7
ENDBRANCH   3   5
ENDBRANCH   2   3
ENDBRANCH   1   2
BRANCH   1  14
ATOM     14  C   UNL d   1       3.389   0.622  -1.765  0.00  0.00     0.092 C 
BRANCH  14  15
ATOM     15  S   UNL d   1       2.719  -1.042  -2.126  0.00  0.00    -0.100 SA
BRANCH  15  16
ATOM     16  C   UNL d   1       1.000  -0.684  -2.043  0.00  0.00     0.139 C 
ATOM     17  S   UNL d   1       0.235  -0.084  -0.680  0.00  0.00    -0.053 SA
BRANCH  16  18
ATOM     18  N   UNL d   1       0.293  -0.763  -3.215  0.00  0.00    -0.340 N 
ATOM     19  H   UNL d   1      -0.510  -0.141  -3.260  0.00  0.00     0.167 HD
BRANCH  18  20
ATOM     20  C   UNL d   1       0.284  -1.767  -4.214  0.00  0.00     0.055 A 
ATOM     21  C   UNL d   1      -0.410  -1.519  -5.414  0.00  0.00     0.060 A 
ATOM     22 CL   UNL d   1      -1.092   0.038  -5.743  0.00  0.00    -0.082 Cl
ATOM     23  C   UNL d   1      -0.567  -2.521  -6.375  0.00  0.00     0.026 A 
ATOM     24  C   UNL d   1      -0.051  -3.793  -6.140  0.00  0.00     0.002 A 
ATOM     25  C   UNL d   1       0.637  -4.053  -4.956  0.00  0.00     0.002 A 
ATOM     26  C   UNL d   1       0.811  -3.045  -4.000  0.00  0.00     0.031 A 
ENDBRANCH  18  20
ENDBRANCH  16  18
ENDBRANCH  15  16
ENDBRANCH  14  15
ENDBRANCH   1  14
TORSDOF 9
