REMARK  7 active torsions:
REMARK  status: ('A' for Active; 'I' for Inactive)
REMARK    1  A    between atoms: C_14  and  N_1 
REMARK    2  A    between atoms: S_16  and  C_2 
REMARK    3  A    between atoms: O_22  and  C_3 
REMARK    4  A    between atoms: C_8  and  C_15 
REMARK    5  A    between atoms: C_21  and  C_13 
REMARK    6  A    between atoms: C_15  and  C_19 
REMARK    7  A    between atoms: C_19  and  S_16 
ROOT
ATOM      1  C   UNL d   1       3.786  -3.734  -0.320  0.00  0.00     0.194 C 
ATOM      2  O   UNL d   1       3.823  -4.898  -0.725  0.00  0.00    -0.289 OA
ENDROOT
BRANCH   1   3
ATOM      3  C   UNL d   1       4.992  -3.058   0.109  0.00  0.00     0.147 A 
ATOM      4  C   UNL d   1       6.312  -3.459   0.136  0.00  0.00     0.075 A 
ATOM      5  C   UNL d   1       7.030  -2.327   0.604  0.00  0.00     0.068 A 
ATOM      6  N   UNL d   1       6.180  -1.323   0.876  0.00  0.00    -0.260 N 
ATOM      7  O   UNL d   1       4.920  -1.795   0.600  0.00  0.00    -0.234 OA
ATOM      8  HN  UNL d   1       6.422  -0.394   1.220  1.00  0.00     0.195 HD
BRANCH   5   9
ATOM      9  C   UNL d   1       8.468  -2.165   0.803  0.00  0.00    -0.007 A 
ATOM     10  C   UNL d   1       9.060  -0.901   0.644  0.00  0.00     0.014 A 
ATOM     11  C   UNL d   1      10.424  -0.716   0.876  0.00  0.00     0.001 A 
ATOM     12  C   UNL d   1      11.212  -1.794   1.270  0.00  0.00     0.000 A 
ATOM     13  C   UNL d   1      10.637  -3.058   1.417  0.00  0.00     0.001 A 
ATOM     14  C   UNL d   1       9.275  -3.245   1.183  0.00  0.00     0.014 A 
ENDBRANCH   5   9
ENDBRANCH   1   3
BRANCH   1  15
ATOM     15  C   UNL d   1       2.443  -3.033  -0.167  0.00  0.00     0.168 C 
BRANCH  15  16
ATOM     16  S   UNL d   1       2.355  -1.360  -0.909  0.00  0.00    -0.084 SA
BRANCH  16  17
ATOM     17  C   UNL d   1       0.803  -0.866  -0.317  0.00  0.00     0.165 A 
ATOM     18  N   UNL d   1       0.236   0.390  -0.349  0.00  0.00    -0.286 N 
ATOM     19  C   UNL d   1      -0.990   0.231   0.274  0.00  0.00     0.240 A 
ATOM     20  N   UNL d   1      -1.170  -1.025   0.598  0.00  0.00    -0.263 N 
ATOM     21  N   UNL d   1      -0.040  -1.710   0.245  0.00  0.00    -0.277 N 
ATOM     22  HN  UNL d   1      -2.002  -1.421   1.034  1.00  0.00     0.190 HD
ATOM     23  HN  UNL d   1       0.124  -2.706   0.392  1.00  0.00     0.189 HD
BRANCH  18  24
ATOM     24  C   UNL d   1       0.679   1.671  -0.873  0.00  0.00     0.096 A 
ATOM     25  C   UNL d   1       1.619   1.881  -2.041  0.00  0.00     0.028 A 
ATOM     26  C   UNL d   1       2.082   2.206  -0.659  0.00  0.00     0.028 A 
ENDBRANCH  18  24
BRANCH  19  27
ATOM     27  O   UNL d   1      -1.883   1.173   0.538  0.00  0.00    -0.331 OA
ATOM     28  H   UNL d   1      -1.432   2.026   0.617  0.00  0.00     0.221 HD
ENDBRANCH  19  27
ENDBRANCH  16  17
ENDBRANCH  15  16
ENDBRANCH   1  15
TORSDOF 7
