REMARK  4 active torsions:
REMARK  status: ('A' for Active; 'I' for Inactive)
REMARK    1  A    between atoms: C_3  and  C_1 
REMARK    2  A    between atoms: O_11  and  C_3 
REMARK    3  A    between atoms: C_7  and  C_4 
REMARK    4  A    between atoms: C_10  and  C_8 
ROOT
ATOM      1  C   UNL d   1       0.145   1.280  -0.017  0.00  0.00     0.080 A 
ATOM      2  S   UNL d   1      -0.993  -0.000  -0.027  0.00  0.00    -0.084 SA
ATOM      3  C   UNL d   1       0.228  -1.226  -0.001  0.00  0.00     0.005 A 
ATOM      4  C   UNL d   1       1.437   0.787   0.009  0.00  0.00     0.026 A 
ATOM      5  C   UNL d   1       1.480  -0.635   0.018  0.00  0.00     0.020 A 
ENDROOT
BRANCH   3   6
ATOM      6  C   UNL d   1      -0.149  -2.605  -0.006  0.00  0.00     0.019 C 
ATOM      7  C   UNL d   1       0.766  -3.594   0.009  0.00  0.00     0.013 C 
BRANCH   7   8
ATOM      8  C   UNL d   1       0.461  -5.033  -0.016  0.00  0.00    -0.035 A 
ATOM      9  C   UNL d   1      -0.679  -5.548  -0.643  0.00  0.00     0.035 A 
ATOM     10  C   UNL d   1      -0.902  -6.925  -0.679  0.00  0.00     0.034 A 
ATOM     11 CL   UNL d   1      -2.314  -7.539  -1.450  0.00  0.00    -0.084 Cl
ATOM     12  C   UNL d   1       0.010  -7.809  -0.108  0.00  0.00     0.024 A 
ATOM     13  C   UNL d   1       1.160  -7.311   0.502  0.00  0.00     0.003 A 
ATOM     14  C   UNL d   1       1.386  -5.932   0.543  0.00  0.00     0.011 A 
ENDBRANCH   7   8
ENDBRANCH   3   6
BRANCH   1  15
ATOM     15  C   UNL d   1      -0.296   2.664  -0.034  0.00  0.00     0.299 C 
ATOM     16  O   UNL d   1      -1.452   3.071  -0.058  0.00  0.00    -0.259 OA
BRANCH  15  17
ATOM     17  O   UNL d   1       0.801   3.487  -0.025  0.00  0.00    -0.322 OA
ATOM     18  C   UNL d   1       0.512   4.886  -0.044  0.00  0.00     0.213 C 
ENDBRANCH  15  17
ENDBRANCH   1  15
TORSDOF 4
