REMARK  3 active torsions:
REMARK  status: ('A' for Active; 'I' for Inactive)
REMARK       I    between atoms: N_2  and  C_1 
REMARK       I    between atoms: N_4  and  C_1 
REMARK    1  A    between atoms: C_5  and  N_3 
REMARK    2  A    between atoms: C_12  and  N_4 
REMARK    3  A    between atoms: O_18  and  C_11 
ROOT
ATOM      1  C   UNL d   1       1.290   0.077   0.052  0.00  0.00     0.323 C 
ATOM      2  N   UNL d   1       0.750   1.309  -0.344  0.00  0.00    -0.331 N 
ATOM      3  N   UNL d   1      -0.486   3.594  -1.599  0.00  0.00    -0.376 N 
ATOM      4  N   UNL d   1       0.751  -0.448   1.208  0.00  0.00    -0.309 N 
ATOM      5  O   UNL d   1       2.179  -0.458  -0.608  0.00  0.00    -0.247 OA
ATOM      6  C   UNL d   1       1.206   1.799  -1.661  0.00  0.00     0.147 C 
ATOM      7  C   UNL d   1      -0.590   1.776   0.048  0.00  0.00     0.147 C 
ATOM      8  C   UNL d   1       0.923   3.294  -1.926  0.00  0.00     0.143 C 
ATOM      9  C   UNL d   1      -0.799   3.277  -0.199  0.00  0.00     0.143 C 
ATOM     10  H   UNL d   1       0.143   0.144   1.739  0.00  0.00     0.170 HD
ENDROOT
BRANCH   4  11
ATOM     11  C   UNL d   1       1.047  -1.687   1.817  0.00  0.00     0.036 A 
ATOM     12  C   UNL d   1       1.967  -2.609   1.320  0.00  0.00     0.030 A 
ATOM     13  C   UNL d   1       2.199  -3.814   1.994  0.00  0.00     0.009 A 
ATOM     14  C   UNL d   1       1.508  -4.122   3.171  0.00  0.00    -0.062 A 
ATOM     15  C   UNL d   1       0.584  -3.202   3.668  0.00  0.00     0.009 A 
ATOM     16  C   UNL d   1       1.761  -5.425   3.868  0.00  0.00     0.048 C 
ATOM     17  C   UNL d   1       0.358  -1.994   2.999  0.00  0.00     0.030 A 
ENDBRANCH   4  11
BRANCH   3  18
ATOM     18  C   UNL d   1      -1.042   4.750  -2.164  0.00  0.00     0.064 A 
ATOM     19  C   UNL d   1      -1.226   4.899  -3.559  0.00  0.00     0.094 A 
ATOM     20  C   UNL d   1      -1.876   6.022  -4.092  0.00  0.00     0.039 A 
ATOM     21  C   UNL d   1      -2.369   7.020  -3.256  0.00  0.00     0.003 A 
ATOM     22  C   UNL d   1      -2.171   6.920  -1.886  0.00  0.00     0.002 A 
ATOM     23  C   UNL d   1      -1.514   5.804  -1.355  0.00  0.00     0.032 A 
BRANCH  19  24
ATOM     24  O   UNL d   1      -0.764   4.020  -4.510  0.00  0.00    -0.354 OA
ATOM     25  C   UNL d   1      -1.280   2.699  -4.381  0.00  0.00     0.210 C 
ENDBRANCH  19  24
ENDBRANCH   3  18
TORSDOF 3
