REMARK  4 active torsions:
REMARK  status: ('A' for Active; 'I' for Inactive)
REMARK    1  A    between atoms: C_3  and  C_1 
REMARK    2  A    between atoms: N_4  and  C_2 
REMARK       I    between atoms: C_5  and  N_4 
REMARK    3  A    between atoms: C_9  and  C_5 
REMARK    4  A    between atoms: C_10  and  C_9 
ROOT
ATOM      1  C   UNL d   1       1.078  -3.782   0.398  0.00  0.00     0.057 A 
ATOM      2  C   UNL d   1      -0.274  -2.832   2.205  0.00  0.00     0.050 A 
ATOM      3  C   UNL d   1       0.078  -3.910   1.371  0.00  0.00     0.047 A 
ATOM      4  C   UNL d   1       1.707  -2.533   0.250  0.00  0.00     0.060 A 
ATOM      5  C   UNL d   1       0.424  -1.622   2.086  0.00  0.00     0.018 A 
ATOM      6  C   UNL d   1       1.398  -1.467   1.100  0.00  0.00     0.027 A 
ATOM      7 CL   UNL d   1       2.873  -2.265  -1.001  0.00  0.00    -0.082 Cl
ENDROOT
BRANCH   1   8
ATOM      8  N   UNL d   1       1.529  -4.872  -0.391  0.00  0.00    -0.322 N 
ATOM      9  C   UNL d   1       1.003  -6.145  -0.414  0.00  0.00     0.245 C 
ATOM     10  O   UNL d   1      -0.087  -6.486   0.036  0.00  0.00    -0.268 OA
ATOM     11  H   UNL d   1       2.350  -4.678  -0.956  0.00  0.00     0.169 HD
BRANCH   9  12
ATOM     12  C   UNL d   1       1.925  -7.141  -1.030  0.00  0.00     0.075 C 
BRANCH  12  13
ATOM     13  C   UNL d   1       1.516  -8.416  -1.111  0.00  0.00     0.024 C 
ATOM     14  C   UNL d   1       2.364  -9.485  -1.527  0.00  0.00     0.004 A 
ATOM     15  S   UNL d   1       1.660 -11.048  -1.756  0.00  0.00    -0.102 SA
ATOM     16  C   UNL d   1       3.729  -9.539  -1.759  0.00  0.00     0.019 A 
ATOM     17  C   UNL d   1       3.167 -11.765  -2.109  0.00  0.00     0.050 A 
ATOM     18  C   UNL d   1       4.192 -10.850  -2.080  0.00  0.00     0.008 A 
ENDBRANCH  12  13
ENDBRANCH   9  12
ENDBRANCH   1   8
BRANCH   2  19
ATOM     19  C   UNL d   1      -1.395  -2.958   3.210  0.00  0.00     0.417 C 
ATOM     20  F   UNL d   1      -2.087  -4.126   3.124  0.00  0.00    -0.166 F 
ATOM     21  F   UNL d   1      -2.320  -1.967   3.068  0.00  0.00    -0.166 F 
ATOM     22  F   UNL d   1      -0.955  -2.873   4.496  0.00  0.00    -0.166 F 
ENDBRANCH   2  19
TORSDOF 4
