REMARK  3 active torsions:
REMARK  status: ('A' for Active; 'I' for Inactive)
REMARK    1  A    between atoms: N_9  and  C_1 
REMARK    2  A    between atoms: O_6  and  C_4 
REMARK    3  A    between atoms: C_5  and  O_6 
REMARK       I    between atoms: N_11  and  C_5 
ROOT
ATOM      1  C   UNL d   1       1.045   1.268   0.035  0.00  0.00     0.682 A 
ATOM      2  N   UNL d   1       1.720   0.115  -0.105  0.00  0.00    -0.170 N 
ATOM      3  HN  UNL d   1       2.736   0.081  -0.019  1.00  0.00     0.186 HD
ATOM      4  C   UNL d   1       1.001  -0.999  -0.365  0.00  0.00     0.170 A 
ATOM      5  N   UNL d   1      -0.295   1.333  -0.048  0.00  0.00    -0.196 N 
ATOM      6  HN  UNL d   1      -0.781   2.221   0.081  1.00  0.00     0.184 HD
ATOM      7  C   UNL d   1      -0.367  -1.001  -0.490  0.00  0.00     0.082 A 
ATOM      8  C   UNL d   1      -0.984   0.210  -0.302  0.00  0.00     0.026 A 
ATOM      9  C   UNL d   1      -2.477   0.329  -0.367  0.00  0.00     0.069 C 
ENDROOT
BRANCH   4  10
ATOM     10  O   UNL d   1       1.768  -2.194  -0.361  0.00  0.00    -0.243 OA
BRANCH  10  11
ATOM     11  C   UNL d   1       1.299  -3.457  -0.729  0.00  0.00     0.368 C 
ATOM     12  N   UNL d   1       2.168  -4.486  -0.377  0.00  0.00    -0.336 N 
ATOM     13  C   UNL d   1       1.719  -5.859  -0.519  0.00  0.00     0.154 C 
ATOM     14  C   UNL d   1       3.365  -4.270   0.416  0.00  0.00     0.154 C 
ATOM     15  O   UNL d   1       0.226  -3.660  -1.288  0.00  0.00    -0.238 OA
ENDBRANCH  10  11
ENDBRANCH   4  10
BRANCH   1  16
ATOM     16  N   UNL d   1       1.726   2.432   0.298  0.00  0.00    -0.218 N 
ATOM     17  C   UNL d   1       1.055   3.716   0.144  0.00  0.00     0.141 C 
ATOM     18  C   UNL d   1       2.114   4.606  -0.503  0.00  0.00     0.022 C 
ATOM     19  C   UNL d   1       3.421   4.028   0.014  0.00  0.00     0.022 C 
ATOM     20  C   UNL d   1       3.152   2.521   0.043  0.00  0.00     0.141 C 
ENDBRANCH   1  16
TORSDOF 3
