REMARK  1 active torsions:
REMARK  status: ('A' for Active; 'I' for Inactive)
REMARK    1  A    between atoms: C_11  and  C_7 
ROOT
ATOM      1  C   UNL d   1       2.175   0.546  -0.013  0.00  0.00     0.151 A 
ATOM      2  N   UNL d   1       2.574  -0.746  -0.111  0.00  0.00    -0.283 N 
ATOM      3  C   UNL d   1      -0.039   0.037  -0.006  0.00  0.00     0.049 A 
ATOM      4  C   UNL d   1       0.203  -1.283  -0.109  0.00  0.00    -0.024 A 
ATOM      5  N   UNL d   1       0.962   0.975   0.022  0.00  0.00    -0.336 N 
ATOM      6  HN  UNL d   1       0.754   1.972   0.068  1.00  0.00     0.168 HD
ATOM      7  C   UNL d   1       1.607  -1.817  -0.254  0.00  0.00     0.166 A 
ATOM      8  S   UNL d   1       3.521   1.637   0.099  0.00  0.00    -0.084 SA
ATOM      9  C   UNL d   1       3.919  -0.988   0.043  0.00  0.00     0.236 C 
ATOM     10  C   UNL d   1      -1.452   0.505   0.019  0.00  0.00    -0.003 A 
ATOM     11  C   UNL d   1      -0.914  -2.298  -0.175  0.00  0.00     0.043 C 
ATOM     12  C   UNL d   1       4.720   0.288   0.109  0.00  0.00     0.185 C 
ATOM     13  C   UNL d   1      -2.499  -0.408   0.259  0.00  0.00    -0.045 A 
ATOM     14  O   UNL d   1       4.434  -2.095   0.140  0.00  0.00    -0.272 OA
ATOM     15  C   UNL d   1      -2.173  -1.846   0.561  0.00  0.00     0.044 C 
ATOM     16  C   UNL d   1      -1.774   1.851  -0.209  0.00  0.00     0.014 A 
ATOM     17  C   UNL d   1      -3.830   0.032   0.278  0.00  0.00     0.008 A 
ATOM     18  C   UNL d   1      -3.104   2.279  -0.208  0.00  0.00     0.001 A 
ATOM     19  C   UNL d   1      -4.130   1.370   0.035  0.00  0.00     0.001 A 
ENDROOT
BRANCH   7  20
ATOM     20  C   UNL d   1       1.817  -2.499  -1.595  0.00  0.00     0.010 A 
ATOM     21  S   UNL d   1       2.192  -4.173  -1.659  0.00  0.00    -0.104 SA
ATOM     22  C   UNL d   1       2.162  -4.183  -3.366  0.00  0.00     0.050 A 
ATOM     23  C   UNL d   1       1.876  -2.941  -3.886  0.00  0.00     0.008 A 
ATOM     24  C   UNL d   1       1.685  -1.966  -2.866  0.00  0.00     0.017 A 
ENDBRANCH   7  20
TORSDOF 1
