REMARK  4 active torsions:
REMARK  status: ('A' for Active; 'I' for Inactive)
REMARK    1  A    between atoms: N_4  and  C_1 
REMARK    2  A    between atoms: N_8  and  C_1 
REMARK    3  A    between atoms: C_6  and  N_4 
REMARK    4  A    between atoms: N_12  and  N_8 
ROOT
ATOM      1  N   UNL d   1       0.548  -0.002   1.407  0.00  0.00    -0.332 N 
ATOM      2  H   UNL d   1      -0.410  -0.337   1.446  0.00  0.00     0.168 HD
ENDROOT
BRANCH   1   3
ATOM      3  C   UNL d   1       0.996   0.214   0.138  0.00  0.00     0.186 C 
ATOM      4  S   UNL d   1      -0.098   0.350  -1.115  0.00  0.00    -0.040 SA
BRANCH   3   5
ATOM      5  N   UNL d   1       2.342   0.220  -0.131  0.00  0.00    -0.300 N 
ATOM      6  H   UNL d   1       2.549   0.311  -1.128  0.00  0.00     0.183 HD
BRANCH   5   7
ATOM      7  N   UNL d   1       3.233  -0.619   0.593  0.00  0.00    -0.248 NA
ATOM      8  H   UNL d   1       2.683  -1.212   1.222  0.00  0.00     0.143 HD
ATOM      9  H   UNL d   1       3.802  -0.029   1.204  0.00  0.00     0.143 HD
ENDBRANCH   5   7
ENDBRANCH   3   5
ENDBRANCH   1   3
BRANCH   1  10
ATOM     10  C   UNL d   1       1.092   0.427   2.634  0.00  0.00     0.035 A 
ATOM     11  C   UNL d   1       2.066   1.424   2.731  0.00  0.00     0.054 A 
ATOM     12  C   UNL d   1       2.563   1.815   3.980  0.00  0.00     0.053 A 
ATOM     13 CL   UNL d   1       3.770   3.051   4.005  0.00  0.00    -0.083 Cl
ATOM     14  C   UNL d   1       2.078   1.209   5.143  0.00  0.00     0.032 A 
ATOM     15  C   UNL d   1       1.080   0.235   5.051  0.00  0.00     0.023 A 
ATOM     16 BR   UNL d   1       2.715   1.652   6.875  0.00  0.00    -0.049 Br
ATOM     17  C   UNL d   1       0.578  -0.141   3.802  0.00  0.00     0.031 A 
ENDBRANCH   1  10
TORSDOF 4
