REMARK  5 active torsions:
REMARK  status: ('A' for Active; 'I' for Inactive)
REMARK    1  A    between atoms: C_2  and  N_1 
REMARK    2  A    between atoms: N_7  and  C_2 
REMARK    3  A    between atoms: C_15  and  C_4 
REMARK    4  A    between atoms: C_5  and  C_6 
REMARK    5  A    between atoms: C_9  and  N_7 
ROOT
ATOM      1  N   UNL d   1      -2.649   0.243  -0.055  0.00  0.00    -0.345 N 
ATOM      2  C   UNL d   1      -0.276   0.751   0.366  0.00  0.00    -0.017 A 
ATOM      3  C   UNL d   1      -1.697   1.256   0.474  0.00  0.00     0.154 C 
ATOM      4  C   UNL d   1       0.028  -0.577   0.130  0.00  0.00    -0.007 A 
ATOM      5  C   UNL d   1      -2.381  -1.157   0.358  0.00  0.00     0.131 C 
ATOM      6  S   UNL d   1       1.697  -0.886   0.085  0.00  0.00    -0.106 SA
ATOM      7  C   UNL d   1      -0.992  -1.646  -0.091  0.00  0.00     0.067 C 
ATOM      8  C   UNL d   1       0.922   1.531   0.480  0.00  0.00     0.018 A 
ATOM      9  C   UNL d   1       2.060   0.764   0.357  0.00  0.00     0.051 A 
ENDROOT
BRANCH   1  10
ATOM     10  C   UNL d   1      -3.505   0.511  -1.115  0.00  0.00     0.175 C 
ATOM     11  S   UNL d   1      -3.343   1.757  -2.227  0.00  0.00    -0.041 SA
BRANCH  10  12
ATOM     12  N   UNL d   1      -4.519  -0.382  -1.351  0.00  0.00    -0.332 N 
ATOM     13  H   UNL d   1      -4.802  -0.416  -2.327  0.00  0.00     0.168 HD
BRANCH  12  14
ATOM     14  C   UNL d   1      -5.484  -0.872  -0.433  0.00  0.00     0.049 A 
ATOM     15  C   UNL d   1      -6.313  -1.948  -0.805  0.00  0.00     0.074 A 
ATOM     16  C   UNL d   1      -7.373  -2.323   0.048  0.00  0.00     0.018 A 
ATOM     17  C   UNL d   1      -7.590  -1.666   1.255  0.00  0.00     0.001 A 
ATOM     18  C   UNL d   1      -6.734  -0.641   1.641  0.00  0.00     0.002 A 
ATOM     19  C   UNL d   1      -5.686  -0.249   0.804  0.00  0.00     0.030 A 
BRANCH  15  20
ATOM     20  C   UNL d   1      -6.076  -2.798  -2.029  0.00  0.00     0.419 C 
ATOM     21  F   UNL d   1      -5.051  -2.386  -2.827  0.00  0.00    -0.166 F 
ATOM     22  F   UNL d   1      -5.787  -4.091  -1.702  0.00  0.00    -0.166 F 
ATOM     23  F   UNL d   1      -7.167  -2.858  -2.842  0.00  0.00    -0.166 F 
ENDBRANCH  15  20
ENDBRANCH  12  14
ENDBRANCH  10  12
ENDBRANCH   1  10
BRANCH   3  24
ATOM     24  C   UNL d   1      -1.981   1.571   1.942  0.00  0.00    -0.031 A 
ATOM     25  C   UNL d   1      -2.871   2.619   2.240  0.00  0.00     0.011 A 
ATOM     26  C   UNL d   1      -3.211   2.925   3.559  0.00  0.00     0.024 A 
ATOM     27  C   UNL d   1      -2.672   2.178   4.606  0.00  0.00     0.034 A 
ATOM     28  C   UNL d   1      -1.796   1.134   4.340  0.00  0.00     0.024 A 
ATOM     29 CL   UNL d   1      -3.101   2.543   6.230  0.00  0.00    -0.084 Cl
ATOM     30  C   UNL d   1      -1.456   0.830   3.021  0.00  0.00     0.011 A 
ENDBRANCH   3  24
TORSDOF 5
