REMARK  6 active torsions:
REMARK  status: ('A' for Active; 'I' for Inactive)
REMARK    1  A    between atoms: C_8  and  C_2 
REMARK    2  A    between atoms: C_6  and  C_13 
REMARK    3  A    between atoms: N_14  and  C_6 
REMARK    4  A    between atoms: O_17  and  N_9 
REMARK    5  A    between atoms: C_13  and  O_15 
REMARK    6  A    between atoms: O_15  and  C_16 
ROOT
ATOM      1  C   UNL d   1      10.700 -10.626  -3.697  0.00  0.00    -0.008 A 
ATOM      2  C   UNL d   1       9.486 -10.068  -4.120  0.00  0.00     0.016 A 
ATOM      3  C   UNL d   1      11.274 -10.153  -2.510  0.00  0.00     0.016 A 
ATOM      4  C   UNL d   1       9.430  -8.606  -2.189  0.00  0.00     0.069 A 
ATOM      5  C   UNL d   1      10.636  -9.158  -1.759  0.00  0.00     0.037 A 
ATOM      6  C   UNL d   1       8.850  -9.068  -3.369  0.00  0.00     0.037 A 
ENDROOT
BRANCH   4   7
ATOM      7  O   UNL d   1       8.891  -7.665  -1.354  0.00  0.00    -0.344 OA
BRANCH   7   8
ATOM      8  C   UNL d   1       8.068  -6.682  -1.981  0.00  0.00     0.247 C 
BRANCH   8   9
ATOM      9  C   UNL d   1       7.592  -5.674  -0.928  0.00  0.00     0.099 C 
ATOM     10  N   UNL d   1       6.458  -5.069  -1.140  0.00  0.00    -0.260 N 
ATOM     11  HN  UNL d   1       5.873  -5.206  -1.964  1.00  0.00     0.195 HD
BRANCH  10  12
ATOM     12  O   UNL d   1       6.152  -4.200  -0.079  0.00  0.00    -0.289 OA
ATOM     13  H   UNL d   1       5.330  -3.778  -0.392  0.00  0.00     0.244 HD
ENDBRANCH  10  12
BRANCH   9  14
ATOM     14  N   UNL d   1       8.379  -5.451   0.177  0.00  0.00    -0.289 NA
ATOM     15  H   UNL d   1       8.914  -6.258   0.479  0.00  0.00     0.125 HD
ATOM     16  H   UNL d   1       7.850  -4.999   0.918  0.00  0.00     0.125 HD
ENDBRANCH   9  14
ENDBRANCH   8   9
ENDBRANCH   7   8
ENDBRANCH   4   7
BRANCH   1  17
ATOM     17  C   UNL d   1      11.335 -11.671  -4.491  0.00  0.00     0.063 A 
ATOM     18  N   UNL d   1      11.129 -11.760  -5.864  0.00  0.00    -0.292 N 
ATOM     19  N   UNL d   1      11.793 -12.771  -6.402  0.00  0.00    -0.061 NA
ATOM     20  HN  UNL d   1      10.537 -11.121  -6.395  1.00  0.00     0.183 HD
ATOM     21  S   UNL d   1      12.662 -13.649  -5.275  0.00  0.00    -0.010 SA
ATOM     22  C   UNL d   1      12.156 -12.657  -3.970  0.00  0.00     0.096 A 
ENDBRANCH   1  17
TORSDOF 6
