REMARK  2 active torsions:
REMARK  status: ('A' for Active; 'I' for Inactive)
REMARK       I    between atoms: C_7  and  N_13 
REMARK       I    between atoms: N_11  and  C_7 
REMARK    1  A    between atoms: N_13  and  C_10 
REMARK    2  A    between atoms: C_15  and  N_11 
ROOT
ATOM      1  C   UNL d   1      -4.958  -0.533  -0.171  0.00  0.00     0.325 C 
ATOM      2  N   UNL d   1      -4.909   0.827  -0.267  0.00  0.00    -0.307 N 
ATOM      3  N   UNL d   1      -3.783  -1.200   0.020  0.00  0.00    -0.309 N 
ATOM      4  O   UNL d   1      -6.048  -1.058  -0.393  0.00  0.00    -0.247 OA
ATOM      5  H   UNL d   1      -5.750   1.146  -0.736  0.00  0.00     0.170 HD
ATOM      6  H   UNL d   1      -3.039  -0.659   0.433  0.00  0.00     0.170 HD
ENDROOT
BRANCH   3   7
ATOM      7  C   UNL d   1      -3.543  -2.585  -0.153  0.00  0.00     0.038 A 
ATOM      8  C   UNL d   1      -4.483  -3.440  -0.761  0.00  0.00     0.062 A 
ATOM      9  C   UNL d   1      -4.099  -4.794  -0.937  0.00  0.00     0.069 A 
ATOM     10  C   UNL d   1      -2.752  -5.279  -0.481  0.00  0.00     0.067 A 
ATOM     11  N   UNL d   1      -4.840  -5.756  -1.509  0.00  0.00    -0.310 N 
ATOM     12  N   UNL d   1      -2.545  -6.582  -0.729  0.00  0.00    -0.310 N 
ATOM     13  C   UNL d   1      -1.838  -4.396   0.136  0.00  0.00     0.035 A 
ATOM     14  S   UNL d   1      -3.924  -7.140  -1.470  0.00  0.00     0.068 SA
ATOM     15  HN  UNL d   1      -1.708  -7.121  -0.507  1.00  0.00     0.176 HD
ATOM     16  C   UNL d   1      -2.271  -3.060   0.275  0.00  0.00     0.032 A 
ATOM     17  HN  UNL d   1      -5.780  -5.657  -1.891  1.00  0.00     0.176 HD
ENDBRANCH   3   7
BRANCH   2  18
ATOM     18  C   UNL d   1      -3.906   1.796  -0.066  0.00  0.00     0.058 A 
ATOM     19  C   UNL d   1      -2.934   1.807   0.948  0.00  0.00     0.060 A 
ATOM     20 CL   UNL d   1      -2.870   0.640   2.220  0.00  0.00    -0.082 Cl
ATOM     21  C   UNL d   1      -2.023   2.871   1.040  0.00  0.00     0.026 A 
ATOM     22  C   UNL d   1      -2.074   3.932   0.137  0.00  0.00     0.002 A 
ATOM     23  C   UNL d   1      -3.048   3.945  -0.854  0.00  0.00     0.002 A 
ATOM     24  C   UNL d   1      -3.963   2.893  -0.943  0.00  0.00     0.031 A 
ENDBRANCH   2  18
TORSDOF 2
