REMARK  7 active torsions:
REMARK  status: ('A' for Active; 'I' for Inactive)
REMARK    1  A    between atoms: C_7  and  C_1 
REMARK    2  A    between atoms: N_13  and  C_2 
REMARK    3  A    between atoms: N_6  and  C_5 
REMARK    4  A    between atoms: C_9  and  C_12 
REMARK    5  A    between atoms: N_25  and  C_12 
REMARK       I    between atoms: C_15  and  N_13 
REMARK    6  A    between atoms: O_23  and  C_15 
REMARK    7  A    between atoms: N_16  and  O_23 
ROOT
ATOM      1  N   UNL d   1       0.742  -2.387   0.764  0.00  0.00    -0.297 N 
ATOM      2  C   UNL d   1       0.165  -1.226   0.316  0.00  0.00     0.387 C 
ATOM      3  O   UNL d   1       0.411  -0.635  -0.728  0.00  0.00    -0.236 OA
ATOM      4  H   UNL d   1       0.451  -2.689   1.683  0.00  0.00     0.171 HD
ENDROOT
BRANCH   1   5
ATOM      5  C   UNL d   1       1.634  -3.204   0.073  0.00  0.00     0.098 C 
ATOM      6  C   UNL d   1       2.266  -4.399   0.570  0.00  0.00     0.098 C 
ATOM      7  N   UNL d   1       3.110  -4.900  -0.343  0.00  0.00    -0.258 N 
ATOM      8  O   UNL d   1       2.975  -4.121  -1.462  0.00  0.00    -0.240 OA
ATOM      9  HN  UNL d   1       3.729  -5.703  -0.228  1.00  0.00     0.195 HD
ATOM     10  C   UNL d   1       2.042  -3.156  -1.248  0.00  0.00     0.101 C 
ATOM     11  C   UNL d   1       1.670  -2.408  -2.465  0.00  0.00     0.081 C 
BRANCH   6  12
ATOM     12  C   UNL d   1       2.042  -5.151   1.806  0.00  0.00     0.038 A 
ATOM     13  C   UNL d   1       0.778  -5.707   2.086  0.00  0.00     0.048 A 
ATOM     14 CL   UNL d   1      -0.621  -5.414   1.104  0.00  0.00    -0.083 Cl
ATOM     15  C   UNL d   1       0.593  -6.572   3.172  0.00  0.00     0.025 A 
ATOM     16  C   UNL d   1       1.665  -6.911   3.991  0.00  0.00     0.003 A 
ATOM     17  C   UNL d   1       2.918  -6.358   3.744  0.00  0.00     0.025 A 
ATOM     18  C   UNL d   1       3.108  -5.478   2.669  0.00  0.00     0.048 A 
ATOM     19 CL   UNL d   1       4.699  -4.816   2.487  0.00  0.00    -0.083 Cl
ENDBRANCH   6  12
ENDBRANCH   1   5
BRANCH   2  20
ATOM     20  O   UNL d   1      -0.747  -0.779   1.250  0.00  0.00    -0.179 OA
BRANCH  20  21
ATOM     21  N   UNL d   1      -1.760  -0.037   0.600  0.00  0.00    -0.242 N 
ATOM     22  C   UNL d   1      -2.305   0.851   1.380  0.00  0.00     0.133 C 
ATOM     23  HN  UNL d   1      -2.033  -0.182  -0.372  1.00  0.00     0.196 HD
BRANCH  22  24
ATOM     24  C   UNL d   1      -3.435   1.574   0.816  0.00  0.00     0.117 A 
ATOM     25  O   UNL d   1      -4.010   2.574   1.561  0.00  0.00    -0.285 OA
ATOM     26  C   UNL d   1      -5.048   3.052   0.823  0.00  0.00     0.215 A 
ATOM     27  C   UNL d   1      -5.163   2.397  -0.380  0.00  0.00     0.066 A 
ATOM     28  C   UNL d   1      -4.110   1.448  -0.388  0.00  0.00     0.045 A 
BRANCH  26  29
ATOM     29  N   UNL d   1      -5.821   4.101   1.407  0.00  0.00    -0.090 N 
ATOM     30  O   UNL d   1      -6.805   4.490   0.761  0.00  0.00    -0.530 OA
ATOM     31  O   UNL d   1      -5.455   4.544   2.507  0.00  0.00    -0.530 OA
ENDBRANCH  26  29
ENDBRANCH  22  24
BRANCH  22  32
ATOM     32  N   UNL d   1      -1.853   1.119   2.652  0.00  0.00    -0.285 NA
ATOM     33  H   UNL d   1      -2.118   2.035   3.002  0.00  0.00     0.125 HD
ATOM     34  H   UNL d   1      -0.872   0.907   2.780  0.00  0.00     0.125 HD
ENDBRANCH  22  32
ENDBRANCH  20  21
ENDBRANCH   2  20
TORSDOF 7
