REMARK  2 active torsions:
REMARK  status: ('A' for Active; 'I' for Inactive)
REMARK    1  A    between atoms: S_4  and  C_1 
REMARK    2  A    between atoms: C_9  and  S_4 
ROOT
ATOM      1  C   UNL d   1       1.521   1.635   0.754  0.00  0.00     0.088 A 
ATOM      2  C   UNL d   1       0.162   1.300   0.874  0.00  0.00     0.032 A 
ATOM      3  C   UNL d   1      -0.102   0.138   1.584  0.00  0.00     0.087 A 
ATOM      4  N   UNL d   1       2.463   0.848   1.312  0.00  0.00    -0.346 N 
ATOM      5  HN  UNL d   1       3.454   1.076   1.231  1.00  0.00     0.167 HD
ATOM      6  N   UNL d   1       0.805  -0.670   2.158  0.00  0.00    -0.346 N 
ATOM      7  HN  UNL d   1       0.564  -1.517   2.673  1.00  0.00     0.167 HD
ATOM      8  S   UNL d   1      -1.768  -0.215   1.682  0.00  0.00    -0.083 SA
ATOM      9  C   UNL d   1       2.058  -0.243   1.977  0.00  0.00     0.182 A 
ATOM     10  C   UNL d   1      -2.180   1.180   0.785  0.00  0.00     0.053 A 
ATOM     11  C   UNL d   1      -1.065   1.900   0.418  0.00  0.00     0.024 A 
ENDROOT
BRANCH   1  12
ATOM     12  S   UNL d   1       1.958   3.093  -0.153  0.00  0.00    -0.071 SA
BRANCH  12  13
ATOM     13  C   UNL d   1       3.746   3.165  -0.015  0.00  0.00     0.018 A 
ATOM     14  C   UNL d   1       4.419   3.854   1.035  0.00  0.00    -0.009 A 
ATOM     15  C   UNL d   1       5.834   3.939   0.987  0.00  0.00    -0.025 A 
ATOM     16  C   UNL d   1       3.767   4.478   2.128  0.00  0.00     0.013 A 
ATOM     17  C   UNL d   1       6.535   4.625   1.993  0.00  0.00     0.012 A 
ATOM     18  C   UNL d   1       6.538   3.351  -0.075  0.00  0.00     0.012 A 
ATOM     19  C   UNL d   1       5.862   5.231   3.053  0.00  0.00     0.001 A 
ATOM     20  C   UNL d   1       4.478   5.156   3.121  0.00  0.00     0.001 A 
ATOM     21  C   UNL d   1       5.867   2.680  -1.094  0.00  0.00     0.002 A 
ATOM     22  C   UNL d   1       4.479   2.591  -1.066  0.00  0.00     0.020 A 
ENDBRANCH  12  13
ENDBRANCH   1  12
TORSDOF 2
