REMARK  8 active torsions:
REMARK  status: ('A' for Active; 'I' for Inactive)
REMARK       I    between atoms: N_3  and  C_1 
REMARK       I    between atoms: N_4  and  C_1 
REMARK       I    between atoms: N_7  and  C_1 
REMARK    1  A    between atoms: C_2  and  N_3 
REMARK    2  A    between atoms: N_9  and  C_2 
REMARK    3  A    between atoms: C_11  and  N_4 
REMARK    4  A    between atoms: C_17  and  N_9 
REMARK    5  A    between atoms: C_26  and  C_24 
REMARK    6  A    between atoms: O_31  and  C_24 
REMARK    7  A    between atoms: C_25  and  C_27 
REMARK    8  A    between atoms: O_30  and  C_25 
ROOT
ATOM      1  C   UNL d   2       0.262   0.924  -2.398  0.00  0.00     0.088 C 
ATOM      2  C   UNL d   2       0.786   2.137  -2.167  0.00  0.00     0.088 C 
ENDROOT
BRANCH   1   3
ATOM      3  C   UNL d   2      -1.110   0.437  -2.219  0.00  0.00     0.165 C 
ATOM      4  O   UNL d   2      -1.597  -0.397  -2.961  0.00  0.00    -0.647 OA
BRANCH   3   5
ATOM      5  O   UNL d   2      -1.760   1.011  -1.195  0.00  0.00    -0.773 OA
ATOM      6  H   UNL d   2      -1.185   1.242  -0.434  0.00  0.00     0.167 HD
ENDBRANCH   3   5
ENDBRANCH   1   3
BRANCH   2   7
ATOM      7  C   UNL d   2       0.251   3.405  -1.652  0.00  0.00     0.165 C 
ATOM      8  O   UNL d   2       1.004   4.330  -1.387  0.00  0.00    -0.647 OA
BRANCH   7   9
ATOM      9  O   UNL d   2      -1.073   3.489  -1.464  0.00  0.00    -0.773 OA
ATOM     10  H   UNL d   2      -1.638   2.766  -1.804  0.00  0.00     0.167 HD
ENDBRANCH   7   9
ENDBRANCH   2   7
TORSDOF 8
