REMARK  1 active torsions:
REMARK  status: ('A' for Active; 'I' for Inactive)
REMARK    1  A    between atoms: C_18  and  C_8 
ROOT
ATOM      1  C   UNL d   1      -1.259   0.648  -0.058  0.00  0.00     0.120 C 
ATOM      2  C   UNL d   1      -1.312  -0.699  -0.047  0.00  0.00     0.067 C 
ATOM      3  C   UNL d   1      -2.631  -1.369  -0.119  0.00  0.00     0.258 C 
ATOM      4  C   UNL d   1       1.214  -0.725  -0.086  0.00  0.00     0.024 C 
ATOM      5  N   UNL d   1      -2.420   1.369  -0.077  0.00  0.00    -0.319 N 
ATOM      6  N   UNL d   1      -3.721  -0.547  -0.022  0.00  0.00    -0.299 N 
ATOM      7  C   UNL d   1       1.178   0.625  -0.085  0.00  0.00     0.022 C 
ATOM      8  C   UNL d   1      -0.059  -1.558   0.043  0.00  0.00     0.099 C 
ATOM      9  N   UNL d   1      -0.038   1.284  -0.034  0.00  0.00    -0.345 N 
ATOM     10  C   UNL d   1      -3.663   0.812  -0.034  0.00  0.00     0.180 C 
ATOM     11  C   UNL d   1       2.516  -1.434  -0.236  0.00  0.00     0.159 C 
ATOM     12  C   UNL d   1       2.427   1.474  -0.095  0.00  0.00     0.067 C 
ATOM     13  C   UNL d   1       3.659   0.731   0.465  0.00  0.00    -0.036 C 
ATOM     14  C   UNL d   1       3.792  -0.617  -0.260  0.00  0.00     0.092 C 
ATOM     15  S   UNL d   1      -5.033   1.752  -0.000  0.00  0.00    -0.040 SA
ATOM     16  O   UNL d   1      -2.753  -2.577  -0.283  0.00  0.00    -0.267 OA
ATOM     17  O   UNL d   1       2.550  -2.649  -0.426  0.00  0.00    -0.293 OA
ATOM     18  C   UNL d   1       3.531   0.518   1.989  0.00  0.00     0.015 C 
ATOM     19  C   UNL d   1       4.922   1.573   0.213  0.00  0.00     0.015 C 
ATOM     20  H   UNL d   1      -2.375   2.380  -0.080  0.00  0.00     0.170 HD
ATOM     21  H   UNL d   1      -4.625  -0.996  -0.041  0.00  0.00     0.171 HD
ATOM     22  H   UNL d   1      -0.034   2.295  -0.101  0.00  0.00     0.167 HD
ENDROOT
BRANCH   8  23
ATOM     23  C   UNL d   1      -0.047  -2.354   1.354  0.00  0.00    -0.045 A 
ATOM     24  C   UNL d   1      -0.014  -3.756   1.321  0.00  0.00     0.008 A 
ATOM     25  C   UNL d   1      -0.008  -4.493   2.504  0.00  0.00     0.001 A 
ATOM     26  C   UNL d   1      -0.036  -3.840   3.735  0.00  0.00     0.000 A 
ATOM     27  C   UNL d   1      -0.065  -2.448   3.786  0.00  0.00     0.001 A 
ATOM     28  C   UNL d   1      -0.070  -1.707   2.603  0.00  0.00     0.008 A 
ENDBRANCH   8  23
TORSDOF 1
