REMARK  4 active torsions:
REMARK  status: ('A' for Active; 'I' for Inactive)
REMARK    1  A    between atoms: C_6  and  N_1 
REMARK    2  A    between atoms: C_8  and  C_6 
REMARK       I    between atoms: N_15  and  C_8 
REMARK    3  A    between atoms: C_20  and  N_15 
REMARK    4  A    between atoms: C_19  and  C_20 
ROOT
ATOM      1  C   UNL d   1       3.888   1.495  -0.168  0.00  0.00     0.236 C 
ATOM      2  N   UNL d   1       3.030   2.559  -0.314  0.00  0.00    -0.355 N 
ATOM      3  O   UNL d   1       5.111   1.637  -0.147  0.00  0.00    -0.272 OA
ATOM      4  H   UNL d   1       2.069   2.376  -0.569  0.00  0.00     0.162 HD
ENDROOT
BRANCH   1   5
ATOM      5  C   UNL d   1       3.269   0.116   0.041  0.00  0.00     0.238 C 
BRANCH   5   6
ATOM      6  N   UNL d   1       1.833  -0.009  -0.113  0.00  0.00    -0.271 N 
ATOM      7  C   UNL d   1       0.973  -0.145   0.944  0.00  0.00     0.262 A 
ATOM      8  C   UNL d   1      -0.304  -0.597   0.389  0.00  0.00     0.048 A 
ATOM      9  O   UNL d   1       1.187   0.012   2.132  0.00  0.00    -0.267 OA
ATOM     10  C   UNL d   1      -1.476  -0.962   1.024  0.00  0.00     0.018 A 
ATOM     11  C   UNL d   1      -0.143  -0.721  -0.978  0.00  0.00     0.048 A 
ATOM     12  C   UNL d   1      -2.506  -1.465   0.222  0.00  0.00     0.001 A 
ATOM     13  C   UNL d   1      -2.342  -1.589  -1.174  0.00  0.00     0.001 A 
ATOM     14  C   UNL d   1      -1.145  -1.213  -1.792  0.00  0.00     0.018 A 
ATOM     15  C   UNL d   1       1.234  -0.342  -1.296  0.00  0.00     0.262 A 
ATOM     16  O   UNL d   1       1.716  -0.373  -2.411  0.00  0.00    -0.267 OA
ENDBRANCH   5   6
ENDBRANCH   1   5
BRANCH   2  17
ATOM     17  C   UNL d   1       3.558   3.888  -0.546  0.00  0.00     0.161 C 
BRANCH  17  18
ATOM     18  C   UNL d   1       2.640   4.991  -0.079  0.00  0.00    -0.038 A 
ATOM     19  C   UNL d   1       1.766   4.816   1.007  0.00  0.00     0.048 A 
ATOM     20  C   UNL d   1       0.991   5.887   1.401  0.00  0.00     0.105 A 
ATOM     21  O   UNL d   1       0.084   5.878   2.414  0.00  0.00    -0.323 OA
ATOM     22  C   UNL d   1       1.078   7.113   0.786  0.00  0.00     0.105 A 
ATOM     23  C   UNL d   1      -0.415   7.229   2.342  0.00  0.00     0.352 A 
ATOM     24  O   UNL d   1       0.235   8.029   1.333  0.00  0.00    -0.323 OA
ATOM     25  C   UNL d   1       1.944   7.338  -0.260  0.00  0.00     0.040 A 
ATOM     26  C   UNL d   1       2.731   6.265  -0.693  0.00  0.00     0.012 A 
ENDBRANCH  17  18
ENDBRANCH   2  17
TORSDOF 4
