REMARK  4 active torsions:
REMARK  status: ('A' for Active; 'I' for Inactive)
REMARK    1  A    between atoms: N_6  and  S_1 
REMARK    2  A    between atoms: C_8  and  S_1 
REMARK    3  A    between atoms: C_3  and  C_12 
REMARK    4  A    between atoms: C_15  and  N_6 
ROOT
ATOM      1  C   UNL d   1       1.641  -3.264   4.153  0.00  0.00    -0.008 A 
ATOM      2  C   UNL d   1       1.011  -1.108   2.467  0.00  0.00     0.042 A 
ATOM      3  C   UNL d   1       0.332  -2.764   4.092  0.00  0.00     0.016 A 
ATOM      4  C   UNL d   1       2.630  -2.660   3.364  0.00  0.00     0.016 A 
ATOM      5  C   UNL d   1       0.023  -1.679   3.265  0.00  0.00     0.031 A 
ATOM      6  C   UNL d   1       2.313  -1.601   2.510  0.00  0.00     0.031 A 
ENDROOT
BRANCH   2   7
ATOM      7  N   UNL d   1       0.694   0.020   1.663  0.00  0.00    -0.281 N 
ATOM      8  H   UNL d   1       1.047   0.027   0.706  0.00  0.00     0.179 HD
BRANCH   7   9
ATOM      9  S   UNL d   1       0.774   1.558   2.371  0.00  0.00     0.263 S 
ATOM     10  O   UNL d   1      -0.069   1.582   3.546  0.00  0.00    -0.200 OA
ATOM     11  O   UNL d   1       0.611   2.519   1.296  0.00  0.00    -0.200 OA
BRANCH   9  12
ATOM     12  C   UNL d   1       2.474   1.660   2.895  0.00  0.00     0.080 A 
ATOM     13  C   UNL d   1       3.481   1.681   1.920  0.00  0.00     0.027 A 
ATOM     14  C   UNL d   1       4.819   1.635   2.315  0.00  0.00     0.025 A 
ATOM     15  C   UNL d   1       5.140   1.599   3.673  0.00  0.00     0.034 A 
ATOM     16  C   UNL d   1       4.135   1.626   4.642  0.00  0.00     0.025 A 
ATOM     17 CL   UNL d   1       6.788   1.504   4.153  0.00  0.00    -0.084 Cl
ATOM     18  C   UNL d   1       2.794   1.657   4.255  0.00  0.00     0.027 A 
ENDBRANCH   9  12
ENDBRANCH   7   9
ENDBRANCH   2   7
BRANCH   1  19
ATOM     19  C   UNL d   1       2.002  -4.380   5.016  0.00  0.00     0.063 A 
ATOM     20  N   UNL d   1       3.283  -4.486   5.553  0.00  0.00    -0.292 N 
ATOM     21  N   UNL d   1       3.421  -5.573   6.294  0.00  0.00    -0.061 NA
ATOM     22  HN  UNL d   1       4.026  -3.806   5.393  1.00  0.00     0.183 HD
ATOM     23  S   UNL d   1       2.031  -6.500   6.351  0.00  0.00    -0.010 SA
ATOM     24  C   UNL d   1       1.154  -5.424   5.342  0.00  0.00     0.096 A 
ENDBRANCH   1  19
TORSDOF 4
