REMARK  2 active torsions:
REMARK  status: ('A' for Active; 'I' for Inactive)
REMARK    1  A    between atoms: C_5  and  S_1 
REMARK    2  A    between atoms: O_15  and  S_1 
ROOT
ATOM      1  C   UNL d   1      -1.022  -3.159   1.956  0.00  0.00     0.091 A 
ATOM      2  C   UNL d   1      -0.357  -4.248   1.377  0.00  0.00     0.044 A 
ATOM      3  C   UNL d   1      -0.680  -1.839   1.589  0.00  0.00    -0.004 A 
ATOM      4  C   UNL d   1       0.314  -1.664   0.597  0.00  0.00     0.095 A 
ATOM      5  C   UNL d   1      -0.648  -5.613   1.855  0.00  0.00     0.165 C 
ATOM      6  O   UNL d   1      -2.014  -3.321   2.895  0.00  0.00    -0.339 OA
ATOM      7  C   UNL d   1      -2.610  -4.631   2.973  0.00  0.00     0.067 C 
ATOM      8  C   UNL d   1      -1.532  -5.708   3.061  0.00  0.00     0.121 C 
ATOM      9  C   UNL d   1       0.599  -4.060   0.379  0.00  0.00     0.020 A 
ATOM     10  C   UNL d   1       0.928  -2.768  -0.017  0.00  0.00     0.027 A 
ATOM     11  O   UNL d   1      -0.140  -6.596   1.328  0.00  0.00    -0.292 OA
ATOM     12  C   UNL d   1      -1.359  -0.665   2.249  0.00  0.00     0.052 C 
ATOM     13  C   UNL d   1      -3.578  -4.850   1.797  0.00  0.00     0.046 C 
ATOM     14  C   UNL d   1      -3.430  -4.657   4.272  0.00  0.00     0.046 C 
ENDROOT
BRANCH   4  15
ATOM     15  S   UNL d   1       0.859  -0.039   0.074  0.00  0.00     0.298 S 
ATOM     16  O   UNL d   1      -0.305   0.664  -0.428  0.00  0.00    -0.193 OA
ATOM     17  O   UNL d   1       2.031  -0.217  -0.761  0.00  0.00    -0.193 OA
BRANCH  15  18
ATOM     18  O   UNL d   1       1.352   0.677   1.450  0.00  0.00    -0.277 OA
ATOM     19  C   UNL d   1       1.865   1.991   1.342  0.00  0.00     0.225 C 
ENDBRANCH  15  18
ENDBRANCH   4  15
TORSDOF 2
