REMARK  5 active torsions:
REMARK  status: ('A' for Active; 'I' for Inactive)
REMARK    1  A    between atoms: C_22  and  N_1 
REMARK    2  A    between atoms: S_13  and  C_2 
REMARK    3  A    between atoms: C_26  and  C_4 
REMARK    4  A    between atoms: C_14  and  S_13 
REMARK    5  A    between atoms: C_29  and  C_22 
ROOT
ATOM      1  N   UNL d   1       0.482  -2.683   0.046  0.00  0.00    -0.306 N 
ATOM      2  C   UNL d   1       1.859  -2.555   0.151  0.00  0.00     0.169 A 
ATOM      3  C   UNL d   1      -0.047  -1.427   0.332  0.00  0.00     0.135 A 
ATOM      4  N   UNL d   1       0.982  -0.628   0.591  0.00  0.00    -0.283 N 
ATOM      5  HN  UNL d   1       0.909   0.358   0.840  1.00  0.00     0.188 HD
ATOM      6  N   UNL d   1       2.156  -1.325   0.475  0.00  0.00    -0.278 N 
ATOM      7  HN  UNL d   1       3.094  -0.950   0.617  1.00  0.00     0.189 HD
ENDROOT
BRANCH   2   8
ATOM      8  S   UNL d   1       2.946  -3.855  -0.211  0.00  0.00    -0.033 SA
BRANCH   8   9
ATOM      9  C   UNL d   1       4.484  -3.489   0.603  0.00  0.00     0.098 A 
ATOM     10  C   UNL d   1       5.336  -4.540   0.985  0.00  0.00     0.068 A 
ATOM     11  S   UNL d   1       5.055  -6.235   1.044  0.00  0.00    -0.066 SA
ATOM     12  C   UNL d   1       6.643  -4.250   1.389  0.00  0.00     0.067 A 
ATOM     13  C   UNL d   1       6.616  -6.557   1.623  0.00  0.00     0.088 A 
ATOM     14  N   UNL d   1       6.944  -7.820   1.960  0.00  0.00    -0.354 N 
ATOM     15  C   UNL d   1       7.432  -5.435   1.667  0.00  0.00     0.032 A 
ATOM     16  C   UNL d   1       8.213  -7.984   2.380  0.00  0.00     0.006 A 
ATOM     17  HN  UNL d   1       6.282  -8.594   1.902  1.00  0.00     0.166 HD
ATOM     18  C   UNL d   1       8.589  -9.351   2.873  0.00  0.00     0.068 C 
ATOM     19  C   UNL d   1       9.160  -6.968   2.374  0.00  0.00     0.032 A 
ATOM     20  C   UNL d   1       8.799  -5.661   1.994  0.00  0.00    -0.045 A 
ATOM     21  C   UNL d   1       9.884  -4.618   1.966  0.00  0.00     0.049 C 
ATOM     22  N   UNL d   1       7.085  -2.969   1.498  0.00  0.00    -0.350 N 
ATOM     23  C   UNL d   1       6.180  -2.036   1.189  0.00  0.00     0.181 A 
ATOM     24  HN  UNL d   1       8.034  -2.738   1.792  1.00  0.00     0.166 HD
ATOM     25  N   UNL d   1       4.939  -2.227   0.723  0.00  0.00    -0.345 N 
ATOM     26  HN  UNL d   1       4.351  -1.434   0.465  1.00  0.00     0.167 HD
ENDBRANCH   8   9
ENDBRANCH   2   8
BRANCH   1  27
ATOM     27  C   UNL d   1      -0.233  -3.936  -0.150  0.00  0.00     0.171 C 
BRANCH  27  28
ATOM     28  C   UNL d   1      -0.943  -4.096  -1.479  0.00  0.00    -0.040 A 
ATOM     29  C   UNL d   1      -0.676  -3.312  -2.611  0.00  0.00     0.009 A 
ATOM     30  C   UNL d   1      -1.489  -3.411  -3.745  0.00  0.00     0.001 A 
ATOM     31  C   UNL d   1      -2.555  -4.309  -3.775  0.00  0.00     0.000 A 
ATOM     32  C   UNL d   1      -2.794  -5.136  -2.682  0.00  0.00     0.001 A 
ATOM     33  C   UNL d   1      -1.986  -5.041  -1.549  0.00  0.00     0.009 A 
ENDBRANCH  27  28
ENDBRANCH   1  27
BRANCH   3  34
ATOM     34  C   UNL d   1      -1.450  -0.940   0.373  0.00  0.00     0.012 A 
ATOM     35  C   UNL d   1      -1.679   0.362   0.853  0.00  0.00     0.032 A 
ATOM     36  C   UNL d   1      -2.967   0.879   0.873  0.00  0.00     0.088 A 
ATOM     37  N   UNL d   1      -4.054   0.202   0.451  0.00  0.00    -0.375 N 
ATOM     38  C   UNL d   1      -3.835  -1.041  -0.010  0.00  0.00     0.088 A 
ATOM     39  HN  UNL d   1      -4.989   0.609   0.480  1.00  0.00     0.164 HD
ATOM     40  C   UNL d   1      -2.580  -1.638  -0.055  0.00  0.00     0.032 A 
ENDBRANCH   3  34
TORSDOF 5
