REMARK  2 active torsions:
REMARK  status: ('A' for Active; 'I' for Inactive)
REMARK    1  A    between atoms: C_2  and  N_1 
REMARK    2  A    between atoms: S_11  and  C_10 
ROOT
ATOM      1  C   UNL d   1       0.057   2.300  -0.009  0.00  0.00     0.047 A 
ATOM      2  C   UNL d   1      -0.649   3.012   0.980  0.00  0.00     0.048 A 
ATOM      3  C   UNL d   1      -0.585   4.409   1.075  0.00  0.00     0.002 A 
ATOM      4  C   UNL d   1       0.807   3.039  -0.935  0.00  0.00     0.030 A 
ATOM      5  C   UNL d   1       0.855   4.433  -0.874  0.00  0.00     0.004 A 
ATOM      6  C   UNL d   1       0.170   5.111   0.131  0.00  0.00     0.018 A 
ENDROOT
BRANCH   1   7
ATOM      7  N   UNL d   1       0.030   0.877  -0.051  0.00  0.00    -0.245 N 
ATOM      8  C   UNL d   1      -0.908   0.079   0.545  0.00  0.00     0.255 A 
ATOM      9  C   UNL d   1      -0.532  -1.316   0.291  0.00  0.00     0.080 A 
ATOM     10  O   UNL d   1      -1.925   0.354   1.165  0.00  0.00    -0.268 OA
ATOM     11  C   UNL d   1       0.587  -1.311  -0.428  0.00  0.00     0.080 A 
ATOM     12  C   UNL d   1       0.968   0.087  -0.660  0.00  0.00     0.255 A 
ATOM     13  O   UNL d   1       1.992   0.367  -1.258  0.00  0.00    -0.268 OA
ENDBRANCH   1   7
BRANCH   3  14
ATOM     14  S   UNL d   1      -1.383   5.385   2.349  0.00  0.00    -0.134 SA
ATOM     15  C   UNL d   1      -2.148   4.139   3.423  0.00  0.00     0.095 C 
ENDBRANCH   3  14
TORSDOF 2
