REMARK  5 active torsions:
REMARK  status: ('A' for Active; 'I' for Inactive)
REMARK    1  A    between atoms: C_2  and  C_1 
REMARK    2  A    between atoms: C_6  and  C_1 
REMARK    3  A    between atoms: C_5  and  C_2 
REMARK    4  A    between atoms: O_11  and  N_3 
REMARK    5  A    between atoms: O_14  and  C_10 
ROOT
ATOM      1  C   UNL d   1       0.971   0.024   0.243  0.00  0.00     0.115 C 
ATOM      2  N   UNL d   1       0.523   1.195   0.611  0.00  0.00    -0.265 N 
ATOM      3  HN  UNL d   1       1.031   2.065   0.450  1.00  0.00     0.194 HD
ENDROOT
BRANCH   1   4
ATOM      4  C   UNL d   1       0.191  -1.270   0.427  0.00  0.00     0.211 C 
ATOM      5  O   UNL d   1       0.783  -2.227   0.922  0.00  0.00    -0.285 OA
BRANCH   4   6
ATOM      6  C   UNL d   1      -1.245  -1.405   0.058  0.00  0.00     0.017 A 
ATOM      7  C   UNL d   1      -1.882  -0.549  -0.850  0.00  0.00     0.018 A 
ATOM      8  C   UNL d   1      -3.265  -0.645  -1.053  0.00  0.00     0.037 A 
ATOM      9  C   UNL d   1      -4.011  -1.602  -0.360  0.00  0.00     0.068 A 
ATOM     10  C   UNL d   1      -3.365  -2.507   0.481  0.00  0.00     0.037 A 
ATOM     11  C   UNL d   1      -1.990  -2.406   0.694  0.00  0.00     0.018 A 
BRANCH   9  12
ATOM     12  O   UNL d   1      -5.366  -1.755  -0.464  0.00  0.00    -0.356 OA
ATOM     13  C   UNL d   1      -6.092  -0.533  -0.565  0.00  0.00     0.210 C 
ENDBRANCH   9  12
ENDBRANCH   4   6
ENDBRANCH   1   4
BRANCH   1  14
ATOM     14  C   UNL d   1       2.365  -0.058  -0.296  0.00  0.00    -0.004 A 
ATOM     15  C   UNL d   1       2.809  -1.128  -1.082  0.00  0.00     0.014 A 
ATOM     16  C   UNL d   1       4.144  -1.189  -1.497  0.00  0.00     0.001 A 
ATOM     17  C   UNL d   1       5.041  -0.186  -1.133  0.00  0.00     0.000 A 
ATOM     18  C   UNL d   1       4.607   0.888  -0.358  0.00  0.00     0.001 A 
ATOM     19  C   UNL d   1       3.275   0.955   0.053  0.00  0.00     0.014 A 
ENDBRANCH   1  14
BRANCH   2  20
ATOM     20  O   UNL d   1      -0.719   1.138   1.248  0.00  0.00    -0.289 OA
ATOM     21  H   UNL d   1      -0.899   2.077   1.448  0.00  0.00     0.244 HD
ENDBRANCH   2  20
TORSDOF 5
