REMARK  6 active torsions:
REMARK  status: ('A' for Active; 'I' for Inactive)
REMARK    1  A    between atoms: C_6  and  C_1 
REMARK    2  A    between atoms: O_11  and  C_2 
REMARK    3  A    between atoms: O_10  and  C_3 
REMARK    4  A    between atoms: C_12  and  N_4 
REMARK    5  A    between atoms: O_13  and  C_8 
REMARK    6  A    between atoms: C_14  and  C_12 
ROOT
ATOM      1  C   UNL d   1      -3.694  -1.268   0.029  0.00  0.00     0.022 A 
ATOM      2  C   UNL d   1      -4.985  -1.817   0.038  0.00  0.00     0.114 A 
ATOM      3  C   UNL d   1      -6.112  -0.986   0.065  0.00  0.00     0.133 A 
ATOM      4  C   UNL d   1      -3.573   0.135   0.042  0.00  0.00     0.019 A 
ATOM      5  C   UNL d   1      -5.973   0.400   0.080  0.00  0.00     0.101 A 
ATOM      6  C   UNL d   1      -4.702   0.963   0.066  0.00  0.00     0.040 A 
ENDROOT
BRANCH   1   7
ATOM      7  C   UNL d   1      -2.465  -2.145   0.013  0.00  0.00     0.014 C 
ATOM      8  N   UNL d   1      -2.614  -3.436   0.009  0.00  0.00    -0.388 N 
ATOM      9  HN  UNL d   1      -3.540  -3.862   0.013  1.00  0.00     0.159 HD
ATOM     10  C   UNL d   1      -1.118  -1.434   0.006  0.00  0.00     0.068 C 
BRANCH   8  11
ATOM     11  C   UNL d   1      -1.392  -4.259  -0.002  0.00  0.00     0.158 C 
BRANCH  11  12
ATOM     12  C   UNL d   1      -1.633  -5.751   0.019  0.00  0.00    -0.041 A 
ATOM     13  C   UNL d   1      -0.703  -6.604  -0.600  0.00  0.00     0.009 A 
ATOM     14  C   UNL d   1      -0.845  -7.991  -0.529  0.00  0.00     0.001 A 
ATOM     15  C   UNL d   1      -1.913  -8.543   0.172  0.00  0.00     0.000 A 
ATOM     16  C   UNL d   1      -2.835  -7.709   0.804  0.00  0.00     0.001 A 
ATOM     17  C   UNL d   1      -2.692  -6.320   0.734  0.00  0.00     0.009 A 
ENDBRANCH  11  12
ENDBRANCH   8  11
ENDBRANCH   1   7
BRANCH   2  18
ATOM     18  O   UNL d   1      -5.227  -3.170   0.020  0.00  0.00    -0.357 OA
ATOM     19  H   UNL d   1      -4.345  -3.611  -0.025  0.00  0.00     0.217 HD
ENDBRANCH   2  18
BRANCH   3  20
ATOM     20  O   UNL d   1      -7.358  -1.555   0.079  0.00  0.00    -0.356 OA
ATOM     21  H   UNL d   1      -7.191  -2.518   0.063  0.00  0.00     0.218 HD
ENDBRANCH   3  20
BRANCH   5  22
ATOM     22  O   UNL d   1      -7.081   1.197   0.107  0.00  0.00    -0.358 OA
ATOM     23  H   UNL d   1      -6.813   2.130   0.113  0.00  0.00     0.217 HD
ENDBRANCH   5  22
TORSDOF 6
