REMARK  2 active torsions:
REMARK  status: ('A' for Active; 'I' for Inactive)
REMARK    1  A    between atoms: C_4  and  N_1 
REMARK    2  A    between atoms: O_10  and  C_9 
ROOT
ATOM      1  C   UNL d   1      -0.005   2.258   0.008  0.00  0.00     0.079 A 
ATOM      2  C   UNL d   1      -0.616   2.943   1.070  0.00  0.00     0.095 A 
ATOM      3  C   UNL d   1       0.681   2.983  -0.987  0.00  0.00     0.033 A 
ATOM      4  C   UNL d   1      -0.521   4.344   1.103  0.00  0.00     0.039 A 
ATOM      5  C   UNL d   1       0.764   4.374  -0.932  0.00  0.00     0.002 A 
ATOM      6  C   UNL d   1       0.162   5.056   0.116  0.00  0.00     0.003 A 
ENDROOT
BRANCH   1   7
ATOM      7  N   UNL d   1      -0.033   0.861  -0.125  0.00  0.00    -0.242 N 
ATOM      8  C   UNL d   1       1.035   0.061   0.154  0.00  0.00     0.255 C 
ATOM      9  C   UNL d   1       0.711  -1.277  -0.358  0.00  0.00     0.080 C 
ATOM     10  O   UNL d   1       2.091   0.319   0.704  0.00  0.00    -0.268 OA
ATOM     11  C   UNL d   1      -0.455  -1.196  -0.999  0.00  0.00     0.080 C 
ATOM     12  C   UNL d   1      -0.917   0.197  -0.922  0.00  0.00     0.255 C 
ATOM     13  O   UNL d   1      -1.905   0.596  -1.511  0.00  0.00    -0.268 OA
ENDBRANCH   1   7
BRANCH   2  14
ATOM     14  O   UNL d   1      -1.325   2.463   2.135  0.00  0.00    -0.354 OA
ATOM     15  C   UNL d   1      -1.419   1.069   2.365  0.00  0.00     0.210 C 
ENDBRANCH   2  14
TORSDOF 2
