REMARK  3 active torsions:
REMARK  status: ('A' for Active; 'I' for Inactive)
REMARK    1  A    between atoms: C_11  and  C_2 
REMARK    2  A    between atoms: C_12  and  C_3 
REMARK    3  A    between atoms: C_16  and  C_11 
ROOT
ATOM      1  C   UNL d   1      -2.371  -0.743   0.530  0.00  0.00     0.231 C 
ATOM      2  C   UNL d   1      -3.875  -2.239   1.117  0.00  0.00     0.095 C 
ATOM      3  C   UNL d   1      -3.610  -1.378  -0.069  0.00  0.00     0.128 C 
ATOM      4  C   UNL d   1      -1.949   0.614  -0.003  0.00  0.00     0.206 C 
ATOM      5  C   UNL d   1      -1.085  -1.568   0.454  0.00  0.00     0.206 C 
ATOM      6  N   UNL d   1      -3.486  -1.725   2.249  0.00  0.00    -0.264 N 
ATOM      7  HN  UNL d   1      -3.700  -2.068   3.186  1.00  0.00     0.194 HD
ATOM      8  O   UNL d   1      -2.707  -0.594   1.914  0.00  0.00    -0.251 OA
ATOM      9  C   UNL d   1       0.011  -0.664   0.135  0.00  0.00     0.028 A 
ATOM     10  C   UNL d   1      -0.486   0.607  -0.130  0.00  0.00     0.028 A 
ATOM     11  O   UNL d   1      -0.940  -2.761   0.658  0.00  0.00    -0.288 OA
ATOM     12  O   UNL d   1      -2.651   1.571  -0.267  0.00  0.00    -0.288 OA
ATOM     13  C   UNL d   1       0.361   1.658  -0.423  0.00  0.00     0.016 A 
ATOM     14  C   UNL d   1       1.364  -0.947   0.123  0.00  0.00     0.016 A 
ATOM     15  C   UNL d   1       1.737   1.398  -0.428  0.00  0.00     0.001 A 
ATOM     16  C   UNL d   1       2.234   0.107  -0.158  0.00  0.00     0.001 A 
ENDROOT
BRANCH   3  17
ATOM     17  C   UNL d   1      -3.463  -1.843  -1.492  0.00  0.00    -0.044 A 
ATOM     18  C   UNL d   1      -3.809  -0.920  -2.500  0.00  0.00     0.008 A 
ATOM     19  C   UNL d   1      -3.620  -1.207  -3.852  0.00  0.00     0.007 A 
ATOM     20  C   UNL d   1      -3.068  -2.427  -4.237  0.00  0.00    -0.062 A 
ATOM     21  C   UNL d   1      -2.743  -3.362  -3.247  0.00  0.00     0.007 A 
ATOM     22  C   UNL d   1      -2.871  -2.724  -5.695  0.00  0.00     0.048 C 
ATOM     23  C   UNL d   1      -2.932  -3.073  -1.885  0.00  0.00     0.008 A 
ENDBRANCH   3  17
BRANCH   2  24
ATOM     24  C   UNL d   1      -4.612  -3.552   1.087  0.00  0.00     0.207 C 
ATOM     25  O   UNL d   1      -5.462  -3.729   0.225  0.00  0.00    -0.285 OA
BRANCH  24  26
ATOM     26  C   UNL d   1      -4.333  -4.562   2.153  0.00  0.00     0.016 A 
ATOM     27  C   UNL d   1      -3.125  -4.578   2.869  0.00  0.00     0.015 A 
ATOM     28  C   UNL d   1      -2.945  -5.456   3.940  0.00  0.00     0.001 A 
ATOM     29  C   UNL d   1      -3.957  -6.348   4.285  0.00  0.00     0.000 A 
ATOM     30  C   UNL d   1      -5.141  -6.372   3.550  0.00  0.00     0.001 A 
ATOM     31  C   UNL d   1      -5.330  -5.487   2.484  0.00  0.00     0.015 A 
ENDBRANCH  24  26
ENDBRANCH   2  24
TORSDOF 3
