REMARK  7 active torsions:
REMARK  status: ('A' for Active; 'I' for Inactive)
REMARK    1  A    between atoms: C_4  and  C_3 
REMARK    2  A    between atoms: C_16  and  C_5 
REMARK    3  A    between atoms: C_8  and  C_11 
REMARK    4  A    between atoms: C_18  and  C_10 
REMARK    5  A    between atoms: N_28  and  C_10 
REMARK    6  A    between atoms: N_14  and  O_20 
REMARK    7  A    between atoms: O_20  and  C_16 
ROOT
ATOM      1  C   UNL d   1       3.821   4.146   0.032  0.00  0.00     0.108 C 
ATOM      2  N   UNL d   1       2.554   3.972  -0.194  0.00  0.00    -0.255 N 
ATOM      3  HN  UNL d   1       2.113   3.075  -0.398  1.00  0.00     0.195 HD
ENDROOT
BRANCH   2   4
ATOM      4  O   UNL d   1       1.877   5.207  -0.115  0.00  0.00    -0.272 OA
BRANCH   4   5
ATOM      5  C   UNL d   1       0.704   5.163  -0.937  0.00  0.00     0.279 C 
BRANCH   5   6
ATOM      6  C   UNL d   1      -0.007   6.468  -0.888  0.00  0.00     0.130 A 
ATOM      7  N   UNL d   1       0.591   7.655  -1.247  0.00  0.00    -0.321 N 
ATOM      8  C   UNL d   1      -0.279   8.552  -0.823  0.00  0.00     0.182 A 
ATOM      9  HN  UNL d   1       1.481   7.803  -1.721  1.00  0.00     0.169 HD
ATOM     10  O   UNL d   1      -1.415   7.978  -0.316  0.00  0.00    -0.217 OA
ATOM     11  N   UNL d   1      -1.236   6.596  -0.371  0.00  0.00    -0.244 N 
ATOM     12  HN  UNL d   1      -1.884   5.861  -0.086  1.00  0.00     0.196 HD
BRANCH   8  13
ATOM     13  C   UNL d   1      -0.025  10.021  -0.818  0.00  0.00     0.024 A 
ATOM     14  C   UNL d   1       1.139  10.575  -1.304  0.00  0.00     0.065 A 
ATOM     15  S   UNL d   1       1.167  12.276  -1.112  0.00  0.00    -0.113 SA
ATOM     16  C   UNL d   1      -0.368  12.272  -0.354  0.00  0.00     0.050 A 
ATOM     17  C   UNL d   1      -0.906  11.005  -0.279  0.00  0.00     0.023 A 
ENDBRANCH   8  13
ENDBRANCH   5   6
ENDBRANCH   4   5
ENDBRANCH   2   4
BRANCH   1  18
ATOM     18  C   UNL d   1       4.733   2.964  -0.000  0.00  0.00     0.004 A 
ATOM     19  C   UNL d   1       4.428   1.870  -0.813  0.00  0.00     0.015 A 
ATOM     20  C   UNL d   1       5.275   0.760  -0.834  0.00  0.00     0.017 A 
ATOM     21  C   UNL d   1       6.435   0.725  -0.043  0.00  0.00     0.048 A 
ATOM     22  C   UNL d   1       6.739   1.832   0.765  0.00  0.00     0.017 A 
ATOM     23  C   UNL d   1       5.896   2.950   0.780  0.00  0.00     0.015 A 
BRANCH  21  24
ATOM     24  C   UNL d   1       7.340  -0.484  -0.078  0.00  0.00     0.417 C 
ATOM     25  F   UNL d   1       6.898  -1.462  -0.918  0.00  0.00    -0.166 F 
ATOM     26  F   UNL d   1       8.599  -0.178  -0.496  0.00  0.00    -0.166 F 
ATOM     27  F   UNL d   1       7.481  -1.077   1.140  0.00  0.00    -0.166 F 
ENDBRANCH  21  24
ENDBRANCH   1  18
BRANCH   1  28
ATOM     28  N   UNL d   1       4.373   5.387   0.265  0.00  0.00    -0.286 NA
ATOM     29  H   UNL d   1       3.701   6.119   0.044  0.00  0.00     0.125 HD
ATOM     30  H   UNL d   1       5.271   5.549  -0.173  0.00  0.00     0.125 HD
ENDBRANCH   1  28
TORSDOF 7
