REMARK  3 active torsions:
REMARK  status: ('A' for Active; 'I' for Inactive)
REMARK    1  A    between atoms: C_7  and  C_1 
REMARK       I    between atoms: N_11  and  C_7 
REMARK    2  A    between atoms: C_16  and  N_11 
REMARK    3  A    between atoms: C_13  and  C_16 
ROOT
ATOM      1  C   UNL d   1      -3.676  -1.068   0.178  0.00  0.00     0.269 C 
ATOM      2  N   UNL d   1      -3.427  -2.114  -0.680  0.00  0.00    -0.353 N 
ATOM      3  O   UNL d   1      -3.417  -1.105   1.380  0.00  0.00    -0.266 OA
ATOM      4  H   UNL d   1      -3.762  -1.990  -1.631  0.00  0.00     0.162 HD
ENDROOT
BRANCH   2   5
ATOM      5  C   UNL d   1      -2.806  -3.362  -0.278  0.00  0.00     0.157 C 
BRANCH   5   6
ATOM      6  C   UNL d   1      -3.798  -4.372   0.321  0.00  0.00     0.171 C 
ATOM      7  O   UNL d   1      -4.801  -4.742  -0.648  0.00  0.00    -0.339 OA
ATOM      8  C   UNL d   1      -4.633  -5.979  -1.208  0.00  0.00     0.102 A 
ATOM      9  C   UNL d   1      -5.672  -6.460  -2.003  0.00  0.00     0.039 A 
ATOM     10  C   UNL d   1      -3.502  -6.772  -0.998  0.00  0.00     0.102 A 
ATOM     11  C   UNL d   1      -5.582  -7.730  -2.579  0.00  0.00     0.003 A 
ATOM     12  C   UNL d   1      -4.434  -8.503  -2.394  0.00  0.00     0.003 A 
ATOM     13  C   UNL d   1      -3.383  -8.016  -1.616  0.00  0.00     0.039 A 
ATOM     14  O   UNL d   1      -2.493  -6.383  -0.155  0.00  0.00    -0.346 OA
ATOM     15  C   UNL d   1      -3.067  -5.589   0.890  0.00  0.00     0.209 C 
ENDBRANCH   5   6
ENDBRANCH   2   5
BRANCH   1  16
ATOM     16  C   UNL d   1      -4.278   0.102  -0.485  0.00  0.00     0.117 A 
ATOM     17  N   UNL d   1      -4.546   0.114  -1.807  0.00  0.00    -0.294 N 
ATOM     18  N   UNL d   1      -5.051   1.343  -2.033  0.00  0.00    -0.301 N 
ATOM     19  HN  UNL d   1      -4.399  -0.636  -2.483  1.00  0.00     0.187 HD
ATOM     20  C   UNL d   1      -5.429   1.716  -3.377  0.00  0.00     0.177 C 
ATOM     21  C   UNL d   1      -5.135   2.119  -0.908  0.00  0.00     0.026 A 
ATOM     22  C   UNL d   1      -4.636   1.338   0.112  0.00  0.00     0.063 A 
ATOM     23  C   UNL d   1      -5.658   3.508  -0.904  0.00  0.00     0.070 C 
ENDBRANCH   1  16
TORSDOF 3
