REMARK  5 active torsions:
REMARK  status: ('A' for Active; 'I' for Inactive)
REMARK    1  A    between atoms: C_2  and  S_1 
REMARK    2  A    between atoms: N_8  and  S_1 
REMARK    3  A    between atoms: C_16  and  N_8 
REMARK    4  A    between atoms: C_15  and  C_17 
REMARK    5  A    between atoms: C_17  and  C_16 
ROOT
ATOM      1  S   UNL d   1       0.842   0.080  -0.010  0.00  0.00     0.241 S 
ATOM      2  O   UNL d   1       0.438   0.413  -1.355  0.00  0.00    -0.206 OA
ATOM      3  O   UNL d   1       0.441  -1.155   0.632  0.00  0.00    -0.206 OA
ENDROOT
BRANCH   1   4
ATOM      4  C   UNL d   1       0.370   1.431   1.040  0.00  0.00     0.077 A 
ATOM      5  C   UNL d   1      -0.353   1.187   2.210  0.00  0.00     0.064 A 
ATOM      6  C   UNL d   1      -0.679   2.252   3.051  0.00  0.00     0.103 A 
ATOM      7  O   UNL d   1      -1.450   1.918   4.137  0.00  0.00    -0.348 OA
ATOM      8  C   UNL d   1      -0.217   3.546   2.758  0.00  0.00     0.102 A 
ATOM      9  C   UNL d   1      -2.422   2.918   4.454  0.00  0.00     0.178 C 
ATOM     10  C   UNL d   1      -1.834   3.969   5.380  0.00  0.00     0.053 C 
ATOM     11  C   UNL d   1      -0.436   4.378   4.947  0.00  0.00     0.178 C 
ATOM     12  O   UNL d   1      -0.394   4.656   3.546  0.00  0.00    -0.348 OA
ATOM     13  C   UNL d   1       0.475   3.781   1.566  0.00  0.00     0.041 A 
ATOM     14  C   UNL d   1       0.764   2.728   0.699  0.00  0.00     0.028 A 
ENDBRANCH   1   4
BRANCH   1  15
ATOM     15  N   UNL d   1       2.528   0.144   0.032  0.00  0.00    -0.215 NA
ATOM     16  H   UNL d   1       2.874   0.880  -0.590  0.00  0.00     0.139 HD
BRANCH  15  17
ATOM     17  C   UNL d   1       3.181   0.114   1.359  0.00  0.00     0.110 C 
BRANCH  17  18
ATOM     18  C   UNL d   1       4.703   0.198   1.216  0.00  0.00     0.072 C 
BRANCH  18  19
ATOM     19  C   UNL d   1       5.181   1.459   0.532  0.00  0.00     0.010 A 
ATOM     20  N   UNL d   1       4.375   2.550   0.578  0.00  0.00    -0.369 N 
ATOM     21  C   UNL d   1       4.824   3.686   0.001  0.00  0.00     0.088 A 
ATOM     22  HN  UNL d   1       3.463   2.513   1.032  1.00  0.00     0.165 HD
ATOM     23  C   UNL d   1       6.046   3.793  -0.634  0.00  0.00     0.017 A 
ATOM     24  C   UNL d   1       6.860   2.668  -0.681  0.00  0.00     0.003 A 
ATOM     25  C   UNL d   1       6.428   1.484  -0.087  0.00  0.00     0.025 A 
ENDBRANCH  18  19
ENDBRANCH  17  18
ENDBRANCH  15  17
ENDBRANCH   1  15
TORSDOF 5
