REMARK  5 active torsions:
REMARK  status: ('A' for Active; 'I' for Inactive)
REMARK    1  A    between atoms: C_10  and  C_1 
REMARK    2  A    between atoms: S_11  and  C_3 
REMARK    3  A    between atoms: N_9  and  C_6 
REMARK    4  A    between atoms: C_13  and  S_11 
REMARK    5  A    between atoms: C_12  and  C_15 
ROOT
ATOM      1  C   UNL d   1       2.957  -2.454   1.064  0.00  0.00     0.120 A 
ATOM      2  C   UNL d   1       2.144  -2.863  -0.005  0.00  0.00     0.041 A 
ATOM      3  C   UNL d   1       4.361  -2.472   0.980  0.00  0.00     0.053 A 
ATOM      4  C   UNL d   1       4.987  -2.919  -0.192  0.00  0.00     0.050 A 
ATOM      5  C   UNL d   1       2.788  -3.343  -1.158  0.00  0.00     0.022 A 
ATOM      6  C   UNL d   1       4.186  -3.375  -1.248  0.00  0.00     0.017 A 
ENDROOT
BRANCH   2   7
ATOM      7  S   UNL d   1       0.369  -2.663  -0.071  0.00  0.00    -0.050 SA
BRANCH   7   8
ATOM      8  C   UNL d   1      -0.129  -4.234   0.456  0.00  0.00     0.167 A 
ATOM      9  N   UNL d   1      -1.361  -4.497   0.996  0.00  0.00    -0.312 N 
ATOM     10  C   UNL d   1      -1.344  -5.835   1.330  0.00  0.00     0.209 A 
ATOM     11  C   UNL d   1      -2.441  -3.562   1.196  0.00  0.00     0.160 C 
ATOM     12  N   UNL d   1      -0.187  -6.346   0.937  0.00  0.00    -0.279 N 
ATOM     13  N   UNL d   1       0.570  -5.341   0.392  0.00  0.00    -0.278 N 
ATOM     14  HN  UNL d   1       0.093  -7.322   1.024  1.00  0.00     0.188 HD
ATOM     15  HN  UNL d   1       1.509  -5.437   0.006  1.00  0.00     0.189 HD
BRANCH  10  16
ATOM     16  C   UNL d   1      -2.440  -6.571   2.016  0.00  0.00     0.450 C 
ATOM     17  F   UNL d   1      -3.407  -5.749   2.507  0.00  0.00    -0.163 F 
ATOM     18  F   UNL d   1      -3.069  -7.438   1.180  0.00  0.00    -0.163 F 
ATOM     19  F   UNL d   1      -1.992  -7.294   3.074  0.00  0.00    -0.163 F 
ENDBRANCH  10  16
ENDBRANCH   7   8
ENDBRANCH   2   7
BRANCH   1  20
ATOM     20  N   UNL d   1       2.371  -1.944   2.292  0.00  0.00    -0.114 N 
ATOM     21  O   UNL d   1       1.559  -2.663   2.890  0.00  0.00    -0.532 OA
ATOM     22  O   UNL d   1       2.755  -0.830   2.672  0.00  0.00    -0.532 OA
ENDBRANCH   1  20
BRANCH   4  23
ATOM     23  C   UNL d   1       6.492  -2.892  -0.343  0.00  0.00     0.417 C 
ATOM     24  F   UNL d   1       7.134  -2.372   0.738  0.00  0.00    -0.166 F 
ATOM     25  F   UNL d   1       7.020  -4.130  -0.538  0.00  0.00    -0.166 F 
ATOM     26  F   UNL d   1       6.887  -2.141  -1.408  0.00  0.00    -0.166 F 
ENDBRANCH   4  23
TORSDOF 5
