REMARK  5 active torsions:
REMARK  status: ('A' for Active; 'I' for Inactive)
REMARK    1  A    between atoms: O_2  and  C_1 
REMARK    2  A    between atoms: C_8  and  C_1 
REMARK    3  A    between atoms: C_4  and  O_2 
REMARK    4  A    between atoms: O_3  and  C_8 
REMARK    5  A    between atoms: C_5  and  O_3 
ROOT
ATOM      1  C   UNL d   1       0.816  -0.663  -0.082  0.00  0.00     0.293 C 
ATOM      2  O   UNL d   1       0.164  -0.684  -1.116  0.00  0.00    -0.262 OA
ENDROOT
BRANCH   1   3
ATOM      3  O   UNL d   1       2.203  -0.787   0.001  0.00  0.00    -0.275 OA
BRANCH   3   4
ATOM      4  C   UNL d   1       2.692  -1.696  -0.941  0.00  0.00     0.101 A 
ATOM      5  C   UNL d   1       3.611  -1.300  -1.914  0.00  0.00     0.069 A 
ATOM      6  C   UNL d   1       4.155  -2.256  -2.775  0.00  0.00     0.050 A 
ATOM      7 CL   UNL d   1       4.106   0.342  -2.067  0.00  0.00    -0.081 Cl
ATOM      8  C   UNL d   1       3.783  -3.595  -2.648  0.00  0.00     0.035 A 
ATOM      9  C   UNL d   1       2.873  -3.994  -1.670  0.00  0.00     0.026 A 
ATOM     10 CL   UNL d   1       4.467  -4.778  -3.693  0.00  0.00    -0.084 Cl
ATOM     11  C   UNL d   1       2.333  -3.044  -0.806  0.00  0.00     0.041 A 
ENDBRANCH   3   4
ENDBRANCH   1   3
BRANCH   1  12
ATOM     12  C   UNL d   1       0.248  -0.736   1.340  0.00  0.00     0.224 C 
ATOM     13  C   UNL d   1      -1.274  -0.664   1.325  0.00  0.00     0.051 C 
BRANCH  12  14
ATOM     14  O   UNL d   1       0.779   0.306   2.148  0.00  0.00    -0.335 OA
BRANCH  14  15
ATOM     15  C   UNL d   1       0.944   0.112   3.495  0.00  0.00     0.091 A 
ATOM     16  C   UNL d   1       1.329   1.237   4.250  0.00  0.00     0.069 A 
ATOM     17  C   UNL d   1       1.548   1.142   5.627  0.00  0.00     0.050 A 
ATOM     18 CL   UNL d   1       1.538   2.786   3.507  0.00  0.00    -0.081 Cl
ATOM     19  C   UNL d   1       1.387  -0.082   6.263  0.00  0.00     0.035 A 
ATOM     20  C   UNL d   1       1.003  -1.206   5.537  0.00  0.00     0.026 A 
ATOM     21 CL   UNL d   1       1.665  -0.217   7.955  0.00  0.00    -0.084 Cl
ATOM     22  C   UNL d   1       0.777  -1.108   4.159  0.00  0.00     0.040 A 
ENDBRANCH  14  15
ENDBRANCH  12  14
ENDBRANCH   1  12
TORSDOF 5
