REMARK  10 active torsions:
REMARK  status: ('A' for Active; 'I' for Inactive)
REMARK    1  A    between atoms: N_4  and  C_1 
REMARK    2  A    between atoms: N_5  and  C_1 
REMARK    3  A    between atoms: C_2  and  N_3 
REMARK    4  A    between atoms: N_6  and  C_2 
REMARK    5  A    between atoms: C_7  and  N_5 
REMARK    6  A    between atoms: C_8  and  N_6 
REMARK    7  A    between atoms: C_31  and  C_35 
REMARK    8  A    between atoms: C_34  and  C_32 
REMARK    9  A    between atoms: C_33  and  C_34 
REMARK   10  A    between atoms: C_35  and  C_33 
ROOT
ATOM      1  C   UNL d   1      -2.404  -5.078  -1.538  0.00  0.00     0.001 C 
ENDROOT
BRANCH   1   2
ATOM      2  C   UNL d   1      -1.361  -4.695  -0.477  0.00  0.00     0.005 C 
BRANCH   2   3
ATOM      3  C   UNL d   1      -1.868  -3.549   0.429  0.00  0.00    -0.012 C 
ATOM      4  C   UNL d   1      -2.208  -2.264  -0.347  0.00  0.00     0.024 C 
ATOM      5  C   UNL d   1      -0.951  -1.509  -0.757  0.00  0.00     0.125 C 
ATOM      6  N   UNL d   1      -0.171  -1.147   0.423  0.00  0.00    -0.358 N 
ATOM      7  C   UNL d   1       0.284  -2.307   1.197  0.00  0.00     0.125 C 
ATOM      8  C   UNL d   1      -0.891  -3.224   1.583  0.00  0.00     0.024 C 
BRANCH   6   9
ATOM      9  C   UNL d   1      -0.295   0.120   1.010  0.00  0.00     0.170 C 
ATOM     10  S   UNL d   1      -1.676   1.076   0.926  0.00  0.00    -0.041 SA
BRANCH   9  11
ATOM     11  N   UNL d   1       0.881   0.539   1.599  0.00  0.00    -0.362 N 
ATOM     12  H   UNL d   1       1.658  -0.105   1.570  0.00  0.00     0.162 HD
BRANCH  11  13
ATOM     13  C   UNL d   1       1.095   1.807   2.290  0.00  0.00     0.092 C 
ATOM     14  C   UNL d   1       0.761   1.748   3.805  0.00  0.00     0.031 C 
ATOM     15  C   UNL d   1       1.630   0.696   4.468  0.00  0.00    -0.024 C 
ATOM     16  C   UNL d   1       1.499   2.998   4.292  0.00  0.00     0.019 C 
ATOM     17  C   UNL d   1       2.890   1.156   4.453  0.00  0.00    -0.026 C 
ATOM     18  C   UNL d   1       2.862   2.510   3.786  0.00  0.00     0.010 C 
ATOM     19  C   UNL d   1       2.578   2.285   2.285  0.00  0.00     0.034 C 
ENDBRANCH  11  13
ENDBRANCH   9  11
ENDBRANCH   6   9
ENDBRANCH   2   3
ENDBRANCH   1   2
BRANCH   1  20
ATOM     20  C   UNL d   1      -1.951  -6.223  -2.439  0.00  0.00     0.005 C 
BRANCH  20  21
ATOM     21  C   UNL d   1      -2.967  -6.539  -3.565  0.00  0.00    -0.012 C 
ATOM     22  C   UNL d   1      -2.492  -7.745  -4.397  0.00  0.00     0.024 C 
ATOM     23  C   UNL d   1      -1.289  -7.388  -5.271  0.00  0.00     0.125 C 
ATOM     24  N   UNL d   1      -1.517  -6.203  -6.097  0.00  0.00    -0.358 N 
ATOM     25  C   UNL d   1      -2.019  -5.023  -5.390  0.00  0.00     0.125 C 
ATOM     26  C   UNL d   1      -3.240  -5.366  -4.531  0.00  0.00     0.024 C 
BRANCH  24  27
ATOM     27  C   UNL d   1      -1.801  -6.312  -7.442  0.00  0.00     0.170 C 
ATOM     28  S   UNL d   1      -2.987  -7.277  -8.113  0.00  0.00    -0.041 SA
BRANCH  27  29
ATOM     29  N   UNL d   1      -1.024  -5.560  -8.275  0.00  0.00    -0.362 N 
ATOM     30  H   UNL d   1      -1.289  -5.634  -9.252  0.00  0.00     0.162 HD
BRANCH  29  31
ATOM     31  C   UNL d   1       0.347  -5.147  -8.002  0.00  0.00     0.092 C 
ATOM     32  C   UNL d   1       1.259  -5.188  -9.264  0.00  0.00     0.031 C 
ATOM     33  C   UNL d   1       0.692  -4.276 -10.334  0.00  0.00    -0.024 C 
ATOM     34  C   UNL d   1       2.416  -4.300  -8.798  0.00  0.00     0.019 C 
ATOM     35  C   UNL d   1       0.835  -3.019  -9.895  0.00  0.00    -0.026 C 
ATOM     36  C   UNL d   1       1.510  -3.090  -8.543  0.00  0.00     0.010 C 
ATOM     37  C   UNL d   1       0.491  -3.669  -7.535  0.00  0.00     0.034 C 
ENDBRANCH  29  31
ENDBRANCH  27  29
ENDBRANCH  24  27
ENDBRANCH  20  21
ENDBRANCH   1  20
TORSDOF 10
