REMARK  6 active torsions:
REMARK  status: ('A' for Active; 'I' for Inactive)
REMARK    1  A    between atoms: C_6  and  C_1 
REMARK    2  A    between atoms: C_3  and  C_2 
REMARK       I    between atoms: N_9  and  C_3 
REMARK    3  A    between atoms: C_7  and  C_15 
REMARK    4  A    between atoms: C_11  and  N_9 
REMARK    5  A    between atoms: C_13  and  O_16 
REMARK    6  A    between atoms: O_16  and  C_17 
ROOT
ATOM      1  C   UNL d   1      -1.381  -3.828  -0.526  0.00  0.00     0.070 A 
ATOM      2  C   UNL d   1      -3.645  -4.504   0.113  0.00  0.00     0.050 A 
ATOM      3  C   UNL d   1      -1.893  -3.239  -1.687  0.00  0.00     0.102 A 
ATOM      4  C   UNL d   1      -2.261  -4.477   0.356  0.00  0.00     0.048 A 
ATOM      5  C   UNL d   1      -4.151  -3.821  -0.998  0.00  0.00     0.019 A 
ATOM      6  C   UNL d   1      -3.286  -3.173  -1.875  0.00  0.00     0.040 A 
ENDROOT
BRANCH   1   7
ATOM      7  N   UNL d   1       0.000  -3.713  -0.245  0.00  0.00    -0.320 N 
ATOM      8  C   UNL d   1       0.726  -4.640   0.467  0.00  0.00     0.261 C 
ATOM      9  O   UNL d   1       0.348  -5.782   0.716  0.00  0.00    -0.267 OA
ATOM     10  H   UNL d   1       0.506  -2.996  -0.751  0.00  0.00     0.169 HD
BRANCH   8  11
ATOM     11  C   UNL d   1       2.052  -4.208   0.826  0.00  0.00     0.093 A 
ATOM     12  C   UNL d   1       2.528  -3.468   1.961  0.00  0.00     0.088 A 
ATOM     13  N   UNL d   1       3.871  -3.412   1.915  0.00  0.00    -0.259 N 
ATOM     14  O   UNL d   1       4.273  -4.061   0.778  0.00  0.00    -0.241 OA
ATOM     15  HN  UNL d   1       4.480  -2.966   2.602  1.00  0.00     0.195 HD
ATOM     16  C   UNL d   1       3.194  -4.550   0.128  0.00  0.00     0.090 A 
ATOM     17  C   UNL d   1       3.473  -5.321  -1.095  0.00  0.00     0.080 C 
BRANCH  12  18
ATOM     18  C   UNL d   1       1.811  -2.875   3.104  0.00  0.00     0.054 A 
ATOM     19  C   UNL d   1       2.255  -1.713   3.772  0.00  0.00     0.049 A 
ATOM     20 CL   UNL d   1       3.583  -0.735   3.234  0.00  0.00    -0.083 Cl
ATOM     21  C   UNL d   1       1.600  -1.242   4.925  0.00  0.00     0.025 A 
ATOM     22  C   UNL d   1       0.472  -1.889   5.416  0.00  0.00     0.005 A 
ATOM     23  C   UNL d   1      -0.004  -3.011   4.754  0.00  0.00     0.043 A 
ATOM     24  C   UNL d   1       0.665  -3.495   3.628  0.00  0.00     0.130 A 
ATOM     25  F   UNL d   1       0.173  -4.613   3.082  0.00  0.00    -0.205 F 
ENDBRANCH  12  18
ENDBRANCH   8  11
ENDBRANCH   1   7
BRANCH   3  26
ATOM     26  O   UNL d   1      -0.984  -2.825  -2.658  0.00  0.00    -0.308 OA
BRANCH  26  27
ATOM     27  C   UNL d   1      -1.455  -2.873  -3.954  0.00  0.00     0.083 C 
ATOM     28  C   UNL d   1      -1.560  -1.692  -4.660  0.00  0.00    -0.017 C 
ATOM     29  C   UNL d   1      -2.408  -1.608  -5.771  0.00  0.00    -0.043 C 
ATOM     30  C   UNL d   1      -0.881  -0.388  -4.401  0.00  0.00     0.042 C 
ATOM     31  C   UNL d   1      -2.487  -0.188  -6.252  0.00  0.00     0.040 C 
ATOM     32  C   UNL d   1      -3.069  -2.731  -6.264  0.00  0.00    -0.055 C 
ATOM     33  C   UNL d   1      -1.851   0.578  -5.080  0.00  0.00     0.009 C 
ATOM     34  C   UNL d   1      -2.805  -3.965  -5.650  0.00  0.00     0.010 C 
ATOM     35  C   UNL d   1      -4.038  -2.636  -7.403  0.00  0.00     0.049 C 
ATOM     36  C   UNL d   1      -2.002  -4.040  -4.503  0.00  0.00     0.038 C 
ENDBRANCH  26  27
ENDBRANCH   3  26
BRANCH   2  37
ATOM     37  C   UNL d   1      -4.591  -5.264   1.008  0.00  0.00     0.417 C 
ATOM     38  F   UNL d   1      -4.016  -5.745   2.143  0.00  0.00    -0.166 F 
ATOM     39  F   UNL d   1      -5.642  -4.499   1.419  0.00  0.00    -0.166 F 
ATOM     40  F   UNL d   1      -5.143  -6.340   0.378  0.00  0.00    -0.166 F 
ENDBRANCH   2  37
TORSDOF 6
