REMARK  8 active torsions:
REMARK  status: ('A' for Active; 'I' for Inactive)
REMARK    1  A    between atoms: N_8  and  C_1 
REMARK    2  A    between atoms: N_12  and  C_1 
REMARK    3  A    between atoms: C_2  and  C_6 
REMARK    4  A    between atoms: N_3  and  N_8 
REMARK    5  A    between atoms: C_15  and  N_12 
REMARK    6  A    between atoms: C_13  and  C_15 
REMARK    7  A    between atoms: C_16  and  C_13 
REMARK    8  A    between atoms: O_14  and  C_16 
ROOT
ATOM      1  N   UNL d   1       0.298  -0.335   1.417  0.00  0.00    -0.277 N 
ATOM      2  H   UNL d   1       0.919  -0.260   2.221  0.00  0.00     0.189 HD
ENDROOT
BRANCH   1   3
ATOM      3  N   UNL d   1      -0.980  -0.777   1.599  0.00  0.00    -0.308 N 
ATOM      4  C   UNL d   1      -1.324  -0.991   2.826  0.00  0.00     0.136 C 
ATOM      5  HN  UNL d   1      -1.621  -0.928   0.819  1.00  0.00     0.186 HD
BRANCH   4   6
ATOM      6  C   UNL d   1      -2.607  -1.574   3.103  0.00  0.00     0.049 A 
ATOM      7  N   UNL d   1      -3.466  -2.006   2.117  0.00  0.00    -0.365 N 
ATOM      8  C   UNL d   1      -4.573  -2.582   2.680  0.00  0.00     0.088 A 
ATOM      9  H   UNL d   1      -3.267  -1.925   1.126  0.00  0.00     0.165 HD
ATOM     10  C   UNL d   1      -4.447  -2.490   4.047  0.00  0.00     0.019 A 
ATOM     11  C   UNL d   1      -3.210  -1.852   4.316  0.00  0.00     0.032 A 
ENDBRANCH   4   6
ENDBRANCH   1   3
BRANCH   1  12
ATOM     12  C   UNL d   1       0.795  -0.058   0.166  0.00  0.00     0.186 C 
ATOM     13  S   UNL d   1      -0.104   0.246  -1.210  0.00  0.00    -0.040 SA
BRANCH  12  14
ATOM     14  N   UNL d   1       2.162  -0.057   0.055  0.00  0.00    -0.366 N 
ATOM     15  H   UNL d   1       2.482   0.125  -0.891  0.00  0.00     0.161 HD
BRANCH  14  16
ATOM     16  C   UNL d   1       3.087  -0.749   0.939  0.00  0.00     0.124 C 
BRANCH  16  17
ATOM     17  C   UNL d   1       3.976   0.196   1.735  0.00  0.00     0.046 C 
BRANCH  17  18
ATOM     18  C   UNL d   1       3.217   1.190   2.607  0.00  0.00     0.168 C 
BRANCH  18  19
ATOM     19  O   UNL d   1       2.282   0.504   3.445  0.00  0.00    -0.396 OA
ATOM     20  C   UNL d   1       1.628   1.418   4.324  0.00  0.00     0.201 C 
ENDBRANCH  18  19
ENDBRANCH  17  18
ENDBRANCH  16  17
ENDBRANCH  14  16
ENDBRANCH  12  14
ENDBRANCH   1  12
TORSDOF 8
