REMARK  5 active torsions:
REMARK  status: ('A' for Active; 'I' for Inactive)
REMARK    1  A    between atoms: C_12  and  N_3 
REMARK    2  A    between atoms: O_11  and  C_9 
REMARK    3  A    between atoms: C_15  and  O_11 
REMARK    4  A    between atoms: C_18  and  C_12 
REMARK    5  A    between atoms: O_27  and  C_20 
ROOT
ATOM      1  C   UNL d   1      -0.172  -0.802  -0.378  0.00  0.00     0.147 C 
ATOM      2  C   UNL d   1      -0.426   0.540  -0.310  0.00  0.00     0.151 C 
ATOM      3  N   UNL d   1       1.897   0.898  -0.011  0.00  0.00    -0.260 N 
ATOM      4  N   UNL d   1      -1.290  -1.528  -0.593  0.00  0.00    -0.305 N 
ATOM      5  HN  UNL d   1      -1.353  -2.517  -0.832  1.00  0.00     0.171 HD
ATOM      6  N   UNL d   1       1.065  -1.332  -0.141  0.00  0.00    -0.287 N 
ATOM      7  C   UNL d   1       2.137  -0.484   0.120  0.00  0.00     0.333 C 
ATOM      8  C   UNL d   1       0.632   1.485  -0.159  0.00  0.00     0.282 C 
ATOM      9  C   UNL d   1      -2.280  -0.679  -0.427  0.00  0.00     0.233 C 
ATOM     10  N   UNL d   1      -1.803   0.617  -0.343  0.00  0.00    -0.309 N 
ATOM     11  O   UNL d   1       3.242  -0.927   0.434  0.00  0.00    -0.246 OA
ATOM     12  O   UNL d   1       0.444   2.701  -0.191  0.00  0.00    -0.265 OA
ATOM     13  C   UNL d   1       1.262  -2.772  -0.068  0.00  0.00     0.163 C 
ATOM     14  C   UNL d   1      -2.616   1.791  -0.126  0.00  0.00     0.160 C 
ENDROOT
BRANCH   3  15
ATOM     15  C   UNL d   1       3.073   1.764   0.011  0.00  0.00     0.175 C 
BRANCH  15  16
ATOM     16  C   UNL d   1       3.383   2.336   1.378  0.00  0.00    -0.038 A 
ATOM     17  C   UNL d   1       4.240   1.666   2.267  0.00  0.00     0.034 A 
ATOM     18  C   UNL d   1       4.454   2.158   3.561  0.00  0.00     0.056 A 
ATOM     19 CL   UNL d   1       5.494   1.257   4.606  0.00  0.00    -0.083 Cl
ATOM     20  C   UNL d   1       3.819   3.334   3.973  0.00  0.00     0.055 A 
ATOM     21  C   UNL d   1       3.003   4.030   3.079  0.00  0.00     0.026 A 
ATOM     22 CL   UNL d   1       3.978   3.967   5.572  0.00  0.00    -0.083 Cl
ATOM     23  C   UNL d   1       2.792   3.537   1.790  0.00  0.00     0.010 A 
ENDBRANCH  15  16
ENDBRANCH   3  15
BRANCH   9  24
ATOM     24  O   UNL d   1      -3.541  -1.048  -0.164  0.00  0.00    -0.276 OA
BRANCH  24  25
ATOM     25  C   UNL d   1      -3.733  -2.230   0.549  0.00  0.00     0.112 A 
ATOM     26  C   UNL d   1      -4.857  -3.046   0.362  0.00  0.00     0.102 A 
ATOM     27  C   UNL d   1      -5.000  -4.209   1.145  0.00  0.00     0.039 A 
ATOM     28  C   UNL d   1      -4.039  -4.580   2.085  0.00  0.00     0.003 A 
ATOM     29  C   UNL d   1      -2.934  -3.771   2.288  0.00  0.00     0.003 A 
ATOM     30  C   UNL d   1      -2.803  -2.597   1.549  0.00  0.00     0.040 A 
BRANCH  26  31
ATOM     31  O   UNL d   1      -5.924  -2.838  -0.468  0.00  0.00    -0.353 OA
ATOM     32  C   UNL d   1      -5.647  -2.303  -1.751  0.00  0.00     0.210 C 
ENDBRANCH  26  31
ENDBRANCH  24  25
ENDBRANCH   9  24
TORSDOF 5
