REMARK  1 active torsions:
REMARK  status: ('A' for Active; 'I' for Inactive)
REMARK    1  A    between atoms: C_7  and  N_1 
ROOT
ATOM      1  N   UNL d   1      -2.188  -0.696  -0.011  0.00  0.00    -0.239 N 
ATOM      2  C   UNL d   1       0.234  -0.694   0.006  0.00  0.00     0.073 A 
ATOM      3  C   UNL d   1       0.139   0.662  -0.042  0.00  0.00     0.093 A 
ATOM      4  C   UNL d   1      -2.229   0.714  -0.060  0.00  0.00     0.187 A 
ATOM      5  C   UNL d   1      -1.001  -1.470   0.041  0.00  0.00     0.269 A 
ATOM      6  N   UNL d   1      -1.018   1.369  -0.077  0.00  0.00    -0.326 N 
ATOM      7  S   UNL d   1       1.588   1.493  -0.041  0.00  0.00    -0.076 SA
ATOM      8  C   UNL d   1       1.624  -1.100   0.003  0.00  0.00    -0.031 A 
ATOM      9  C   UNL d   1       2.464   0.015  -0.010  0.00  0.00    -0.012 A 
ATOM     10  S   UNL d   1      -3.580   1.720   0.002  0.00  0.00    -0.040 SA
ATOM     11  O   UNL d   1      -0.974  -2.696   0.116  0.00  0.00    -0.266 OA
ATOM     12  C   UNL d   1       2.126  -2.511   0.009  0.00  0.00     0.050 C 
ATOM     13  C   UNL d   1       3.957   0.074  -0.008  0.00  0.00     0.057 C 
ATOM     14  H   UNL d   1      -0.998   2.383  -0.089  0.00  0.00     0.169 HD
ENDROOT
BRANCH   1  15
ATOM     15  C   UNL d   1      -3.405  -1.435  -0.016  0.00  0.00     0.117 A 
ATOM     16  N   UNL d   1      -4.257  -1.282  -1.057  0.00  0.00    -0.352 N 
ATOM     17  C   UNL d   1      -5.421  -1.966  -1.014  0.00  0.00     0.090 A 
ATOM     18  HN  UNL d   1      -4.029  -0.674  -1.843  1.00  0.00     0.166 HD
ATOM     19  C   UNL d   1      -5.797  -2.787   0.037  0.00  0.00     0.024 A 
ATOM     20  C   UNL d   1      -4.924  -2.932   1.113  0.00  0.00    -0.057 A 
ATOM     21  C   UNL d   1      -3.701  -2.259   1.072  0.00  0.00     0.056 A 
ATOM     22  C   UNL d   1      -5.299  -3.777   2.292  0.00  0.00     0.048 C 
ENDBRANCH   1  15
TORSDOF 1
