REMARK  3 active torsions:
REMARK  status: ('A' for Active; 'I' for Inactive)
REMARK    1  A    between atoms: C_7  and  C_3 
REMARK    2  A    between atoms: C_17  and  C_4 
REMARK    3  A    between atoms: C_10  and  C_9 
ROOT
ATOM      1  N   UNL d   1       1.265   0.171  -0.235  0.00  0.00    -0.318 N 
ATOM      2  HN  UNL d   1       2.230   0.309  -0.534  1.00  0.00     0.169 HD
ATOM      3  C   UNL d   1       0.303   1.117   0.033  0.00  0.00     0.145 A 
ATOM      4  C   UNL d   1       0.625  -0.954  -0.010  0.00  0.00     0.182 A 
ATOM      5  N   UNL d   1      -0.891   0.613   0.376  0.00  0.00    -0.241 N 
ATOM      6  HN  UNL d   1      -1.749   1.116   0.603  1.00  0.00     0.196 HD
ATOM      7  O   UNL d   1      -0.680  -0.766   0.346  0.00  0.00    -0.217 OA
ENDROOT
BRANCH   3   8
ATOM      8  C   UNL d   1       0.601   2.580  -0.012  0.00  0.00     0.051 A 
ATOM      9  S   UNL d   1      -0.507   3.803   0.413  0.00  0.00    -0.084 SA
ATOM     10  C   UNL d   1       0.647   5.043   0.156  0.00  0.00     0.041 A 
ATOM     11  C   UNL d   1       1.848   4.521  -0.289  0.00  0.00     0.023 A 
ATOM     12  C   UNL d   1       1.822   3.098  -0.385  0.00  0.00     0.024 A 
BRANCH  10  13
ATOM     13  C   UNL d   1       0.354   6.430   0.393  0.00  0.00     0.117 A 
ATOM     14  O   UNL d   1       1.291   7.418   0.213  0.00  0.00    -0.237 OA
ATOM     15  N   UNL d   1       0.749   8.654   0.518  0.00  0.00    -0.272 N 
ATOM     16  C   UNL d   1      -0.508   8.407   0.879  0.00  0.00     0.117 A 
ATOM     17  HN  UNL d   1       1.214   9.561   0.475  1.00  0.00     0.194 HD
ATOM     18  C   UNL d   1      -0.811   7.037   0.822  0.00  0.00     0.059 A 
ENDBRANCH  10  13
ENDBRANCH   3   8
BRANCH   4  19
ATOM     19  C   UNL d   1       1.122  -2.323  -0.036  0.00  0.00     0.019 A 
ATOM     20  C   UNL d   1       2.480  -2.554  -0.308  0.00  0.00     0.039 A 
ATOM     21  C   UNL d   1       2.990  -3.852  -0.302  0.00  0.00     0.035 A 
ATOM     22 CL   UNL d   1       4.660  -4.113  -0.621  0.00  0.00    -0.084 Cl
ATOM     23  C   UNL d   1       2.159  -4.936  -0.030  0.00  0.00     0.024 A 
ATOM     24  C   UNL d   1       0.808  -4.723   0.233  0.00  0.00     0.003 A 
ATOM     25  C   UNL d   1       0.292  -3.424   0.230  0.00  0.00     0.016 A 
ENDBRANCH   4  19
TORSDOF 3
