REMARK  6 active torsions:
REMARK  status: ('A' for Active; 'I' for Inactive)
REMARK    1  A    between atoms: C_3  and  N_1 
REMARK       I    between atoms: C_2  and  N_7 
REMARK    2  A    between atoms: C_8  and  C_2 
REMARK    3  A    between atoms: C_17  and  C_4 
REMARK    4  A    between atoms: N_7  and  C_12 
REMARK    5  A    between atoms: S_14  and  C_17 
REMARK    6  A    between atoms: C_18  and  S_14 
ROOT
ATOM      1  C   UNL d   1      -0.253   6.268  -6.639  0.00  0.00     0.051 A 
ATOM      2  C   UNL d   1      -0.284   4.938  -6.168  0.00  0.00     0.027 A 
ATOM      3  C   UNL d   1      -0.028   6.543  -7.995  0.00  0.00     0.031 A 
ATOM      4  C   UNL d   1      -0.155   3.899  -7.098  0.00  0.00     0.021 A 
ATOM      5  C   UNL d   1       0.135   5.497  -8.900  0.00  0.00     0.002 A 
ATOM      6  C   UNL d   1       0.055   4.180  -8.454  0.00  0.00     0.002 A 
ENDROOT
BRANCH   2   7
ATOM      7  S   UNL d   1      -0.712   4.654  -4.439  0.00  0.00    -0.123 SA
BRANCH   7   8
ATOM      8  C   UNL d   1       0.222   3.150  -4.001  0.00  0.00     0.121 C 
BRANCH   8   9
ATOM      9  C   UNL d   1      -0.067   2.758  -2.565  0.00  0.00    -0.012 A 
ATOM     10  C   UNL d   1      -1.201   1.972  -2.281  0.00  0.00     0.047 A 
ATOM     11  C   UNL d   1      -1.504   1.620  -0.958  0.00  0.00     0.104 A 
ATOM     12  C   UNL d   1      -0.683   2.038   0.095  0.00  0.00     0.048 A 
ATOM     13  C   UNL d   1       0.446   2.821  -0.175  0.00  0.00     0.002 A 
ATOM     14  C   UNL d   1       1.328   3.287   0.945  0.00  0.00     0.212 C 
ATOM     15  C   UNL d   1       0.734   3.199  -1.496  0.00  0.00     0.087 A 
ATOM     16  O   UNL d   1       2.590   3.707   0.444  0.00  0.00    -0.362 OA
ATOM     17  C   UNL d   1       2.397   4.606  -0.640  0.00  0.00     0.345 C 
ATOM     18  O   UNL d   1       1.812   3.992  -1.790  0.00  0.00    -0.325 OA
BRANCH  11  19
ATOM     19  N   UNL d   1      -2.692   0.805  -0.669  0.00  0.00    -0.116 N 
ATOM     20  O   UNL d   1      -2.936   0.544   0.517  0.00  0.00    -0.532 OA
ATOM     21  O   UNL d   1      -3.378   0.424  -1.628  0.00  0.00    -0.532 OA
ENDBRANCH  11  19
ENDBRANCH   8   9
ENDBRANCH   7   8
ENDBRANCH   2   7
BRANCH   1  22
ATOM     22  N   UNL d   1      -0.426   7.317  -5.717  0.00  0.00    -0.321 N 
ATOM     23  C   UNL d   1      -1.253   8.405  -5.929  0.00  0.00     0.263 C 
ATOM     24  O   UNL d   1      -1.915   8.570  -6.945  0.00  0.00    -0.267 OA
ATOM     25  H   UNL d   1      -0.285   7.070  -4.742  0.00  0.00     0.169 HD
BRANCH  23  26
ATOM     26  C   UNL d   1      -1.318   9.341  -4.804  0.00  0.00     0.072 A 
ATOM     27  S   UNL d   1      -0.255   9.234  -3.463  0.00  0.00    -0.097 SA
ATOM     28  C   UNL d   1      -0.841  10.694  -2.799  0.00  0.00     0.050 A 
ATOM     29  C   UNL d   1      -1.881  11.215  -3.534  0.00  0.00     0.009 A 
ATOM     30  C   UNL d   1      -2.180  10.416  -4.674  0.00  0.00     0.025 A 
ENDBRANCH  23  26
ENDBRANCH   1  22
TORSDOF 6
