REMARK  3 active torsions:
REMARK  status: ('A' for Active; 'I' for Inactive)
REMARK    1  A    between atoms: N_6  and  C_1 
REMARK       I    between atoms: C_9  and  N_6 
REMARK    2  A    between atoms: C_10  and  C_9 
REMARK    3  A    between atoms: O_23  and  C_21 
ROOT
ATOM      1  C   UNL d   1      -3.079   1.073  -0.147  0.00  0.00     0.152 A 
ATOM      2  C   UNL d   1      -1.019   0.346  -0.035  0.00  0.00     0.058 A 
ATOM      3  N   UNL d   1      -1.830   1.467  -0.058  0.00  0.00    -0.335 N 
ATOM      4  HN  UNL d   1      -1.512   2.435  -0.012  1.00  0.00     0.168 HD
ATOM      5  C   UNL d   1      -1.687  -0.862  -0.040  0.00  0.00     0.014 A 
ATOM      6  S   UNL d   1      -3.352  -0.616  -0.253  0.00  0.00    -0.056 SA
ATOM      7  C   UNL d   1       0.438   0.346   0.027  0.00  0.00    -0.002 A 
ATOM      8  C   UNL d   1       1.125  -0.883  -0.111  0.00  0.00    -0.043 A 
ATOM      9  C   UNL d   1       1.166   1.525   0.204  0.00  0.00     0.017 A 
ATOM     10  C   UNL d   1      -1.051  -2.192   0.146  0.00  0.00     0.053 C 
ATOM     11  C   UNL d   1       2.526  -0.898  -0.069  0.00  0.00     0.044 A 
ATOM     12  C   UNL d   1       0.378  -2.169  -0.411  0.00  0.00     0.045 C 
ATOM     13  C   UNL d   1       3.252   0.282   0.112  0.00  0.00     0.068 A 
ATOM     14  C   UNL d   1       2.569   1.492   0.247  0.00  0.00     0.037 A 
ENDROOT
BRANCH   1  15
ATOM     15  N   UNL d   1      -4.242   1.778  -0.125  0.00  0.00    -0.301 N 
ATOM     16  C   UNL d   1      -4.348   3.065   0.340  0.00  0.00     0.281 C 
ATOM     17  O   UNL d   1      -3.421   3.804   0.654  0.00  0.00    -0.265 OA
ATOM     18  H   UNL d   1      -5.098   1.254  -0.249  0.00  0.00     0.171 HD
BRANCH  16  19
ATOM     19  C   UNL d   1      -5.740   3.454   0.503  0.00  0.00     0.142 A 
ATOM     20  O   UNL d   1      -6.725   2.648  -0.018  0.00  0.00    -0.317 OA
ATOM     21  C   UNL d   1      -7.918   3.219   0.291  0.00  0.00     0.143 A 
ATOM     22  C   UNL d   1      -7.727   4.366   1.022  0.00  0.00     0.027 A 
ATOM     23  C   UNL d   1      -6.326   4.524   1.153  0.00  0.00     0.045 A 
ENDBRANCH  16  19
ENDBRANCH   1  15
BRANCH  13  24
ATOM     24  O   UNL d   1       4.608   0.105   0.131  0.00  0.00    -0.356 OA
ATOM     25  C   UNL d   1       5.412   1.270   0.241  0.00  0.00     0.210 C 
ENDBRANCH  13  24
TORSDOF 3
