REMARK  7 active torsions:
REMARK  status: ('A' for Active; 'I' for Inactive)
REMARK    1  A    between atoms: C_9  and  N_1 
REMARK    2  A    between atoms: O_21  and  C_4 
REMARK    3  A    between atoms: O_23  and  C_6 
REMARK    4  A    between atoms: O_22  and  C_7 
REMARK    5  A    between atoms: C_8  and  C_9 
REMARK       I    between atoms: N_16  and  C_8 
REMARK    6  A    between atoms: N_11  and  N_16 
REMARK    7  A    between atoms: C_17  and  C_20 
ROOT
ATOM      1  C   UNL d   1       2.906   3.138  -0.046  0.00  0.00     0.254 C 
ATOM      2  N   UNL d   1       3.815   2.094   0.063  0.00  0.00    -0.269 N 
ATOM      3  O   UNL d   1       1.718   3.103   0.262  0.00  0.00    -0.270 OA
ATOM      4  H   UNL d   1       4.597   2.128  -0.599  0.00  0.00     0.190 HD
ENDROOT
BRANCH   2   5
ATOM      5  N   UNL d   1       3.434   0.854   0.502  0.00  0.00    -0.308 N 
ATOM      6  C   UNL d   1       4.311  -0.069   0.242  0.00  0.00     0.118 C 
ATOM      7  HN  UNL d   1       2.552   0.674   0.982  1.00  0.00     0.186 HD
BRANCH   6   8
ATOM      8  C   UNL d   1       4.119  -1.488   0.594  0.00  0.00    -0.014 A 
ATOM      9  C   UNL d   1       2.956  -1.928   1.224  0.00  0.00     0.052 A 
ATOM     10  C   UNL d   1       2.810  -3.282   1.549  0.00  0.00     0.105 A 
ATOM     11  C   UNL d   1       3.849  -4.192   1.238  0.00  0.00     0.135 A 
ATOM     12  C   UNL d   1       5.020  -3.741   0.604  0.00  0.00     0.105 A 
ATOM     13  C   UNL d   1       5.141  -2.386   0.285  0.00  0.00     0.052 A 
BRANCH  10  14
ATOM     14  O   UNL d   1       1.707  -3.797   2.187  0.00  0.00    -0.353 OA
ATOM     15  C   UNL d   1       0.623  -2.908   2.434  0.00  0.00     0.210 C 
ENDBRANCH  10  14
BRANCH  11  16
ATOM     16  O   UNL d   1       3.778  -5.493   1.675  0.00  0.00    -0.351 OA
ATOM     17  C   UNL d   1       2.833  -6.260   0.929  0.00  0.00     0.210 C 
ENDBRANCH  11  16
BRANCH  12  18
ATOM     18  O   UNL d   1       6.137  -4.459   0.268  0.00  0.00    -0.353 OA
ATOM     19  C   UNL d   1       5.999  -5.859   0.070  0.00  0.00     0.210 C 
ENDBRANCH  12  18
ENDBRANCH   6   8
ENDBRANCH   2   5
BRANCH   1  20
ATOM     20  C   UNL d   1       3.553   4.389  -0.689  0.00  0.00     0.236 C 
BRANCH  20  21
ATOM     21  N   UNL d   1       3.430   4.455  -2.156  0.00  0.00    -0.307 N 
ATOM     22  C   UNL d   1       3.873   3.326  -2.861  0.00  0.00     0.234 C 
ATOM     23  C   UNL d   1       3.390   3.236  -4.286  0.00  0.00     0.182 C 
ATOM     24  O   UNL d   1       4.561   2.438  -2.354  0.00  0.00    -0.272 OA
ATOM     25  S   UNL d   1       4.252   4.476  -5.248  0.00  0.00    -0.118 SA
ATOM     26  C   UNL d   1       3.893   5.866  -4.179  0.00  0.00     0.028 A 
ATOM     27  C   UNL d   1       3.480   5.745  -2.826  0.00  0.00     0.054 A 
ATOM     28  C   UNL d   1       4.078   7.128  -4.767  0.00  0.00     0.021 A 
ATOM     29  C   UNL d   1       3.199   6.939  -2.136  0.00  0.00     0.031 A 
ATOM     30  C   UNL d   1       3.378   8.193  -2.737  0.00  0.00     0.002 A 
ATOM     31  C   UNL d   1       3.830   8.289  -4.045  0.00  0.00     0.002 A 
ENDBRANCH  20  21
ENDBRANCH   1  20
TORSDOF 7
