REMARK  4 active torsions:
REMARK  status: ('A' for Active; 'I' for Inactive)
REMARK    1  A    between atoms: N_6  and  C_1 
REMARK    2  A    between atoms: C_13  and  N_2 
REMARK       I    between atoms: C_8  and  N_6 
REMARK    3  A    between atoms: C_14  and  C_8 
REMARK    4  A    between atoms: N_11  and  C_14 
ROOT
ATOM      1  C   UNL d   1       2.792  -0.452   0.038  0.00  0.00     0.152 C 
ATOM      2  N   UNL d   1       2.805   0.443   1.113  0.00  0.00    -0.239 N 
ATOM      3  N   UNL d   1       3.686   1.460   0.905  0.00  0.00    -0.302 N 
ATOM      4  HN  UNL d   1       3.807   2.307   1.461  1.00  0.00     0.186 HD
ATOM      5  C   UNL d   1       3.841  -0.070  -0.775  0.00  0.00     0.107 C 
ATOM      6  C   UNL d   1       4.354   1.097  -0.189  0.00  0.00     0.134 C 
ATOM      7  C   UNL d   1       4.226  -0.591  -2.045  0.00  0.00     0.105 C 
ATOM      8  N   UNL d   1       4.540  -0.924  -3.113  0.00  0.00    -0.191 NA
ENDROOT
BRANCH   1   9
ATOM      9  N   UNL d   1       1.809  -1.424  -0.116  0.00  0.00    -0.309 N 
ATOM     10  C   UNL d   1       2.150  -2.747  -0.351  0.00  0.00     0.251 C 
ATOM     11  O   UNL d   1       3.300  -3.155  -0.489  0.00  0.00    -0.271 OA
ATOM     12  H   UNL d   1       0.894  -1.292   0.314  0.00  0.00     0.170 HD
BRANCH  10  13
ATOM     13  C   UNL d   1       0.954  -3.711  -0.249  0.00  0.00     0.375 C 
BRANCH  13  14
ATOM     14  N   UNL d   1      -0.321  -3.108  -0.712  0.00  0.00     0.100 N 
ATOM     15  C   UNL d   1      -0.254  -2.744  -2.148  0.00  0.00     0.303 C 
ATOM     16  C   UNL d   1      -1.602  -2.181  -2.653  0.00  0.00     0.302 C 
ATOM     17  N   UNL d   1      -2.747  -3.094  -2.490  0.00  0.00     0.087 N 
ATOM     18  C   UNL d   1      -2.781  -3.594  -1.102  0.00  0.00     0.302 C 
ATOM     19  C   UNL d   1      -2.707  -4.182  -3.464  0.00  0.00     0.310 C 
ATOM     20  C   UNL d   1      -1.424  -4.089  -0.538  0.00  0.00     0.303 C 
ENDBRANCH  13  14
ENDBRANCH  10  13
ENDBRANCH   1   9
BRANCH   2  21
ATOM     21  C   UNL d   1       2.095   0.364   2.346  0.00  0.00     0.058 A 
ATOM     22  C   UNL d   1       1.645  -0.864   2.853  0.00  0.00     0.031 A 
ATOM     23  C   UNL d   1       0.968  -0.915   4.074  0.00  0.00     0.002 A 
ATOM     24  C   UNL d   1       0.746   0.259   4.797  0.00  0.00     0.000 A 
ATOM     25  C   UNL d   1       1.210   1.475   4.308  0.00  0.00     0.002 A 
ATOM     26  C   UNL d   1       1.895   1.534   3.094  0.00  0.00     0.031 A 
ENDBRANCH   2  21
TORSDOF 4
