REMARK  1 active torsions:
REMARK  status: ('A' for Active; 'I' for Inactive)
REMARK    1  A    between atoms: N_11  and  C_7 
ROOT
ATOM      1  C   UNL d   1      -2.496   0.339  -0.378  0.00  0.00     0.022 C 
ATOM      2  C   UNL d   1      -1.305   1.243  -0.238  0.00  0.00     0.192 C 
ATOM      3  C   UNL d   1       0.041   0.602  -0.126  0.00  0.00     0.033 A 
ATOM      4  S   UNL d   1      -1.137  -1.959  -0.098  0.00  0.00    -0.120 SA
ATOM      5  C   UNL d   1       0.215  -0.793  -0.120  0.00  0.00     0.015 A 
ATOM      6  C   UNL d   1      -2.421  -0.837   0.549  0.00  0.00     0.086 C 
ATOM      7  C   UNL d   1      -3.417   0.770  -1.261  0.00  0.00     0.097 C 
ATOM      8  C   UNL d   1       1.162   1.445  -0.054  0.00  0.00     0.040 A 
ATOM      9  O   UNL d   1      -1.413   2.466  -0.226  0.00  0.00    -0.287 OA
ATOM     10  C   UNL d   1       1.512  -1.325  -0.089  0.00  0.00     0.021 A 
ATOM     11  C   UNL d   1       2.442   0.898   0.003  0.00  0.00     0.035 A 
ATOM     12  C   UNL d   1       2.622  -0.482  -0.028  0.00  0.00     0.025 A 
ATOM     13 CL   UNL d   1       3.812   1.931   0.111  0.00  0.00    -0.084 Cl
ATOM     14  C   UNL d   1      -3.672  -1.629   0.905  0.00  0.00     0.027 C 
ENDROOT
BRANCH   7  15
ATOM     15  N   UNL d   1      -4.598   0.241  -1.770  0.00  0.00    -0.398 N 
ATOM     16  C   UNL d   1      -4.793  -1.184  -2.030  0.00  0.00     0.148 C 
ATOM     17  C   UNL d   1      -5.539   1.095  -2.506  0.00  0.00     0.148 C 
ENDBRANCH   7  15
TORSDOF 1
