REMARK  8 active torsions:
REMARK  status: ('A' for Active; 'I' for Inactive)
REMARK    1  A    between atoms: C_2  and  S_1 
REMARK    2  A    between atoms: C_11  and  S_1 
REMARK    3  A    between atoms: N_4  and  C_3 
REMARK       I    between atoms: C_5  and  N_4 
REMARK    4  A    between atoms: C_14  and  C_5 
REMARK    5  A    between atoms: C_12  and  C_14 
REMARK    6  A    between atoms: C_16  and  C_12 
REMARK    7  A    between atoms: C_13  and  C_16 
REMARK    8  A    between atoms: O_18  and  C_13 
ROOT
ATOM      1  N   UNL d   1       0.137   2.212  -2.758  0.00  0.00    -0.325 N 
ATOM      2  C   UNL d   1      -0.001   1.493  -1.577  0.00  0.00     0.223 C 
ATOM      3  O   UNL d   1      -1.064   1.344  -0.979  0.00  0.00    -0.273 OA
ATOM      4  H   UNL d   1       0.933   2.024  -3.374  0.00  0.00     0.169 HD
ENDROOT
BRANCH   1   5
ATOM      5  C   UNL d   1      -0.835   3.091  -3.258  0.00  0.00     0.063 A 
ATOM      6  C   UNL d   1      -0.939   3.575  -4.613  0.00  0.00     0.098 A 
ATOM      7  C   UNL d   1      -1.956   4.501  -4.765  0.00  0.00     0.075 A 
ATOM      8  S   UNL d   1      -2.796   4.787  -3.310  0.00  0.00    -0.110 SA
ATOM      9  C   UNL d   1      -1.802   3.684  -2.466  0.00  0.00     0.080 A 
BRANCH   6  10
ATOM     10  S   UNL d   1       0.091   3.139  -5.942  0.00  0.00     0.209 S 
ATOM     11  O   UNL d   1       1.305   2.692  -5.287  0.00  0.00    -0.217 OA
ATOM     12  O   UNL d   1       0.071   4.289  -6.820  0.00  0.00    -0.217 OA
BRANCH  10  13
ATOM     13  C   UNL d   1      -0.643   1.777  -6.808  0.00  0.00     0.064 A 
ATOM     14  C   UNL d   1      -1.909   1.905  -7.394  0.00  0.00     0.024 A 
ATOM     15  C   UNL d   1      -2.421   0.857  -8.165  0.00  0.00     0.002 A 
ATOM     16  C   UNL d   1      -1.673  -0.306  -8.357  0.00  0.00     0.000 A 
ATOM     17  C   UNL d   1      -0.412  -0.429  -7.774  0.00  0.00     0.002 A 
ATOM     18  C   UNL d   1       0.106   0.612  -7.002  0.00  0.00     0.024 A 
ENDBRANCH  10  13
ENDBRANCH   6  10
ENDBRANCH   1   5
BRANCH   2  19
ATOM     19  C   UNL d   1       1.279   0.822  -1.079  0.00  0.00     0.113 C 
BRANCH  19  20
ATOM     20  C   UNL d   1       1.187  -0.723  -0.839  0.00  0.00    -0.023 C 
ATOM     21  C   UNL d   1       0.419  -1.077   0.476  0.00  0.00     0.010 C 
ATOM     22  C   UNL d   1       1.190  -0.891   1.781  0.00  0.00     0.001 C 
ATOM     23  C   UNL d   1       2.549  -1.572   1.728  0.00  0.00     0.000 C 
ATOM     24  C   UNL d   1       3.354  -1.032   0.557  0.00  0.00     0.001 C 
ATOM     25  C   UNL d   1       2.634  -1.301  -0.764  0.00  0.00     0.010 C 
BRANCH  20  26
ATOM     26  C   UNL d   1       0.415  -1.440  -1.986  0.00  0.00     0.119 C 
BRANCH  26  27
ATOM     27  C   UNL d   1       0.785  -1.002  -3.383  0.00  0.00     0.140 C 
ATOM     28  O   UNL d   1       1.910  -1.062  -3.855  0.00  0.00    -0.650 OA
BRANCH  27  29
ATOM     29  O   UNL d   1      -0.252  -0.479  -4.069  0.00  0.00    -0.776 OA
ATOM     30  H   UNL d   1      -1.101  -0.455  -3.583  0.00  0.00     0.167 HD
ENDBRANCH  27  29
ENDBRANCH  26  27
ENDBRANCH  20  26
ENDBRANCH  19  20
ENDBRANCH   2  19
TORSDOF 8
