REMARK  5 active torsions:
REMARK  status: ('A' for Active; 'I' for Inactive)
REMARK    1  A    between atoms: O_15  and  C_1 
REMARK    2  A    between atoms: C_10  and  N_2 
REMARK    3  A    between atoms: N_7  and  C_3 
REMARK    4  A    between atoms: C_9  and  C_13 
REMARK    5  A    between atoms: C_20  and  N_11 
ROOT
ATOM      1  C   UNL d   1      -5.096   1.673   0.523  0.00  0.00     0.193 C 
ATOM      2  N   UNL d   1      -5.407   2.983   0.156  0.00  0.00    -0.232 N 
ATOM      3  C   UNL d   1      -3.729   1.576   0.373  0.00  0.00     0.124 C 
ATOM      4  N   UNL d   1      -4.303   3.671  -0.250  0.00  0.00    -0.294 N 
ATOM      5  HN  UNL d   1      -4.269   4.605  -0.658  1.00  0.00     0.187 HD
ATOM      6  C   UNL d   1      -3.274   2.852   0.003  0.00  0.00     0.055 C 
ATOM      7  C   UNL d   1      -1.885   3.346  -0.144  0.00  0.00     0.072 C 
ENDROOT
BRANCH   3   8
ATOM      8  N   UNL d   1      -2.984   0.422   0.635  0.00  0.00    -0.294 N 
ATOM      9  N   UNL d   1      -2.304  -0.185  -0.229  0.00  0.00    -0.300 N 
ATOM     10  HN  UNL d   1      -1.807  -1.030   0.052  1.00  0.00     0.187 HD
ATOM     11  HN  UNL d   1      -2.994   0.051   1.586  1.00  0.00     0.187 HD
BRANCH   9  12
ATOM     12  C   UNL d   1      -2.195   0.243  -1.567  0.00  0.00     0.048 A 
ATOM     13  C   UNL d   1      -3.289   0.389  -2.430  0.00  0.00     0.047 A 
ATOM     14  C   UNL d   1      -3.113   0.775  -3.771  0.00  0.00     0.050 A 
ATOM     15  C   UNL d   1      -1.814   0.966  -4.264  0.00  0.00     0.016 A 
ATOM     16  C   UNL d   1      -0.714   0.781  -3.430  0.00  0.00     0.003 A 
ATOM     17  C   UNL d   1      -0.907   0.418  -2.097  0.00  0.00     0.031 A 
BRANCH  14  18
ATOM     18  C   UNL d   1      -4.297   0.982  -4.684  0.00  0.00     0.417 C 
ATOM     19  F   UNL d   1      -5.500   0.816  -4.066  0.00  0.00    -0.166 F 
ATOM     20  F   UNL d   1      -4.326   2.232  -5.224  0.00  0.00    -0.166 F 
ATOM     21  F   UNL d   1      -4.296   0.120  -5.738  0.00  0.00    -0.166 F 
ENDBRANCH  14  18
ENDBRANCH   9  12
ENDBRANCH   3   8
BRANCH   1  22
ATOM     22  O   UNL d   1      -5.980   0.731   0.867  0.00  0.00    -0.343 OA
ATOM     23  H   UNL d   1      -6.875   0.986   0.585  0.00  0.00     0.219 HD
ENDBRANCH   1  22
BRANCH   2  24
ATOM     24  C   UNL d   1      -6.674   3.626   0.138  0.00  0.00     0.060 A 
ATOM     25  C   UNL d   1      -7.667   3.316   1.076  0.00  0.00     0.055 A 
ATOM     26  C   UNL d   1      -8.905   3.957   1.001  0.00  0.00     0.036 A 
ATOM     27 CL   UNL d   1     -10.121   3.602   2.166  0.00  0.00    -0.084 Cl
ATOM     28  C   UNL d   1      -9.168   4.889  -0.003  0.00  0.00     0.024 A 
ATOM     29  C   UNL d   1      -8.172   5.213  -0.924  0.00  0.00     0.004 A 
ATOM     30  C   UNL d   1      -6.921   4.601  -0.842  0.00  0.00     0.032 A 
ENDBRANCH   2  24
TORSDOF 5
