REMARK  2 active torsions:
REMARK  status: ('A' for Active; 'I' for Inactive)
REMARK    1  A    between atoms: O_7  and  C_5 
REMARK    2  A    between atoms: C_11  and  O_7 
ROOT
ATOM      1  N   UNL d   1       3.135   0.603  -0.157  0.00  0.00    -0.191 NA
ATOM      2  N   UNL d   1      -1.587   1.135  -0.887  0.00  0.00    -0.345 N 
ATOM      3  HN  UNL d   1      -2.140   1.749  -1.484  1.00  0.00     0.167 HD
ATOM      4  C   UNL d   1       1.981   0.482  -0.143  0.00  0.00     0.101 C 
ATOM      5  C   UNL d   1      -2.173   0.245  -0.051  0.00  0.00     0.147 A 
ATOM      6  C   UNL d   1       0.561   0.348  -0.116  0.00  0.00     0.060 A 
ATOM      7  C   UNL d   1      -0.236   1.174  -0.893  0.00  0.00     0.113 A 
ATOM      8  C   UNL d   1      -1.461  -0.653   0.730  0.00  0.00     0.058 A 
ATOM      9  C   UNL d   1      -0.068  -0.594   0.702  0.00  0.00     0.028 A 
ENDROOT
BRANCH   5  10
ATOM     10  O   UNL d   1      -3.557   0.200   0.042  0.00  0.00    -0.294 OA
BRANCH  10  11
ATOM     11  C   UNL d   1      -4.236   1.389  -0.111  0.00  0.00     0.077 A 
ATOM     12  C   UNL d   1      -5.446   1.340  -0.805  0.00  0.00     0.037 A 
ATOM     13  C   UNL d   1      -6.191   2.506  -0.991  0.00  0.00     0.003 A 
ATOM     14  C   UNL d   1      -5.734   3.718  -0.471  0.00  0.00     0.000 A 
ATOM     15  C   UNL d   1      -4.544   3.762   0.253  0.00  0.00     0.003 A 
ATOM     16  C   UNL d   1      -3.804   2.596   0.448  0.00  0.00     0.037 A 
ENDBRANCH  10  11
ENDBRANCH   5  10
TORSDOF 2
