REMARK  7 active torsions:
REMARK  status: ('A' for Active; 'I' for Inactive)
REMARK    1  A    between atoms: S_10  and  C_4 
REMARK    2  A    between atoms: S_12  and  C_4 
REMARK    3  A    between atoms: C_7  and  C_6 
REMARK    4  A    between atoms: C_9  and  C_7 
REMARK    5  A    between atoms: C_8  and  S_10 
REMARK    6  A    between atoms: C_21  and  S_12 
REMARK    7  A    between atoms: C_15  and  C_21 
ROOT
ATOM      1  N   UNL d   1       1.228   0.030  -0.223  0.00  0.00    -0.282 N 
ATOM      2  HN  UNL d   1       0.860  -0.886  -0.480  1.00  0.00     0.179 HD
ATOM      3  C   UNL d   1       0.494   1.131  -0.424  0.00  0.00     0.183 C 
ATOM      4  C   UNL d   1       2.406   0.134   0.300  0.00  0.00     0.121 C 
ATOM      5  N   UNL d   1      -0.152   2.071  -0.614  0.00  0.00    -0.172 NA
ENDROOT
BRANCH   4   6
ATOM      6  S   UNL d   1       3.339  -1.342   0.562  0.00  0.00    -0.076 SA
BRANCH   6   7
ATOM      7  C   UNL d   1       2.167  -2.540   1.008  0.00  0.00     0.056 C 
ATOM      8  C   UNL d   1       2.561  -3.801   1.239  0.00  0.00     0.063 C 
BRANCH   8   9
ATOM      9  C   UNL d   1       1.575  -4.841   1.636  0.00  0.00     0.182 C 
ATOM     10  O   UNL d   1       0.479  -4.546   2.099  0.00  0.00    -0.288 OA
BRANCH   9  11
ATOM     11  C   UNL d   1       1.976  -6.268   1.486  0.00  0.00     0.014 A 
ATOM     12  C   UNL d   1       1.416  -7.217   2.354  0.00  0.00     0.017 A 
ATOM     13  C   UNL d   1       1.734  -8.573   2.218  0.00  0.00     0.020 A 
ATOM     14  C   UNL d   1       2.603  -8.981   1.208  0.00  0.00     0.011 A 
ATOM     15  C   UNL d   1       3.162  -8.047   0.337  0.00  0.00     0.020 A 
ATOM     16 BR   UNL d   1       3.009 -10.816   1.000  0.00  0.00    -0.051 Br
ATOM     17  C   UNL d   1       2.849  -6.691   0.473  0.00  0.00     0.017 A 
ENDBRANCH   9  11
ENDBRANCH   8   9
ENDBRANCH   6   7
ENDBRANCH   4   6
BRANCH   4  18
ATOM     18  S   UNL d   1       3.168   1.638   0.807  0.00  0.00    -0.101 SA
BRANCH  18  19
ATOM     19  C   UNL d   1       4.890   1.426   0.284  0.00  0.00     0.107 C 
BRANCH  19  20
ATOM     20  C   UNL d   1       5.629   2.715   0.495  0.00  0.00    -0.026 C 
ATOM     21  C   UNL d   1       6.626   2.881   1.374  0.00  0.00     0.007 C 
ENDBRANCH  19  20
ENDBRANCH  18  19
ENDBRANCH   4  18
TORSDOF 7
