REMARK  4 active torsions:
REMARK  status: ('A' for Active; 'I' for Inactive)
REMARK    1  A    between atoms: C_12  and  C_1 
REMARK    2  A    between atoms: C_2  and  C_14 
REMARK    3  A    between atoms: C_16  and  C_7 
REMARK       I    between atoms: N_15  and  C_12 
REMARK    4  A    between atoms: C_14  and  N_15 
ROOT
ATOM      1  C   UNL d   1      -3.472  -4.417   0.057  0.00  0.00     0.020 A 
ATOM      2  N   UNL d   1      -4.524  -6.237   0.935  0.00  0.00    -0.260 N 
ATOM      3  HN  UNL d   1      -4.922  -6.912   1.587  1.00  0.00     0.195 HD
ATOM      4  C   UNL d   1      -3.905  -5.086   1.251  0.00  0.00     0.075 A 
ATOM      5  O   UNL d   1      -4.516  -6.329  -0.436  0.00  0.00    -0.242 OA
ATOM      6  C   UNL d   1      -3.889  -5.250  -0.961  0.00  0.00     0.082 A 
ATOM      7  C   UNL d   1      -3.769  -5.212  -2.432  0.00  0.00     0.079 C 
ENDROOT
BRANCH   1   8
ATOM      8  C   UNL d   1      -2.683  -3.173  -0.088  0.00  0.00     0.166 C 
BRANCH   8   9
ATOM      9  N   UNL d   1      -3.553  -2.028  -0.157  0.00  0.00    -0.351 N 
ATOM     10  C   UNL d   1      -3.029  -0.753  -0.139  0.00  0.00     0.269 C 
ATOM     11  O   UNL d   1      -1.819  -0.533  -0.112  0.00  0.00    -0.266 OA
ATOM     12  H   UNL d   1      -4.565  -2.106  -0.186  0.00  0.00     0.163 HD
BRANCH  10  13
ATOM     13  C   UNL d   1      -4.032   0.319  -0.142  0.00  0.00     0.117 A 
ATOM     14  N   UNL d   1      -5.359   0.084  -0.152  0.00  0.00    -0.294 N 
ATOM     15  N   UNL d   1      -5.912   1.317  -0.156  0.00  0.00    -0.301 N 
ATOM     16  HN  UNL d   1      -5.836  -0.817  -0.155  1.00  0.00     0.187 HD
ATOM     17  C   UNL d   1      -7.350   1.455  -0.175  0.00  0.00     0.177 C 
ATOM     18  C   UNL d   1      -4.992   2.333  -0.149  0.00  0.00     0.026 A 
ATOM     19  C   UNL d   1      -3.764   1.713  -0.128  0.00  0.00     0.063 A 
ATOM     20  C   UNL d   1      -5.347   3.773  -0.169  0.00  0.00     0.070 C 
ENDBRANCH  10  13
ENDBRANCH   8   9
ENDBRANCH   1   8
BRANCH   4  21
ATOM     21  C   UNL d   1      -3.732  -4.701   2.656  0.00  0.00    -0.007 A 
ATOM     22  C   UNL d   1      -3.552  -5.686   3.640  0.00  0.00     0.014 A 
ATOM     23  C   UNL d   1      -3.373  -5.335   4.982  0.00  0.00     0.001 A 
ATOM     24  C   UNL d   1      -3.370  -3.993   5.357  0.00  0.00     0.000 A 
ATOM     25  C   UNL d   1      -3.563  -3.006   4.396  0.00  0.00     0.001 A 
ATOM     26  C   UNL d   1      -3.754  -3.359   3.057  0.00  0.00     0.014 A 
ENDBRANCH   4  21
TORSDOF 4
