REMARK  2 active torsions:
REMARK  status: ('A' for Active; 'I' for Inactive)
REMARK       I    between atoms: N_2  and  C_1 
REMARK       I    between atoms: N_3  and  C_1 
REMARK    1  A    between atoms: C_4  and  N_2 
REMARK    2  A    between atoms: C_11  and  N_3 
ROOT
ATOM      1  C   UNL d   1       1.005   0.228  -0.052  0.00  0.00     0.322 C 
ATOM      2  N   UNL d   1       0.439  -0.109   1.159  0.00  0.00    -0.309 N 
ATOM      3  N   UNL d   1       0.122   0.209  -1.143  0.00  0.00    -0.334 N 
ATOM      4  O   UNL d   1       2.198   0.487  -0.200  0.00  0.00    -0.247 OA
ATOM      5  C   UNL d   1      -1.330   0.136  -1.018  0.00  0.00     0.155 C 
ATOM      6  H   UNL d   1      -0.448  -0.582   1.111  0.00  0.00     0.170 HD
ENDROOT
BRANCH   2   7
ATOM      7  C   UNL d   1       1.081  -0.168   2.415  0.00  0.00     0.039 A 
ATOM      8  C   UNL d   1       2.355   0.347   2.664  0.00  0.00     0.053 A 
ATOM      9  C   UNL d   1       2.945   0.181   3.917  0.00  0.00     0.037 A 
ATOM     10 CL   UNL d   1       4.534   0.788   4.201  0.00  0.00    -0.084 Cl
ATOM     11  C   UNL d   1       2.271  -0.477   4.944  0.00  0.00     0.048 A 
ATOM     12  C   UNL d   1       0.988  -0.956   4.705  0.00  0.00     0.037 A 
ATOM     13  C   UNL d   1       0.390  -0.799   3.456  0.00  0.00     0.053 A 
ATOM     14 CL   UNL d   1       0.139  -1.768   5.963  0.00  0.00    -0.084 Cl
ENDBRANCH   2   7
BRANCH   3  15
ATOM     15  C   UNL d   1       0.729   0.355  -2.492  0.00  0.00     0.088 C 
ATOM     16  C   UNL d   1       0.872   1.823  -2.929  0.00  0.00     0.025 C 
ATOM     17  C   UNL d   1      -0.401   2.421  -3.518  0.00  0.00     0.002 C 
ATOM     18  C   UNL d   1      -1.008   1.552  -4.616  0.00  0.00     0.000 C 
ATOM     19  C   UNL d   1      -1.162   0.084  -4.232  0.00  0.00     0.002 C 
ATOM     20  C   UNL d   1       0.096  -0.503  -3.599  0.00  0.00     0.025 C 
ENDBRANCH   3  15
TORSDOF 2
