REMARK  10 active torsions:
REMARK  status: ('A' for Active; 'I' for Inactive)
REMARK    1  A    between atoms: O_9  and  C_1 
REMARK    2  A    between atoms: O_6  and  N_2 
REMARK    3  A    between atoms: C_4  and  C_8 
REMARK    4  A    between atoms: N_19  and  C_4 
REMARK    5  A    between atoms: C_5  and  O_6 
REMARK    6  A    between atoms: C_7  and  C_5 
REMARK    7  A    between atoms: C_10  and  C_7 
REMARK    8  A    between atoms: C_20  and  O_9 
REMARK    9  A    between atoms: C_26  and  C_21 
REMARK   10  A    between atoms: C_28  and  C_26 
ROOT
ATOM      1  N   UNL d   1       0.481  -4.705   4.165  0.00  0.00    -0.246 N 
ATOM      2  HN  UNL d   1       0.727  -4.394   5.105  1.00  0.00     0.196 HD
ATOM      3  C   UNL d   1       0.486  -3.921   3.128  0.00  0.00     0.109 C 
ENDROOT
BRANCH   1   4
ATOM      4  O   UNL d   1       0.100  -6.033   3.858  0.00  0.00    -0.198 OA
BRANCH   4   5
ATOM      5  C   UNL d   1      -0.648  -6.524   4.902  0.00  0.00     0.289 C 
ATOM      6  O   UNL d   1      -1.525  -5.893   5.486  0.00  0.00    -0.262 OA
BRANCH   5   7
ATOM      7  C   UNL d   1      -0.288  -7.963   5.259  0.00  0.00     0.116 C 
ATOM      8  C   UNL d   1       1.216  -8.238   5.192  0.00  0.00     0.025 C 
BRANCH   7   9
ATOM      9  C   UNL d   1      -1.087  -9.023   4.519  0.00  0.00    -0.045 A 
ATOM     10  C   UNL d   1      -1.067  -9.123   3.122  0.00  0.00     0.008 A 
ATOM     11  C   UNL d   1      -1.772 -10.140   2.468  0.00  0.00     0.007 A 
ATOM     12  C   UNL d   1      -2.510 -11.084   3.189  0.00  0.00    -0.058 A 
ATOM     13  C   UNL d   1      -2.517 -11.001   4.586  0.00  0.00     0.007 A 
ATOM     14  C   UNL d   1      -1.818  -9.980   5.241  0.00  0.00     0.008 A 
BRANCH  12  15
ATOM     15  C   UNL d   1      -3.247 -12.190   2.466  0.00  0.00     0.042 C 
BRANCH  15  16
ATOM     16  C   UNL d   1      -4.765 -12.257   2.731  0.00  0.00    -0.019 C 
ATOM     17  C   UNL d   1      -5.489 -10.977   2.305  0.00  0.00     0.010 C 
ATOM     18  C   UNL d   1      -5.372 -13.453   1.987  0.00  0.00     0.010 C 
ENDBRANCH  15  16
ENDBRANCH  12  15
ENDBRANCH   7   9
ENDBRANCH   5   7
ENDBRANCH   4   5
ENDBRANCH   1   4
BRANCH   3  19
ATOM     19  C   UNL d   1       1.001  -2.521   3.321  0.00  0.00     0.004 A 
ATOM     20  C   UNL d   1       1.536  -1.798   2.246  0.00  0.00     0.017 A 
ATOM     21  C   UNL d   1       2.068  -0.515   2.444  0.00  0.00     0.038 A 
ATOM     22  C   UNL d   1       2.104   0.040   3.721  0.00  0.00     0.078 A 
ATOM     23  C   UNL d   1       1.526  -0.662   4.784  0.00  0.00     0.038 A 
ATOM     24  C   UNL d   1       0.986  -1.938   4.591  0.00  0.00     0.017 A 
BRANCH  22  25
ATOM     25  O   UNL d   1       2.621   1.254   4.058  0.00  0.00    -0.255 OA
BRANCH  25  26
ATOM     26  C   UNL d   1       3.716   1.788   3.326  0.00  0.00     0.530 C 
ATOM     27  F   UNL d   1       4.279   0.923   2.456  0.00  0.00    -0.144 F 
ATOM     28  F   UNL d   1       4.673   2.170   4.202  0.00  0.00    -0.144 F 
ATOM     29  F   UNL d   1       3.307   2.882   2.648  0.00  0.00    -0.144 F 
ENDBRANCH  25  26
ENDBRANCH  22  25
ENDBRANCH   3  19
BRANCH   3  30
ATOM     30  N   UNL d   1       0.037  -4.290   1.880  0.00  0.00    -0.286 NA
ATOM     31  H   UNL d   1      -0.552  -5.115   1.921  0.00  0.00     0.125 HD
ATOM     32  H   UNL d   1      -0.409  -3.547   1.354  0.00  0.00     0.125 HD
ENDBRANCH   3  30
TORSDOF 10
