REMARK  4 active torsions:
REMARK  status: ('A' for Active; 'I' for Inactive)
REMARK    1  A    between atoms: C_7  and  N_1 
REMARK    2  A    between atoms: O_12  and  C_2 
REMARK    3  A    between atoms: C_8  and  C_3 
REMARK    4  A    between atoms: O_17  and  C_8 
ROOT
ATOM      1  N   UNL d   1       0.021  -1.357  -0.088  0.00  0.00    -0.216 N 
ATOM      2  C   UNL d   1       1.291  -0.812   0.086  0.00  0.00     0.195 C 
ATOM      3  C   UNL d   1       1.089   0.554  -0.030  0.00  0.00     0.174 C 
ATOM      4  N   UNL d   1      -0.847  -0.380  -0.444  0.00  0.00    -0.012 NA
ATOM      5  N   UNL d   1      -0.228   0.786  -0.343  0.00  0.00    -0.274 N 
ATOM      6  HN  UNL d   1      -0.657   1.702  -0.475  1.00  0.00     0.184 HD
ENDROOT
BRANCH   1   7
ATOM      7  C   UNL d   1      -0.420  -2.697   0.065  0.00  0.00     0.059 A 
ATOM      8  C   UNL d   1       0.276  -3.598   0.886  0.00  0.00     0.058 A 
ATOM      9  C   UNL d   1      -0.190  -4.908   1.027  0.00  0.00     0.074 A 
ATOM     10 CL   UNL d   1       0.662  -5.996   2.055  0.00  0.00    -0.081 Cl
ATOM     11  C   UNL d   1      -1.335  -5.321   0.351  0.00  0.00     0.138 A 
ATOM     12  C   UNL d   1      -2.038  -4.432  -0.456  0.00  0.00     0.046 A 
ATOM     13  F   UNL d   1      -1.787  -6.577   0.471  0.00  0.00    -0.204 F 
ATOM     14  C   UNL d   1      -1.592  -3.114  -0.590  0.00  0.00     0.034 A 
ENDBRANCH   1   7
BRANCH   2  15
ATOM     15  O   UNL d   1       2.412  -1.512   0.272  0.00  0.00    -0.343 OA
ATOM     16  H   UNL d   1       2.340  -2.380  -0.165  0.00  0.00     0.219 HD
ENDBRANCH   2  15
BRANCH   3  17
ATOM     17  C   UNL d   1       2.083   1.611   0.068  0.00  0.00     0.315 C 
ATOM     18  O   UNL d   1       3.281   1.418   0.238  0.00  0.00    -0.257 OA
BRANCH  17  19
ATOM     19  O   UNL d   1       1.529   2.854  -0.068  0.00  0.00    -0.321 OA
ATOM     20  C   UNL d   1       2.473   3.924  -0.023  0.00  0.00     0.213 C 
ENDBRANCH  17  19
ENDBRANCH   3  17
TORSDOF 4
