REMARK  3 active torsions:
REMARK  status: ('A' for Active; 'I' for Inactive)
REMARK    1  A    between atoms: C_7  and  C_1 
REMARK    2  A    between atoms: C_8  and  C_7 
REMARK    3  A    between atoms: C_18  and  N_10 
ROOT
ATOM      1  C   UNL d   1      -0.103  -1.151  -0.031  0.00  0.00     0.081 A 
ATOM      2  C   UNL d   1       0.660   1.171   0.019  0.00  0.00     0.150 A 
ATOM      3  N   UNL d   1      -0.651   1.109  -0.001  0.00  0.00    -0.339 N 
ATOM      4  HN  UNL d   1      -1.262   1.925   0.010  1.00  0.00     0.168 HD
ATOM      5  S   UNL d   1       1.423  -0.369  -0.140  0.00  0.00    -0.048 SA
ATOM      6  C   UNL d   1      -1.102  -0.194  -0.038  0.00  0.00     0.028 A 
ATOM      7  N   UNL d   1       1.405   2.297   0.142  0.00  0.00    -0.337 N 
ATOM      8  C   UNL d   1      -2.572  -0.412  -0.034  0.00  0.00     0.070 C 
ATOM      9  H   UNL d   1       2.406   2.208   0.030  0.00  0.00     0.168 HD
ENDROOT
BRANCH   1  10
ATOM     10  C   UNL d   1      -0.269  -2.592  -0.035  0.00  0.00     0.201 C 
ATOM     11  O   UNL d   1      -1.276  -3.137  -0.493  0.00  0.00    -0.286 OA
BRANCH  10  12
ATOM     12  C   UNL d   1       0.754  -3.496   0.561  0.00  0.00     0.018 A 
ATOM     13  C   UNL d   1       0.939  -4.760  -0.015  0.00  0.00     0.055 A 
ATOM     14  C   UNL d   1       1.859  -5.659   0.529  0.00  0.00     0.102 A 
ATOM     15  O   UNL d   1       1.911  -6.881  -0.094  0.00  0.00    -0.348 OA
ATOM     16  C   UNL d   1       2.643  -5.276   1.626  0.00  0.00     0.102 A 
ATOM     17  C   UNL d   1       2.113  -7.964   0.815  0.00  0.00     0.178 C 
ATOM     18  C   UNL d   1       3.593  -8.184   1.079  0.00  0.00     0.053 C 
ATOM     19  C   UNL d   1       4.330  -6.873   1.288  0.00  0.00     0.178 C 
ATOM     20  O   UNL d   1       3.631  -6.030   2.205  0.00  0.00    -0.348 OA
ATOM     21  C   UNL d   1       2.420  -4.038   2.234  0.00  0.00     0.040 A 
ATOM     22  C   UNL d   1       1.469  -3.155   1.716  0.00  0.00     0.018 A 
ENDBRANCH  10  12
ENDBRANCH   1  10
BRANCH   7  23
ATOM     23  C   UNL d   1       0.997   3.519   0.719  0.00  0.00     0.034 A 
ATOM     24  C   UNL d   1      -0.272   3.724   1.284  0.00  0.00     0.029 A 
ATOM     25  C   UNL d   1      -0.652   4.962   1.807  0.00  0.00     0.002 A 
ATOM     26  C   UNL d   1       0.233   6.031   1.771  0.00  0.00     0.000 A 
ATOM     27  C   UNL d   1       1.493   5.860   1.208  0.00  0.00     0.002 A 
ATOM     28  C   UNL d   1       1.869   4.618   0.680  0.00  0.00     0.029 A 
ENDBRANCH   7  23
TORSDOF 3
