REMARK  2 active torsions:
REMARK  status: ('A' for Active; 'I' for Inactive)
REMARK    1  A    between atoms: C_7  and  N_2 
REMARK    2  A    between atoms: C_6  and  C_7 
ROOT
ATOM      1  S   UNL d   1       0.596  -0.913   1.550  0.00  0.00     0.269 S 
ATOM      2  N   UNL d   1       1.200  -1.333   0.046  0.00  0.00    -0.231 N 
ATOM      3  C   UNL d   1       0.425  -0.880  -1.039  0.00  0.00     0.269 A 
ATOM      4  C   UNL d   1      -0.713  -0.099  -0.522  0.00  0.00     0.056 A 
ATOM      5  C   UNL d   1      -0.741  -0.033   0.865  0.00  0.00     0.095 A 
ATOM      6  O   UNL d   1       0.061  -2.068   2.225  0.00  0.00    -0.200 OA
ATOM      7  O   UNL d   1       1.492   0.038   2.167  0.00  0.00    -0.200 OA
ATOM      8  O   UNL d   1       0.667  -1.077  -2.213  0.00  0.00    -0.266 OA
ATOM      9  C   UNL d   1      -1.676   0.554  -1.276  0.00  0.00     0.018 A 
ATOM     10  C   UNL d   1      -1.716   0.658   1.561  0.00  0.00     0.026 A 
ATOM     11  C   UNL d   1      -2.670   1.268  -0.598  0.00  0.00     0.001 A 
ATOM     12  C   UNL d   1      -2.691   1.316   0.810  0.00  0.00     0.002 A 
ENDROOT
BRANCH   2  13
ATOM     13  C   UNL d   1       2.451  -2.083  -0.029  0.00  0.00     0.210 C 
BRANCH  13  14
ATOM     14  C   UNL d   1       2.168  -3.554  -0.039  0.00  0.00     0.071 A 
ATOM     15  N   UNL d   1       2.126  -4.304   1.041  0.00  0.00    -0.351 N 
ATOM     16  C   UNL d   1       1.690  -5.577   0.715  0.00  0.00     0.050 A 
ATOM     17  HN  UNL d   1       2.376  -3.993   1.980  1.00  0.00     0.166 HD
ATOM     18  C   UNL d   1       1.442  -6.624   1.625  0.00  0.00     0.031 A 
ATOM     19  C   UNL d   1       1.469  -5.802  -0.644  0.00  0.00     0.033 A 
ATOM     20  C   UNL d   1       0.960  -7.851   1.157  0.00  0.00     0.002 A 
ATOM     21  C   UNL d   1       0.738  -8.049  -0.202  0.00  0.00     0.002 A 
ATOM     22  C   UNL d   1       0.999  -7.034  -1.127  0.00  0.00     0.021 A 
ATOM     23  S   UNL d   1       1.849  -4.369  -1.517  0.00  0.00    -0.073 SA
ENDBRANCH  13  14
ENDBRANCH   2  13
TORSDOF 2
