REMARK  5 active torsions:
REMARK  status: ('A' for Active; 'I' for Inactive)
REMARK    1  A    between atoms: C_8  and  N_1 
REMARK    2  A    between atoms: C_7  and  C_2 
REMARK    3  A    between atoms: N_12  and  C_9 
REMARK    4  A    between atoms: C_13  and  N_12 
REMARK    5  A    between atoms: O_22  and  C_14 
ROOT
ATOM      1  N   UNL d   1       3.765   0.704   0.005  0.00  0.00    -0.225 N 
ATOM      2  C   UNL d   1       3.667  -0.688  -0.008  0.00  0.00     0.139 C 
ATOM      3  N   UNL d   1       5.739  -0.108  -0.106  0.00  0.00    -0.007 NA
ATOM      4  N   UNL d   1       5.065   1.029  -0.192  0.00  0.00     0.001 NA
ATOM      5  N   UNL d   1       4.893  -1.177   0.022  0.00  0.00    -0.270 N 
ATOM      6  HN  UNL d   1       5.158  -2.157   0.121  1.00  0.00     0.185 HD
ENDROOT
BRANCH   2   7
ATOM      7  C   UNL d   1       2.420  -1.336  -0.191  0.00  0.00     0.068 C 
ATOM      8  C   UNL d   1       2.164  -2.599   0.168  0.00  0.00     0.092 C 
BRANCH   8   9
ATOM      9  N   UNL d   1       2.961  -3.534   0.775  0.00  0.00    -0.366 N 
ATOM     10  H   UNL d   1       3.935  -3.263   0.906  0.00  0.00     0.165 HD
BRANCH   9  11
ATOM     11  C   UNL d   1       2.639  -4.863   1.114  0.00  0.00     0.031 A 
ATOM     12  C   UNL d   1       1.412  -5.464   0.805  0.00  0.00     0.030 A 
ATOM     13  C   UNL d   1       1.117  -6.774   1.206  0.00  0.00     0.009 A 
ATOM     14  C   UNL d   1       2.045  -7.519   1.935  0.00  0.00    -0.062 A 
ATOM     15  C   UNL d   1       3.265  -6.927   2.268  0.00  0.00     0.009 A 
ATOM     16  C   UNL d   1       1.706  -8.913   2.370  0.00  0.00     0.048 C 
ATOM     17  C   UNL d   1       3.556  -5.616   1.862  0.00  0.00     0.030 A 
ENDBRANCH   9  11
ENDBRANCH   8   9
ENDBRANCH   2   7
BRANCH   1  18
ATOM     18  C   UNL d   1       2.774   1.703   0.195  0.00  0.00     0.056 A 
ATOM     19  C   UNL d   1       1.628   1.444   0.960  0.00  0.00     0.034 A 
ATOM     20  C   UNL d   1       0.632   2.418   1.096  0.00  0.00     0.039 A 
ATOM     21  C   UNL d   1       0.763   3.650   0.457  0.00  0.00     0.068 A 
ATOM     22  C   UNL d   1       1.931   3.924  -0.260  0.00  0.00     0.039 A 
ATOM     23  C   UNL d   1       2.946   2.967  -0.378  0.00  0.00     0.034 A 
BRANCH  21  24
ATOM     24  O   UNL d   1      -0.164   4.655   0.453  0.00  0.00    -0.356 OA
ATOM     25  C   UNL d   1      -1.410   4.398   1.090  0.00  0.00     0.210 C 
ENDBRANCH  21  24
ENDBRANCH   1  18
TORSDOF 5
