REMARK  2 active torsions:
REMARK  status: ('A' for Active; 'I' for Inactive)
REMARK    1  A    between atoms: C_6  and  C_4 
REMARK    2  A    between atoms: O_15  and  C_12 
ROOT
ATOM      1  N   UNL d   1       1.281  -0.937  -0.566  0.00  0.00    -0.301 N 
ATOM      2  HN  UNL d   1       1.856  -1.621  -1.058  1.00  0.00     0.186 HD
ATOM      3  N   UNL d   1      -0.075  -1.032  -0.574  0.00  0.00    -0.270 N 
ATOM      4  C   UNL d   1       1.826   0.048   0.085  0.00  0.00     0.036 C 
ATOM      5  C   UNL d   1      -0.963  -0.082  -0.144  0.00  0.00     0.236 C 
ATOM      6  O   UNL d   1      -2.176  -0.272  -0.170  0.00  0.00    -0.272 OA
ATOM      7  C   UNL d   1       1.014   1.073   0.845  0.00  0.00     0.069 C 
ATOM      8  C   UNL d   1      -0.369   1.235   0.259  0.00  0.00     0.110 C 
ATOM      9  H   UNL d   1      -0.465  -1.893  -0.943  0.00  0.00     0.190 HD
ENDROOT
BRANCH   4  10
ATOM     10  C   UNL d   1       3.313   0.148   0.149  0.00  0.00    -0.012 A 
ATOM     11  C   UNL d   1       4.088  -0.399  -0.880  0.00  0.00     0.016 A 
ATOM     12  C   UNL d   1       5.485  -0.311  -0.836  0.00  0.00     0.037 A 
ATOM     13  C   UNL d   1       6.118   0.309   0.242  0.00  0.00     0.068 A 
ATOM     14  C   UNL d   1       5.342   0.838   1.276  0.00  0.00     0.037 A 
ATOM     15  C   UNL d   1       3.949   0.760   1.236  0.00  0.00     0.016 A 
BRANCH  13  16
ATOM     16  O   UNL d   1       7.465   0.458   0.413  0.00  0.00    -0.356 OA
ATOM     17  C   UNL d   1       8.303  -0.041  -0.619  0.00  0.00     0.210 C 
ENDBRANCH  13  16
ENDBRANCH   4  10
TORSDOF 2
