REMARK  6 active torsions:
REMARK  status: ('A' for Active; 'I' for Inactive)
REMARK    1  A    between atoms: C_9  and  C_1 
REMARK    2  A    between atoms: N_15  and  C_3 
REMARK    3  A    between atoms: C_14  and  C_6 
REMARK    4  A    between atoms: C_12  and  C_9 
REMARK    5  A    between atoms: C_13  and  C_10 
REMARK    6  A    between atoms: O_31  and  C_24 
ROOT
ATOM      1  C   UNL d   1       2.393   0.092   0.070  0.00  0.00     0.155 A 
ATOM      2  C   UNL d   1       0.276   0.905   0.048  0.00  0.00     0.056 A 
ATOM      3  C   UNL d   1       1.657   1.257   0.120  0.00  0.00     0.080 A 
ATOM      4  C   UNL d   1       0.269  -0.494   0.043  0.00  0.00     0.162 A 
ATOM      5  O   UNL d   1       1.546  -0.980   0.055  0.00  0.00    -0.286 OA
ATOM      6  C   UNL d   1      -0.979   1.554  -0.017  0.00  0.00    -0.005 A 
ATOM      7  N   UNL d   1      -0.799  -1.313   0.023  0.00  0.00    -0.335 N 
ATOM      8  HN  UNL d   1      -0.715  -2.329   0.045  1.00  0.00     0.168 HD
ATOM      9  C   UNL d   1      -1.990  -0.679  -0.031  0.00  0.00     0.045 A 
ATOM     10  C   UNL d   1      -2.110   0.715  -0.034  0.00  0.00     0.043 A 
ENDROOT
BRANCH   1  11
ATOM     11  C   UNL d   1       3.825  -0.096   0.029  0.00  0.00     0.218 C 
ATOM     12  O   UNL d   1       4.591   0.739  -0.461  0.00  0.00    -0.284 OA
BRANCH  11  13
ATOM     13  C   UNL d   1       4.449  -1.296   0.652  0.00  0.00     0.017 A 
ATOM     14  C   UNL d   1       3.864  -1.947   1.746  0.00  0.00     0.017 A 
ATOM     15  C   UNL d   1       4.527  -3.011   2.364  0.00  0.00     0.025 A 
ATOM     16  C   UNL d   1       5.775  -3.420   1.897  0.00  0.00     0.034 A 
ATOM     17  C   UNL d   1       6.372  -2.774   0.816  0.00  0.00     0.025 A 
ATOM     18 CL   UNL d   1       6.592  -4.719   2.673  0.00  0.00    -0.084 Cl
ATOM     19  C   UNL d   1       5.712  -1.710   0.196  0.00  0.00     0.017 A 
ENDBRANCH  11  13
ENDBRANCH   1  11
BRANCH   3  20
ATOM     20  N   UNL d   1       2.206   2.484   0.226  0.00  0.00    -0.396 N 
ATOM     21  H   UNL d   1       1.698   3.335   0.453  0.00  0.00     0.156 HD
ATOM     22  H   UNL d   1       3.217   2.620   0.173  0.00  0.00     0.156 HD
ENDBRANCH   3  20
BRANCH   6  23
ATOM     23  C   UNL d   1      -1.117   3.016  -0.097  0.00  0.00    -0.009 A 
ATOM     24  C   UNL d   1      -0.317   3.802  -0.930  0.00  0.00     0.099 A 
ATOM     25  N   UNL d   1      -0.361   5.154  -1.008  0.00  0.00    -0.374 N 
ATOM     26  C   UNL d   1      -1.300   5.772  -0.266  0.00  0.00     0.087 A 
ATOM     27  HN  UNL d   1       0.284   5.678  -1.599  1.00  0.00     0.164 HD
ATOM     28  C   UNL d   1      -2.198   5.099   0.541  0.00  0.00     0.018 A 
ATOM     29  C   UNL d   1      -2.096   3.711   0.629  0.00  0.00     0.015 A 
ENDBRANCH   6  23
BRANCH   9  30
ATOM     30  C   UNL d   1      -3.187  -1.554  -0.128  0.00  0.00    -0.009 A 
ATOM     31  C   UNL d   1      -3.228  -2.817   0.490  0.00  0.00     0.016 A 
ATOM     32  C   UNL d   1      -4.354  -3.650   0.390  0.00  0.00     0.037 A 
ATOM     33  C   UNL d   1      -5.467  -3.238  -0.340  0.00  0.00     0.068 A 
ATOM     34  C   UNL d   1      -5.458  -1.984  -0.943  0.00  0.00     0.037 A 
ATOM     35  C   UNL d   1      -4.330  -1.161  -0.850  0.00  0.00     0.016 A 
BRANCH  33  36
ATOM     36  O   UNL d   1      -6.624  -3.951  -0.486  0.00  0.00    -0.356 OA
ATOM     37  C   UNL d   1      -6.460  -5.363  -0.567  0.00  0.00     0.210 C 
ENDBRANCH  33  36
ENDBRANCH   9  30
TORSDOF 6
