REMARK  6 active torsions:
REMARK  status: ('A' for Active; 'I' for Inactive)
REMARK    1  A    between atoms: C_10  and  N_1 
REMARK    2  A    between atoms: N_8  and  C_5 
REMARK       I    between atoms: C_7  and  N_8 
REMARK       I    between atoms: N_11  and  C_7 
REMARK    3  A    between atoms: C_9  and  O_12 
REMARK    4  A    between atoms: C_19  and  N_11 
REMARK    5  A    between atoms: O_12  and  C_20 
REMARK    6  A    between atoms: O_29  and  C_22 
ROOT
ATOM      1  C   UNL d   1      -0.429   3.194   1.059  0.00  0.00     0.325 C 
ATOM      2  N   UNL d   1      -0.765   2.482  -0.084  0.00  0.00    -0.305 N 
ATOM      3  N   UNL d   1      -1.185   4.350   1.196  0.00  0.00    -0.309 N 
ATOM      4  O   UNL d   1       0.409   2.820   1.871  0.00  0.00    -0.247 OA
ATOM      5  H   UNL d   1      -1.717   2.566  -0.405  0.00  0.00     0.171 HD
ATOM      6  H   UNL d   1      -1.981   4.457   0.591  0.00  0.00     0.170 HD
ENDROOT
BRANCH   2   7
ATOM      7  C   UNL d   1      -0.103   1.311  -0.447  0.00  0.00     0.077 C 
ATOM      8  C   UNL d   1       1.228   0.980  -0.272  0.00  0.00     0.059 C 
ATOM      9  N   UNL d   1       1.323  -0.369  -0.593  0.00  0.00    -0.259 N 
ATOM     10  C   UNL d   1       2.403   1.827   0.077  0.00  0.00     0.073 C 
ATOM     11  N   UNL d   1       0.249  -0.762  -1.333  0.00  0.00    -0.302 N 
ATOM     12  C   UNL d   1      -0.632   0.226  -1.169  0.00  0.00     0.139 C 
ATOM     13  HN  UNL d   1       0.144  -1.613  -1.885  1.00  0.00     0.186 HD
BRANCH   9  14
ATOM     14  C   UNL d   1       2.335  -1.306  -0.238  0.00  0.00     0.056 A 
ATOM     15  C   UNL d   1       3.144  -1.101   0.887  0.00  0.00     0.034 A 
ATOM     16  C   UNL d   1       4.129  -2.032   1.236  0.00  0.00     0.039 A 
ATOM     17  C   UNL d   1       4.313  -3.179   0.465  0.00  0.00     0.068 A 
ATOM     18  C   UNL d   1       3.480  -3.405  -0.632  0.00  0.00     0.039 A 
ATOM     19  C   UNL d   1       2.489  -2.481  -0.983  0.00  0.00     0.034 A 
BRANCH  17  20
ATOM     20  O   UNL d   1       5.234  -4.160   0.711  0.00  0.00    -0.356 OA
ATOM     21  C   UNL d   1       6.341  -3.794   1.527  0.00  0.00     0.210 C 
ENDBRANCH  17  20
ENDBRANCH   9  14
ENDBRANCH   2   7
BRANCH   3  22
ATOM     22  C   UNL d   1      -1.073   5.256   2.277  0.00  0.00     0.036 A 
ATOM     23  C   UNL d   1       0.045   5.316   3.111  0.00  0.00     0.032 A 
ATOM     24  C   UNL d   1       0.068   6.152   4.229  0.00  0.00     0.039 A 
ATOM     25  C   UNL d   1      -1.045   6.922   4.542  0.00  0.00     0.078 A 
ATOM     26  C   UNL d   1      -2.124   6.956   3.656  0.00  0.00     0.039 A 
ATOM     27  C   UNL d   1      -2.137   6.132   2.522  0.00  0.00     0.032 A 
BRANCH  25  28
ATOM     28  O   UNL d   1      -1.112   7.736   5.631  0.00  0.00    -0.255 OA
BRANCH  28  29
ATOM     29  C   UNL d   1      -0.768   7.151   6.889  0.00  0.00     0.530 C 
ATOM     30  F   UNL d   1      -0.215   5.925   6.811  0.00  0.00    -0.144 F 
ATOM     31  F   UNL d   1       0.102   7.969   7.522  0.00  0.00    -0.144 F 
ATOM     32  F   UNL d   1      -1.884   7.060   7.648  0.00  0.00    -0.144 F 
ENDBRANCH  28  29
ENDBRANCH  25  28
ENDBRANCH   3  22
TORSDOF 6
