REMARK  6 active torsions:
REMARK  status: ('A' for Active; 'I' for Inactive)
REMARK    1  A    between atoms: S_8  and  C_2 
REMARK    2  A    between atoms: C_6  and  O_12 
REMARK    3  A    between atoms: C_14  and  S_8 
REMARK    4  A    between atoms: C_11  and  C_14 
REMARK    5  A    between atoms: C_13  and  C_11 
REMARK    6  A    between atoms: O_12  and  C_21 
ROOT
ATOM      1  C   UNL d   1       5.008   3.756   0.119  0.00  0.00     0.169 C 
ATOM      2  O   UNL d   1       5.229   4.944   0.361  0.00  0.00    -0.291 OA
ENDROOT
BRANCH   1   3
ATOM      3  C   UNL d   1       3.618   3.128   0.098  0.00  0.00     0.165 C 
BRANCH   3   4
ATOM      4  S   UNL d   1       2.362   4.362  -0.333  0.00  0.00    -0.097 SA
BRANCH   4   5
ATOM      5  C   UNL d   1       0.919   3.379  -0.461  0.00  0.00     0.115 A 
ATOM      6  S   UNL d   1      -0.577   4.077  -0.940  0.00  0.00    -0.045 SA
ATOM      7  C   UNL d   1      -1.295   2.538  -0.874  0.00  0.00     0.103 A 
ATOM      8  C   UNL d   1      -0.361   1.591  -0.463  0.00  0.00     0.067 A 
ATOM      9  N   UNL d   1      -2.588   2.326  -1.195  0.00  0.00    -0.358 N 
ATOM     10  C   UNL d   1      -0.811   0.262  -0.357  0.00  0.00     0.034 A 
ATOM     11  N   UNL d   1       0.914   2.084  -0.220  0.00  0.00    -0.343 N 
ATOM     12  C   UNL d   1      -2.140  -0.011  -0.690  0.00  0.00     0.019 A 
ATOM     13  C   UNL d   1      -2.960   1.032  -1.094  0.00  0.00     0.089 A 
ATOM     14  HN  UNL d   1       1.714   1.535   0.093  1.00  0.00     0.167 HD
ATOM     15  HN  UNL d   1      -3.223   3.070  -1.486  1.00  0.00     0.166 HD
ENDBRANCH   4   5
ENDBRANCH   3   4
ENDBRANCH   1   3
BRANCH   1  16
ATOM     16  C   UNL d   1       6.174   2.866  -0.157  0.00  0.00     0.011 A 
ATOM     17  C   UNL d   1       7.319   3.417  -0.745  0.00  0.00     0.018 A 
ATOM     18  C   UNL d   1       8.427   2.609  -1.043  0.00  0.00     0.038 A 
ATOM     19  C   UNL d   1       8.414   1.258  -0.711  0.00  0.00     0.078 A 
ATOM     20  C   UNL d   1       7.263   0.714  -0.122  0.00  0.00     0.038 A 
ATOM     21  C   UNL d   1       6.151   1.510   0.160  0.00  0.00     0.018 A 
BRANCH  19  22
ATOM     22  O   UNL d   1       9.402   0.349  -0.915  0.00  0.00    -0.255 OA
BRANCH  22  23
ATOM     23  C   UNL d   1      10.751   0.771  -1.066  0.00  0.00     0.530 C 
ATOM     24  F   UNL d   1      10.990   2.011  -0.595  0.00  0.00    -0.144 F 
ATOM     25  F   UNL d   1      11.537  -0.085  -0.376  0.00  0.00    -0.144 F 
ATOM     26  F   UNL d   1      11.104   0.715  -2.367  0.00  0.00    -0.144 F 
ENDBRANCH  22  23
ENDBRANCH  19  22
ENDBRANCH   1  16
TORSDOF 6
