REMARK  5 active torsions:
REMARK  status: ('A' for Active; 'I' for Inactive)
REMARK    1  A    between atoms: C_7  and  C_3 
REMARK    2  A    between atoms: C_20  and  C_4 
REMARK    3  A    between atoms: C_8  and  N_19 
REMARK    4  A    between atoms: C_25  and  C_10 
REMARK    5  A    between atoms: N_19  and  N_17 
ROOT
ATOM      1  N   UNL d   1      -1.985   3.587   0.647  0.00  0.00    -0.311 N 
ATOM      2  HN  UNL d   1      -2.508   2.888   1.174  1.00  0.00     0.186 HD
ATOM      3  C   UNL d   1      -0.745   3.895   0.907  0.00  0.00     0.119 C 
ENDROOT
BRANCH   1   4
ATOM      4  N   UNL d   1      -2.513   4.279  -0.387  0.00  0.00    -0.299 N 
ATOM      5  H   UNL d   1      -2.359   5.293  -0.281  0.00  0.00     0.187 HD
BRANCH   4   6
ATOM      6  C   UNL d   1      -3.759   3.961  -0.982  0.00  0.00     0.085 A 
ATOM      7  C   UNL d   1      -4.558   5.025  -1.477  0.00  0.00     0.079 A 
ATOM      8  C   UNL d   1      -5.759   4.759  -2.135  0.00  0.00     0.042 A 
ATOM      9  C   UNL d   1      -6.176   3.454  -2.362  0.00  0.00     0.036 A 
ATOM     10  C   UNL d   1      -5.401   2.390  -1.925  0.00  0.00     0.050 A 
ATOM     11 CL   UNL d   1      -7.647   3.155  -3.207  0.00  0.00    -0.084 Cl
ATOM     12  C   UNL d   1      -4.191   2.634  -1.239  0.00  0.00     0.064 A 
ATOM     13 CL   UNL d   1      -3.243   1.238  -0.877  0.00  0.00    -0.082 Cl
BRANCH   7  14
ATOM     14  C   UNL d   1      -4.160   6.484  -1.342  0.00  0.00     0.419 C 
ATOM     15  F   UNL d   1      -2.966   6.701  -0.739  0.00  0.00    -0.166 F 
ATOM     16  F   UNL d   1      -4.085   7.101  -2.554  0.00  0.00    -0.166 F 
ATOM     17  F   UNL d   1      -5.076   7.190  -0.619  0.00  0.00    -0.166 F 
ENDBRANCH   7  14
ENDBRANCH   4   6
ENDBRANCH   1   4
BRANCH   3  18
ATOM     18  C   UNL d   1       0.204   4.721   0.095  0.00  0.00    -0.007 C 
ATOM     19  C   UNL d   1       1.227   5.516   0.515  0.00  0.00    -0.008 C 
ATOM     20  C   UNL d   1       2.158   5.468  -0.603  0.00  0.00    -0.018 C 
ATOM     21  C   UNL d   1       1.109   6.763   1.282  0.00  0.00    -0.050 C 
ATOM     22  C   UNL d   1       3.461   5.755  -0.598  0.00  0.00     0.020 C 
ATOM     23  C   UNL d   1       1.422   5.134  -1.794  0.00  0.00    -0.050 C 
ATOM     24  C   UNL d   1       4.205   6.458   0.428  0.00  0.00    -0.054 C 
ATOM     25  C   UNL d   1       3.606   7.257   1.338  0.00  0.00     0.008 C 
ATOM     26  C   UNL d   1       2.189   7.532   1.548  0.00  0.00     0.008 C 
ATOM     27  C   UNL d   1       0.279   4.578  -1.370  0.00  0.00     0.021 C 
ATOM     28  C   UNL d   1       1.671   5.849  -3.068  0.00  0.00     0.049 C 
ATOM     29  C   UNL d   1      -0.268   7.347   1.437  0.00  0.00     0.049 C 
BRANCH  24  30
ATOM     30  C   UNL d   1       5.736   6.470   0.276  0.00  0.00     0.010 C 
ATOM     31  C   UNL d   1       6.403   5.329   1.046  0.00  0.00     0.015 C 
ATOM     32  C   UNL d   1       6.239   6.471  -1.181  0.00  0.00     0.015 C 
ENDBRANCH  24  30
ENDBRANCH   3  18
TORSDOF 5
