REMARK  3 active torsions:
REMARK  status: ('A' for Active; 'I' for Inactive)
REMARK       I    between atoms: N_2  and  C_1 
REMARK    1  A    between atoms: C_3  and  C_1 
REMARK       I    between atoms: C_4  and  N_2 
REMARK    2  A    between atoms: C_5  and  C_4 
REMARK       I    between atoms: N_6  and  C_5 
REMARK    3  A    between atoms: C_12  and  N_6 
ROOT
ATOM      1  C   UNL d   1      -0.672  -0.814  -0.055  0.00  0.00     0.262 C 
ATOM      2  N   UNL d   1       0.534  -1.329  -0.483  0.00  0.00    -0.285 N 
ATOM      3  C   UNL d   1       1.068  -2.502   0.007  0.00  0.00     0.316 C 
ATOM      4  O   UNL d   1      -1.473  -1.400   0.663  0.00  0.00    -0.267 OA
ATOM      5  O   UNL d   1       0.496  -3.459   0.510  0.00  0.00    -0.262 OA
ATOM      6  H   UNL d   1       1.210  -0.707  -0.915  0.00  0.00     0.172 HD
ENDROOT
BRANCH   1   7
ATOM      7  C   UNL d   1      -1.006   0.561  -0.504  0.00  0.00     0.075 A 
ATOM      8  C   UNL d   1      -2.263   0.823  -1.075  0.00  0.00     0.051 A 
ATOM      9 CL   UNL d   1      -3.396  -0.421  -1.482  0.00  0.00    -0.083 Cl
ATOM     10  C   UNL d   1      -2.642   2.135  -1.391  0.00  0.00     0.025 A 
ATOM     11  C   UNL d   1      -1.769   3.195  -1.157  0.00  0.00     0.003 A 
ATOM     12  C   UNL d   1      -0.512   2.944  -0.614  0.00  0.00     0.025 A 
ATOM     13  C   UNL d   1      -0.131   1.637  -0.280  0.00  0.00     0.051 A 
ATOM     14 CL   UNL d   1       1.431   1.448   0.438  0.00  0.00    -0.083 Cl
ENDBRANCH   1   7
BRANCH   3  15
ATOM     15  C   UNL d   1       2.587  -2.600  -0.217  0.00  0.00     0.314 C 
ATOM     16  N   UNL d   1       3.099  -3.787   0.263  0.00  0.00    -0.319 N 
ATOM     17  H   UNL d   1       2.400  -4.408   0.667  0.00  0.00     0.169 HD
ATOM     18  O   UNL d   1       3.151  -1.668  -0.771  0.00  0.00    -0.262 OA
BRANCH  16  19
ATOM     19  C   UNL d   1       4.431  -4.232   0.248  0.00  0.00     0.035 A 
ATOM     20  C   UNL d   1       5.496  -3.479  -0.245  0.00  0.00     0.029 A 
ATOM     21  C   UNL d   1       6.796  -3.997  -0.225  0.00  0.00     0.002 A 
ATOM     22  C   UNL d   1       7.038  -5.271   0.287  0.00  0.00     0.000 A 
ATOM     23  C   UNL d   1       5.981  -6.028   0.783  0.00  0.00     0.002 A 
ATOM     24  C   UNL d   1       4.684  -5.510   0.765  0.00  0.00     0.029 A 
ENDBRANCH  16  19
ENDBRANCH   3  15
TORSDOF 3
