REMARK  3 active torsions:
REMARK  status: ('A' for Active; 'I' for Inactive)
REMARK    1  A    between atoms: C_7  and  C_10 
REMARK    2  A    between atoms: C_18  and  N_11 
REMARK    3  A    between atoms: C_15  and  C_12 
ROOT
ATOM      1  C   UNL d   1       2.001  -3.166   0.427  0.00  0.00     0.011 A 
ATOM      2  N   UNL d   1       4.000  -4.132  -0.019  0.00  0.00    -0.293 N 
ATOM      3  HN  UNL d   1       4.746  -4.678  -0.450  1.00  0.00     0.187 HD
ATOM      4  N   UNL d   1       4.086  -3.363   1.095  0.00  0.00    -0.266 N 
ATOM      5  C   UNL d   1       2.728  -4.024  -0.439  0.00  0.00     0.070 A 
ATOM      6  C   UNL d   1       2.866  -2.823   1.433  0.00  0.00     0.130 A 
ENDROOT
BRANCH   1   7
ATOM      7  C   UNL d   1       0.685  -2.633   0.301  0.00  0.00     0.038 C 
ATOM      8  C   UNL d   1       0.373  -1.454  -0.278  0.00  0.00     0.101 C 
ATOM      9  C   UNL d   1      -1.037  -1.018  -0.233  0.00  0.00     0.267 C 
ATOM     10  C   UNL d   1       1.392  -0.578  -0.901  0.00  0.00     0.267 C 
ATOM     11  N   UNL d   1      -1.252   0.304  -0.579  0.00  0.00    -0.270 N 
ATOM     12  O   UNL d   1      -1.930  -1.790   0.109  0.00  0.00    -0.267 OA
ATOM     13  C   UNL d   1      -2.613   0.814  -0.539  0.00  0.00     0.164 C 
ATOM     14  C   UNL d   1      -0.266   1.224  -0.912  0.00  0.00     0.333 C 
ATOM     15  N   UNL d   1       1.030   0.746  -1.004  0.00  0.00    -0.270 N 
ATOM     16  O   UNL d   1      -0.534   2.406  -1.135  0.00  0.00    -0.246 OA
ATOM     17  C   UNL d   1       2.049   1.690  -1.438  0.00  0.00     0.164 C 
ATOM     18  O   UNL d   1       2.468  -1.005  -1.308  0.00  0.00    -0.267 OA
ENDBRANCH   1   7
BRANCH   5  19
ATOM     19  C   UNL d   1       2.268  -4.704  -1.651  0.00  0.00    -0.007 A 
ATOM     20  C   UNL d   1       0.966  -5.213  -1.740  0.00  0.00     0.014 A 
ATOM     21  C   UNL d   1       0.526  -5.849  -2.904  0.00  0.00     0.007 A 
ATOM     22  C   UNL d   1       1.386  -5.998  -3.997  0.00  0.00    -0.062 A 
ATOM     23  C   UNL d   1       2.692  -5.507  -3.908  0.00  0.00     0.007 A 
ATOM     24  C   UNL d   1       0.895  -6.676  -5.241  0.00  0.00     0.048 C 
ATOM     25  C   UNL d   1       3.130  -4.866  -2.744  0.00  0.00     0.014 A 
ENDBRANCH   5  19
BRANCH   4  26
ATOM     26  C   UNL d   1       5.322  -3.197   1.780  0.00  0.00     0.056 A 
ATOM     27  C   UNL d   1       5.383  -2.529   3.011  0.00  0.00     0.031 A 
ATOM     28  C   UNL d   1       6.600  -2.413   3.686  0.00  0.00     0.002 A 
ATOM     29  C   UNL d   1       7.762  -2.945   3.131  0.00  0.00     0.000 A 
ATOM     30  C   UNL d   1       7.714  -3.586   1.895  0.00  0.00     0.002 A 
ATOM     31  C   UNL d   1       6.498  -3.716   1.220  0.00  0.00     0.031 A 
ENDBRANCH   4  26
TORSDOF 3
