REMARK  9 active torsions:
REMARK  status: ('A' for Active; 'I' for Inactive)
REMARK    1  A    between atoms: C_3  and  C_1 
REMARK    2  A    between atoms: C_1  and  O_7 
REMARK    3  A    between atoms: C_2  and  C_1 
REMARK    4  A    between atoms: C_2  and  O_8 
REMARK    5  A    between atoms: C_2  and  C_4 
REMARK    6  A    between atoms: C_4  and  C_11 
REMARK    7  A    between atoms: C_4  and  O_9 
REMARK    8  A    between atoms: O_10  and  C_11 
REMARK    9  A    between atoms: K_16  and  K_16 
ROOT
ATOM      1  K   UNL d   2      -1.142   0.715   2.358  0.00  0.00     0.000 K 
ENDROOT
TORSDOF 9
