REMARK  7 active torsions:
REMARK  status: ('A' for Active; 'I' for Inactive)
REMARK    1  A    between atoms: C_4  and  C_1 
REMARK    2  A    between atoms: C_2  and  C_3 
REMARK       I    between atoms: N_8  and  C_4 
REMARK    3  A    between atoms: O_13  and  C_5 
REMARK    4  A    between atoms: C_6  and  C_16 
REMARK    5  A    between atoms: C_14  and  N_8 
REMARK    6  A    between atoms: C_9  and  C_14 
REMARK    7  A    between atoms: C_16  and  O_13 
ROOT
ATOM      1  C   UNL d   1       0.894   1.285  -0.050  0.00  0.00     0.098 A 
ATOM      2  C   UNL d   1       1.780   0.226   0.206  0.00  0.00     0.069 A 
ATOM      3  C   UNL d   1      -0.456   0.966  -0.269  0.00  0.00     0.159 A 
ATOM      4  N   UNL d   1      -0.957  -0.294  -0.221  0.00  0.00    -0.346 N 
ATOM      5  HN  UNL d   1      -1.946  -0.478  -0.385  1.00  0.00     0.167 HD
ATOM      6  C   UNL d   1      -0.097  -1.288   0.051  0.00  0.00     0.091 A 
ATOM      7  C   UNL d   1       1.255  -1.083   0.246  0.00  0.00     0.034 A 
ENDROOT
BRANCH   1   8
ATOM      8  C   UNL d   1       1.247   2.722   0.040  0.00  0.00     0.257 C 
ATOM      9  N   UNL d   1       2.346   3.176  -0.667  0.00  0.00    -0.352 N 
ATOM     10  H   UNL d   1       2.850   2.565  -1.296  0.00  0.00     0.163 HD
ATOM     11  O   UNL d   1       0.559   3.462   0.730  0.00  0.00    -0.267 OA
BRANCH   9  12
ATOM     12  C   UNL d   1       2.683   4.584  -0.686  0.00  0.00     0.163 C 
BRANCH  12  13
ATOM     13  C   UNL d   1       4.158   4.918  -0.798  0.00  0.00    -0.019 A 
ATOM     14  C   UNL d   1       5.095   4.224  -1.581  0.00  0.00     0.043 A 
ATOM     15  C   UNL d   1       6.427   4.653  -1.661  0.00  0.00     0.048 A 
ATOM     16 CL   UNL d   1       4.677   2.835  -2.524  0.00  0.00    -0.084 Cl
ATOM     17  C   UNL d   1       6.834   5.800  -0.987  0.00  0.00     0.035 A 
ATOM     18  C   UNL d   1       5.923   6.525  -0.230  0.00  0.00     0.024 A 
ATOM     19 CL   UNL d   1       8.464   6.335  -1.110  0.00  0.00    -0.084 Cl
ATOM     20  C   UNL d   1       4.599   6.086  -0.136  0.00  0.00     0.012 A 
ENDBRANCH  12  13
ENDBRANCH   9  12
ENDBRANCH   1   8
BRANCH   2  21
ATOM     21  C   UNL d   1       3.260   0.347   0.444  0.00  0.00     0.418 C 
ATOM     22  F   UNL d   1       3.753   1.591   0.636  0.00  0.00    -0.166 F 
ATOM     23  F   UNL d   1       3.660  -0.372   1.530  0.00  0.00    -0.166 F 
ATOM     24  F   UNL d   1       3.961  -0.171  -0.607  0.00  0.00    -0.166 F 
ENDBRANCH   2  21
BRANCH   3  25
ATOM     25  O   UNL d   1      -1.315   1.962  -0.683  0.00  0.00    -0.326 OA
BRANCH  25  26
ATOM     26  C   UNL d   1      -2.710   1.632  -0.609  0.00  0.00     0.294 C 
BRANCH  26  27
ATOM     27  C   UNL d   1      -3.305   1.784   0.787  0.00  0.00     0.408 C 
ATOM     28  F   UNL d   1      -2.469   2.385   1.658  0.00  0.00    -0.169 F 
ATOM     29  F   UNL d   1      -4.433   2.541   0.733  0.00  0.00    -0.169 F 
ATOM     30  F   UNL d   1      -3.661   0.591   1.315  0.00  0.00    -0.169 F 
ENDBRANCH  26  27
ENDBRANCH  25  26
ENDBRANCH   3  25
TORSDOF 7
