REMARK  3 active torsions:
REMARK  status: ('A' for Active; 'I' for Inactive)
REMARK    1  A    between atoms: N_2  and  S_1 
REMARK    2  A    between atoms: C_4  and  S_1 
REMARK    3  A    between atoms: C_11  and  C_3 
ROOT
ATOM      1  N   UNL d   1       0.248   0.133   1.517  0.00  0.00    -0.303 N 
ATOM      2  C   UNL d   1      -1.581   0.293   3.705  0.00  0.00    -0.049 C 
ATOM      3  C   UNL d   1      -1.202   1.415   3.074  0.00  0.00     0.001 C 
ATOM      4  C   UNL d   1      -0.255   1.464   1.913  0.00  0.00     0.163 C 
ATOM      5  C   UNL d   1      -0.620  -1.030   1.818  0.00  0.00     0.140 C 
ATOM      6  C   UNL d   1      -1.053  -1.046   3.284  0.00  0.00     0.060 C 
ENDROOT
BRANCH   1   7
ATOM      7  S   UNL d   1       1.111   0.085   0.050  0.00  0.00     0.261 S 
ATOM      8  O   UNL d   1       1.865  -1.149   0.024  0.00  0.00    -0.200 OA
ATOM      9  O   UNL d   1       1.758   1.362  -0.142  0.00  0.00    -0.200 OA
BRANCH   7  10
ATOM     10  C   UNL d   1      -0.159  -0.069  -1.207  0.00  0.00     0.079 A 
ATOM     11  C   UNL d   1      -0.683   1.071  -1.829  0.00  0.00     0.028 A 
ATOM     12  C   UNL d   1      -1.609   0.923  -2.866  0.00  0.00     0.044 A 
ATOM     13  C   UNL d   1      -1.985  -0.351  -3.283  0.00  0.00     0.116 A 
ATOM     14  C   UNL d   1      -1.452  -1.488  -2.684  0.00  0.00     0.044 A 
ATOM     15  F   UNL d   1      -2.861  -0.486  -4.287  0.00  0.00    -0.206 F 
ATOM     16  C   UNL d   1      -0.528  -1.349  -1.647  0.00  0.00     0.028 A 
ENDBRANCH   7  10
ENDBRANCH   1   7
BRANCH   2  17
ATOM     17  C   UNL d   1      -2.553   0.336   4.801  0.00  0.00    -0.030 A 
ATOM     18  C   UNL d   1      -3.926   0.323   4.523  0.00  0.00     0.012 A 
ATOM     19  C   UNL d   1      -4.857   0.341   5.564  0.00  0.00     0.001 A 
ATOM     20  C   UNL d   1      -4.421   0.379   6.888  0.00  0.00     0.000 A 
ATOM     21  C   UNL d   1      -3.056   0.411   7.171  0.00  0.00     0.001 A 
ATOM     22  C   UNL d   1      -2.123   0.392   6.131  0.00  0.00     0.012 A 
ENDBRANCH   2  17
TORSDOF 3
