REMARK  5 active torsions:
REMARK  status: ('A' for Active; 'I' for Inactive)
REMARK    1  A    between atoms: C_7  and  C_1 
REMARK    2  A    between atoms: C_9  and  N_2 
REMARK       I    between atoms: N_11  and  C_7 
REMARK    3  A    between atoms: N_8  and  C_12 
REMARK    4  A    between atoms: C_22  and  N_11 
REMARK    5  A    between atoms: C_25  and  C_22 
ROOT
ATOM      1  C   UNL d   1      -0.778   2.454  -0.042  0.00  0.00     0.255 C 
ATOM      2  N   UNL d   1      -0.050   3.617  -0.231  0.00  0.00    -0.353 N 
ATOM      3  O   UNL d   1      -0.249   1.451   0.444  0.00  0.00    -0.268 OA
ATOM      4  H   UNL d   1      -0.387   4.322  -0.869  0.00  0.00     0.163 HD
ENDROOT
BRANCH   1   5
ATOM      5  C   UNL d   1      -2.180   2.405  -0.436  0.00  0.00     0.073 A 
ATOM      6  C   UNL d   1      -3.092   3.369  -0.856  0.00  0.00     0.048 A 
ATOM      7  N   UNL d   1      -4.308   2.699  -1.036  0.00  0.00    -0.260 N 
ATOM      8  C   UNL d   1      -2.948   4.846  -0.956  0.00  0.00     0.071 C 
ATOM      9  N   UNL d   1      -4.232   1.407  -0.641  0.00  0.00    -0.304 N 
ATOM     10  C   UNL d   1      -2.952   1.225  -0.345  0.00  0.00     0.126 A 
ATOM     11  HN  UNL d   1      -4.990   0.726  -0.585  1.00  0.00     0.186 HD
BRANCH   7  12
ATOM     12  C   UNL d   1      -5.562   3.211  -1.470  0.00  0.00     0.056 A 
ATOM     13  C   UNL d   1      -5.640   4.223  -2.432  0.00  0.00     0.033 A 
ATOM     14  C   UNL d   1      -6.876   4.796  -2.740  0.00  0.00     0.026 A 
ATOM     15  C   UNL d   1      -8.030   4.353  -2.092  0.00  0.00     0.034 A 
ATOM     16  C   UNL d   1      -7.970   3.297  -1.186  0.00  0.00     0.026 A 
ATOM     17 CL   UNL d   1      -9.533   5.130  -2.404  0.00  0.00    -0.084 Cl
ATOM     18  C   UNL d   1      -6.739   2.706  -0.891  0.00  0.00     0.033 A 
ENDBRANCH   7  12
ENDBRANCH   1   5
BRANCH   2  19
ATOM     19  C   UNL d   1       1.366   3.529   0.060  0.00  0.00     0.161 C 
BRANCH  19  20
ATOM     20  C   UNL d   1       2.204   4.773  -0.078  0.00  0.00    -0.040 A 
ATOM     21  C   UNL d   1       1.754   6.062   0.191  0.00  0.00     0.011 A 
ATOM     22  C   UNL d   1       2.646   7.153   0.134  0.00  0.00     0.030 A 
ATOM     23  C   UNL d   1       4.008   6.991  -0.178  0.00  0.00     0.030 A 
ATOM     24  C   UNL d   1       4.448   5.689  -0.421  0.00  0.00     0.030 A 
ATOM     25  C   UNL d   1       3.569   4.601  -0.364  0.00  0.00     0.011 A 
BRANCH  23  26
ATOM     26  N   UNL d   1       4.839   8.110  -0.284  0.00  0.00    -0.378 N 
ATOM     27  C   UNL d   1       6.094   7.996  -1.054  0.00  0.00     0.153 C 
ATOM     28  C   UNL d   1       6.623   9.409  -1.395  0.00  0.00     0.291 C 
ATOM     29  N   UNL d   1       6.835  10.253  -0.197  0.00  0.00     0.087 N 
ATOM     30  C   UNL d   1       5.590  10.294   0.606  0.00  0.00     0.291 C 
ATOM     31  C   UNL d   1       7.231  11.604  -0.595  0.00  0.00     0.310 C 
ATOM     32  C   UNL d   1       5.037   8.889   0.959  0.00  0.00     0.153 C 
ENDBRANCH  23  26
ENDBRANCH  19  20
ENDBRANCH   2  19
TORSDOF 5
