REMARK  3 active torsions:
REMARK  status: ('A' for Active; 'I' for Inactive)
REMARK    1  A    between atoms: C_10  and  C_15 
REMARK    2  A    between atoms: O_17  and  C_13 
REMARK    3  A    between atoms: C_15  and  O_17 
ROOT
ATOM      1  C   UNL d   1      -0.010  -0.843  -0.023  0.00  0.00     0.049 A 
ATOM      2  C   UNL d   1      -1.333  -1.516  -0.012  0.00  0.00     0.165 C 
ATOM      3  C   UNL d   1      -0.026   0.565  -0.013  0.00  0.00     0.086 A 
ATOM      4  O   UNL d   1      -1.164   1.336  -0.050  0.00  0.00    -0.340 OA
ATOM      5  C   UNL d   1       1.219  -1.526  -0.034  0.00  0.00    -0.043 A 
ATOM      6  C   UNL d   1      -2.369   0.654  -0.440  0.00  0.00     0.067 C 
ATOM      7  C   UNL d   1      -2.504  -0.651   0.333  0.00  0.00     0.121 C 
ATOM      8  C   UNL d   1       1.173   1.286   0.024  0.00  0.00     0.074 A 
ATOM      9  C   UNL d   1       2.413  -0.771  -0.025  0.00  0.00     0.044 A 
ATOM     10  C   UNL d   1       2.399   0.625   0.013  0.00  0.00     0.072 A 
ATOM     11  O   UNL d   1      -1.489  -2.708  -0.260  0.00  0.00    -0.292 OA
ATOM     12  C   UNL d   1       1.394  -3.021  -0.074  0.00  0.00     0.049 C 
ATOM     13  C   UNL d   1      -2.393   0.460  -1.968  0.00  0.00     0.046 C 
ATOM     14  C   UNL d   1      -3.545   1.566  -0.059  0.00  0.00     0.046 C 
ENDROOT
BRANCH  10  15
ATOM     15  O   UNL d   1       3.507   1.432   0.033  0.00  0.00    -0.347 OA
BRANCH  15  16
ATOM     16  C   UNL d   1       4.780   0.772   0.001  0.00  0.00     0.216 C 
BRANCH  16  17
ATOM     17  C   UNL d   1       5.943   1.745   0.034  0.00  0.00    -0.012 A 
ATOM     18  C   UNL d   1       7.269   1.269   0.014  0.00  0.00     0.044 A 
ATOM     19  C   UNL d   1       8.353   2.149   0.057  0.00  0.00     0.048 A 
ATOM     20 CL   UNL d   1       7.620  -0.424  -0.064  0.00  0.00    -0.084 Cl
ATOM     21  C   UNL d   1       8.123   3.519   0.120  0.00  0.00     0.035 A 
ATOM     22  C   UNL d   1       6.822   4.015   0.135  0.00  0.00     0.024 A 
ATOM     23 CL   UNL d   1       9.454   4.607   0.182  0.00  0.00    -0.084 Cl
ATOM     24  C   UNL d   1       5.739   3.133   0.091  0.00  0.00     0.013 A 
ENDBRANCH  16  17
ENDBRANCH  15  16
ENDBRANCH  10  15
TORSDOF 3
