REMARK  4 active torsions:
REMARK  status: ('A' for Active; 'I' for Inactive)
REMARK    1  A    between atoms: C_2  and  C_1 
REMARK       I    between atoms: C_3  and  N_5 
REMARK       I    between atoms: N_9  and  C_3 
REMARK    2  A    between atoms: N_5  and  C_4 
REMARK    3  A    between atoms: C_7  and  C_11 
REMARK    4  A    between atoms: C_11  and  N_9 
ROOT
ATOM      1  C   UNL d   1       1.438   1.614  -1.842  0.00  0.00     0.321 C 
ATOM      2  N   UNL d   1       1.113   2.455  -0.800  0.00  0.00    -0.307 N 
ATOM      3  N   UNL d   1       0.840   0.376  -1.694  0.00  0.00    -0.339 N 
ATOM      4  O   UNL d   1       2.167   1.891  -2.781  0.00  0.00    -0.247 OA
ATOM      5  H   UNL d   1       0.756   1.983   0.017  0.00  0.00     0.170 HD
ATOM      6  H   UNL d   1       0.755   0.046  -0.746  0.00  0.00     0.164 HD
ENDROOT
BRANCH   2   7
ATOM      7  C   UNL d   1       1.628   3.759  -0.602  0.00  0.00     0.066 A 
ATOM      8  C   UNL d   1       1.974   4.696  -1.583  0.00  0.00     0.077 A 
ATOM      9  C   UNL d   1       2.643   5.872  -1.173  0.00  0.00     0.035 A 
ATOM     10  C   UNL d   1       2.836   6.122   0.173  0.00  0.00     0.088 A 
ATOM     11  N   UNL d   1       2.402   5.297   1.140  0.00  0.00    -0.373 N 
ATOM     12  C   UNL d   1       1.815   4.148   0.732  0.00  0.00     0.117 A 
ATOM     13  HN  UNL d   1       2.509   5.525   2.129  1.00  0.00     0.164 HD
BRANCH   8  14
ATOM     14  C   UNL d   1       1.578   4.633  -3.038  0.00  0.00     0.419 C 
ATOM     15  F   UNL d   1       0.534   3.810  -3.328  0.00  0.00    -0.166 F 
ATOM     16  F   UNL d   1       2.604   4.318  -3.873  0.00  0.00    -0.166 F 
ATOM     17  F   UNL d   1       1.152   5.865  -3.471  0.00  0.00    -0.166 F 
ENDBRANCH   8  14
ENDBRANCH   2   7
BRANCH   3  18
ATOM     18  C   UNL d   1       1.102  -0.645  -2.688  0.00  0.00     0.166 C 
BRANCH  18  19
ATOM     19  C   UNL d   1       0.500  -1.976  -2.319  0.00  0.00    -0.002 A 
ATOM     20  C   UNL d   1       0.914  -2.645  -1.159  0.00  0.00     0.127 A 
ATOM     21  C   UNL d   1       0.420  -3.898  -0.819  0.00  0.00     0.085 A 
ATOM     22  F   UNL d   1       1.806  -2.062  -0.343  0.00  0.00    -0.205 F 
ATOM     23  C   UNL d   1      -0.507  -4.500  -1.656  0.00  0.00     0.119 A 
ATOM     24  C   UNL d   1      -0.945  -3.865  -2.814  0.00  0.00     0.043 A 
ATOM     25  F   UNL d   1      -0.986  -5.711  -1.347  0.00  0.00    -0.206 F 
ATOM     26  C   UNL d   1      -0.443  -2.603  -3.147  0.00  0.00     0.015 A 
ENDBRANCH  18  19
ENDBRANCH   3  18
TORSDOF 4
