REMARK  3 active torsions:
REMARK  status: ('A' for Active; 'I' for Inactive)
REMARK    1  A    between atoms: C_2  and  S_1 
REMARK    2  A    between atoms: N_3  and  S_1 
REMARK    3  A    between atoms: C_16  and  C_4 
ROOT
ATOM      1  N   UNL d   1       0.359  -1.353   0.625  0.00  0.00    -0.303 N 
ATOM      2  C   UNL d   1      -0.934  -3.819   1.331  0.00  0.00    -0.049 C 
ATOM      3  C   UNL d   1      -1.669  -2.726   1.084  0.00  0.00     0.001 C 
ATOM      4  C   UNL d   1      -1.110  -1.378   0.762  0.00  0.00     0.163 C 
ATOM      5  C   UNL d   1       1.079  -2.633   0.428  0.00  0.00     0.140 C 
ATOM      6  C   UNL d   1       0.561  -3.766   1.313  0.00  0.00     0.060 C 
ENDROOT
BRANCH   1   7
ATOM      7  S   UNL d   1       0.989   0.008  -0.175  0.00  0.00     0.261 S 
ATOM      8  O   UNL d   1       0.081   1.119   0.012  0.00  0.00    -0.200 OA
ATOM      9  O   UNL d   1       2.389   0.118   0.165  0.00  0.00    -0.200 OA
BRANCH   7  10
ATOM     10  C   UNL d   1       0.925  -0.433  -1.911  0.00  0.00     0.083 A 
ATOM     11  C   UNL d   1      -0.192  -0.115  -2.687  0.00  0.00     0.049 A 
ATOM     12  C   UNL d   1      -0.175  -0.407  -4.053  0.00  0.00     0.037 A 
ATOM     13 CL   UNL d   1      -1.544  -0.027  -5.024  0.00  0.00    -0.084 Cl
ATOM     14  C   UNL d   1       0.941  -1.000  -4.646  0.00  0.00     0.047 A 
ATOM     15  C   UNL d   1       2.054  -1.292  -3.864  0.00  0.00     0.037 A 
ATOM     16  C   UNL d   1       2.058  -1.003  -2.502  0.00  0.00     0.049 A 
ATOM     17 CL   UNL d   1       3.439  -2.015  -4.584  0.00  0.00    -0.084 Cl
ENDBRANCH   7  10
ENDBRANCH   1   7
BRANCH   2  18
ATOM     18  C   UNL d   1      -1.578  -5.105   1.616  0.00  0.00    -0.030 A 
ATOM     19  C   UNL d   1      -1.953  -5.952   0.566  0.00  0.00     0.012 A 
ATOM     20  C   UNL d   1      -2.551  -7.185   0.835  0.00  0.00     0.001 A 
ATOM     21  C   UNL d   1      -2.784  -7.573   2.154  0.00  0.00     0.000 A 
ATOM     22  C   UNL d   1      -2.430  -6.725   3.203  0.00  0.00     0.001 A 
ATOM     23  C   UNL d   1      -1.831  -5.493   2.936  0.00  0.00     0.012 A 
ENDBRANCH   2  18
TORSDOF 3
