REMARK  4 active torsions:
REMARK  status: ('A' for Active; 'I' for Inactive)
REMARK    1  A    between atoms: C_2  and  S_1 
REMARK    2  A    between atoms: N_12  and  S_1 
REMARK    3  A    between atoms: C_11  and  C_15 
REMARK    4  A    between atoms: C_16  and  N_12 
ROOT
ATOM      1  S   UNL d   1       0.908  -0.241   0.014  0.00  0.00     0.249 S 
ATOM      2  O   UNL d   1       0.401   0.816  -0.825  0.00  0.00    -0.205 OA
ATOM      3  O   UNL d   1       2.333  -0.398   0.205  0.00  0.00    -0.205 OA
ENDROOT
BRANCH   1   4
ATOM      4  C   UNL d   1       0.373  -1.701  -0.721  0.00  0.00     0.120 A 
ATOM      5  C   UNL d   1      -0.799  -1.875  -1.522  0.00  0.00     0.068 A 
ATOM      6  C   UNL d   1      -0.782  -3.213  -1.909  0.00  0.00     0.132 A 
ATOM      7  C   UNL d   1      -1.881  -1.095  -1.979  0.00  0.00     0.172 A 
ATOM      8  C   UNL d   1      -1.740  -3.803  -2.733  0.00  0.00     0.192 A 
ATOM      9  O   UNL d   1       0.284  -3.852  -1.363  0.00  0.00    -0.310 OA
ATOM     10  F   UNL d   1      -1.679  -5.100  -3.062  0.00  0.00    -0.200 F 
ATOM     11  C   UNL d   1      -2.770  -2.995  -3.197  0.00  0.00     0.199 A 
ATOM     12  C   UNL d   1      -2.844  -1.661  -2.823  0.00  0.00     0.197 A 
ATOM     13  F   UNL d   1      -3.710  -3.516  -3.999  0.00  0.00    -0.199 F 
ATOM     14  F   UNL d   1      -3.858  -0.905  -3.269  0.00  0.00    -0.199 F 
ATOM     15  C   UNL d   1       0.984  -2.939  -0.631  0.00  0.00     0.073 A 
ATOM     16  C   UNL d   1       2.170  -3.494   0.056  0.00  0.00     0.078 C 
ATOM     17  F   UNL d   1      -2.029   0.178  -1.595  0.00  0.00    -0.202 F 
ENDBRANCH   1   4
BRANCH   1  18
ATOM     18  N   UNL d   1       0.162  -0.081   1.521  0.00  0.00    -0.181 NA
ATOM     19  H   UNL d   1       0.211   0.902   1.795  0.00  0.00     0.146 HD
BRANCH  18  20
ATOM     20  C   UNL d   1       0.542  -0.977   2.565  0.00  0.00     0.023 A 
ATOM     21  C   UNL d   1      -0.321  -2.026   2.883  0.00  0.00     0.040 A 
ATOM     22  C   UNL d   1      -0.069  -2.837   4.002  0.00  0.00     0.049 A 
ATOM     23  C   UNL d   1       1.093  -2.612   4.758  0.00  0.00     0.016 A 
ATOM     24  C   UNL d   1       1.978  -1.591   4.407  0.00  0.00     0.003 A 
ATOM     25  C   UNL d   1       1.700  -0.768   3.313  0.00  0.00     0.024 A 
BRANCH  22  26
ATOM     26  C   UNL d   1      -1.055  -3.896   4.431  0.00  0.00     0.417 C 
ATOM     27  F   UNL d   1      -2.156  -3.966   3.633  0.00  0.00    -0.166 F 
ATOM     28  F   UNL d   1      -0.514  -5.144   4.435  0.00  0.00    -0.166 F 
ATOM     29  F   UNL d   1      -1.523  -3.684   5.692  0.00  0.00    -0.166 F 
ENDBRANCH  22  26
ENDBRANCH  18  20
ENDBRANCH   1  18
TORSDOF 4
