REMARK  8 active torsions:
REMARK  status: ('A' for Active; 'I' for Inactive)
REMARK    1  A    between atoms: N_5  and  C_1 
REMARK    2  A    between atoms: S_8  and  C_1 
REMARK    3  A    between atoms: C_2  and  N_6 
REMARK    4  A    between atoms: S_7  and  C_2 
REMARK    5  A    between atoms: C_3  and  C_10 
REMARK    6  A    between atoms: C_4  and  C_9 
REMARK    7  A    between atoms: C_9  and  S_7 
REMARK    8  A    between atoms: C_10  and  S_8 
ROOT
ATOM      1  N   UNL d   1       0.092  -0.636  -1.129  0.00  0.00    -0.363 N 
ATOM      2  N   UNL d   1      -0.093  -0.663  -4.036  0.00  0.00    -0.363 N 
ATOM      3  C   UNL d   1       0.498  -1.829  -1.895  0.00  0.00     0.144 C 
ATOM      4  C   UNL d   1      -0.865   0.235  -1.834  0.00  0.00     0.144 C 
ATOM      5  C   UNL d   1       0.898  -1.512  -3.347  0.00  0.00     0.144 C 
ATOM      6  C   UNL d   1      -0.425   0.558  -3.282  0.00  0.00     0.144 C 
ENDROOT
BRANCH   1   7
ATOM      7  C   UNL d   1       0.939  -0.078  -0.180  0.00  0.00     0.137 C 
ATOM      8  S   UNL d   1       2.568   0.227  -0.448  0.00  0.00    -0.053 SA
BRANCH   7   9
ATOM      9  S   UNL d   1       0.224   0.316   1.382  0.00  0.00    -0.096 SA
BRANCH   9  10
ATOM     10  C   UNL d   1      -1.381  -0.523   1.392  0.00  0.00     0.125 C 
BRANCH  10  11
ATOM     11  C   UNL d   1      -2.048  -0.449   2.749  0.00  0.00     0.012 A 
ATOM     12  C   UNL d   1      -1.972  -1.468   3.705  0.00  0.00     0.044 A 
ATOM     13 CL   UNL d   1      -1.113  -2.937   3.424  0.00  0.00    -0.084 Cl
ATOM     14  C   UNL d   1      -2.615  -1.335   4.950  0.00  0.00     0.024 A 
ATOM     15  C   UNL d   1      -3.338  -0.176   5.255  0.00  0.00     0.005 A 
ATOM     16  C   UNL d   1      -3.410   0.847   4.313  0.00  0.00     0.043 A 
ATOM     17  C   UNL d   1      -2.780   0.703   3.086  0.00  0.00     0.125 A 
ATOM     18  F   UNL d   1      -2.881   1.702   2.197  0.00  0.00    -0.205 F 
ENDBRANCH  10  11
ENDBRANCH   9  10
ENDBRANCH   7   9
ENDBRANCH   1   7
BRANCH   2  19
ATOM     19  C   UNL d   1      -0.976  -1.182  -4.985  0.00  0.00     0.137 C 
ATOM     20  S   UNL d   1      -1.571  -2.755  -4.951  0.00  0.00    -0.053 SA
BRANCH  19  21
ATOM     21  S   UNL d   1      -1.500  -0.110  -6.288  0.00  0.00    -0.096 SA
BRANCH  21  22
ATOM     22  C   UNL d   1      -0.092   1.006  -6.533  0.00  0.00     0.125 C 
BRANCH  22  23
ATOM     23  C   UNL d   1      -0.165   1.774  -7.837  0.00  0.00     0.012 A 
ATOM     24  C   UNL d   1      -1.071   2.838  -7.949  0.00  0.00     0.125 A 
ATOM     25  F   UNL d   1      -1.871   3.144  -6.914  0.00  0.00    -0.205 F 
ATOM     26  C   UNL d   1      -1.162   3.620  -9.101  0.00  0.00     0.043 A 
ATOM     27  C   UNL d   1      -0.329   3.358 -10.182  0.00  0.00     0.005 A 
ATOM     28  C   UNL d   1       0.578   2.300 -10.103  0.00  0.00     0.024 A 
ATOM     29  C   UNL d   1       0.653   1.510  -8.944  0.00  0.00     0.044 A 
ATOM     30 CL   UNL d   1       1.809   0.225  -8.947  0.00  0.00    -0.084 Cl
ENDBRANCH  22  23
ENDBRANCH  21  22
ENDBRANCH  19  21
ENDBRANCH   2  19
TORSDOF 8
