REMARK  6 active torsions:
REMARK  status: ('A' for Active; 'I' for Inactive)
REMARK    1  A    between atoms: C_7  and  N_1 
REMARK    2  A    between atoms: C_6  and  C_2 
REMARK    3  A    between atoms: O_14  and  C_2 
REMARK    4  A    between atoms: C_8  and  C_6 
REMARK    5  A    between atoms: N_9  and  C_7 
REMARK    6  A    between atoms: C_13  and  C_8 
ROOT
ATOM      1  N   UNL d   1      -1.929   0.560   0.514  0.00  0.00    -0.287 N 
ATOM      2  C   UNL d   1      -1.353  -1.694  -0.079  0.00  0.00     0.175 A 
ATOM      3  C   UNL d   1      -2.510  -0.672   0.191  0.00  0.00     0.266 A 
ATOM      4  C   UNL d   1      -0.141  -0.870   0.304  0.00  0.00     0.014 A 
ATOM      5  C   UNL d   1      -0.530   0.446   0.580  0.00  0.00     0.049 A 
ATOM      6  C   UNL d   1       0.416   1.424   0.842  0.00  0.00     0.032 A 
ATOM      7  C   UNL d   1       1.198  -1.241   0.287  0.00  0.00     0.032 A 
ATOM      8  O   UNL d   1      -3.697  -0.957   0.170  0.00  0.00    -0.269 OA
ATOM      9  C   UNL d   1       2.152  -0.256   0.533  0.00  0.00     0.011 A 
ATOM     10  C   UNL d   1       1.770   1.066   0.811  0.00  0.00     0.021 A 
ATOM     11 BR   UNL d   1       3.989  -0.698   0.444  0.00  0.00    -0.051 Br
ENDROOT
BRANCH   2  12
ATOM     12  C   UNL d   1      -1.218  -2.061  -1.559  0.00  0.00     0.137 C 
BRANCH  12  13
ATOM     13  C   UNL d   1      -2.465  -2.671  -2.157  0.00  0.00     0.163 C 
ATOM     14  O   UNL d   1      -3.424  -1.957  -2.447  0.00  0.00    -0.292 OA
BRANCH  13  15
ATOM     15  C   UNL d   1      -2.499  -4.116  -2.538  0.00  0.00     0.010 A 
ATOM     16  C   UNL d   1      -1.536  -5.045  -2.133  0.00  0.00     0.015 A 
ATOM     17  C   UNL d   1      -1.547  -6.342  -2.662  0.00  0.00     0.007 A 
ATOM     18  C   UNL d   1      -2.533  -6.734  -3.576  0.00  0.00    -0.062 A 
ATOM     19  C   UNL d   1      -3.532  -5.823  -3.929  0.00  0.00     0.007 A 
ATOM     20  C   UNL d   1      -2.467  -8.079  -4.237  0.00  0.00     0.048 C 
ATOM     21  C   UNL d   1      -3.518  -4.528  -3.408  0.00  0.00     0.015 A 
ENDBRANCH  13  15
ENDBRANCH  12  13
ENDBRANCH   2  12
BRANCH   2  22
ATOM     22  O   UNL d   1      -1.401  -2.860   0.725  0.00  0.00    -0.375 OA
ATOM     23  H   UNL d   1      -2.349  -3.044   0.871  0.00  0.00     0.211 HD
ENDBRANCH   2  22
BRANCH   1  24
ATOM     24  C   UNL d   1      -2.659   1.812   0.515  0.00  0.00     0.405 C 
BRANCH  24  25
ATOM     25  N   UNL d   1      -3.376   2.134   1.751  0.00  0.00     0.106 N 
ATOM     26  C   UNL d   1      -2.538   2.199   2.944  0.00  0.00     0.274 C 
ATOM     27  C   UNL d   1      -3.329   2.701   4.158  0.00  0.00     0.030 C 
ATOM     28  C   UNL d   1      -4.583   1.866   4.389  0.00  0.00     0.003 C 
ATOM     29  C   UNL d   1      -5.423   1.840   3.119  0.00  0.00     0.030 C 
ATOM     30  C   UNL d   1      -4.590   1.335   1.939  0.00  0.00     0.274 C 
ENDBRANCH  24  25
ENDBRANCH   1  24
TORSDOF 6
