REMARK  2 active torsions:
REMARK  status: ('A' for Active; 'I' for Inactive)
REMARK    1  A    between atoms: N_8  and  N_5 
REMARK    2  A    between atoms: C_13  and  N_8 
ROOT
ATOM      1  C   UNL d   1       0.013   0.739   0.004  0.00  0.00     0.006 A 
ATOM      2  C   UNL d   1      -1.305   1.454  -0.002  0.00  0.00     0.033 C 
ATOM      3  C   UNL d   1       0.100  -0.660  -0.070  0.00  0.00     0.013 A 
ATOM      4  S   UNL d   1      -1.295  -1.769  -0.144  0.00  0.00    -0.124 SA
ATOM      5  N   UNL d   1      -1.326   2.721   0.310  0.00  0.00    -0.320 N 
ATOM      6  HN  UNL d   1      -0.461   3.221   0.518  1.00  0.00     0.181 HD
ATOM      7  C   UNL d   1      -2.529   0.650  -0.419  0.00  0.00     0.074 C 
ATOM      8  C   UNL d   1       1.191   1.504   0.083  0.00  0.00     0.038 A 
ATOM      9  C   UNL d   1      -2.623  -0.642   0.380  0.00  0.00     0.054 C 
ATOM     10  C   UNL d   1       1.367  -1.270  -0.086  0.00  0.00     0.021 A 
ATOM     11  C   UNL d   1       2.437   0.880   0.071  0.00  0.00     0.035 A 
ATOM     12  C   UNL d   1       2.531  -0.504  -0.017  0.00  0.00     0.025 A 
ATOM     13 CL   UNL d   1       3.871   1.826   0.158  0.00  0.00    -0.084 Cl
ATOM     14  C   UNL d   1      -3.961  -1.340   0.158  0.00  0.00     0.022 C 
ENDROOT
BRANCH   5  15
ATOM     15  N   UNL d   1      -2.527   3.362   0.352  0.00  0.00    -0.206 NA
ATOM     16  H   UNL d   1      -3.268   2.893   0.870  0.00  0.00     0.153 HD
BRANCH  15  17
ATOM     17  C   UNL d   1      -2.508   4.742   0.682  0.00  0.00     0.027 A 
ATOM     18  C   UNL d   1      -1.418   5.570   0.380  0.00  0.00     0.026 A 
ATOM     19  C   UNL d   1      -1.447   6.936   0.682  0.00  0.00     0.021 A 
ATOM     20  C   UNL d   1      -2.581   7.489   1.273  0.00  0.00     0.011 A 
ATOM     21  C   UNL d   1      -3.690   6.693   1.544  0.00  0.00     0.021 A 
ATOM     22 BR   UNL d   1      -2.619   9.329   1.703  0.00  0.00    -0.051 Br
ATOM     23  C   UNL d   1      -3.657   5.332   1.232  0.00  0.00     0.026 A 
ENDBRANCH  15  17
ENDBRANCH   5  15
TORSDOF 2
