REMARK  5 active torsions:
REMARK  status: ('A' for Active; 'I' for Inactive)
REMARK       I    between atoms: N_2  and  C_1 
REMARK       I    between atoms: N_3  and  C_1 
REMARK    1  A    between atoms: C_14  and  N_3 
REMARK    2  A    between atoms: C_4  and  C_10 
REMARK    3  A    between atoms: O_17  and  C_4 
REMARK    4  A    between atoms: C_6  and  C_7 
REMARK    5  A    between atoms: C_23  and  O_17 
ROOT
ATOM      1  C   UNL d   1       0.769  -0.162   0.056  0.00  0.00     0.322 C 
ATOM      2  N   UNL d   1      -0.043  -1.091  -0.586  0.00  0.00    -0.334 N 
ATOM      3  N   UNL d   1       0.190   1.059   0.318  0.00  0.00    -0.309 N 
ATOM      4  O   UNL d   1       1.934  -0.445   0.331  0.00  0.00    -0.247 OA
ATOM      5  C   UNL d   1      -1.474  -0.996  -0.868  0.00  0.00     0.128 C 
ATOM      6  C   UNL d   1       0.584  -2.318  -1.078  0.00  0.00     0.128 C 
ATOM      7  C   UNL d   1      -1.579  -3.536  -0.605  0.00  0.00     0.088 C 
ATOM      8  C   UNL d   1      -2.216  -2.183  -0.258  0.00  0.00     0.034 C 
ATOM      9  C   UNL d   1      -0.062  -3.542  -0.444  0.00  0.00     0.034 C 
ATOM     10  H   UNL d   1      -0.741   1.211  -0.020  0.00  0.00     0.170 HD
ENDROOT
BRANCH   3  11
ATOM     11  C   UNL d   1       0.849   2.228   0.758  0.00  0.00     0.036 A 
ATOM     12  C   UNL d   1       2.195   2.278   1.103  0.00  0.00     0.030 A 
ATOM     13  C   UNL d   1       2.830   3.505   1.315  0.00  0.00     0.010 A 
ATOM     14  C   UNL d   1       2.135   4.720   1.206  0.00  0.00    -0.051 A 
ATOM     15  C   UNL d   1       0.751   4.646   0.991  0.00  0.00     0.010 A 
ATOM     16  C   UNL d   1       0.117   3.417   0.765  0.00  0.00     0.030 A 
BRANCH  14  17
ATOM     17  C   UNL d   1       2.908   6.048   1.247  0.00  0.00    -0.024 C 
ATOM     18  C   UNL d   1       2.002   7.287   1.086  0.00  0.00     0.019 C 
ATOM     19  C   UNL d   1       3.673   6.190   2.578  0.00  0.00     0.019 C 
ATOM     20  C   UNL d   1       3.925   6.074   0.082  0.00  0.00     0.019 C 
ENDBRANCH  14  17
ENDBRANCH   3  11
BRANCH   7  21
ATOM     21  C   UNL d   1      -1.999  -3.963  -1.996  0.00  0.00     0.263 C 
ATOM     22  O   UNL d   1      -2.204  -3.200  -2.935  0.00  0.00    -0.265 OA
BRANCH  21  23
ATOM     23  O   UNL d   1      -2.228  -5.304  -2.008  0.00  0.00    -0.322 OA
BRANCH  23  24
ATOM     24  C   UNL d   1      -3.142  -5.751  -3.018  0.00  0.00     0.174 C 
ATOM     25  C   UNL d   1      -4.550  -5.591  -2.469  0.00  0.00     0.034 C 
ENDBRANCH  23  24
ENDBRANCH  21  23
ENDBRANCH   7  21
TORSDOF 5
