REMARK  2 active torsions:
REMARK  status: ('A' for Active; 'I' for Inactive)
REMARK    1  A    between atoms: C_13  and  C_2 
REMARK    2  A    between atoms: O_14  and  C_10 
ROOT
ATOM      1  N   UNL d   1       0.130   0.676  -0.022  0.00  0.00    -0.218 N 
ATOM      2  C   UNL d   1       1.431   1.150  -0.026  0.00  0.00     0.154 A 
ATOM      3  N   UNL d   1       2.249   0.111  -0.126  0.00  0.00    -0.282 N 
ATOM      4  HN  UNL d   1       3.266   0.161  -0.186  1.00  0.00     0.188 HD
ATOM      5  C   UNL d   1       0.239  -0.703  -0.068  0.00  0.00     0.143 A 
ATOM      6  N   UNL d   1      -1.034   1.403   0.006  0.00  0.00    -0.270 N 
ATOM      7  HN  UNL d   1      -1.067   2.423   0.023  1.00  0.00     0.190 HD
ATOM      8  N   UNL d   1       1.504  -1.046  -0.136  0.00  0.00    -0.282 N 
ATOM      9  HN  UNL d   1       1.868  -1.997  -0.186  1.00  0.00     0.188 HD
ATOM     10  C   UNL d   1      -2.080   0.650   0.008  0.00  0.00     0.157 A 
ATOM     11  C   UNL d   1      -0.953  -1.461  -0.044  0.00  0.00     0.056 A 
ATOM     12  C   UNL d   1      -2.131  -0.825  -0.006  0.00  0.00     0.061 A 
ENDROOT
BRANCH   2  13
ATOM     13  C   UNL d   1       1.839   2.558   0.041  0.00  0.00     0.011 A 
ATOM     14  C   UNL d   1       1.071   3.533   0.694  0.00  0.00     0.015 A 
ATOM     15  C   UNL d   1       1.496   4.864   0.749  0.00  0.00     0.001 A 
ATOM     16  C   UNL d   1       2.700   5.237   0.159  0.00  0.00     0.000 A 
ATOM     17  C   UNL d   1       3.481   4.280  -0.484  0.00  0.00     0.001 A 
ATOM     18  C   UNL d   1       3.055   2.950  -0.539  0.00  0.00     0.015 A 
ENDBRANCH   2  13
BRANCH  10  19
ATOM     19  O   UNL d   1      -3.343   1.137   0.028  0.00  0.00    -0.340 OA
ATOM     20  C   UNL d   1      -3.458   2.566   0.028  0.00  0.00     0.211 C 
ENDBRANCH  10  19
TORSDOF 2
