REMARK  3 active torsions:
REMARK  status: ('A' for Active; 'I' for Inactive)
REMARK    1  A    between atoms: C_4  and  N_1 
REMARK    2  A    between atoms: C_3  and  C_2 
REMARK    3  A    between atoms: O_11  and  C_3 
ROOT
ATOM      1  N   UNL d   1      -0.266  -1.162  -0.015  0.00  0.00    -0.317 N 
ATOM      2  C   UNL d   1       1.050  -0.705   0.069  0.00  0.00     0.115 A 
ATOM      3  C   UNL d   1      -1.091  -0.051  -0.121  0.00  0.00     0.098 A 
ATOM      4  C   UNL d   1       1.001   0.686   0.089  0.00  0.00     0.038 A 
ATOM      5  C   UNL d   1      -0.338   1.093  -0.039  0.00  0.00     0.020 A 
ENDROOT
BRANCH   1   6
ATOM      6  C   UNL d   1      -0.753  -2.505   0.028  0.00  0.00     0.039 A 
ATOM      7  C   UNL d   1      -0.077  -3.497   0.750  0.00  0.00     0.031 A 
ATOM      8  C   UNL d   1      -0.539  -4.816   0.742  0.00  0.00     0.026 A 
ATOM      9  C   UNL d   1      -1.687  -5.146   0.026  0.00  0.00     0.034 A 
ATOM     10  C   UNL d   1      -2.392  -4.162  -0.661  0.00  0.00     0.026 A 
ATOM     11 CL   UNL d   1      -2.234  -6.776  -0.010  0.00  0.00    -0.084 Cl
ATOM     12  C   UNL d   1      -1.934  -2.841  -0.654  0.00  0.00     0.031 A 
ENDBRANCH   1   6
BRANCH   2  13
ATOM     13  C   UNL d   1       2.248  -1.514   0.037  0.00  0.00     0.310 C 
ATOM     14  O   UNL d   1       2.380  -2.603  -0.508  0.00  0.00    -0.258 OA
BRANCH  13  15
ATOM     15  O   UNL d   1       3.242  -0.880   0.726  0.00  0.00    -0.321 OA
ATOM     16  C   UNL d   1       4.465  -1.613   0.800  0.00  0.00     0.213 C 
ENDBRANCH  13  15
ENDBRANCH   2  13
TORSDOF 3
