REMARK  6 active torsions:
REMARK  status: ('A' for Active; 'I' for Inactive)
REMARK    1  A    between atoms: C_1  and  O_11 
REMARK    2  A    between atoms: C_2  and  N_6 
REMARK    3  A    between atoms: C_3  and  O_13 
REMARK    4  A    between atoms: C_5  and  N_8 
REMARK    5  A    between atoms: N_8  and  N_6 
REMARK    6  A    between atoms: C_7  and  O_14 
ROOT
ATOM      1  C   UNL d   1       0.946   0.648   0.347  0.00  0.00     0.194 C 
ATOM      2  C   UNL d   1      -0.066   1.791   0.052  0.00  0.00     0.243 C 
ATOM      3  C   UNL d   1       0.607  -0.563  -0.544  0.00  0.00     0.181 C 
ATOM      4  O   UNL d   1      -1.409   1.326   0.219  0.00  0.00    -0.364 OA
ATOM      5  C   UNL d   1      -0.873  -0.943  -0.417  0.00  0.00     0.173 C 
ATOM      6  C   UNL d   1      -1.747   0.277  -0.693  0.00  0.00     0.204 C 
ENDROOT
BRANCH   2   7
ATOM      7  N   UNL d   1       0.188   2.943   0.926  0.00  0.00    -0.207 NA
ATOM      8  H   UNL d   1       0.128   2.623   1.899  0.00  0.00     0.149 HD
BRANCH   7   9
ATOM      9  N   UNL d   1      -0.757   3.979   0.752  0.00  0.00    -0.296 N 
ATOM     10  H   UNL d   1      -0.940   4.318  -0.186  0.00  0.00     0.183 HD
BRANCH   9  11
ATOM     11  C   UNL d   1      -1.544   4.433   1.786  0.00  0.00     0.179 C 
ATOM     12  S   UNL d   1      -1.582   3.852   3.346  0.00  0.00    -0.040 SA
ATOM     13  N   UNL d   1      -2.357   5.465   1.427  0.00  0.00    -0.375 N 
ATOM     14  H   UNL d   1      -2.093   6.070   0.663  0.00  0.00     0.158 HD
ATOM     15  H   UNL d   1      -2.873   5.908   2.180  0.00  0.00     0.158 HD
ENDBRANCH   9  11
ENDBRANCH   7   9
ENDBRANCH   2   7
BRANCH   1  16
ATOM     16  O   UNL d   1       2.302   1.068   0.139  0.00  0.00    -0.389 OA
ATOM     17  H   UNL d   1       2.472   1.120  -0.816  0.00  0.00     0.210 HD
ENDBRANCH   1  16
BRANCH   3  18
ATOM     18  O   UNL d   1       1.421  -1.689  -0.199  0.00  0.00    -0.390 OA
ATOM     19  H   UNL d   1       1.046  -2.047   0.631  0.00  0.00     0.210 HD
ENDBRANCH   3  18
BRANCH   5  20
ATOM     20  O   UNL d   1      -1.108  -1.429   0.916  0.00  0.00    -0.391 OA
ATOM     21  H   UNL d   1      -1.455  -0.682   1.446  0.00  0.00     0.210 HD
ENDBRANCH   5  20
TORSDOF 6
