REMARK  4 active torsions:
REMARK  status: ('A' for Active; 'I' for Inactive)
REMARK    1  A    between atoms: C_2  and  C_1 
REMARK       I    between atoms: N_6  and  C_1 
REMARK    2  A    between atoms: C_3  and  C_12 
REMARK    3  A    between atoms: O_11  and  C_7 
REMARK    4  A    between atoms: C_12  and  O_11 
ROOT
ATOM      1  C   UNL d   1       0.230  -0.887  -1.043  0.00  0.00     0.047 A 
ATOM      2  N   UNL d   1      -1.281  -1.323  -2.888  0.00  0.00    -0.346 N 
ATOM      3  HN  UNL d   1      -1.977  -0.980  -3.549  1.00  0.00     0.167 HD
ATOM      4  C   UNL d   1      -0.937  -2.626  -2.851  0.00  0.00     0.142 A 
ATOM      5  C   UNL d   1      -0.670  -0.483  -2.014  0.00  0.00     0.107 A 
ATOM      6  C   UNL d   1       0.611  -2.232  -1.067  0.00  0.00     0.022 A 
ATOM      7  C   UNL d   1       0.028  -3.113  -1.981  0.00  0.00     0.057 A 
ENDROOT
BRANCH   4   8
ATOM      8  O   UNL d   1      -1.571  -3.368  -3.801  0.00  0.00    -0.327 OA
BRANCH   8   9
ATOM      9  C   UNL d   1      -1.791  -4.745  -3.488  0.00  0.00     0.294 C 
BRANCH   9  10
ATOM     10  C   UNL d   1      -2.605  -5.432  -4.582  0.00  0.00     0.408 C 
ATOM     11  F   UNL d   1      -2.946  -4.606  -5.593  0.00  0.00    -0.169 F 
ATOM     12  F   UNL d   1      -1.900  -6.458  -5.120  0.00  0.00    -0.169 F 
ATOM     13  F   UNL d   1      -3.747  -5.956  -4.080  0.00  0.00    -0.169 F 
ENDBRANCH   9  10
ENDBRANCH   8   9
ENDBRANCH   4   8
BRANCH   1  14
ATOM     14  C   UNL d   1       0.877   0.029  -0.070  0.00  0.00     0.254 C 
ATOM     15  N   UNL d   1       0.215   1.118   0.495  0.00  0.00    -0.357 N 
ATOM     16  C   UNL d   1       0.960   1.962   1.421  0.00  0.00     0.152 C 
ATOM     17  C   UNL d   1      -1.180   1.503   0.322  0.00  0.00     0.152 C 
ATOM     18  O   UNL d   1       2.042  -0.259   0.234  0.00  0.00    -0.267 OA
ENDBRANCH   1  14
TORSDOF 4
