REMARK  3 active torsions:
REMARK  status: ('A' for Active; 'I' for Inactive)
REMARK    1  A    between atoms: N_6  and  C_1 
REMARK       I    between atoms: C_5  and  N_6 
REMARK       I    between atoms: N_8  and  C_5 
REMARK    2  A    between atoms: C_13  and  N_8 
REMARK    3  A    between atoms: C_12  and  C_13 
ROOT
ATOM      1  C   UNL d   1      -0.173  -3.935   0.136  0.00  0.00     0.321 C 
ATOM      2  N   UNL d   1       0.661  -2.886  -0.178  0.00  0.00    -0.308 N 
ATOM      3  N   UNL d   1      -1.428  -3.506   0.503  0.00  0.00    -0.337 N 
ATOM      4  O   UNL d   1       0.103  -5.125   0.124  0.00  0.00    -0.247 OA
ATOM      5  H   UNL d   1       0.225  -1.977  -0.203  0.00  0.00     0.170 HD
ATOM      6  H   UNL d   1      -1.806  -2.659   0.099  0.00  0.00     0.164 HD
ENDROOT
BRANCH   2   7
ATOM      7  C   UNL d   1       1.958  -2.966  -0.699  0.00  0.00     0.054 C 
ATOM      8  C   UNL d   1       2.899  -4.075  -0.751  0.00  0.00     0.008 A 
ATOM      9  C   UNL d   1       3.988  -3.773  -1.583  0.00  0.00     0.017 A 
ATOM     10  C   UNL d   1       2.917  -5.363  -0.151  0.00  0.00     0.015 A 
ATOM     11  C   UNL d   1       4.967  -4.734  -1.922  0.00  0.00     0.020 A 
ATOM     12  S   UNL d   1       3.967  -2.130  -2.086  0.00  0.00    -0.099 SA
ATOM     13  C   UNL d   1       4.888  -6.013  -1.375  0.00  0.00     0.001 A 
ATOM     14  C   UNL d   1       3.887  -6.318  -0.472  0.00  0.00     0.001 A 
ATOM     15  C   UNL d   1       2.496  -1.836  -1.285  0.00  0.00     0.081 C 
ENDBRANCH   2   7
BRANCH   3  16
ATOM     16  C   UNL d   1      -2.429  -4.489   0.876  0.00  0.00     0.181 C 
BRANCH  16  17
ATOM     17  C   UNL d   1      -3.831  -4.118   0.444  0.00  0.00     0.026 A 
ATOM     18  N   UNL d   1      -4.050  -2.880  -0.077  0.00  0.00    -0.368 N 
ATOM     19  C   UNL d   1      -5.317  -2.595  -0.460  0.00  0.00     0.088 A 
ATOM     20  HN  UNL d   1      -3.295  -2.201  -0.175  1.00  0.00     0.165 HD
ATOM     21  C   UNL d   1      -6.380  -3.480  -0.347  0.00  0.00     0.017 A 
ATOM     22  C   UNL d   1      -6.138  -4.735   0.192  0.00  0.00     0.003 A 
ATOM     23  C   UNL d   1      -4.848  -5.061   0.596  0.00  0.00     0.027 A 
ENDBRANCH  16  17
ENDBRANCH   3  16
TORSDOF 3
