REMARK  2 active torsions:
REMARK  status: ('A' for Active; 'I' for Inactive)
REMARK    1  A    between atoms: C_5  and  C_1 
REMARK       I    between atoms: N_11  and  C_5 
REMARK    2  A    between atoms: C_17  and  N_11 
ROOT
ATOM      1  C   UNL d   1      -1.849   0.751   0.275  0.00  0.00     0.077 A 
ATOM      2  C   UNL d   1      -0.429   0.515   0.355  0.00  0.00     0.061 A 
ATOM      3  C   UNL d   1      -0.234  -0.817  -0.010  0.00  0.00     0.132 A 
ATOM      4  C   UNL d   1      -2.398  -0.502  -0.007  0.00  0.00     0.066 A 
ATOM      5  O   UNL d   1      -1.424  -1.427  -0.211  0.00  0.00    -0.310 OA
ATOM      6  C   UNL d   1       0.730   1.247   0.675  0.00  0.00     0.172 A 
ATOM      7  C   UNL d   1       1.012  -1.430  -0.140  0.00  0.00     0.192 A 
ATOM      8  C   UNL d   1       1.993   0.650   0.582  0.00  0.00     0.197 A 
ATOM      9  C   UNL d   1       2.131  -0.666   0.159  0.00  0.00     0.199 A 
ATOM     10  F   UNL d   1       0.630   2.521   1.083  0.00  0.00    -0.202 F 
ATOM     11  F   UNL d   1       1.131  -2.702  -0.538  0.00  0.00    -0.200 F 
ATOM     12  F   UNL d   1       3.085   1.360   0.900  0.00  0.00    -0.199 F 
ATOM     13  F   UNL d   1       3.353  -1.206   0.042  0.00  0.00    -0.199 F 
ATOM     14  C   UNL d   1      -3.773  -1.046  -0.134  0.00  0.00     0.078 C 
ENDROOT
BRANCH   1  15
ATOM     15  C   UNL d   1      -2.669   1.963   0.417  0.00  0.00     0.259 C 
ATOM     16  N   UNL d   1      -1.999   3.164   0.576  0.00  0.00    -0.323 N 
ATOM     17  H   UNL d   1      -0.994   3.135   0.688  0.00  0.00     0.169 HD
ATOM     18  O   UNL d   1      -3.893   1.876   0.351  0.00  0.00    -0.267 OA
BRANCH  16  19
ATOM     19  C   UNL d   1      -2.575   4.463   0.539  0.00  0.00     0.035 A 
ATOM     20  C   UNL d   1      -3.939   4.715   0.337  0.00  0.00     0.031 A 
ATOM     21  C   UNL d   1      -4.427   6.022   0.231  0.00  0.00     0.026 A 
ATOM     22  C   UNL d   1      -3.554   7.098   0.333  0.00  0.00     0.034 A 
ATOM     23  C   UNL d   1      -2.200   6.872   0.565  0.00  0.00     0.026 A 
ATOM     24 CL   UNL d   1      -4.146   8.702   0.158  0.00  0.00    -0.084 Cl
ATOM     25  C   UNL d   1      -1.714   5.561   0.669  0.00  0.00     0.031 A 
ENDBRANCH  16  19
ENDBRANCH   1  15
TORSDOF 2
