REMARK  3 active torsions:
REMARK  status: ('A' for Active; 'I' for Inactive)
REMARK    1  A    between atoms: O_11  and  C_5 
REMARK    2  A    between atoms: C_12  and  O_11 
REMARK    3  A    between atoms: C_16  and  C_12 
ROOT
ATOM      1  C   UNL d   1       1.319   0.846   0.037  0.00  0.00     0.101 A 
ATOM      2  C   UNL d   1       0.520   2.145  -0.020  0.00  0.00     0.264 A 
ATOM      3  N   UNL d   1      -0.852   2.000  -0.038  0.00  0.00    -0.312 N 
ATOM      4  C   UNL d   1       0.657  -0.337   0.019  0.00  0.00     0.110 A 
ATOM      5  C   UNL d   1       2.775   0.796   0.182  0.00  0.00     0.103 A 
ATOM      6  C   UNL d   1      -0.799  -0.426  -0.048  0.00  0.00     0.026 A 
ATOM      7  C   UNL d   1      -1.480   0.767  -0.050  0.00  0.00     0.057 A 
ATOM      8  C   UNL d   1       3.369  -0.393   0.385  0.00  0.00     0.121 A 
ATOM      9  O   UNL d   1       1.294  -1.585   0.133  0.00  0.00    -0.273 OA
ATOM     10  C   UNL d   1       2.626  -1.656   0.375  0.00  0.00     0.290 A 
ATOM     11  C   UNL d   1      -1.879   3.048  -0.036  0.00  0.00     0.137 A 
ATOM     12  O   UNL d   1       1.062   3.248  -0.031  0.00  0.00    -0.267 OA
ATOM     13  C   UNL d   1      -2.860   0.881  -0.041  0.00  0.00    -0.029 A 
ATOM     14  O   UNL d   1       3.198  -2.725   0.557  0.00  0.00    -0.260 OA
ATOM     15  C   UNL d   1      -3.254   2.325  -0.013  0.00  0.00     0.061 A 
ATOM     16  C   UNL d   1      -1.571  -1.589  -0.056  0.00  0.00     0.017 A 
ATOM     17  C   UNL d   1      -2.979  -1.507  -0.046  0.00  0.00     0.002 A 
ATOM     18  C   UNL d   1      -3.633  -0.265  -0.032  0.00  0.00     0.009 A 
ENDROOT
BRANCH   5  19
ATOM     19  O   UNL d   1       3.472   2.041   0.111  0.00  0.00    -0.274 OA
BRANCH  19  20
ATOM     20  C   UNL d   1       4.837   2.136   0.133  0.00  0.00     0.298 C 
ATOM     21  O   UNL d   1       5.640   1.219   0.240  0.00  0.00    -0.259 OA
BRANCH  20  22
ATOM     22  C   UNL d   1       5.318   3.538   0.010  0.00  0.00     0.040 A 
ATOM     23  C   UNL d   1       6.708   3.758   0.098  0.00  0.00     0.020 A 
ATOM     24  C   UNL d   1       7.232   5.048   0.004  0.00  0.00     0.043 A 
ATOM     25  C   UNL d   1       6.369   6.119  -0.182  0.00  0.00     0.116 A 
ATOM     26  C   UNL d   1       4.995   5.920  -0.286  0.00  0.00     0.043 A 
ATOM     27  F   UNL d   1       6.867   7.359  -0.261  0.00  0.00    -0.206 F 
ATOM     28  C   UNL d   1       4.464   4.628  -0.190  0.00  0.00     0.020 A 
ENDBRANCH  20  22
ENDBRANCH  19  20
ENDBRANCH   5  19
TORSDOF 3
