REMARK  8 active torsions:
REMARK  status: ('A' for Active; 'I' for Inactive)
REMARK    1  A    between atoms: N_4  and  C_1 
REMARK    2  A    between atoms: C_2  and  N_4 
REMARK    3  A    between atoms: N_10  and  C_2 
REMARK    4  A    between atoms: O_12  and  C_6 
REMARK    5  A    between atoms: O_13  and  C_8 
REMARK    6  A    between atoms: C_15  and  N_10 
REMARK    7  A    between atoms: O_14  and  C_16 
REMARK    8  A    between atoms: C_16  and  C_15 
ROOT
ATOM      1  C   UNL d   1       2.269   0.226  -0.092  0.00  0.00     0.070 A 
ATOM      2  C   UNL d   1       1.648  -1.021   0.003  0.00  0.00     0.071 A 
ATOM      3  C   UNL d   1       0.094   1.286  -0.146  0.00  0.00     0.065 A 
ATOM      4  C   UNL d   1       1.486   1.394  -0.154  0.00  0.00     0.096 A 
ATOM      5  C   UNL d   1      -0.525   0.034  -0.027  0.00  0.00     0.070 A 
ATOM      6  C   UNL d   1       0.251  -1.130   0.042  0.00  0.00     0.092 A 
ATOM      7 CL   UNL d   1      -2.247   0.046   0.130  0.00  0.00    -0.081 Cl
ENDROOT
BRANCH   1   8
ATOM      8  N   UNL d   1       3.668   0.366   0.026  0.00  0.00    -0.331 N 
ATOM      9  H   UNL d   1       3.979   1.304   0.295  0.00  0.00     0.168 HD
BRANCH   8  10
ATOM     10  C   UNL d   1       4.676  -0.470  -0.364  0.00  0.00     0.172 C 
ATOM     11  S   UNL d   1       4.646  -1.590  -1.603  0.00  0.00    -0.041 SA
BRANCH  10  12
ATOM     12  N   UNL d   1       5.849  -0.325   0.334  0.00  0.00    -0.365 N 
ATOM     13  H   UNL d   1       6.576  -0.958   0.020  0.00  0.00     0.161 HD
BRANCH  12  14
ATOM     14  C   UNL d   1       5.941   0.160   1.708  0.00  0.00     0.148 C 
BRANCH  14  15
ATOM     15  C   UNL d   1       6.137   1.672   1.824  0.00  0.00     0.183 C 
BRANCH  15  16
ATOM     16  O   UNL d   1       4.978   2.377   1.384  0.00  0.00    -0.399 OA
ATOM     17  H   UNL d   1       5.166   3.326   1.493  0.00  0.00     0.209 HD
ENDBRANCH  15  16
ENDBRANCH  14  15
ENDBRANCH  12  14
ENDBRANCH  10  12
ENDBRANCH   8  10
ENDBRANCH   1   8
BRANCH   4  18
ATOM     18  O   UNL d   1       2.179   2.577  -0.233  0.00  0.00    -0.354 OA
ATOM     19  C   UNL d   1       1.428   3.781  -0.147  0.00  0.00     0.210 C 
ENDBRANCH   4  18
BRANCH   6  20
ATOM     20  O   UNL d   1      -0.202  -2.400   0.286  0.00  0.00    -0.354 OA
ATOM     21  C   UNL d   1      -1.282  -2.848  -0.526  0.00  0.00     0.210 C 
ENDBRANCH   6  20
TORSDOF 8
