REMARK  2 active torsions:
REMARK  status: ('A' for Active; 'I' for Inactive)
REMARK    1  A    between atoms: N_6  and  C_1 
REMARK       I    between atoms: C_7  and  N_6 
REMARK    2  A    between atoms: C_12  and  C_7 
ROOT
ATOM      1  C   UNL d   1       2.370  -0.942   0.204  0.00  0.00     0.098 A 
ATOM      2  C   UNL d   1       1.940   0.365   0.030  0.00  0.00     0.085 A 
ATOM      3  C   UNL d   1       0.504   0.481   0.069  0.00  0.00    -0.021 A 
ATOM      4  C   UNL d   1      -0.081  -0.755   0.260  0.00  0.00    -0.007 A 
ATOM      5  S   UNL d   1       1.050  -1.991   0.454  0.00  0.00    -0.075 SA
ATOM      6  C   UNL d   1       2.838   1.461  -0.208  0.00  0.00     0.103 C 
ATOM      7  N   UNL d   1       3.590   2.321  -0.410  0.00  0.00    -0.191 NA
ATOM      8  C   UNL d   1      -0.328   1.716  -0.151  0.00  0.00     0.042 C 
ATOM      9  C   UNL d   1      -1.550  -1.040   0.288  0.00  0.00     0.051 C 
ATOM     10  C   UNL d   1      -1.828   1.468   0.109  0.00  0.00     0.009 C 
ATOM     11  C   UNL d   1      -2.331   0.098  -0.398  0.00  0.00    -0.014 C 
ATOM     12  C   UNL d   1      -2.256  -0.013  -1.926  0.00  0.00     0.010 C 
ENDROOT
BRANCH   1  13
ATOM     13  N   UNL d   1       3.671  -1.448   0.136  0.00  0.00    -0.316 N 
ATOM     14  C   UNL d   1       4.027  -2.767   0.388  0.00  0.00     0.256 C 
ATOM     15  O   UNL d   1       3.321  -3.628   0.904  0.00  0.00    -0.267 OA
ATOM     16  H   UNL d   1       4.403  -0.789  -0.094  0.00  0.00     0.169 HD
BRANCH  14  17
ATOM     17  C   UNL d   1       5.410  -3.181   0.014  0.00  0.00     0.032 A 
ATOM     18  C   UNL d   1       5.921  -4.341   0.626  0.00  0.00     0.020 A 
ATOM     19  C   UNL d   1       7.165  -4.853   0.260  0.00  0.00     0.043 A 
ATOM     20  C   UNL d   1       7.902  -4.205  -0.721  0.00  0.00     0.116 A 
ATOM     21  C   UNL d   1       7.418  -3.054  -1.337  0.00  0.00     0.043 A 
ATOM     22  F   UNL d   1       9.086  -4.705  -1.093  0.00  0.00    -0.206 F 
ATOM     23  C   UNL d   1       6.167  -2.538  -0.976  0.00  0.00     0.020 A 
ENDBRANCH  14  17
ENDBRANCH   1  13
TORSDOF 2
