REMARK  2 active torsions:
REMARK  status: ('A' for Active; 'I' for Inactive)
REMARK    1  A    between atoms: C_3  and  C_1 
REMARK       I    between atoms: N_10  and  C_3 
REMARK    2  A    between atoms: C_15  and  N_10 
ROOT
ATOM      1  C   UNL d   1      -2.642  -3.220  -0.564  0.00  0.00     0.061 A 
ATOM      2  C   UNL d   1      -2.900  -4.607  -0.712  0.00  0.00     0.082 A 
ATOM      3  S   UNL d   1      -2.885  -7.027  -0.851  0.00  0.00     0.068 SA
ATOM      4  N   UNL d   1      -2.027  -5.627  -0.592  0.00  0.00    -0.310 N 
ATOM      5  HN  UNL d   1      -1.031  -5.554  -0.382  1.00  0.00     0.176 HD
ATOM      6  C   UNL d   1      -4.301  -5.085  -1.046  0.00  0.00     0.068 A 
ATOM      7  N   UNL d   1      -4.397  -6.419  -1.147  0.00  0.00    -0.310 N 
ATOM      8  HN  UNL d   1      -5.238  -6.954  -1.364  1.00  0.00     0.176 HD
ATOM      9  C   UNL d   1      -3.757  -2.363  -0.751  0.00  0.00     0.019 A 
ATOM     10  C   UNL d   1      -5.059  -2.815  -1.066  0.00  0.00     0.003 A 
ATOM     11  C   UNL d   1      -5.370  -4.172  -1.220  0.00  0.00     0.032 A 
ENDROOT
BRANCH   1  12
ATOM     12  C   UNL d   1      -1.332  -2.633  -0.198  0.00  0.00     0.258 C 
ATOM     13  N   UNL d   1      -0.260  -3.492  -0.039  0.00  0.00    -0.323 N 
ATOM     14  H   UNL d   1      -0.407  -4.469  -0.283  0.00  0.00     0.169 HD
ATOM     15  O   UNL d   1      -1.296  -1.412  -0.065  0.00  0.00    -0.267 OA
BRANCH  13  16
ATOM     16  C   UNL d   1       1.017  -3.155   0.468  0.00  0.00     0.035 A 
ATOM     17  C   UNL d   1       1.319  -1.910   1.024  0.00  0.00     0.030 A 
ATOM     18  C   UNL d   1       2.578  -1.657   1.578  0.00  0.00     0.009 A 
ATOM     19  C   UNL d   1       3.564  -2.646   1.584  0.00  0.00    -0.062 A 
ATOM     20  C   UNL d   1       3.279  -3.884   1.000  0.00  0.00     0.009 A 
ATOM     21  C   UNL d   1       4.890  -2.360   2.220  0.00  0.00     0.048 C 
ATOM     22  C   UNL d   1       2.013  -4.139   0.453  0.00  0.00     0.030 A 
ENDBRANCH  13  16
ENDBRANCH   1  12
TORSDOF 2
