REMARK  4 active torsions:
REMARK  status: ('A' for Active; 'I' for Inactive)
REMARK    1  A    between atoms: N_3  and  C_1 
REMARK    2  A    between atoms: C_5  and  C_2 
REMARK       I    between atoms: C_4  and  N_3 
REMARK    3  A    between atoms: C_6  and  C_4 
REMARK    4  A    between atoms: O_16  and  C_5 
ROOT
ATOM      1  C   UNL d   1       0.196   1.466   0.182  0.00  0.00     0.093 C 
ATOM      2  C   UNL d   1       1.459   0.910   0.095  0.00  0.00     0.073 C 
ATOM      3  S   UNL d   1      -1.034   0.305   0.386  0.00  0.00    -0.083 SA
ATOM      4  C   UNL d   1       1.356  -0.526   0.010  0.00  0.00     0.028 C 
ATOM      5  C   UNL d   1       0.064  -0.982   0.148  0.00  0.00     0.053 C 
ENDROOT
BRANCH   1   6
ATOM      6  N   UNL d   1      -0.287   2.755   0.171  0.00  0.00    -0.315 N 
ATOM      7  C   UNL d   1       0.344   3.800  -0.475  0.00  0.00     0.280 C 
ATOM      8  O   UNL d   1       1.243   3.663  -1.302  0.00  0.00    -0.265 OA
ATOM      9  H   UNL d   1      -1.217   2.922   0.536  0.00  0.00     0.170 HD
BRANCH   7  10
ATOM     10  C   UNL d   1      -0.174   5.101  -0.103  0.00  0.00     0.142 A 
ATOM     11  O   UNL d   1      -1.162   5.194   0.843  0.00  0.00    -0.317 OA
ATOM     12  C   UNL d   1      -1.391   6.517   1.049  0.00  0.00     0.143 A 
ATOM     13  C   UNL d   1      -0.583   7.280   0.240  0.00  0.00     0.027 A 
ATOM     14  C   UNL d   1       0.196   6.369  -0.510  0.00  0.00     0.045 A 
ENDBRANCH   7  10
ENDBRANCH   1   6
BRANCH   2  15
ATOM     15  C   UNL d   1       2.736   1.620   0.126  0.00  0.00     0.295 C 
ATOM     16  O   UNL d   1       3.763   1.162  -0.364  0.00  0.00    -0.259 OA
BRANCH  15  17
ATOM     17  O   UNL d   1       2.682   2.776   0.853  0.00  0.00    -0.322 OA
ATOM     18  C   UNL d   1       3.861   3.575   0.786  0.00  0.00     0.213 C 
ENDBRANCH  15  17
ENDBRANCH   2  15
TORSDOF 4
