REMARK  6 active torsions:
REMARK  status: ('A' for Active; 'I' for Inactive)
REMARK    1  A    between atoms: C_8  and  C_3 
REMARK    2  A    between atoms: C_11  and  C_6 
REMARK    3  A    between atoms: C_9  and  C_10 
REMARK    4  A    between atoms: C_17  and  C_11 
REMARK    5  A    between atoms: O_24  and  C_17 
REMARK    6  A    between atoms: C_18  and  O_24 
ROOT
ATOM      1  N   UNL d   1       0.734   0.222  -0.973  0.00  0.00    -0.323 N 
ATOM      2  HN  UNL d   1       1.310   0.433  -1.787  1.00  0.00     0.169 HD
ATOM      3  C   UNL d   1       0.241   1.086  -0.014  0.00  0.00     0.137 A 
ATOM      4  N   UNL d   1      -0.489   0.481   0.936  0.00  0.00    -0.242 N 
ATOM      5  HN  UNL d   1      -0.951   0.906   1.740  1.00  0.00     0.196 HD
ATOM      6  C   UNL d   1       0.274  -0.940  -0.571  0.00  0.00     0.150 A 
ATOM      7  O   UNL d   1      -0.470  -0.854   0.569  0.00  0.00    -0.223 OA
ENDROOT
BRANCH   3   8
ATOM      8  C   UNL d   1       0.506   2.518  -0.034  0.00  0.00     0.010 A 
ATOM      9  C   UNL d   1       1.262   3.088  -1.060  0.00  0.00     0.016 A 
ATOM     10  C   UNL d   1       1.531   4.462  -1.065  0.00  0.00     0.009 A 
ATOM     11  C   UNL d   1       1.057   5.308  -0.044  0.00  0.00    -0.051 A 
ATOM     12  C   UNL d   1       0.287   4.722   0.972  0.00  0.00     0.009 A 
ATOM     13  C   UNL d   1       0.015   3.350   0.977  0.00  0.00     0.016 A 
BRANCH  11  14
ATOM     14  C   UNL d   1       1.404   6.806  -0.055  0.00  0.00    -0.024 C 
ATOM     15  C   UNL d   1       0.822   7.585   1.146  0.00  0.00     0.019 C 
ATOM     16  C   UNL d   1       2.938   6.976  -0.011  0.00  0.00     0.019 C 
ATOM     17  C   UNL d   1       0.855   7.465  -1.338  0.00  0.00     0.019 C 
ENDBRANCH  11  14
ENDBRANCH   3   8
BRANCH   6  18
ATOM     18  C   UNL d   1       0.455  -2.284  -1.169  0.00  0.00     0.113 C 
BRANCH  18  19
ATOM     19  C   UNL d   1      -0.218  -3.373  -0.341  0.00  0.00     0.183 C 
BRANCH  19  20
ATOM     20  O   UNL d   1      -0.027  -4.644  -0.964  0.00  0.00    -0.351 OA
BRANCH  20  21
ATOM     21  C   UNL d   1      -0.714  -5.671  -0.372  0.00  0.00     0.069 A 
ATOM     22  C   UNL d   1      -1.044  -6.736  -1.215  0.00  0.00     0.040 A 
ATOM     23  C   UNL d   1      -1.755  -7.830  -0.720  0.00  0.00     0.045 A 
ATOM     24  C   UNL d   1      -2.119  -7.862   0.621  0.00  0.00     0.116 A 
ATOM     25  C   UNL d   1      -1.778  -6.823   1.476  0.00  0.00     0.045 A 
ATOM     26  F   UNL d   1      -2.804  -8.909   1.096  0.00  0.00    -0.206 F 
ATOM     27  C   UNL d   1      -1.071  -5.725   0.981  0.00  0.00     0.040 A 
ENDBRANCH  20  21
ENDBRANCH  19  20
ENDBRANCH  18  19
ENDBRANCH   6  18
TORSDOF 6
