REMARK  6 active torsions:
REMARK  status: ('A' for Active; 'I' for Inactive)
REMARK    1  A    between atoms: C_3  and  C_1 
REMARK    2  A    between atoms: C_2  and  C_4 
REMARK       I    between atoms: N_5  and  C_7 
REMARK    3  A    between atoms: C_8  and  N_5 
REMARK    4  A    between atoms: C_7  and  C_21 
REMARK    5  A    between atoms: S_12  and  C_11 
REMARK    6  A    between atoms: C_21  and  S_12 
ROOT
ATOM      1  C   UNL d   1      -0.155  -4.409  -0.921  0.00  0.00     0.050 A 
ATOM      2  C   UNL d   1       1.117  -3.306  -2.694  0.00  0.00     0.050 A 
ATOM      3  C   UNL d   1       1.052  -4.194  -1.610  0.00  0.00     0.032 A 
ATOM      4  C   UNL d   1      -1.308  -3.721  -1.334  0.00  0.00     0.034 A 
ATOM      5  C   UNL d   1      -0.045  -2.619  -3.075  0.00  0.00     0.034 A 
ATOM      6  C   UNL d   1      -1.261  -2.850  -2.424  0.00  0.00     0.002 A 
ENDROOT
BRANCH   6   7
ATOM      7  S   UNL d   1      -2.768  -2.178  -3.109  0.00  0.00    -0.121 SA
BRANCH   7   8
ATOM      8  C   UNL d   1      -2.821  -3.252  -4.578  0.00  0.00     0.182 C 
BRANCH   8   9
ATOM      9  C   UNL d   1      -3.925  -2.962  -5.573  0.00  0.00     0.231 C 
ATOM     10  N   UNL d   1      -4.943  -2.142  -5.138  0.00  0.00    -0.324 N 
ATOM     11  H   UNL d   1      -4.730  -1.572  -4.331  0.00  0.00     0.169 HD
ATOM     12  O   UNL d   1      -3.832  -3.446  -6.702  0.00  0.00    -0.272 OA
BRANCH  10  13
ATOM     13  C   UNL d   1      -6.093  -1.804  -5.894  0.00  0.00     0.073 A 
ATOM     14  C   UNL d   1      -6.657  -2.628  -6.878  0.00  0.00     0.143 A 
ATOM     15  F   UNL d   1      -6.239  -3.885  -7.075  0.00  0.00    -0.204 F 
ATOM     16  C   UNL d   1      -7.757  -2.200  -7.628  0.00  0.00     0.044 A 
ATOM     17  C   UNL d   1      -8.315  -0.950  -7.386  0.00  0.00     0.003 A 
ATOM     18  C   UNL d   1      -7.792  -0.141  -6.380  0.00  0.00     0.002 A 
ATOM     19  C   UNL d   1      -6.691  -0.571  -5.629  0.00  0.00     0.033 A 
ENDBRANCH  10  13
ENDBRANCH   8   9
ENDBRANCH   7   8
ENDBRANCH   6   7
BRANCH   2  20
ATOM     20  C   UNL d   1       2.386  -3.110  -3.488  0.00  0.00     0.417 C 
ATOM     21  F   UNL d   1       3.370  -3.990  -3.161  0.00  0.00    -0.166 F 
ATOM     22  F   UNL d   1       2.183  -3.256  -4.826  0.00  0.00    -0.166 F 
ATOM     23  F   UNL d   1       2.917  -1.868  -3.320  0.00  0.00    -0.166 F 
ENDBRANCH   2  20
BRANCH   1  24
ATOM     24  C   UNL d   1      -0.236  -5.392   0.224  0.00  0.00     0.417 C 
ATOM     25  F   UNL d   1       0.891  -6.140   0.375  0.00  0.00    -0.166 F 
ATOM     26  F   UNL d   1      -1.255  -6.282   0.070  0.00  0.00    -0.166 F 
ATOM     27  F   UNL d   1      -0.447  -4.781   1.420  0.00  0.00    -0.166 F 
ENDBRANCH   1  24
TORSDOF 6
