REMARK  5 active torsions:
REMARK  status: ('A' for Active; 'I' for Inactive)
REMARK    1  A    between atoms: C_2  and  S_1 
REMARK    2  A    between atoms: N_5  and  S_1 
REMARK    3  A    between atoms: C_12  and  C_4 
REMARK    4  A    between atoms: C_15  and  N_5 
REMARK    5  A    between atoms: N_8  and  C_11 
ROOT
ATOM      1  S   UNL d   1       0.540   1.954  -1.582  0.00  0.00     0.269 S 
ATOM      2  O   UNL d   1       0.350   0.688  -2.254  0.00  0.00    -0.200 OA
ATOM      3  O   UNL d   1      -0.396   3.045  -1.752  0.00  0.00    -0.200 OA
ENDROOT
BRANCH   1   4
ATOM      4  C   UNL d   1       2.096   2.576  -2.180  0.00  0.00     0.121 A 
ATOM      5  S   UNL d   1       3.453   1.558  -1.966  0.00  0.00    -0.074 SA
ATOM      6  C   UNL d   1       4.535   2.709  -2.641  0.00  0.00     0.033 A 
ATOM      7  C   UNL d   1       3.844   3.837  -3.055  0.00  0.00     0.023 A 
ATOM      8  C   UNL d   1       2.445   3.760  -2.796  0.00  0.00     0.034 A 
BRANCH   6   9
ATOM      9  C   UNL d   1       5.986   2.470  -2.679  0.00  0.00     0.049 A 
ATOM     10  N   UNL d   1       6.730   3.604  -2.641  0.00  0.00    -0.365 N 
ATOM     11  C   UNL d   1       8.075   3.468  -2.617  0.00  0.00     0.088 A 
ATOM     12  HN  UNL d   1       6.292   4.524  -2.632  1.00  0.00     0.165 HD
ATOM     13  C   UNL d   1       8.726   2.247  -2.636  0.00  0.00     0.017 A 
ATOM     14  C   UNL d   1       7.954   1.095  -2.698  0.00  0.00     0.004 A 
ATOM     15  C   UNL d   1       6.564   1.203  -2.724  0.00  0.00     0.031 A 
ENDBRANCH   6   9
ENDBRANCH   1   4
BRANCH   1  16
ATOM     16  N   UNL d   1       0.712   1.609   0.043  0.00  0.00    -0.280 N 
ATOM     17  H   UNL d   1       0.547   0.650   0.337  0.00  0.00     0.179 HD
BRANCH  16  18
ATOM     18  C   UNL d   1       0.890   2.632   1.000  0.00  0.00     0.042 A 
ATOM     19  C   UNL d   1      -0.187   3.356   1.489  0.00  0.00     0.032 A 
ATOM     20  C   UNL d   1       0.013   4.282   2.524  0.00  0.00     0.031 A 
ATOM     21  C   UNL d   1       1.278   4.503   3.098  0.00  0.00     0.030 A 
ATOM     22  C   UNL d   1       2.343   3.766   2.562  0.00  0.00     0.031 A 
ATOM     23  C   UNL d   1       2.155   2.834   1.534  0.00  0.00     0.032 A 
BRANCH  21  24
ATOM     24  N   UNL d   1       1.459   5.394   4.138  0.00  0.00    -0.381 N 
ATOM     25  C   UNL d   1       2.713   6.119   4.352  0.00  0.00     0.123 C 
ATOM     26  C   UNL d   1       2.417   7.621   4.395  0.00  0.00     0.020 C 
ATOM     27  C   UNL d   1       1.319   7.962   5.402  0.00  0.00     0.003 C 
ATOM     28  C   UNL d   1       0.072   7.105   5.179  0.00  0.00     0.020 C 
ATOM     29  C   UNL d   1       0.429   5.621   5.154  0.00  0.00     0.123 C 
ENDBRANCH  21  24
ENDBRANCH  16  18
ENDBRANCH   1  16
TORSDOF 5
