REMARK  5 active torsions:
REMARK  status: ('A' for Active; 'I' for Inactive)
REMARK    1  A    between atoms: N_2  and  C_1 
REMARK    2  A    between atoms: N_4  and  C_1 
REMARK    3  A    between atoms: C_3  and  N_2 
REMARK    4  A    between atoms: C_7  and  N_4 
REMARK    5  A    between atoms: O_8  and  C_6 
ROOT
ATOM      1  N   UNL d   1       0.104   0.223  -0.909  0.00  0.00    -0.362 N 
ATOM      2  H   UNL d   1       0.767   0.794  -1.392  0.00  0.00     0.162 HD
ENDROOT
BRANCH   1   3
ATOM      3  C   UNL d   1       0.631  -0.835  -0.193  0.00  0.00     0.172 C 
ATOM      4  S   UNL d   1      -0.086  -1.455   1.191  0.00  0.00    -0.041 SA
BRANCH   3   5
ATOM      5  N   UNL d   1       1.808  -1.282  -0.801  0.00  0.00    -0.331 N 
ATOM      6  H   UNL d   1       2.320  -0.614  -1.348  0.00  0.00     0.168 HD
BRANCH   5   7
ATOM      7  C   UNL d   1       2.369  -2.583  -0.746  0.00  0.00     0.068 A 
ATOM      8  C   UNL d   1       3.727  -2.849  -1.013  0.00  0.00     0.095 A 
ATOM      9  C   UNL d   1       4.198  -4.174  -0.933  0.00  0.00     0.039 A 
ATOM     10  C   UNL d   1       3.345  -5.235  -0.634  0.00  0.00     0.003 A 
ATOM     11  C   UNL d   1       1.996  -4.995  -0.459  0.00  0.00     0.002 A 
ATOM     12  C   UNL d   1       1.519  -3.685  -0.537  0.00  0.00     0.032 A 
BRANCH   8  13
ATOM     13  O   UNL d   1       4.707  -1.989  -1.432  0.00  0.00    -0.354 OA
ATOM     14  C   UNL d   1       4.746  -0.667  -0.924  0.00  0.00     0.210 C 
ENDBRANCH   8  13
ENDBRANCH   5   7
ENDBRANCH   3   5
ENDBRANCH   1   3
BRANCH   1  15
ATOM     15  C   UNL d   1      -1.280   0.674  -0.984  0.00  0.00     0.083 C 
ATOM     16  C   UNL d   1      -1.607   1.353  -2.342  0.00  0.00     0.025 C 
ATOM     17  C   UNL d   1      -0.829   0.918  -3.601  0.00  0.00     0.002 C 
ATOM     18  C   UNL d   1       0.640   1.367  -3.760  0.00  0.00     0.000 C 
ATOM     19  C   UNL d   1       0.922   2.853  -3.495  0.00  0.00     0.000 C 
ATOM     20  C   UNL d   1       2.323   3.138  -2.916  0.00  0.00     0.000 C 
ATOM     21  C   UNL d   1       2.412   3.097  -1.381  0.00  0.00     0.000 C 
ATOM     22  C   UNL d   1       1.655   4.235  -0.684  0.00  0.00     0.000 C 
ATOM     23  C   UNL d   1       1.307   3.975   0.791  0.00  0.00     0.000 C 
ATOM     24  C   UNL d   1       0.380   2.781   1.056  0.00  0.00     0.000 C 
ATOM     25  C   UNL d   1      -0.998   2.898   0.394  0.00  0.00     0.002 C 
ATOM     26  C   UNL d   1      -1.729   1.558   0.210  0.00  0.00     0.025 C 
ENDBRANCH   1  15
TORSDOF 5
