REMARK  2 active torsions:
REMARK  status: ('A' for Active; 'I' for Inactive)
REMARK    1  A    between atoms: C_13  and  C_3 
REMARK    2  A    between atoms: C_5  and  C_14 
ROOT
ATOM      1  C   UNL d   1       1.374   2.503  -0.053  0.00  0.00    -0.002 A 
ATOM      2  C   UNL d   1       2.764   4.979  -0.077  0.00  0.00    -0.008 A 
ATOM      3  C   UNL d   1       2.281   2.812  -1.077  0.00  0.00     0.015 A 
ATOM      4  C   UNL d   1       1.198   3.441   0.975  0.00  0.00     0.015 A 
ATOM      5  C   UNL d   1       2.966   4.034  -1.090  0.00  0.00     0.014 A 
ATOM      6  C   UNL d   1       1.883   4.664   0.965  0.00  0.00     0.014 A 
ENDROOT
BRANCH   1   7
ATOM      7  C   UNL d   1       0.621   1.237  -0.013  0.00  0.00     0.084 A 
ATOM      8  N   UNL d   1       0.176   0.670   1.093  0.00  0.00    -0.353 N 
ATOM      9  C   UNL d   1      -0.512  -0.497   0.804  0.00  0.00     0.012 A 
ATOM     10  HN  UNL d   1       0.319   1.041   2.032  1.00  0.00     0.166 HD
ATOM     11  C   UNL d   1      -0.607  -0.793  -0.541  0.00  0.00     0.076 A 
ATOM     12  C   UNL d   1      -1.075  -1.298   1.920  0.00  0.00     0.068 C 
ATOM     13  S   UNL d   1       0.191   0.405  -1.463  0.00  0.00    -0.082 SA
ENDBRANCH   1   7
BRANCH   2  14
ATOM     14  C   UNL d   1       3.457   6.260  -0.082  0.00  0.00     0.063 A 
ATOM     15  N   UNL d   1       3.767   6.918   1.104  0.00  0.00    -0.292 N 
ATOM     16  N   UNL d   1       4.396   8.061   0.886  0.00  0.00    -0.061 NA
ATOM     17  HN  UNL d   1       3.537   6.562   2.031  1.00  0.00     0.183 HD
ATOM     18  S   UNL d   1       4.611   8.386  -0.740  0.00  0.00    -0.010 SA
ATOM     19  C   UNL d   1       3.837   6.935  -1.230  0.00  0.00     0.096 A 
ENDBRANCH   2  14
TORSDOF 2
