REMARK  2 active torsions:
REMARK  status: ('A' for Active; 'I' for Inactive)
REMARK    1  A    between atoms: C_4  and  N_12 
REMARK    2  A    between atoms: N_12  and  C_5 
ROOT
ATOM      1  C   UNL d   1       1.742  -0.079  -0.082  0.00  0.00     0.081 A 
ATOM      2  C   UNL d   1       0.863  -1.270  -0.050  0.00  0.00     0.198 A 
ATOM      3  C   UNL d   1       0.909   1.147  -0.058  0.00  0.00     0.198 A 
ATOM      4  C   UNL d   1       3.077  -0.061  -0.136  0.00  0.00     0.109 C 
ATOM      5  C   UNL d   1      -0.505  -0.731  -0.018  0.00  0.00     0.029 A 
ATOM      6  C   UNL d   1      -0.477   0.664  -0.028  0.00  0.00     0.029 A 
ATOM      7  O   UNL d   1       1.192  -2.438  -0.055  0.00  0.00    -0.286 OA
ATOM      8  O   UNL d   1       1.277   2.302  -0.064  0.00  0.00    -0.286 OA
ATOM      9  C   UNL d   1      -1.636   1.418  -0.018  0.00  0.00     0.016 A 
ATOM     10  C   UNL d   1      -1.699  -1.428   0.007  0.00  0.00     0.016 A 
ATOM     11  C   UNL d   1      -2.882  -0.681   0.016  0.00  0.00     0.001 A 
ATOM     12  C   UNL d   1      -2.851   0.728   0.002  0.00  0.00     0.001 A 
ENDROOT
BRANCH   4  13
ATOM     13  N   UNL d   1       3.946  -1.131  -0.181  0.00  0.00    -0.350 N 
ATOM     14  H   UNL d   1       3.468  -2.038  -0.180  0.00  0.00     0.166 HD
BRANCH  13  15
ATOM     15  C   UNL d   1       5.304  -1.120  -0.226  0.00  0.00     0.127 A 
ATOM     16  C   UNL d   1       6.222  -2.150  -0.312  0.00  0.00     0.000 A 
ATOM     17  C   UNL d   1       7.481  -1.500  -0.297  0.00  0.00     0.117 A 
ATOM     18  C   UNL d   1       5.999  -3.611  -0.400  0.00  0.00     0.054 C 
ATOM     19  N   UNL d   1       7.378  -0.173  -0.221  0.00  0.00    -0.310 N 
ATOM     20  N   UNL d   1       6.051   0.030  -0.184  0.00  0.00    -0.285 N 
ATOM     21  HN  UNL d   1       8.127   0.519  -0.197  1.00  0.00     0.186 HD
ATOM     22  H   UNL d   1       5.719   0.983  -0.125  0.00  0.00     0.188 HD
ENDBRANCH  13  15
ENDBRANCH   4  13
TORSDOF 2
