REMARK  4 active torsions:
REMARK  status: ('A' for Active; 'I' for Inactive)
REMARK    1  A    between atoms: C_11  and  C_1 
REMARK    2  A    between atoms: C_10  and  C_2 
REMARK    3  A    between atoms: O_14  and  C_7 
REMARK    4  A    between atoms: O_15  and  C_13 
ROOT
ATOM      1  C   UNL d   1      -2.739  -0.673  -0.093  0.00  0.00     0.060 A 
ATOM      2  C   UNL d   1      -2.162  -1.891  -0.099  0.00  0.00     0.101 A 
ATOM      3  C   UNL d   1      -1.838   0.511  -0.038  0.00  0.00     0.201 A 
ATOM      4  C   UNL d   1      -0.391   0.264  -0.021  0.00  0.00     0.082 A 
ATOM      5  O   UNL d   1      -0.794  -2.124  -0.040  0.00  0.00    -0.308 OA
ATOM      6  C   UNL d   1       0.057  -1.052  -0.018  0.00  0.00     0.095 A 
ATOM      7  C   UNL d   1       0.534   1.315  -0.015  0.00  0.00     0.085 A 
ATOM      8  C   UNL d   1       1.425  -1.324  -0.000  0.00  0.00     0.075 A 
ATOM      9  C   UNL d   1       1.902   1.052  -0.009  0.00  0.00     0.074 A 
ATOM     10  O   UNL d   1      -2.251   1.669  -0.015  0.00  0.00    -0.286 OA
ATOM     11  C   UNL d   1       2.336  -0.270  -0.001  0.00  0.00     0.071 A 
ENDROOT
BRANCH   1  12
ATOM     12  C   UNL d   1      -4.195  -0.463  -0.137  0.00  0.00    -0.019 A 
ATOM     13  C   UNL d   1      -4.933  -0.394   1.052  0.00  0.00     0.012 A 
ATOM     14  C   UNL d   1      -6.313  -0.189   1.010  0.00  0.00     0.001 A 
ATOM     15  C   UNL d   1      -6.960  -0.047  -0.217  0.00  0.00     0.000 A 
ATOM     16  C   UNL d   1      -6.231  -0.110  -1.403  0.00  0.00     0.001 A 
ATOM     17  C   UNL d   1      -4.851  -0.319  -1.365  0.00  0.00     0.012 A 
ENDBRANCH   1  12
BRANCH   2  18
ATOM     18  C   UNL d   1      -2.912  -3.157  -0.166  0.00  0.00    -0.001 A 
ATOM     19  C   UNL d   1      -3.274  -3.703  -1.405  0.00  0.00     0.014 A 
ATOM     20  C   UNL d   1      -3.860  -4.970  -1.472  0.00  0.00     0.001 A 
ATOM     21  C   UNL d   1      -4.088  -5.695  -0.303  0.00  0.00     0.000 A 
ATOM     22  C   UNL d   1      -3.763  -5.143   0.935  0.00  0.00     0.001 A 
ATOM     23  C   UNL d   1      -3.183  -3.875   1.005  0.00  0.00     0.014 A 
ENDBRANCH   2  18
BRANCH   7  24
ATOM     24  O   UNL d   1       0.165   2.634  -0.018  0.00  0.00    -0.360 OA
ATOM     25  H   UNL d   1      -0.820   2.674  -0.013  0.00  0.00     0.217 HD
ENDBRANCH   7  24
BRANCH  11  26
ATOM     26  O   UNL d   1       3.668  -0.575  -0.001  0.00  0.00    -0.361 OA
ATOM     27  H   UNL d   1       4.178   0.250  -0.037  0.00  0.00     0.217 HD
ENDBRANCH  11  26
TORSDOF 4
