REMARK  5 active torsions:
REMARK  status: ('A' for Active; 'I' for Inactive)
REMARK    1  A    between atoms: C_2  and  C_1 
REMARK       I    between atoms: N_4  and  C_1 
REMARK       I    between atoms: C_3  and  N_5 
REMARK    2  A    between atoms: C_9  and  C_3 
REMARK    3  A    between atoms: C_10  and  N_4 
REMARK    4  A    between atoms: N_5  and  C_11 
REMARK    5  A    between atoms: O_12  and  C_6 
ROOT
ATOM      1  C   UNL d   1      -1.114   0.474  -1.121  0.00  0.00     0.035 A 
ATOM      2  C   UNL d   1      -3.933   0.674  -1.302  0.00  0.00     0.035 A 
ATOM      3  C   UNL d   1      -1.845   1.128  -0.129  0.00  0.00     0.032 A 
ATOM      4  C   UNL d   1      -3.187   0.079  -2.322  0.00  0.00     0.032 A 
ATOM      5  C   UNL d   1      -1.794  -0.015  -2.236  0.00  0.00     0.032 A 
ATOM      6  C   UNL d   1      -3.243   1.227  -0.218  0.00  0.00     0.032 A 
ENDROOT
BRANCH   1   7
ATOM      7  N   UNL d   1       0.278   0.244  -1.064  0.00  0.00    -0.323 N 
ATOM      8  C   UNL d   1       1.075   0.341   0.061  0.00  0.00     0.259 C 
ATOM      9  O   UNL d   1       0.709   0.646   1.192  0.00  0.00    -0.267 OA
ATOM     10  H   UNL d   1       0.674  -0.216  -1.873  0.00  0.00     0.169 HD
BRANCH   8  11
ATOM     11  C   UNL d   1       2.495  -0.081  -0.108  0.00  0.00     0.065 A 
ATOM     12  C   UNL d   1       3.166  -0.677   0.971  0.00  0.00     0.081 A 
ATOM     13  C   UNL d   1       4.483  -1.111   0.837  0.00  0.00     0.037 A 
ATOM     14  C   UNL d   1       5.152  -0.932  -0.372  0.00  0.00     0.003 A 
ATOM     15  C   UNL d   1       4.506  -0.316  -1.445  0.00  0.00     0.001 A 
ATOM     16  C   UNL d   1       3.180   0.111  -1.316  0.00  0.00     0.020 A 
BRANCH  12  17
ATOM     17  O   UNL d   1       2.586  -0.874   2.197  0.00  0.00    -0.360 OA
ATOM     18  H   UNL d   1       1.742  -0.368   2.212  0.00  0.00     0.217 HD
ENDBRANCH  12  17
ENDBRANCH   8  11
ENDBRANCH   1   7
BRANCH   2  19
ATOM     19  N   UNL d   1      -5.349   0.732  -1.293  0.00  0.00    -0.323 N 
ATOM     20  C   UNL d   1      -6.194   0.142  -2.222  0.00  0.00     0.256 C 
ATOM     21  O   UNL d   1      -5.842  -0.515  -3.197  0.00  0.00    -0.267 OA
ATOM     22  H   UNL d   1      -5.765   1.157  -0.479  0.00  0.00     0.169 HD
BRANCH  20  23
ATOM     23  C   UNL d   1      -7.664   0.290  -2.001  0.00  0.00     0.032 A 
ATOM     24  C   UNL d   1      -8.239   1.351  -1.293  0.00  0.00     0.017 A 
ATOM     25  C   UNL d   1      -9.633   1.453  -1.200  0.00  0.00     0.001 A 
ATOM     26  C   UNL d   1     -10.454   0.504  -1.811  0.00  0.00     0.000 A 
ATOM     27  C   UNL d   1      -9.889  -0.558  -2.512  0.00  0.00     0.001 A 
ATOM     28  C   UNL d   1      -8.501  -0.664  -2.604  0.00  0.00     0.017 A 
ENDBRANCH  20  23
ENDBRANCH   2  19
TORSDOF 5
