REMARK  6 active torsions:
REMARK  status: ('A' for Active; 'I' for Inactive)
REMARK    1  A    between atoms: C_2  and  C_1 
REMARK       I    between atoms: N_5  and  C_2 
REMARK    2  A    between atoms: O_9  and  C_3 
REMARK    3  A    between atoms: C_4  and  C_13 
REMARK    4  A    between atoms: C_19  and  N_5 
REMARK    5  A    between atoms: C_13  and  O_9 
REMARK    6  A    between atoms: C_18  and  C_19 
ROOT
ATOM      1  C   UNL d   1       0.668   1.338  -0.027  0.00  0.00     0.083 A 
ATOM      2  C   UNL d   1      -0.683   1.039   0.061  0.00  0.00     0.158 A 
ATOM      3  N   UNL d   1      -1.151  -0.226   0.202  0.00  0.00    -0.346 N 
ATOM      4  HN  UNL d   1      -2.152  -0.413   0.262  1.00  0.00     0.167 HD
ATOM      5  C   UNL d   1       1.574   0.265   0.036  0.00  0.00     0.023 A 
ATOM      6  C   UNL d   1      -0.249  -1.232   0.260  0.00  0.00     0.090 A 
ATOM      7  C   UNL d   1       1.114  -1.038   0.185  0.00  0.00     0.018 A 
ENDROOT
BRANCH   1   8
ATOM      8  C   UNL d   1       1.257   2.681  -0.215  0.00  0.00     0.256 C 
ATOM      9  N   UNL d   1       0.711   3.780   0.432  0.00  0.00    -0.352 N 
ATOM     10  H   UNL d   1      -0.070   3.630   1.060  0.00  0.00     0.163 HD
ATOM     11  O   UNL d   1       2.302   2.753  -0.862  0.00  0.00    -0.268 OA
BRANCH   9  12
ATOM     12  C   UNL d   1       1.633   4.858   0.732  0.00  0.00     0.161 C 
BRANCH  12  13
ATOM     13  C   UNL d   1       1.060   6.239   0.919  0.00  0.00    -0.039 A 
ATOM     14  C   UNL d   1       0.024   6.747   0.122  0.00  0.00     0.034 A 
ATOM     15  C   UNL d   1      -0.324   8.106   0.186  0.00  0.00     0.056 A 
ATOM     16 CL   UNL d   1      -1.587   8.664  -0.854  0.00  0.00    -0.083 Cl
ATOM     17  C   UNL d   1       0.364   8.971   1.047  0.00  0.00     0.055 A 
ATOM     18  C   UNL d   1       1.387   8.473   1.853  0.00  0.00     0.026 A 
ATOM     19 CL   UNL d   1       0.031  10.665   1.134  0.00  0.00    -0.083 Cl
ATOM     20  C   UNL d   1       1.728   7.122   1.789  0.00  0.00     0.010 A 
ENDBRANCH  12  13
ENDBRANCH   9  12
ENDBRANCH   1   8
BRANCH   2  21
ATOM     21  O   UNL d   1      -1.611   2.051  -0.018  0.00  0.00    -0.326 OA
BRANCH  21  22
ATOM     22  C   UNL d   1      -2.973   1.607   0.150  0.00  0.00     0.294 C 
BRANCH  22  23
ATOM     23  C   UNL d   1      -3.346   1.299   1.599  0.00  0.00     0.408 C 
ATOM     24  F   UNL d   1      -2.553   1.969   2.470  0.00  0.00    -0.169 F 
ATOM     25  F   UNL d   1      -4.620   1.698   1.845  0.00  0.00    -0.169 F 
ATOM     26  F   UNL d   1      -3.283  -0.013   1.903  0.00  0.00    -0.169 F 
ENDBRANCH  22  23
ENDBRANCH  21  22
ENDBRANCH   2  21
TORSDOF 6
