REMARK  4 active torsions:
REMARK  status: ('A' for Active; 'I' for Inactive)
REMARK    1  A    between atoms: S_11  and  C_3 
REMARK    2  A    between atoms: C_9  and  C_8 
REMARK    3  A    between atoms: C_12  and  C_9 
REMARK    4  A    between atoms: C_10  and  S_11 
ROOT
ATOM      1  S   UNL d   1       4.366  -2.087  -0.010  0.00  0.00    -0.077 SA
ENDROOT
BRANCH   1   2
ATOM      2  C   UNL d   1       3.855  -3.742   0.076  0.00  0.00     0.056 C 
ATOM      3  C   UNL d   1       4.757  -4.717  -0.115  0.00  0.00     0.063 C 
BRANCH   3   4
ATOM      4  C   UNL d   1       4.360  -6.146  -0.048  0.00  0.00     0.182 C 
ATOM      5  O   UNL d   1       3.341  -6.511   0.526  0.00  0.00    -0.288 OA
BRANCH   4   6
ATOM      6  C   UNL d   1       5.271  -7.144  -0.678  0.00  0.00     0.014 A 
ATOM      7  C   UNL d   1       5.320  -8.440  -0.144  0.00  0.00     0.017 A 
ATOM      8  C   UNL d   1       6.120  -9.419  -0.740  0.00  0.00     0.025 A 
ATOM      9  C   UNL d   1       6.864  -9.109  -1.877  0.00  0.00     0.034 A 
ATOM     10  C   UNL d   1       6.824  -7.823  -2.416  0.00  0.00     0.025 A 
ATOM     11 CL   UNL d   1       7.821 -10.322  -2.633  0.00  0.00    -0.084 Cl
ATOM     12  C   UNL d   1       6.028  -6.840  -1.819  0.00  0.00     0.017 A 
ENDBRANCH   4   6
ENDBRANCH   3   4
ENDBRANCH   1   2
BRANCH   1  13
ATOM     13  C   UNL d   1       2.856  -1.219   0.212  0.00  0.00     0.117 A 
ATOM     14  N   UNL d   1       1.686  -1.791   0.381  0.00  0.00    -0.344 N 
ATOM     15  C   UNL d   1       0.702  -0.821   0.528  0.00  0.00     0.052 A 
ATOM     16  HN  UNL d   1       1.523  -2.798   0.402  1.00  0.00     0.167 HD
ATOM     17  C   UNL d   1       1.151   0.500   0.460  0.00  0.00     0.034 A 
ATOM     18  C   UNL d   1      -0.673  -1.057   0.734  0.00  0.00     0.054 A 
ATOM     19  C   UNL d   1       0.281   1.596   0.588  0.00  0.00     0.023 A 
ATOM     20  S   UNL d   1       2.851   0.499   0.209  0.00  0.00    -0.063 SA
ATOM     21  C   UNL d   1      -1.078   1.338   0.790  0.00  0.00     0.025 A 
ATOM     22  C   UNL d   1      -1.544   0.028   0.862  0.00  0.00     0.036 A 
ATOM     23 CL   UNL d   1      -3.223  -0.256   1.113  0.00  0.00    -0.084 Cl
ENDBRANCH   1  13
TORSDOF 4
