REMARK  4 active torsions:
REMARK  status: ('A' for Active; 'I' for Inactive)
REMARK    1  A    between atoms: C_9  and  N_1 
REMARK    2  A    between atoms: S_13  and  C_2 
REMARK    3  A    between atoms: C_8  and  C_7 
REMARK    4  A    between atoms: C_17  and  C_9 
ROOT
ATOM      1  N   UNL d   1       1.421  -1.055  -0.133  0.00  0.00    -0.288 N 
ATOM      2  C   UNL d   1       0.103  -1.372  -0.057  0.00  0.00     0.149 A 
ATOM      3  C   UNL d   1       0.088   0.733  -0.049  0.00  0.00     0.104 A 
ATOM      4  C   UNL d   1       1.509   0.305  -0.150  0.00  0.00     0.276 A 
ATOM      5  N   UNL d   1      -0.727  -0.375  -0.007  0.00  0.00    -0.332 N 
ATOM      6  HN  UNL d   1      -1.745  -0.406   0.049  1.00  0.00     0.168 HD
ATOM      7  C   UNL d   1      -0.276   2.019  -0.024  0.00  0.00     0.048 C 
ATOM      8  O   UNL d   1       2.485   1.023  -0.261  0.00  0.00    -0.265 OA
ENDROOT
BRANCH   7   9
ATOM      9  C   UNL d   1      -1.679   2.435   0.068  0.00  0.00    -0.012 A 
ATOM     10  C   UNL d   1      -2.346   2.589   1.294  0.00  0.00     0.045 A 
ATOM     11  C   UNL d   1      -3.698   2.939   1.327  0.00  0.00     0.048 A 
ATOM     12 CL   UNL d   1      -1.533   2.368   2.806  0.00  0.00    -0.083 Cl
ATOM     13  C   UNL d   1      -4.386   3.139   0.133  0.00  0.00     0.035 A 
ATOM     14  C   UNL d   1      -3.736   3.003  -1.092  0.00  0.00     0.024 A 
ATOM     15 CL   UNL d   1      -6.056   3.551   0.169  0.00  0.00    -0.084 Cl
ATOM     16  C   UNL d   1      -2.385   2.652  -1.125  0.00  0.00     0.015 A 
ENDBRANCH   7   9
BRANCH   1  17
ATOM     17  C   UNL d   1       2.584  -1.913  -0.278  0.00  0.00     0.173 C 
BRANCH  17  18
ATOM     18  C   UNL d   1       3.175  -2.362   1.039  0.00  0.00    -0.040 A 
ATOM     19  C   UNL d   1       3.244  -3.727   1.357  0.00  0.00     0.009 A 
ATOM     20  C   UNL d   1       3.838  -4.152   2.548  0.00  0.00     0.001 A 
ATOM     21  C   UNL d   1       4.368  -3.218   3.436  0.00  0.00     0.000 A 
ATOM     22  C   UNL d   1       4.307  -1.860   3.134  0.00  0.00     0.001 A 
ATOM     23  C   UNL d   1       3.718  -1.434   1.941  0.00  0.00     0.009 A 
ENDBRANCH  17  18
ENDBRANCH   1  17
BRANCH   2  24
ATOM     24  S   UNL d   1      -0.400  -3.029  -0.054  0.00  0.00    -0.098 SA
ATOM     25  C   UNL d   1      -2.196  -2.835  -0.024  0.00  0.00     0.099 C 
ENDBRANCH   2  24
TORSDOF 4
