REMARK  5 active torsions:
REMARK  status: ('A' for Active; 'I' for Inactive)
REMARK       I    between atoms: N_2  and  C_1 
REMARK    1  A    between atoms: C_3  and  C_1 
REMARK    2  A    between atoms: C_4  and  N_2 
REMARK    3  A    between atoms: N_5  and  C_4 
REMARK    4  A    between atoms: C_10  and  N_5 
REMARK    5  A    between atoms: O_18  and  C_13 
ROOT
ATOM      1  C   UNL d   1       0.690   2.652   3.766  0.00  0.00     0.264 C 
ATOM      2  N   UNL d   1       0.200   2.417   2.485  0.00  0.00    -0.299 N 
ATOM      3  O   UNL d   1       1.895   2.689   4.007  0.00  0.00    -0.267 OA
ATOM      4  H   UNL d   1      -0.801   2.496   2.335  0.00  0.00     0.171 HD
ENDROOT
BRANCH   2   5
ATOM      5  C   UNL d   1       0.855   2.009   1.342  0.00  0.00     0.179 C 
ATOM      6  S   UNL d   1      -0.101   1.845  -0.024  0.00  0.00    -0.040 SA
BRANCH   5   7
ATOM      7  N   UNL d   1       2.213   1.823   1.465  0.00  0.00    -0.333 N 
ATOM      8  H   UNL d   1       2.637   2.332   2.240  0.00  0.00     0.168 HD
BRANCH   7   9
ATOM      9  C   UNL d   1       3.100   1.186   0.572  0.00  0.00     0.034 A 
ATOM     10  C   UNL d   1       4.420   1.639   0.503  0.00  0.00     0.032 A 
ATOM     11  C   UNL d   1       5.325   1.061  -0.401  0.00  0.00     0.039 A 
ATOM     12  C   UNL d   1       4.926  -0.004  -1.209  0.00  0.00     0.068 A 
ATOM     13  C   UNL d   1       3.633  -0.506  -1.080  0.00  0.00     0.039 A 
ATOM     14  C   UNL d   1       2.725   0.085  -0.199  0.00  0.00     0.032 A 
BRANCH  12  15
ATOM     15  O   UNL d   1       5.696  -0.648  -2.136  0.00  0.00    -0.356 OA
ATOM     16  C   UNL d   1       6.892   0.006  -2.537  0.00  0.00     0.210 C 
ENDBRANCH  12  15
ENDBRANCH   7   9
ENDBRANCH   5   7
ENDBRANCH   2   5
BRANCH   1  17
ATOM     17  C   UNL d   1      -0.322   2.917   4.830  0.00  0.00     0.109 A 
ATOM     18  C   UNL d   1      -1.691   3.020   4.554  0.00  0.00     0.135 A 
ATOM     19  F   UNL d   1      -2.154   2.870   3.304  0.00  0.00    -0.205 F 
ATOM     20  C   UNL d   1      -2.626   3.283   5.555  0.00  0.00     0.043 A 
ATOM     21  C   UNL d   1      -2.204   3.447   6.871  0.00  0.00     0.006 A 
ATOM     22  C   UNL d   1      -0.848   3.340   7.170  0.00  0.00     0.043 A 
ATOM     23  C   UNL d   1       0.080   3.077   6.158  0.00  0.00     0.135 A 
ATOM     24  F   UNL d   1       1.367   2.975   6.516  0.00  0.00    -0.205 F 
ENDBRANCH   1  17
TORSDOF 5
