REMARK  2 active torsions:
REMARK  status: ('A' for Active; 'I' for Inactive)
REMARK    1  A    between atoms: C_10  and  C_3 
REMARK    2  A    between atoms: N_6  and  C_5 
ROOT
ATOM      1  N   UNL d   1       1.207   0.150  -0.195  0.00  0.00    -0.315 N 
ATOM      2  HN  UNL d   1       2.190   0.263  -0.442  1.00  0.00     0.169 HD
ATOM      3  C   UNL d   1       0.255   1.120   0.006  0.00  0.00     0.162 A 
ATOM      4  C   UNL d   1       0.533  -0.964   0.013  0.00  0.00     0.208 A 
ATOM      5  N   UNL d   1      -0.967   0.653   0.285  0.00  0.00    -0.240 N 
ATOM      6  HN  UNL d   1      -1.823   1.181   0.458  1.00  0.00     0.196 HD
ATOM      7  C   UNL d   1       1.125  -2.262   0.026  0.00  0.00     0.153 A 
ATOM      8  O   UNL d   1      -0.791  -0.732   0.281  0.00  0.00    -0.215 OA
ATOM      9  N   UNL d   1       1.254  -4.503   0.239  0.00  0.00    -0.272 N 
ATOM     10  HN  UNL d   1       0.998  -5.482   0.368  1.00  0.00     0.194 HD
ATOM     11  O   UNL d   1       0.405  -3.409   0.221  0.00  0.00    -0.234 OA
ATOM     12  C   UNL d   1       2.454  -2.610  -0.102  0.00  0.00     0.063 A 
ATOM     13  C   UNL d   1       2.476  -4.005   0.053  0.00  0.00     0.117 A 
ENDROOT
BRANCH   3  14
ATOM     14  C   UNL d   1       0.581   2.574  -0.034  0.00  0.00     0.123 A 
ATOM     15  O   UNL d   1      -0.292   3.591   0.257  0.00  0.00    -0.285 OA
ATOM     16  C   UNL d   1       0.416   4.746   0.150  0.00  0.00     0.215 A 
ATOM     17  C   UNL d   1       1.716   4.515  -0.226  0.00  0.00     0.066 A 
ATOM     18  C   UNL d   1       1.824   3.105  -0.341  0.00  0.00     0.046 A 
BRANCH  16  19
ATOM     19  N   UNL d   1      -0.278   5.955   0.464  0.00  0.00    -0.090 N 
ATOM     20  O   UNL d   1       0.393   6.996   0.416  0.00  0.00    -0.530 OA
ATOM     21  O   UNL d   1      -1.476   5.877   0.759  0.00  0.00    -0.530 OA
ENDBRANCH  16  19
ENDBRANCH   3  14
TORSDOF 2
