REMARK  4 active torsions:
REMARK  status: ('A' for Active; 'I' for Inactive)
REMARK       I    between atoms: N_6  and  C_1 
REMARK    1  A    between atoms: O_11  and  C_1 
REMARK    2  A    between atoms: C_9  and  N_6 
REMARK    3  A    between atoms: O_13  and  C_7 
REMARK    4  A    between atoms: C_15  and  O_11 
ROOT
ATOM      1  C   UNL d   1      -1.624   3.988   1.325  0.00  0.00    -0.091 C 
ATOM      2  C   UNL d   1      -1.253   4.874   2.046  0.00  0.00     0.014 C 
ATOM      3  C   UNL d   1      -2.126   2.901   0.471  0.00  0.00     0.273 C 
ENDROOT
BRANCH   3   4
ATOM      4  O   UNL d   1      -1.089   2.453  -0.413  0.00  0.00    -0.292 OA
BRANCH   4   5
ATOM      5  C   UNL d   1      -0.834   1.126  -0.408  0.00  0.00     0.366 C 
ATOM      6  N   UNL d   1       0.082   0.696  -1.330  0.00  0.00    -0.301 N 
ATOM      7  H   UNL d   1       0.244  -0.300  -1.246  0.00  0.00     0.171 HD
ATOM      8  O   UNL d   1      -1.366   0.313   0.341  0.00  0.00    -0.238 OA
BRANCH   6   9
ATOM      9  C   UNL d   1       0.801   1.377  -2.329  0.00  0.00     0.052 A 
ATOM     10  C   UNL d   1       0.701   2.731  -2.635  0.00  0.00     0.119 A 
ATOM     11  N   UNL d   1       1.435   3.357  -3.591  0.00  0.00    -0.345 N 
ATOM     12  C   UNL d   1       2.316   2.602  -4.276  0.00  0.00     0.141 A 
ATOM     13  HN  UNL d   1       1.326   4.353  -3.781  1.00  0.00     0.167 HD
ATOM     14  C   UNL d   1       2.471   1.242  -4.076  0.00  0.00     0.058 A 
ATOM     15  C   UNL d   1       1.703   0.626  -3.089  0.00  0.00     0.035 A 
BRANCH  12  16
ATOM     16  O   UNL d   1       3.136   3.180  -5.222  0.00  0.00    -0.341 OA
ATOM     17  C   UNL d   1       3.017   4.599  -5.266  0.00  0.00     0.211 C 
ENDBRANCH  12  16
ENDBRANCH   6   9
ENDBRANCH   4   5
ENDBRANCH   3   4
TORSDOF 4
