REMARK  4 active torsions:
REMARK  status: ('A' for Active; 'I' for Inactive)
REMARK    1  A    between atoms: C_8  and  C_1 
REMARK    2  A    between atoms: C_4  and  C_7 
REMARK    3  A    between atoms: C_19  and  C_6 
REMARK       I    between atoms: C_7  and  N_13 
REMARK    4  A    between atoms: N_13  and  C_19 
ROOT
ATOM      1  C   UNL d   1       4.907   1.290  -0.378  0.00  0.00     0.253 C 
ATOM      2  N   UNL d   1       3.667   0.837  -0.002  0.00  0.00    -0.351 N 
ATOM      3  O   UNL d   1       5.086   2.345  -0.974  0.00  0.00    -0.268 OA
ATOM      4  H   UNL d   1       3.569  -0.002   0.559  0.00  0.00     0.163 HD
ENDROOT
BRANCH   2   5
ATOM      5  C   UNL d   1       2.483   1.651  -0.109  0.00  0.00     0.180 C 
BRANCH   5   6
ATOM      6  C   UNL d   1       1.272   0.767  -0.117  0.00  0.00     0.034 A 
ATOM      7  N   UNL d   1       1.262  -0.443   0.589  0.00  0.00    -0.351 N 
ATOM      8  C   UNL d   1       0.098  -1.054   0.442  0.00  0.00     0.091 A 
ATOM      9  HN  UNL d   1       2.043  -0.802   1.139  1.00  0.00     0.166 HD
ATOM     10  S   UNL d   1      -1.037  -0.205  -0.542  0.00  0.00    -0.081 SA
ATOM     11  C   UNL d   1       0.095   1.047  -0.781  0.00  0.00     0.078 A 
BRANCH   8  12
ATOM     12  C   UNL d   1      -0.198  -2.330   1.067  0.00  0.00     0.038 A 
ATOM     13  S   UNL d   1      -1.683  -3.172   0.834  0.00  0.00    -0.099 SA
ATOM     14  C   UNL d   1      -1.218  -4.456   1.856  0.00  0.00     0.050 A 
ATOM     15  C   UNL d   1       0.043  -4.268   2.372  0.00  0.00     0.008 A 
ATOM     16  C   UNL d   1       0.629  -3.047   1.917  0.00  0.00     0.022 A 
ENDBRANCH   8  12
ENDBRANCH   5   6
ENDBRANCH   2   5
BRANCH   1  17
ATOM     17  C   UNL d   1       6.066   0.399  -0.080  0.00  0.00     0.053 A 
ATOM     18  C   UNL d   1       6.172  -0.413   1.062  0.00  0.00     0.052 A 
ATOM     19  C   UNL d   1       7.288  -1.238   1.236  0.00  0.00     0.067 A 
ATOM     20 CL   UNL d   1       5.002  -0.433   2.336  0.00  0.00    -0.083 Cl
ATOM     21  C   UNL d   1       8.297  -1.247   0.282  0.00  0.00     0.118 A 
ATOM     22  C   UNL d   1       8.227  -0.434  -0.841  0.00  0.00     0.043 A 
ATOM     23  F   UNL d   1       9.356  -2.048   0.453  0.00  0.00    -0.206 F 
ATOM     24  C   UNL d   1       7.117   0.396  -1.018  0.00  0.00     0.022 A 
ENDBRANCH   1  17
TORSDOF 4
