REMARK  4 active torsions:
REMARK  status: ('A' for Active; 'I' for Inactive)
REMARK    1  A    between atoms: C_2  and  C_1 
REMARK       I    between atoms: N_12  and  C_1 
REMARK    2  A    between atoms: C_21  and  N_12 
REMARK    3  A    between atoms: C_15  and  C_24 
REMARK    4  A    between atoms: C_24  and  C_21 
ROOT
ATOM      1  C   UNL d   1       1.083   0.012  -0.009  0.00  0.00     0.251 C 
ATOM      2  O   UNL d   1       0.438   0.586  -0.878  0.00  0.00    -0.268 OA
ATOM      3  N   UNL d   1       2.462  -0.060   0.002  0.00  0.00    -0.357 N 
ATOM      4  H   UNL d   1       2.931  -0.307   0.864  0.00  0.00     0.162 HD
ENDROOT
BRANCH   1   5
ATOM      5  C   UNL d   1       0.381  -0.634   1.129  0.00  0.00     0.034 A 
ATOM      6  C   UNL d   1       0.903  -1.773   1.752  0.00  0.00     0.049 A 
ATOM      7  C   UNL d   1       0.226  -2.392   2.791  0.00  0.00     0.060 A 
ATOM      8  N   UNL d   1       0.762  -3.491   3.354  0.00  0.00    -0.363 N 
ATOM      9  C   UNL d   1      -1.015  -1.865   3.234  0.00  0.00     0.059 A 
ATOM     10  C   UNL d   1       0.056  -4.059   4.354  0.00  0.00     0.105 A 
ATOM     11  HN  UNL d   1       1.655  -3.874   3.042  1.00  0.00     0.165 HD
ATOM     12  C   UNL d   1      -1.147  -3.543   4.790  0.00  0.00     0.105 A 
ATOM     13  N   UNL d   1      -1.700  -2.439   4.241  0.00  0.00    -0.363 N 
ATOM     14  HN  UNL d   1      -2.588  -2.061   4.572  1.00  0.00     0.165 HD
ATOM     15  C   UNL d   1      -1.529  -0.738   2.602  0.00  0.00     0.033 A 
ATOM     16  C   UNL d   1      -0.848  -0.124   1.549  0.00  0.00     0.019 A 
ENDBRANCH   1   5
BRANCH   3  17
ATOM     17  C   UNL d   1       3.230   0.568  -1.056  0.00  0.00     0.127 C 
BRANCH  17  18
ATOM     18  C   UNL d   1       4.734   0.330  -0.910  0.00  0.00     0.058 C 
BRANCH  18  19
ATOM     19  C   UNL d   1       5.499   0.978  -2.038  0.00  0.00    -0.057 A 
ATOM     20  C   UNL d   1       5.946   2.302  -1.925  0.00  0.00     0.009 A 
ATOM     21  C   UNL d   1       6.592   2.924  -2.996  0.00  0.00     0.024 A 
ATOM     22  C   UNL d   1       6.793   2.225  -4.184  0.00  0.00     0.034 A 
ATOM     23  C   UNL d   1       6.362   0.906  -4.307  0.00  0.00     0.024 A 
ATOM     24 CL   UNL d   1       7.566   3.000  -5.511  0.00  0.00    -0.084 Cl
ATOM     25  C   UNL d   1       5.716   0.283  -3.237  0.00  0.00     0.009 A 
ENDBRANCH  18  19
ENDBRANCH  17  18
ENDBRANCH   3  17
TORSDOF 4
