REMARK  5 active torsions:
REMARK  status: ('A' for Active; 'I' for Inactive)
REMARK    1  A    between atoms: C_2  and  S_1 
REMARK    2  A    between atoms: N_3  and  S_1 
REMARK    3  A    between atoms: N_5  and  N_3 
REMARK    4  A    between atoms: C_4  and  N_5 
REMARK    5  A    between atoms: C_10  and  C_4 
ROOT
ATOM      1  N   UNL d   1       1.012  -2.351   1.480  0.00  0.00    -0.274 N 
ATOM      2  H   UNL d   1       2.032  -2.359   1.386  0.00  0.00     0.189 HD
ENDROOT
BRANCH   1   3
ATOM      3  C   UNL d   1       0.378  -3.493   1.909  0.00  0.00     0.141 C 
ATOM      4  N   UNL d   1      -0.912  -3.644   1.924  0.00  0.00    -0.383 N 
ATOM      5  H   UNL d   1      -1.345  -2.800   1.556  0.00  0.00     0.157 HD
ATOM      6  HN  UNL d   1      -1.410  -4.472   2.252  1.00  0.00     0.157 HD
BRANCH   3   7
ATOM      7  C   UNL d   1       1.254  -4.635   2.347  0.00  0.00     0.077 A 
ATOM      8  N   UNL d   1       2.593  -4.390   2.322  0.00  0.00    -0.363 N 
ATOM      9  C   UNL d   1       3.388  -5.411   2.716  0.00  0.00     0.088 A 
ATOM     10  HN  UNL d   1       2.973  -3.491   2.023  1.00  0.00     0.165 HD
ATOM     11  C   UNL d   1       2.917  -6.655   3.111  0.00  0.00     0.017 A 
ATOM     12  C   UNL d   1       1.544  -6.878   3.108  0.00  0.00     0.004 A 
ATOM     13  C   UNL d   1       0.692  -5.850   2.721  0.00  0.00     0.033 A 
ENDBRANCH   3   7
ENDBRANCH   1   3
BRANCH   1  14
ATOM     14  N   UNL d   1       0.258  -1.171   1.086  0.00  0.00    -0.221 N 
ATOM     15  H   UNL d   1      -0.744  -1.054   1.234  0.00  0.00     0.200 HD
BRANCH  14  16
ATOM     16  S   UNL d   1       0.936  -0.009   0.064  0.00  0.00     0.277 S 
ATOM     17  O   UNL d   1      -0.082   0.971  -0.235  0.00  0.00    -0.199 OA
ATOM     18  O   UNL d   1       2.212   0.370   0.639  0.00  0.00    -0.199 OA
BRANCH  16  19
ATOM     19  C   UNL d   1       1.260  -0.936  -1.412  0.00  0.00     0.102 A 
ATOM     20  C   UNL d   1       0.252  -1.633  -2.082  0.00  0.00     0.057 A 
ATOM     21 CL   UNL d   1      -1.401  -1.663  -1.584  0.00  0.00    -0.083 Cl
ATOM     22  C   UNL d   1       0.577  -2.370  -3.228  0.00  0.00     0.025 A 
ATOM     23  C   UNL d   1       1.890  -2.408  -3.702  0.00  0.00     0.002 A 
ATOM     24  C   UNL d   1       2.891  -1.707  -3.034  0.00  0.00     0.002 A 
ATOM     25  C   UNL d   1       2.579  -0.971  -1.891  0.00  0.00     0.027 A 
ENDBRANCH  16  19
ENDBRANCH  14  16
ENDBRANCH   1  14
TORSDOF 5
