REMARK  4 active torsions:
REMARK  status: ('A' for Active; 'I' for Inactive)
REMARK    1  A    between atoms: N_6  and  C_1 
REMARK    2  A    between atoms: C_7  and  N_6 
REMARK    3  A    between atoms: N_13  and  C_7 
REMARK    4  A    between atoms: C_16  and  N_13 
ROOT
ATOM      1  C   UNL d   1       2.402  -0.966   0.140  0.00  0.00     0.098 C 
ATOM      2  C   UNL d   1       1.970   0.348   0.069  0.00  0.00     0.085 C 
ATOM      3  C   UNL d   1       0.531   0.440   0.103  0.00  0.00    -0.021 C 
ATOM      4  C   UNL d   1      -0.035  -0.816   0.218  0.00  0.00    -0.007 C 
ATOM      5  S   UNL d   1       1.111  -2.032   0.465  0.00  0.00    -0.075 SA
ATOM      6  C   UNL d   1       2.862   1.462  -0.098  0.00  0.00     0.103 C 
ATOM      7  N   UNL d   1       3.598   2.348  -0.227  0.00  0.00    -0.191 NA
ATOM      8  C   UNL d   1      -0.324   1.670  -0.052  0.00  0.00     0.042 C 
ATOM      9  C   UNL d   1      -1.492  -1.139   0.170  0.00  0.00     0.051 C 
ATOM     10  C   UNL d   1      -1.819   1.370   0.191  0.00  0.00     0.009 C 
ATOM     11  C   UNL d   1      -2.291   0.035  -0.428  0.00  0.00    -0.014 C 
ATOM     12  C   UNL d   1      -2.214   0.051  -1.960  0.00  0.00     0.010 C 
ENDROOT
BRANCH   1  13
ATOM     13  N   UNL d   1       3.689  -1.486   0.132  0.00  0.00    -0.326 N 
ATOM     14  H   UNL d   1       4.459  -0.833   0.209  0.00  0.00     0.169 HD
BRANCH  13  15
ATOM     15  C   UNL d   1       4.054  -2.746  -0.295  0.00  0.00     0.172 C 
ATOM     16  S   UNL d   1       3.400  -3.647  -1.545  0.00  0.00    -0.041 SA
BRANCH  15  17
ATOM     17  N   UNL d   1       5.129  -3.282   0.365  0.00  0.00    -0.367 N 
ATOM     18  H   UNL d   1       5.401  -4.200   0.026  0.00  0.00     0.161 HD
BRANCH  17  19
ATOM     19  C   UNL d   1       5.570  -2.884   1.690  0.00  0.00     0.117 C 
ATOM     20  C   UNL d   1       6.274  -4.014   2.414  0.00  0.00     0.026 C 
ENDBRANCH  17  19
ENDBRANCH  15  17
ENDBRANCH  13  15
ENDBRANCH   1  13
TORSDOF 4
