REMARK  5 active torsions:
REMARK  status: ('A' for Active; 'I' for Inactive)
REMARK    1  A    between atoms: C_2  and  C_1 
REMARK       I    between atoms: N_4  and  C_1 
REMARK    2  A    between atoms: N_8  and  N_4 
REMARK       I    between atoms: C_6  and  N_8 
REMARK    3  A    between atoms: C_17  and  C_6 
REMARK    4  A    between atoms: C_16  and  C_17 
REMARK    5  A    between atoms: O_20  and  C_19 
ROOT
ATOM      1  C   UNL d   1       0.776   0.117  -0.435  0.00  0.00     0.270 C 
ATOM      2  N   UNL d   1       0.151  -1.111  -0.513  0.00  0.00    -0.263 N 
ATOM      3  O   UNL d   1       0.170   1.180  -0.388  0.00  0.00    -0.266 OA
ATOM      4  H   UNL d   1       0.634  -1.960  -0.804  0.00  0.00     0.190 HD
ENDROOT
BRANCH   2   5
ATOM      5  N   UNL d   1      -1.248  -1.163  -0.547  0.00  0.00    -0.267 N 
ATOM      6  C   UNL d   1      -1.830  -2.258  -1.155  0.00  0.00     0.240 C 
ATOM      7  O   UNL d   1      -1.166  -3.163  -1.662  0.00  0.00    -0.272 OA
ATOM      8  H   UNL d   1      -1.744  -0.287  -0.389  0.00  0.00     0.190 HD
BRANCH   6   9
ATOM      9  C   UNL d   1      -3.346  -2.284  -1.103  0.00  0.00     0.143 C 
BRANCH   9  10
ATOM     10  C   UNL d   1      -4.008  -1.575  -2.257  0.00  0.00    -0.047 A 
ATOM     11  C   UNL d   1      -3.733  -1.962  -3.579  0.00  0.00     0.044 A 
ATOM     12  C   UNL d   1      -4.338  -1.309  -4.655  0.00  0.00     0.068 A 
ATOM     13  C   UNL d   1      -5.245  -0.279  -4.405  0.00  0.00     0.037 A 
ATOM     14  C   UNL d   1      -5.549   0.097  -3.097  0.00  0.00     0.003 A 
ATOM     15  C   UNL d   1      -4.934  -0.549  -2.025  0.00  0.00     0.007 A 
BRANCH  12  16
ATOM     16  O   UNL d   1      -4.125  -1.582  -5.979  0.00  0.00    -0.356 OA
ATOM     17  C   UNL d   1      -3.183  -2.606  -6.276  0.00  0.00     0.210 C 
ENDBRANCH  12  16
ENDBRANCH   9  10
ENDBRANCH   6   9
ENDBRANCH   2   5
BRANCH   1  18
ATOM     18  C   UNL d   1       2.266   0.077  -0.411  0.00  0.00     0.036 A 
ATOM     19  C   UNL d   1       2.950  -0.990   0.192  0.00  0.00     0.057 A 
ATOM     20  C   UNL d   1       4.329  -0.932   0.217  0.00  0.00     0.106 A 
ATOM     21  O   UNL d   1       5.147  -1.865   0.772  0.00  0.00    -0.323 OA
ATOM     22  C   UNL d   1       5.026   0.123  -0.324  0.00  0.00     0.105 A 
ATOM     23  C   UNL d   1       6.442  -1.280   0.515  0.00  0.00     0.352 A 
ATOM     24  O   UNL d   1       6.370  -0.017  -0.178  0.00  0.00    -0.323 OA
ATOM     25  C   UNL d   1       4.383   1.186  -0.921  0.00  0.00     0.041 A 
ATOM     26  C   UNL d   1       2.983   1.164  -0.958  0.00  0.00     0.020 A 
ENDBRANCH   1  18
TORSDOF 5
