REMARK  1 active torsions:
REMARK  status: ('A' for Active; 'I' for Inactive)
REMARK    1  A    between atoms: C_18  and  C_12 
ROOT
ATOM      1  N   UNL d   1      -0.117   0.198  -0.122  0.00  0.00    -0.238 N 
ATOM      2  C   UNL d   1       0.483   1.413  -0.164  0.00  0.00     0.175 A 
ATOM      3  C   UNL d   1      -1.464   0.471  -0.132  0.00  0.00     0.148 A 
ATOM      4  C   UNL d   1       0.721  -0.898  -0.108  0.00  0.00     0.272 A 
ATOM      5  N   UNL d   1      -1.611   1.789  -0.250  0.00  0.00    -0.282 N 
ATOM      6  HN  UNL d   1      -2.503   2.279  -0.323  1.00  0.00     0.188 HD
ATOM      7  C   UNL d   1       2.126  -0.381  -0.073  0.00  0.00     0.077 A 
ATOM      8  N   UNL d   1      -0.373   2.387  -0.258  0.00  0.00    -0.277 N 
ATOM      9  HN  UNL d   1      -0.170   3.384  -0.324  1.00  0.00     0.189 HD
ATOM     10  S   UNL d   1       2.189   1.367  -0.125  0.00  0.00    -0.046 SA
ATOM     11  C   UNL d   1      -2.612  -0.384  -0.018  0.00  0.00     0.051 A 
ATOM     12  C   UNL d   1       3.193  -1.193   0.005  0.00  0.00     0.036 C 
ATOM     13  S   UNL d   1      -2.628  -1.917   0.732  0.00  0.00    -0.098 SA
ATOM     14  O   UNL d   1       0.336  -2.050  -0.141  0.00  0.00    -0.266 OA
ATOM     15  C   UNL d   1      -3.892  -0.018  -0.409  0.00  0.00     0.023 A 
ATOM     16  C   UNL d   1      -4.318  -2.090   0.527  0.00  0.00     0.050 A 
ATOM     17  C   UNL d   1      -4.875  -0.997  -0.094  0.00  0.00     0.009 A 
ENDROOT
BRANCH  12  18
ATOM     18  C   UNL d   1       4.566  -0.678   0.097  0.00  0.00    -0.035 A 
ATOM     19  C   UNL d   1       5.120  -0.408   1.355  0.00  0.00     0.011 A 
ATOM     20  C   UNL d   1       6.355   0.235   1.455  0.00  0.00     0.001 A 
ATOM     21  C   UNL d   1       7.044   0.605   0.302  0.00  0.00     0.000 A 
ATOM     22  C   UNL d   1       6.510   0.317  -0.953  0.00  0.00     0.001 A 
ATOM     23  C   UNL d   1       5.274  -0.326  -1.058  0.00  0.00     0.011 A 
ENDBRANCH  12  18
TORSDOF 1
