REMARK  5 active torsions:
REMARK  status: ('A' for Active; 'I' for Inactive)
REMARK    1  A    between atoms: N_2  and  S_1 
REMARK    2  A    between atoms: C_3  and  S_1 
REMARK    3  A    between atoms: C_13  and  N_2 
REMARK    4  A    between atoms: C_14  and  C_13 
REMARK    5  A    between atoms: C_21  and  C_19 
ROOT
ATOM      1  N   UNL d   1       0.416   0.831   0.982  0.00  0.00    -0.211 NA
ATOM      2  H   UNL d   1      -0.587   0.869   0.793  0.00  0.00     0.140 HD
ENDROOT
BRANCH   1   3
ATOM      3  S   UNL d   1       1.202  -0.248  -0.029  0.00  0.00     0.241 S 
ATOM      4  O   UNL d   1       2.489  -0.559   0.538  0.00  0.00    -0.206 OA
ATOM      5  O   UNL d   1       1.057   0.268  -1.377  0.00  0.00    -0.206 OA
BRANCH   3   6
ATOM      6  C   UNL d   1       0.174  -1.700   0.070  0.00  0.00     0.074 A 
ATOM      7  C   UNL d   1      -0.865  -1.876  -0.852  0.00  0.00     0.025 A 
ATOM      8  C   UNL d   1      -1.611  -3.058  -0.839  0.00  0.00     0.009 A 
ATOM      9  C   UNL d   1      -1.321  -4.071   0.087  0.00  0.00    -0.058 A 
ATOM     10  C   UNL d   1      -0.278  -3.881   1.003  0.00  0.00     0.009 A 
ATOM     11  C   UNL d   1       0.476  -2.705   0.993  0.00  0.00     0.025 A 
BRANCH   9  12
ATOM     12  C   UNL d   1      -2.121  -5.351   0.095  0.00  0.00     0.034 C 
ATOM     13  C   UNL d   1      -3.341  -5.248   0.998  0.00  0.00     0.010 C 
ENDBRANCH   9  12
ENDBRANCH   3   6
ENDBRANCH   1   3
BRANCH   1  14
ATOM     14  C   UNL d   1       0.735   0.800   2.418  0.00  0.00     0.143 C 
BRANCH  14  15
ATOM     15  C   UNL d   1      -0.363   1.545   3.143  0.00  0.00    -0.044 A 
ATOM     16  C   UNL d   1      -1.544   0.854   3.450  0.00  0.00     0.018 A 
ATOM     17  C   UNL d   1      -2.668   1.590   3.766  0.00  0.00    -0.022 A 
ATOM     18  C   UNL d   1      -4.056   1.119   3.934  0.00  0.00     0.068 C 
ATOM     19  C   UNL d   1      -2.616   2.967   3.876  0.00  0.00     0.075 A 
ATOM     20  C   UNL d   1      -4.781   2.464   4.017  0.00  0.00     0.180 C 
ATOM     21  O   UNL d   1      -3.825   3.544   4.147  0.00  0.00    -0.350 OA
ATOM     22  C   UNL d   1      -1.446   3.669   3.672  0.00  0.00     0.038 A 
ATOM     23  C   UNL d   1      -0.313   2.951   3.279  0.00  0.00     0.011 A 
ENDBRANCH  14  15
ENDBRANCH   1  14
TORSDOF 5
