REMARK  2 active torsions:
REMARK  status: ('A' for Active; 'I' for Inactive)
REMARK    1  A    between atoms: N_6  and  N_1 
REMARK    2  A    between atoms: C_9  and  N_6 
ROOT
ATOM      1  N   UNL d   1       1.910   0.110   0.005  0.00  0.00    -0.200 N 
ATOM      2  C   UNL d   1       1.191  -1.061   0.045  0.00  0.00     0.276 C 
ATOM      3  C   UNL d   1       1.098   1.211  -0.163  0.00  0.00     0.276 C 
ATOM      4  C   UNL d   1      -0.270   0.715  -0.006  0.00  0.00     0.049 A 
ATOM      5  C   UNL d   1      -0.218  -0.665   0.097  0.00  0.00     0.049 A 
ATOM      6  O   UNL d   1       1.346   2.368  -0.451  0.00  0.00    -0.266 OA
ATOM      7  O   UNL d   1       1.585  -2.211  -0.034  0.00  0.00    -0.266 OA
ATOM      8  C   UNL d   1      -1.364  -1.435   0.151  0.00  0.00     0.018 A 
ATOM      9  C   UNL d   1      -1.468   1.403  -0.035  0.00  0.00     0.018 A 
ATOM     10  C   UNL d   1      -2.641   0.647   0.036  0.00  0.00     0.001 A 
ATOM     11  C   UNL d   1      -2.590  -0.760   0.121  0.00  0.00     0.001 A 
ENDROOT
BRANCH   1  12
ATOM     12  N   UNL d   1       3.224   0.069  -0.501  0.00  0.00    -0.193 NA
ATOM     13  H   UNL d   1       3.597  -0.882  -0.401  0.00  0.00     0.153 HD
BRANCH  12  14
ATOM     14  C   UNL d   1       4.146   0.982   0.069  0.00  0.00     0.028 A 
ATOM     15  C   UNL d   1       4.064   1.478   1.375  0.00  0.00     0.025 A 
ATOM     16  C   UNL d   1       5.036   2.358   1.863  0.00  0.00     0.002 A 
ATOM     17  C   UNL d   1       6.114   2.731   1.060  0.00  0.00     0.000 A 
ATOM     18  C   UNL d   1       6.233   2.207  -0.223  0.00  0.00     0.002 A 
ATOM     19  C   UNL d   1       5.264   1.328  -0.707  0.00  0.00     0.025 A 
ENDBRANCH  12  14
ENDBRANCH   1  12
TORSDOF 2
