REMARK  5 active torsions:
REMARK  status: ('A' for Active; 'I' for Inactive)
REMARK    1  A    between atoms: C_11  and  C_1 
REMARK    2  A    between atoms: C_8  and  O_16 
REMARK    3  A    between atoms: O_19  and  C_9 
REMARK    4  A    between atoms: O_16  and  C_11 
REMARK    5  A    between atoms: O_20  and  C_12 
ROOT
ATOM      1  N   UNL d   1      -0.400   5.059  -0.545  0.00  0.00    -0.340 N 
ATOM      2  HN  UNL d   1       0.266   4.502  -1.082  1.00  0.00     0.167 HD
ATOM      3  C   UNL d   1      -1.331   7.233   0.049  0.00  0.00    -0.001 A 
ATOM      4  C   UNL d   1      -2.221   6.584   0.917  0.00  0.00    -0.017 A 
ATOM      5  C   UNL d   1      -0.437   6.410  -0.672  0.00  0.00     0.018 A 
ATOM      6  C   UNL d   1      -1.396   8.647  -0.035  0.00  0.00     0.054 A 
ATOM      7  C   UNL d   1      -1.260   4.471   0.305  0.00  0.00     0.143 A 
ATOM      8  C   UNL d   1      -2.305   9.404   0.728  0.00  0.00     0.102 A 
ATOM      9  C   UNL d   1      -3.120   7.337   1.683  0.00  0.00     0.052 A 
ATOM     10  C   UNL d   1      -3.168   8.734   1.608  0.00  0.00     0.102 A 
ATOM     11  C   UNL d   1      -2.198   5.192   1.024  0.00  0.00     0.068 A 
ATOM     12  C   UNL d   1       0.569   6.989  -1.629  0.00  0.00     0.069 C 
ENDROOT
BRANCH   7  13
ATOM     13  O   UNL d   1      -1.106   3.113   0.383  0.00  0.00    -0.331 OA
BRANCH  13  14
ATOM     14  C   UNL d   1      -1.627   2.509   1.563  0.00  0.00     0.221 C 
BRANCH  14  15
ATOM     15  C   UNL d   1      -0.991   1.163   1.758  0.00  0.00     0.026 A 
ATOM     16  C   UNL d   1      -1.684   0.013   1.365  0.00  0.00     0.126 A 
ATOM     17  F   UNL d   1      -2.904   0.122   0.817  0.00  0.00    -0.205 F 
ATOM     18  C   UNL d   1      -1.153  -1.261   1.546  0.00  0.00     0.043 A 
ATOM     19  C   UNL d   1       0.102  -1.407   2.128  0.00  0.00     0.005 A 
ATOM     20  C   UNL d   1       0.819  -0.276   2.517  0.00  0.00     0.024 A 
ATOM     21  C   UNL d   1       0.279   1.001   2.329  0.00  0.00     0.045 A 
ATOM     22 CL   UNL d   1       1.224   2.351   2.849  0.00  0.00    -0.084 Cl
ENDBRANCH  14  15
ENDBRANCH  13  14
ENDBRANCH   7  13
BRANCH  10  23
ATOM     23  O   UNL d   1      -4.108   9.252   2.459  0.00  0.00    -0.353 OA
ATOM     24  C   UNL d   1      -4.277  10.657   2.530  0.00  0.00     0.210 C 
ENDBRANCH  10  23
BRANCH   8  25
ATOM     25  O   UNL d   1      -2.385  10.767   0.653  0.00  0.00    -0.353 OA
ATOM     26  C   UNL d   1      -1.556  11.448  -0.279  0.00  0.00     0.210 C 
ENDBRANCH   8  25
TORSDOF 5
