REMARK  15 active torsions:
REMARK  status: ('A' for Active; 'I' for Inactive)
REMARK    1  A    between atoms: N_5  and  C_3 
REMARK       I    between atoms: C_8  and  N_5 
REMARK    2  A    between atoms: C_11  and  C_8 
REMARK    3  A    between atoms: C_12  and  C_11 
REMARK    4  A    between atoms: C_23  and  C_12 
REMARK    5  A    between atoms: C_13  and  C_14 
REMARK    6  A    between atoms: C_14  and  C_22 
REMARK    7  A    between atoms: C_15  and  C_24 
REMARK    8  A    between atoms: C_16  and  C_15 
REMARK    9  A    between atoms: C_17  and  C_16 
REMARK   10  A    between atoms: C_18  and  C_17 
REMARK   11  A    between atoms: C_19  and  C_18 
REMARK   12  A    between atoms: C_20  and  C_19 
REMARK   13  A    between atoms: C_21  and  C_20 
REMARK   14  A    between atoms: C_22  and  C_21 
REMARK   15  A    between atoms: C_24  and  C_23 
ROOT
ATOM      1  C   UNL d   1       3.509  -4.963   0.032  0.00  0.00     0.009 C 
ENDROOT
BRANCH   1   2
ATOM      2  C   UNL d   1       3.670  -3.449   0.046  0.00  0.00     0.103 C 
BRANCH   2   3
ATOM      3  C   UNL d   1       2.308  -2.797   0.011  0.00  0.00     0.223 C 
ATOM      4  N   UNL d   1       1.731  -2.566  -1.226  0.00  0.00    -0.307 N 
ATOM      5  H   UNL d   1       0.806  -2.169  -1.174  0.00  0.00     0.171 HD
ATOM      6  O   UNL d   1       1.669  -2.531   1.031  0.00  0.00    -0.273 OA
BRANCH   4   7
ATOM      7  C   UNL d   1       2.224  -2.803  -2.487  0.00  0.00     0.159 A 
ATOM      8  N   UNL d   1       3.360  -3.327  -2.783  0.00  0.00    -0.321 N 
ATOM      9  C   UNL d   1       3.634  -3.429  -4.128  0.00  0.00     0.151 A 
ATOM     10  HN  UNL d   1       4.014  -3.646  -2.069  1.00  0.00     0.169 HD
ATOM     11  S   UNL d   1       2.360  -2.868  -5.225  0.00  0.00    -0.020 SA
ATOM     12  S   UNL d   1       5.064  -4.048  -4.754  0.00  0.00    -0.052 SA
ATOM     13  S   UNL d   1       1.108  -2.307  -3.727  0.00  0.00    -0.013 SA
ENDBRANCH   4   7
ENDBRANCH   2   3
ENDBRANCH   1   2
BRANCH   1  14
ATOM     14  C   UNL d   1       4.853  -5.677   0.039  0.00  0.00     0.000 C 
BRANCH  14  15
ATOM     15  C   UNL d   1       4.642  -7.185   0.044  0.00  0.00     0.000 C 
BRANCH  15  16
ATOM     16  C   UNL d   1       5.981  -7.901   0.055  0.00  0.00     0.000 C 
BRANCH  16  17
ATOM     17  C   UNL d   1       5.773  -9.405   0.060  0.00  0.00     0.000 C 
BRANCH  17  18
ATOM     18  C   UNL d   1       7.116 -10.113   0.071  0.00  0.00     0.000 C 
BRANCH  18  19
ATOM     19  C   UNL d   1       6.909 -11.616   0.075  0.00  0.00     0.000 C 
BRANCH  19  20
ATOM     20  C   UNL d   1       8.252 -12.322   0.087  0.00  0.00     0.000 C 
BRANCH  20  21
ATOM     21  C   UNL d   1       8.044 -13.825   0.091  0.00  0.00     0.000 C 
BRANCH  21  22
ATOM     22  C   UNL d   1       9.387 -14.533   0.103  0.00  0.00     0.000 C 
BRANCH  22  23
ATOM     23  C   UNL d   1       9.180 -16.038   0.107  0.00  0.00     0.000 C 
BRANCH  23  24
ATOM     24  C   UNL d   1      10.523 -16.749   0.120  0.00  0.00    -0.000 C 
BRANCH  24  25
ATOM     25  C   UNL d   1      10.325 -18.257   0.121  0.00  0.00    -0.005 C 
ATOM     26  C   UNL d   1      11.666 -18.964   0.134  0.00  0.00     0.005 C 
ENDBRANCH  24  25
ENDBRANCH  23  24
ENDBRANCH  22  23
ENDBRANCH  21  22
ENDBRANCH  20  21
ENDBRANCH  19  20
ENDBRANCH  18  19
ENDBRANCH  17  18
ENDBRANCH  16  17
ENDBRANCH  15  16
ENDBRANCH  14  15
ENDBRANCH   1  14
TORSDOF 15
