REMARK  2 active torsions:
REMARK  status: ('A' for Active; 'I' for Inactive)
REMARK    1  A    between atoms: C_7  and  N_1 
REMARK    2  A    between atoms: O_9  and  C_2 
ROOT
ATOM      1  N   UNL d   1       2.401  -0.615  -0.111  0.00  0.00    -0.234 N 
ATOM      2  C   UNL d   1       1.936   0.699   0.010  0.00  0.00     0.171 C 
ATOM      3  N   UNL d   1       1.372  -1.483  -0.308  0.00  0.00    -0.295 N 
ATOM      4  HN  UNL d   1       1.427  -2.472  -0.551  1.00  0.00     0.187 HD
ATOM      5  C   UNL d   1       0.561   0.622   0.059  0.00  0.00     0.028 C 
ATOM      6  C   UNL d   1       0.275  -0.750  -0.114  0.00  0.00     0.038 C 
ATOM      7  S   UNL d   1      -2.098   1.143   0.609  0.00  0.00    -0.164 SA
ATOM      8  C   UNL d   1      -0.422   1.728   0.164  0.00  0.00     0.119 C 
ATOM      9  C   UNL d   1      -1.084  -1.360  -0.102  0.00  0.00     0.069 C 
ATOM     10  C   UNL d   1      -2.171  -0.345  -0.455  0.00  0.00     0.080 C 
ENDROOT
BRANCH   1  11
ATOM     11  C   UNL d   1       3.739  -1.093  -0.069  0.00  0.00     0.059 A 
ATOM     12  C   UNL d   1       4.735  -0.406   0.637  0.00  0.00     0.031 A 
ATOM     13  C   UNL d   1       6.044  -0.893   0.648  0.00  0.00     0.002 A 
ATOM     14  C   UNL d   1       6.364  -2.061  -0.045  0.00  0.00     0.000 A 
ATOM     15  C   UNL d   1       5.371  -2.761  -0.729  0.00  0.00     0.002 A 
ATOM     16  C   UNL d   1       4.057  -2.290  -0.728  0.00  0.00     0.031 A 
ENDBRANCH   1  11
BRANCH   2  17
ATOM     17  O   UNL d   1       2.701   1.793   0.008  0.00  0.00    -0.344 OA
ATOM     18  H   UNL d   1       3.558   1.579  -0.406  0.00  0.00     0.219 HD
ENDBRANCH   2  17
TORSDOF 2
