REMARK  6 active torsions:
REMARK  status: ('A' for Active; 'I' for Inactive)
REMARK    1  A    between atoms: C_2  and  S_1 
REMARK    2  A    between atoms: N_3  and  S_1 
REMARK    3  A    between atoms: C_17  and  N_3 
REMARK    4  A    between atoms: C_18  and  N_3 
REMARK    5  A    between atoms: C_12  and  C_18 
REMARK    6  A    between atoms: C_13  and  C_17 
ROOT
ATOM      1  N   UNL d   1      -1.867   4.543   1.178  0.00  0.00    -0.197 NA
ATOM      2  C   UNL d   1      -1.557   3.457   0.888  0.00  0.00     0.060 C 
ATOM      3  C   UNL d   1      -1.122   2.083   0.578  0.00  0.00     0.139 C 
ENDROOT
BRANCH   3   4
ATOM      4  C   UNL d   1       0.034   1.703   1.504  0.00  0.00     0.121 C 
BRANCH   4   5
ATOM      5  N   UNL d   1       0.453   0.263   1.403  0.00  0.00    -0.205 NA
BRANCH   5   6
ATOM      6  S   UNL d   1       1.364  -0.104  -0.052  0.00  0.00     0.243 S 
ATOM      7  O   UNL d   1       1.025   0.874  -1.060  0.00  0.00    -0.206 OA
ATOM      8  O   UNL d   1       2.741  -0.339   0.324  0.00  0.00    -0.206 OA
BRANCH   6   9
ATOM      9  C   UNL d   1       0.669  -1.657  -0.573  0.00  0.00     0.074 A 
ATOM     10  C   UNL d   1      -0.080  -1.732  -1.751  0.00  0.00     0.025 A 
ATOM     11  C   UNL d   1      -0.550  -2.974  -2.194  0.00  0.00     0.008 A 
ATOM     12  C   UNL d   1      -0.281  -4.136  -1.458  0.00  0.00    -0.062 A 
ATOM     13  C   UNL d   1       0.469  -4.044  -0.281  0.00  0.00     0.008 A 
ATOM     14  C   UNL d   1      -0.746  -5.473  -1.956  0.00  0.00     0.048 C 
ATOM     15  C   UNL d   1       0.960  -2.813   0.151  0.00  0.00     0.025 A 
ENDBRANCH   6   9
ENDBRANCH   5   6
BRANCH   5  16
ATOM     16  C   UNL d   1       1.167  -0.229   2.657  0.00  0.00     0.121 C 
BRANCH  16  17
ATOM     17  C   UNL d   1       0.355  -0.085   3.950  0.00  0.00     0.139 C 
ATOM     18  C   UNL d   1       1.095  -0.647   5.095  0.00  0.00     0.060 C 
ATOM     19  N   UNL d   1       1.695  -1.067   6.000  0.00  0.00    -0.197 NA
ENDBRANCH  16  17
ENDBRANCH   5  16
ENDBRANCH   4   5
ENDBRANCH   3   4
TORSDOF 6
