REMARK  5 active torsions:
REMARK  status: ('A' for Active; 'I' for Inactive)
REMARK    1  A    between atoms: C_18  and  C_1 
REMARK    2  A    between atoms: O_8  and  C_3 
REMARK    3  A    between atoms: S_5  and  O_8 
REMARK    4  A    between atoms: C_11  and  S_5 
REMARK    5  A    between atoms: C_9  and  C_12 
ROOT
ATOM      1  C   UNL d   1      -1.321   2.381  -0.127  0.00  0.00     0.078 A 
ATOM      2  C   UNL d   1       0.176   2.350  -0.143  0.00  0.00     0.262 A 
ATOM      3  C   UNL d   1      -2.057   1.242  -0.091  0.00  0.00     0.118 A 
ATOM      4  N   UNL d   1       0.803   1.120  -0.082  0.00  0.00    -0.312 N 
ATOM      5  C   UNL d   1      -1.337  -0.076  -0.097  0.00  0.00     0.028 A 
ATOM      6  C   UNL d   1       0.082  -0.095  -0.034  0.00  0.00     0.057 A 
ATOM      7  C   UNL d   1       0.795  -1.314   0.044  0.00  0.00    -0.030 A 
ATOM      8  C   UNL d   1      -1.956  -1.338  -0.152  0.00  0.00     0.023 A 
ATOM      9  O   UNL d   1       0.809   3.407  -0.181  0.00  0.00    -0.267 OA
ATOM     10  C   UNL d   1       0.107  -2.532   0.062  0.00  0.00     0.016 A 
ATOM     11  C   UNL d   1      -1.271  -2.555  -0.039  0.00  0.00    -0.060 A 
ATOM     12  C   UNL d   1       2.248   1.152   0.079  0.00  0.00     0.133 C 
ATOM     13  C   UNL d   1       2.288  -1.383   0.177  0.00  0.00     0.042 C 
ATOM     14  C   UNL d   1       3.009  -0.117  -0.230  0.00  0.00     0.025 C 
ATOM     15  C   UNL d   1      -2.022  -3.855  -0.028  0.00  0.00     0.048 C 
ENDROOT
BRANCH   3  16
ATOM     16  O   UNL d   1      -3.457   1.407  -0.036  0.00  0.00    -0.227 OA
BRANCH  16  17
ATOM     17  S   UNL d   1      -4.614   0.321   0.322  0.00  0.00     0.303 S 
ATOM     18  O   UNL d   1      -4.859  -0.481  -0.869  0.00  0.00    -0.193 OA
ATOM     19  O   UNL d   1      -4.318  -0.297   1.600  0.00  0.00    -0.193 OA
BRANCH  17  20
ATOM     20  C   UNL d   1      -6.123   1.239   0.569  0.00  0.00     0.087 A 
ATOM     21  C   UNL d   1      -6.275   2.033   1.708  0.00  0.00     0.042 A 
ATOM     22  C   UNL d   1      -7.517   2.639   1.970  0.00  0.00     0.049 A 
ATOM     23  C   UNL d   1      -8.587   2.427   1.081  0.00  0.00     0.016 A 
ATOM     24  C   UNL d   1      -8.432   1.617  -0.044  0.00  0.00     0.002 A 
ATOM     25  C   UNL d   1      -7.201   1.020  -0.299  0.00  0.00     0.026 A 
BRANCH  22  26
ATOM     26  C   UNL d   1      -7.728   3.505   3.189  0.00  0.00     0.417 C 
ATOM     27  F   UNL d   1      -6.663   3.518   4.037  0.00  0.00    -0.166 F 
ATOM     28  F   UNL d   1      -7.964   4.804   2.861  0.00  0.00    -0.166 F 
ATOM     29  F   UNL d   1      -8.796   3.106   3.934  0.00  0.00    -0.166 F 
ENDBRANCH  22  26
ENDBRANCH  17  20
ENDBRANCH  16  17
ENDBRANCH   3  16
BRANCH   1  30
ATOM     30  C   UNL d   1      -1.938   3.729  -0.100  0.00  0.00    -0.018 A 
ATOM     31  C   UNL d   1      -1.878   4.499   1.073  0.00  0.00     0.012 A 
ATOM     32  C   UNL d   1      -2.273   5.839   1.062  0.00  0.00     0.001 A 
ATOM     33  C   UNL d   1      -2.741   6.415  -0.117  0.00  0.00     0.000 A 
ATOM     34  C   UNL d   1      -2.829   5.652  -1.281  0.00  0.00     0.001 A 
ATOM     35  C   UNL d   1      -2.433   4.310  -1.273  0.00  0.00     0.012 A 
ENDBRANCH   1  30
TORSDOF 5
