REMARK  4 active torsions:
REMARK  status: ('A' for Active; 'I' for Inactive)
REMARK       I    between atoms: N_2  and  C_1 
REMARK       I    between atoms: N_3  and  C_1 
REMARK    1  A    between atoms: C_9  and  N_2 
REMARK    2  A    between atoms: C_7  and  N_3 
REMARK    3  A    between atoms: C_8  and  C_7 
REMARK    4  A    between atoms: C_10  and  C_8 
ROOT
ATOM      1  C   UNL d   1       1.099  -0.170   0.030  0.00  0.00     0.322 C 
ATOM      2  N   UNL d   1       0.423  -0.272  -1.166  0.00  0.00    -0.309 N 
ATOM      3  N   UNL d   1       0.359   0.378   1.074  0.00  0.00    -0.338 N 
ATOM      4  O   UNL d   1       2.287  -0.465   0.175  0.00  0.00    -0.247 OA
ATOM      5  C   UNL d   1      -1.095   0.349   1.159  0.00  0.00     0.154 C 
ATOM      6  H   UNL d   1      -0.273   0.446  -1.302  0.00  0.00     0.170 HD
ENDROOT
BRANCH   2   7
ATOM      7  C   UNL d   1       0.990  -0.818  -2.338  0.00  0.00     0.036 A 
ATOM      8  C   UNL d   1       1.845  -1.926  -2.307  0.00  0.00     0.032 A 
ATOM      9  C   UNL d   1       2.410  -2.412  -3.489  0.00  0.00     0.044 A 
ATOM     10  C   UNL d   1       2.127  -1.780  -4.693  0.00  0.00     0.116 A 
ATOM     11  C   UNL d   1       1.266  -0.690  -4.742  0.00  0.00     0.044 A 
ATOM     12  F   UNL d   1       2.692  -2.225  -5.823  0.00  0.00    -0.206 F 
ATOM     13  C   UNL d   1       0.676  -0.222  -3.565  0.00  0.00     0.032 A 
ENDBRANCH   2   7
BRANCH   3  14
ATOM     14  C   UNL d   1       1.072   0.707   2.314  0.00  0.00     0.133 C 
BRANCH  14  15
ATOM     15  C   UNL d   1       2.001   1.919   2.179  0.00  0.00     0.077 C 
BRANCH  15  16
ATOM     16  C   UNL d   1       2.648   2.236   3.504  0.00  0.00     0.010 A 
ATOM     17  N   UNL d   1       1.995   3.102   4.316  0.00  0.00    -0.369 N 
ATOM     18  C   UNL d   1       2.553   3.365   5.520  0.00  0.00     0.088 A 
ATOM     19  HN  UNL d   1       1.118   3.538   4.032  1.00  0.00     0.165 HD
ATOM     20  C   UNL d   1       3.730   2.790   5.966  0.00  0.00     0.017 A 
ATOM     21  C   UNL d   1       4.381   1.896   5.126  0.00  0.00     0.003 A 
ATOM     22  C   UNL d   1       3.836   1.611   3.876  0.00  0.00     0.025 A 
ENDBRANCH  15  16
ENDBRANCH  14  15
ENDBRANCH   3  14
TORSDOF 4
