REMARK  12 active torsions:
REMARK  status: ('A' for Active; 'I' for Inactive)
REMARK    1  A    between atoms: C1*_3  and  N_1 
REMARK    2  A    between atoms: N_17  and  C_2 
REMARK    3  A    between atoms: C2*_8  and  O2*_21 
REMARK    4  A    between atoms: C3*_10  and  O3*_24 
REMARK    5  A    between atoms: C4*_11  and  C5*_29 
REMARK    6  A    between atoms: N_22  and  C_14 
REMARK    7  A    between atoms: N_18  and  N_17 
REMARK    8  A    between atoms: C_27  and  C_23 
REMARK    9  A    between atoms: O_25  and  C_26 
REMARK   10  A    between atoms: C_28  and  O_25 
REMARK   11  A    between atoms: C_34  and  C_28 
REMARK   12  A    between atoms: O5*_35  and  C5*_29 
ROOT
ATOM      1  N   UNL d   1       1.580   1.140  -0.083  0.00  0.00    -0.134 N 
ATOM      2  C   UNL d   1       2.385   0.031   0.075  0.00  0.00     0.703 C 
ATOM      3  C   UNL d   1       0.283   0.712   0.049  0.00  0.00     0.158 A 
ATOM      4  N   UNL d   1       1.669  -1.075   0.088  0.00  0.00    -0.182 N 
ATOM      5  HN  UNL d   1       2.015  -2.034   0.110  1.00  0.00     0.184 HD
ATOM      6  C   UNL d   1       0.364  -0.667   0.067  0.00  0.00     0.137 A 
ATOM      7  N   UNL d   1      -0.834   1.457   0.090  0.00  0.00    -0.336 N 
ATOM      8  HN  UNL d   1      -0.851   2.476   0.088  1.00  0.00     0.168 HD
ATOM      9  C   UNL d   1      -0.846  -1.377   0.061  0.00  0.00     0.131 A 
ATOM     10  N   UNL d   1      -2.001  -0.678   0.119  0.00  0.00    -0.337 N 
ATOM     11  HN  UNL d   1      -2.901  -1.156   0.149  1.00  0.00     0.168 HD
ATOM     12  C   UNL d   1      -1.932   0.671   0.136  0.00  0.00     0.183 A 
ENDROOT
BRANCH   2  13
ATOM     13  N   UNL d   1       3.736   0.124   0.158  0.00  0.00    -0.132 N 
ATOM     14  H   UNL d   1       4.162   1.056   0.160  0.00  0.00     0.205 HD
BRANCH  13  15
ATOM     15  N   UNL d   1       4.498  -0.948  -0.167  0.00  0.00    -0.297 N 
ATOM     16  C   UNL d   1       5.747  -0.894   0.158  0.00  0.00     0.119 C 
ATOM     17  HN  UNL d   1       4.105  -1.758  -0.645  1.00  0.00     0.186 HD
BRANCH  16  18
ATOM     18  C   UNL d   1       6.643  -2.021  -0.155  0.00  0.00    -0.019 A 
ATOM     19  C   UNL d   1       8.023  -1.828  -0.078  0.00  0.00     0.015 A 
ATOM     20  C   UNL d   1       8.885  -2.890  -0.358  0.00  0.00     0.037 A 
ATOM     21  C   UNL d   1       8.369  -4.151  -0.682  0.00  0.00     0.069 A 
ATOM     22  C   UNL d   1       6.988  -4.326  -0.790  0.00  0.00     0.037 A 
ATOM     23  C   UNL d   1       6.122  -3.264  -0.527  0.00  0.00     0.015 A 
BRANCH  21  24
ATOM     24  O   UNL d   1       9.119  -5.269  -0.916  0.00  0.00    -0.347 OA
BRANCH  24  25
ATOM     25  C   UNL d   1      10.435  -5.255  -0.360  0.00  0.00     0.214 C 
BRANCH  25  26
ATOM     26  C   UNL d   1      10.941  -6.668  -0.211  0.00  0.00    -0.034 A 
ATOM     27  C   UNL d   1      12.198  -7.030  -0.713  0.00  0.00     0.009 A 
ATOM     28  C   UNL d   1      12.693  -8.320  -0.514  0.00  0.00     0.001 A 
ATOM     29  C   UNL d   1      11.938  -9.257   0.190  0.00  0.00     0.000 A 
ATOM     30  C   UNL d   1      10.687  -8.907   0.695  0.00  0.00     0.001 A 
ATOM     31  C   UNL d   1      10.191  -7.619   0.497  0.00  0.00     0.009 A 
ENDBRANCH  25  26
ENDBRANCH  24  25
ENDBRANCH  21  24
ENDBRANCH  16  18
ENDBRANCH  13  15
ENDBRANCH   2  13
BRANCH   1  32
ATOM     32  C1* UNL d   1       1.968   2.514  -0.347  0.00  0.00     0.279 C 
ATOM     33  C2* UNL d   1       1.231   3.213  -1.500  0.00  0.00     0.199 C 
ATOM     34  C3* UNL d   1       2.096   2.901  -2.707  0.00  0.00     0.182 C 
ATOM     35  C4* UNL d   1       3.502   2.862  -2.115  0.00  0.00     0.179 C 
ATOM     36  O4* UNL d   1       3.381   2.574  -0.698  0.00  0.00    -0.353 OA
BRANCH  33  37
ATOM     37  O2* UNL d   1       1.192   4.647  -1.321  0.00  0.00    -0.388 OA
ATOM     38  H2* UNL d   1       2.034   4.934  -0.919  0.00  0.00     0.210 HD
ENDBRANCH  33  37
BRANCH  34  39
ATOM     39  O3* UNL d   1       1.987   3.911  -3.709  0.00  0.00    -0.390 OA
ATOM     40  H3* UNL d   1       1.477   4.646  -3.309  0.00  0.00     0.210 HD
ENDBRANCH  34  39
BRANCH  35  41
ATOM     41  C5* UNL d   1       4.411   1.839  -2.806  0.00  0.00     0.198 C 
BRANCH  41  42
ATOM     42  O5* UNL d   1       3.827   0.542  -2.837  0.00  0.00    -0.398 OA
ATOM     43  H5* UNL d   1       3.989   0.090  -1.980  0.00  0.00     0.209 HD
ENDBRANCH  41  42
ENDBRANCH  35  41
ENDBRANCH   1  32
BRANCH   9  44
ATOM     44  N   UNL d   1      -0.903  -2.760  -0.005  0.00  0.00    -0.383 N 
ATOM     45  H   UNL d   1      -0.036  -3.221   0.251  0.00  0.00     0.157 HD
ATOM     46  H   UNL d   1      -1.776  -3.145   0.325  0.00  0.00     0.157 HD
ENDBRANCH   9  44
TORSDOF 12
