REMARK  2 active torsions:
REMARK  status: ('A' for Active; 'I' for Inactive)
REMARK    1  A    between atoms: C_9  and  N_2 
REMARK    2  A    between atoms: O_20  and  C_16 
ROOT
ATOM      1  C   UNL d   1       3.327   0.206  -0.589  0.00  0.00     0.036 A 
ATOM      2  N   UNL d   1       4.487  -0.473  -1.126  0.00  0.00    -0.248 NA
ATOM      3  C   UNL d   1       2.159  -0.383  -0.100  0.00  0.00     0.015 A 
ATOM      4  C   UNL d   1       3.473   1.593  -0.601  0.00  0.00    -0.012 A 
ATOM      5  N   UNL d   1       1.367   1.847   0.463  0.00  0.00    -0.359 N 
ATOM      6  HN  UNL d   1       0.651   2.445   0.874  1.00  0.00     0.166 HD
ATOM      7  C   UNL d   1       1.188   0.509   0.411  0.00  0.00     0.044 A 
ATOM      8  C   UNL d   1       2.505   2.387  -0.035  0.00  0.00     0.013 A 
ATOM      9  C   UNL d   1       5.071   0.635  -1.946  0.00  0.00     0.106 C 
ATOM     10  C   UNL d   1       4.772   1.955  -1.220  0.00  0.00     0.057 C 
ATOM     11  C   UNL d   1       1.901  -1.770  -0.132  0.00  0.00     0.039 A 
ATOM     12  C   UNL d   1      -0.010  -0.021   0.869  0.00  0.00     0.032 A 
ATOM     13  C   UNL d   1       0.684  -2.263   0.323  0.00  0.00     0.035 A 
ATOM     14  C   UNL d   1      -0.278  -1.392   0.826  0.00  0.00     0.026 A 
ATOM     15 CL   UNL d   1       0.350  -3.948   0.248  0.00  0.00    -0.084 Cl
ATOM     16  C   UNL d   1       2.674   3.869   0.073  0.00  0.00     0.068 C 
ENDROOT
BRANCH   2  17
ATOM     17  C   UNL d   1       5.507  -1.039  -0.291  0.00  0.00     0.017 A 
ATOM     18  C   UNL d   1       6.613  -1.678  -0.887  0.00  0.00     0.060 A 
ATOM     19  C   UNL d   1       7.699  -2.107  -0.121  0.00  0.00     0.070 A 
ATOM     20  C   UNL d   1       7.654  -1.971   1.266  0.00  0.00     0.037 A 
ATOM     21  C   UNL d   1       6.544  -1.397   1.881  0.00  0.00     0.005 A 
ATOM     22  C   UNL d   1       5.477  -0.935   1.107  0.00  0.00     0.024 A 
BRANCH  19  23
ATOM     23  O   UNL d   1       8.849  -2.665  -0.610  0.00  0.00    -0.356 OA
ATOM     24  C   UNL d   1       9.101  -2.473  -1.997  0.00  0.00     0.210 C 
ENDBRANCH  19  23
ENDBRANCH   2  17
TORSDOF 2
