REMARK  3 active torsions:
REMARK  status: ('A' for Active; 'I' for Inactive)
REMARK    1  A    between atoms: C_14  and  C_7 
REMARK    2  A    between atoms: C_13  and  O_15 
REMARK    3  A    between atoms: O_15  and  C_21 
ROOT
ATOM      1  C   UNL d   1       0.536  -1.000   0.027  0.00  0.00     0.206 A 
ATOM      2  C   UNL d   1       1.153  -2.295   0.075  0.00  0.00     0.136 A 
ATOM      3  N   UNL d   1       1.200   0.135   0.034  0.00  0.00    -0.317 N 
ATOM      4  HN  UNL d   1       2.210   0.275   0.063  1.00  0.00     0.169 HD
ATOM      5  O   UNL d   1       0.407  -3.447  -0.003  0.00  0.00    -0.305 OA
ATOM      6  C   UNL d   1       2.500  -2.633   0.205  0.00  0.00    -0.011 A 
ATOM      7  C   UNL d   1       0.211   1.087  -0.009  0.00  0.00     0.138 A 
ATOM      8  N   UNL d   1      -1.028   0.577  -0.046  0.00  0.00    -0.242 N 
ATOM      9  HN  UNL d   1      -1.916   1.079  -0.080  1.00  0.00     0.196 HD
ATOM     10  O   UNL d   1      -0.819  -0.802  -0.026  0.00  0.00    -0.215 OA
ATOM     11  C   UNL d   1       2.560  -4.062   0.207  0.00  0.00     0.007 A 
ATOM     12  C   UNL d   1       1.253  -4.503   0.079  0.00  0.00     0.087 A 
ATOM     13  C   UNL d   1       3.680  -1.736   0.335  0.00  0.00     0.052 C 
ATOM     14  C   UNL d   1       3.585  -5.022   0.311  0.00  0.00     0.015 A 
ATOM     15  C   UNL d   1       0.880  -5.845   0.048  0.00  0.00     0.038 A 
ATOM     16  C   UNL d   1       3.242  -6.380   0.285  0.00  0.00     0.001 A 
ATOM     17  C   UNL d   1       1.910  -6.783   0.154  0.00  0.00     0.003 A 
ENDROOT
BRANCH   7  18
ATOM     18  C   UNL d   1       0.529   2.511  -0.029  0.00  0.00     0.010 A 
ATOM     19  C   UNL d   1       1.866   2.934  -0.033  0.00  0.00     0.018 A 
ATOM     20  C   UNL d   1       2.195   4.296  -0.084  0.00  0.00     0.038 A 
ATOM     21  C   UNL d   1       1.187   5.251  -0.167  0.00  0.00     0.078 A 
ATOM     22  C   UNL d   1      -0.148   4.839  -0.109  0.00  0.00     0.038 A 
ATOM     23  C   UNL d   1      -0.478   3.482  -0.047  0.00  0.00     0.018 A 
BRANCH  21  24
ATOM     24  O   UNL d   1       1.361   6.598  -0.251  0.00  0.00    -0.255 OA
BRANCH  24  25
ATOM     25  C   UNL d   1       2.510   7.120  -0.904  0.00  0.00     0.530 C 
ATOM     26  F   UNL d   1       3.238   6.200  -1.571  0.00  0.00    -0.144 F 
ATOM     27  F   UNL d   1       2.107   8.051  -1.798  0.00  0.00    -0.144 F 
ATOM     28  F   UNL d   1       3.303   7.726   0.006  0.00  0.00    -0.144 F 
ENDBRANCH  24  25
ENDBRANCH  21  24
ENDBRANCH   7  18
TORSDOF 3
