REMARK  3 active torsions:
REMARK  status: ('A' for Active; 'I' for Inactive)
REMARK    1  A    between atoms: C_2  and  C_1 
REMARK       I    between atoms: N_5  and  C_1 
REMARK       I    between atoms: C_3  and  N_6 
REMARK    2  A    between atoms: C_4  and  C_3 
REMARK    3  A    between atoms: N_6  and  N_5 
ROOT
ATOM      1  C   UNL d   1      -1.778  -2.031   1.500  0.00  0.00     0.286 C 
ATOM      2  N   UNL d   1      -1.063  -0.953   1.020  0.00  0.00    -0.262 N 
ATOM      3  O   UNL d   1      -2.947  -2.222   1.160  0.00  0.00    -0.264 OA
ATOM      4  H   UNL d   1      -0.114  -0.730   1.310  0.00  0.00     0.190 HD
ENDROOT
BRANCH   2   5
ATOM      5  N   UNL d   1      -1.702  -0.072   0.138  0.00  0.00    -0.260 N 
ATOM      6  C   UNL d   1      -0.961   0.920  -0.490  0.00  0.00     0.343 C 
ATOM      7  O   UNL d   1       0.232   1.096  -0.228  0.00  0.00    -0.262 OA
ATOM      8  H   UNL d   1      -2.653  -0.318  -0.150  0.00  0.00     0.190 HD
BRANCH   6   9
ATOM      9  C   UNL d   1      -1.767   1.760  -1.494  0.00  0.00     0.473 C 
ATOM     10  F   UNL d   1      -3.053   1.315  -1.619  0.00  0.00    -0.162 F 
ATOM     11  F   UNL d   1      -1.853   3.068  -1.129  0.00  0.00    -0.162 F 
ATOM     12  F   UNL d   1      -1.235   1.736  -2.746  0.00  0.00    -0.162 F 
ENDBRANCH   6   9
ENDBRANCH   2   5
BRANCH   1  13
ATOM     13  C   UNL d   1      -1.083  -2.910   2.413  0.00  0.00     0.102 A 
ATOM     14  N   UNL d   1      -1.734  -3.968   3.013  0.00  0.00    -0.361 N 
ATOM     15  C   UNL d   1      -0.873  -4.666   3.815  0.00  0.00     0.088 A 
ATOM     16  H   UNL d   1      -2.713  -4.184   2.861  0.00  0.00     0.165 HD
ATOM     17  C   UNL d   1       0.356  -4.054   3.743  0.00  0.00     0.019 A 
ATOM     18  C   UNL d   1       0.226  -2.946   2.867  0.00  0.00     0.036 A 
ENDBRANCH   1  13
TORSDOF 3
