REMARK  5 active torsions:
REMARK  status: ('A' for Active; 'I' for Inactive)
REMARK    1  A    between atoms: C_6  and  N_1 
REMARK    2  A    between atoms: C_5  and  N_2 
REMARK    3  A    between atoms: C_4  and  C_3 
REMARK    4  A    between atoms: C_13  and  C_5 
REMARK    5  A    between atoms: C_14  and  C_6 
ROOT
ATOM      1  N   UNL d   1       1.206   0.654  -0.297  0.00  0.00     0.133 N 
ATOM      2  N   UNL d   1      -1.256   0.623  -0.232  0.00  0.00     0.133 N 
ATOM      3  C   UNL d   1      -0.022   1.370   0.137  0.00  0.00     0.513 C 
ATOM      4  C   UNL d   1      -1.226  -0.742   0.339  0.00  0.00     0.278 C 
ATOM      5  C   UNL d   1       1.257  -0.654   0.364  0.00  0.00     0.278 C 
ATOM      6  C   UNL d   1       0.050  -1.504   0.014  0.00  0.00     0.061 C 
ENDROOT
BRANCH   1   7
ATOM      7  C   UNL d   1       1.335   0.576  -1.762  0.00  0.00     0.314 C 
BRANCH   7   8
ATOM      8  C   UNL d   1       2.529  -0.199  -2.287  0.00  0.00    -0.030 A 
ATOM      9  C   UNL d   1       2.334  -1.320  -3.111  0.00  0.00     0.012 A 
ATOM     10  C   UNL d   1       3.425  -1.993  -3.662  0.00  0.00     0.043 A 
ATOM     11  C   UNL d   1       4.711  -1.544  -3.388  0.00  0.00     0.116 A 
ATOM     12  C   UNL d   1       4.929  -0.444  -2.567  0.00  0.00     0.043 A 
ATOM     13  F   UNL d   1       5.760  -2.179  -3.933  0.00  0.00    -0.206 F 
ATOM     14  C   UNL d   1       3.839   0.229  -2.012  0.00  0.00     0.012 A 
ENDBRANCH   7   8
ENDBRANCH   1   7
BRANCH   3  15
ATOM     15  C   UNL d   1      -0.023   2.811  -0.343  0.00  0.00     0.116 A 
ATOM     16  O   UNL d   1       0.139   3.773   0.621  0.00  0.00    -0.323 OA
ATOM     17  C   UNL d   1       0.120   4.979  -0.004  0.00  0.00     0.142 A 
ATOM     18  C   UNL d   1      -0.061   4.819  -1.358  0.00  0.00     0.027 A 
ATOM     19  C   UNL d   1      -0.193   3.427  -1.571  0.00  0.00     0.039 A 
ENDBRANCH   3  15
BRANCH   2  20
ATOM     20  C   UNL d   1      -2.450   1.334   0.297  0.00  0.00     0.314 C 
BRANCH  20  21
ATOM     21  C   UNL d   1      -3.778   0.679  -0.045  0.00  0.00    -0.030 A 
ATOM     22  C   UNL d   1      -4.631   0.222   0.974  0.00  0.00     0.012 A 
ATOM     23  C   UNL d   1      -5.867  -0.345   0.660  0.00  0.00     0.043 A 
ATOM     24  C   UNL d   1      -6.253  -0.454  -0.671  0.00  0.00     0.116 A 
ATOM     25  C   UNL d   1      -5.421  -0.017  -1.695  0.00  0.00     0.043 A 
ATOM     26  F   UNL d   1      -7.446  -0.985  -0.970  0.00  0.00    -0.206 F 
ATOM     27  C   UNL d   1      -4.183   0.548  -1.384  0.00  0.00     0.012 A 
ENDBRANCH  20  21
ENDBRANCH   2  20
TORSDOF 5
