REMARK  8 active torsions:
REMARK  status: ('A' for Active; 'I' for Inactive)
REMARK    1  A    between atoms: O_6  and  C_1 
REMARK       I    between atoms: N_11  and  C_1 
REMARK       I    between atoms: C_2  and  N_12 
REMARK    2  A    between atoms: C_4  and  C_2 
REMARK    3  A    between atoms: C_3  and  C_5 
REMARK    4  A    between atoms: O_13  and  C_3 
REMARK    5  A    between atoms: C_10  and  O_6 
REMARK    6  A    between atoms: C_14  and  N_11 
REMARK    7  A    between atoms: N_12  and  C_18 
REMARK    8  A    between atoms: C_18  and  C_14 
ROOT
ATOM      1  C   UNL d   1       4.958  -0.787  -0.115  0.00  0.00     0.142 C 
ENDROOT
BRANCH   1   2
ATOM      2  N   UNL d   1       5.345  -0.187   1.153  0.00  0.00    -0.356 N 
ATOM      3  C   UNL d   1       5.747  -0.934   2.227  0.00  0.00     0.241 C 
ATOM      4  O   UNL d   1       5.818  -2.155   2.237  0.00  0.00    -0.269 OA
ATOM      5  H   UNL d   1       5.234   0.816   1.234  0.00  0.00     0.162 HD
BRANCH   3   6
ATOM      6  C   UNL d   1       6.090  -0.108   3.407  0.00  0.00     0.080 C 
ATOM      7  C   UNL d   1       6.551  -0.705   4.516  0.00  0.00     0.086 C 
BRANCH   7   8
ATOM      8  C   UNL d   1       6.888   0.133   5.678  0.00  0.00     0.165 C 
ATOM      9  O   UNL d   1       6.774   1.345   5.707  0.00  0.00    -0.647 OA
BRANCH   8  10
ATOM     10  O   UNL d   1       7.341  -0.594   6.718  0.00  0.00    -0.773 OA
ATOM     11  H   UNL d   1       7.392  -1.556   6.570  0.00  0.00     0.167 HD
ENDBRANCH   8  10
ENDBRANCH   7   8
ENDBRANCH   3   6
ENDBRANCH   1   2
BRANCH   1  12
ATOM     12  C   UNL d   1       3.465  -1.137  -0.175  0.00  0.00     0.144 C 
BRANCH  12  13
ATOM     13  N   UNL d   1       2.595  -0.002   0.076  0.00  0.00    -0.335 N 
ATOM     14  C   UNL d   1       2.455   1.040  -0.790  0.00  0.00     0.361 C 
ATOM     15  O   UNL d   1       3.055   1.155  -1.843  0.00  0.00    -0.238 OA
ATOM     16  H   UNL d   1       1.952  -0.022   0.855  0.00  0.00     0.164 HD
BRANCH  14  17
ATOM     17  O   UNL d   1       1.545   1.906  -0.287  0.00  0.00    -0.294 OA
BRANCH  17  18
ATOM     18  C   UNL d   1       1.142   3.086  -1.036  0.00  0.00     0.061 C 
ATOM     19  C   UNL d   1       0.502   2.696  -2.376  0.00  0.00     0.046 C 
ATOM     20  C   UNL d   1       0.090   3.774  -0.147  0.00  0.00     0.046 C 
ATOM     21  C   UNL d   1       2.315   4.052  -1.236  0.00  0.00     0.046 C 
ENDBRANCH  17  18
ENDBRANCH  14  17
ENDBRANCH  12  13
ENDBRANCH   1  12
TORSDOF 8
