REMARK  5 active torsions:
REMARK  status: ('A' for Active; 'I' for Inactive)
REMARK    1  A    between atoms: O_13  and  C_9 
REMARK    2  A    between atoms: C_10  and  C_19 
REMARK       I    between atoms: N_11  and  C_10 
REMARK    3  A    between atoms: C_20  and  N_11 
REMARK    4  A    between atoms: C_19  and  O_13 
REMARK    5  A    between atoms: C_21  and  C_14 
ROOT
ATOM      1  O   UNL d   1       3.523   1.010  -0.515  0.00  0.00    -0.341 OA
ENDROOT
BRANCH   1   2
ATOM      2  C   UNL d   1       2.393   0.260  -0.326  0.00  0.00     0.078 A 
ATOM      3  C   UNL d   1       1.187   0.923  -0.629  0.00  0.00     0.006 A 
ATOM      4  C   UNL d   1      -0.026   0.224  -0.534  0.00  0.00     0.092 A 
ATOM      5  C   UNL d   1       1.205   2.384  -0.998  0.00  0.00     0.054 C 
ATOM      6  C   UNL d   1      -0.037  -1.115  -0.139  0.00  0.00     0.044 A 
ATOM      7  O   UNL d   1      -1.169   0.912  -0.837  0.00  0.00    -0.339 OA
ATOM      8  C   UNL d   1      -1.319  -1.831  -0.050  0.00  0.00     0.165 C 
ATOM      9  C   UNL d   1       1.157  -1.767   0.178  0.00  0.00     0.021 A 
ATOM     10  O   UNL d   1      -1.361  -3.019   0.261  0.00  0.00    -0.292 OA
ATOM     11  C   UNL d   1      -2.563  -1.020  -0.291  0.00  0.00     0.121 C 
ATOM     12  C   UNL d   1      -2.282   0.116  -1.272  0.00  0.00     0.067 C 
ATOM     13  C   UNL d   1      -2.048  -0.374  -2.711  0.00  0.00     0.046 C 
ATOM     14  C   UNL d   1      -3.483   1.074  -1.282  0.00  0.00     0.046 C 
ATOM     15  C   UNL d   1       2.369  -1.076   0.087  0.00  0.00     0.038 A 
ENDBRANCH   1   2
BRANCH   1  16
ATOM     16  C   UNL d   1       4.762   0.485  -0.081  0.00  0.00     0.278 C 
BRANCH  16  17
ATOM     17  C   UNL d   1       5.918   1.276  -0.686  0.00  0.00     0.246 C 
ATOM     18  N   UNL d   1       6.579   0.741  -1.764  0.00  0.00    -0.325 N 
ATOM     19  H   UNL d   1       7.503   1.129  -1.907  0.00  0.00     0.169 HD
ATOM     20  O   UNL d   1       6.354   2.301  -0.159  0.00  0.00    -0.271 OA
BRANCH  18  21
ATOM     21  C   UNL d   1       6.147  -0.233  -2.671  0.00  0.00     0.034 A 
ATOM     22  C   UNL d   1       4.892  -0.182  -3.282  0.00  0.00     0.030 A 
ATOM     23  C   UNL d   1       4.580  -1.071  -4.321  0.00  0.00     0.010 A 
ATOM     24  C   UNL d   1       5.497  -2.051  -4.731  0.00  0.00    -0.055 A 
ATOM     25  C   UNL d   1       6.726  -2.129  -4.055  0.00  0.00     0.010 A 
ATOM     26  C   UNL d   1       7.061  -1.207  -3.063  0.00  0.00     0.030 A 
BRANCH  24  27
ATOM     27  C   UNL d   1       5.279  -2.961  -5.932  0.00  0.00     0.010 C 
ATOM     28  C   UNL d   1       3.819  -3.221  -6.313  0.00  0.00     0.015 C 
ATOM     29  C   UNL d   1       6.035  -2.397  -7.143  0.00  0.00     0.015 C 
ENDBRANCH  24  27
ENDBRANCH  18  21
ENDBRANCH  16  17
ENDBRANCH   1  16
TORSDOF 5
