REMARK  6 active torsions:
REMARK  status: ('A' for Active; 'I' for Inactive)
REMARK    1  A    between atoms: C_3  and  C_1 
REMARK    2  A    between atoms: O_5  and  C_2 
REMARK    3  A    between atoms: O_14  and  C_3 
REMARK    4  A    between atoms: C_12  and  O_5 
REMARK    5  A    between atoms: C_8  and  C_12 
REMARK    6  A    between atoms: O_16  and  C_8 
ROOT
ATOM      1  C   UNL d   1      -0.120   2.526  -0.005  0.00  0.00     0.075 A 
ATOM      2  C   UNL d   1      -1.319   1.773   0.030  0.00  0.00     0.103 A 
ATOM      3  C   UNL d   1      -1.212   0.368   0.001  0.00  0.00     0.046 A 
ATOM      4  C   UNL d   1       0.047  -0.256   0.007  0.00  0.00     0.041 A 
ATOM      5  C   UNL d   1       1.134   1.888  -0.004  0.00  0.00     0.039 A 
ATOM      6  C   UNL d   1       1.209   0.504   0.006  0.00  0.00     0.013 A 
ATOM      7 BR   UNL d   1      -2.676  -0.841  -0.156  0.00  0.00    -0.048 Br
ATOM      8 BR   UNL d   1       2.893  -0.351  -0.015  0.00  0.00    -0.051 Br
ENDROOT
BRANCH   2   9
ATOM      9  O   UNL d   1      -2.480   2.498   0.027  0.00  0.00    -0.339 OA
BRANCH   9  10
ATOM     10  C   UNL d   1      -3.590   2.042   0.786  0.00  0.00     0.286 C 
BRANCH  10  11
ATOM     11  C   UNL d   1      -4.424   3.195   1.333  0.00  0.00     0.282 C 
ATOM     12  O   UNL d   1      -4.149   4.383   1.263  0.00  0.00    -0.263 OA
BRANCH  11  13
ATOM     13  O   UNL d   1      -5.544   2.684   1.932  0.00  0.00    -0.325 OA
ATOM     14  C   UNL d   1      -6.417   3.671   2.482  0.00  0.00     0.213 C 
ENDBRANCH  11  13
ENDBRANCH  10  11
ENDBRANCH   9  10
ENDBRANCH   2   9
BRANCH   1  15
ATOM     15  C   UNL d   1      -0.065   4.013  -0.002  0.00  0.00     0.295 C 
ATOM     16  O   UNL d   1       0.837   4.631   0.543  0.00  0.00    -0.259 OA
BRANCH  15  17
ATOM     17  O   UNL d   1      -1.054   4.548  -0.752  0.00  0.00    -0.322 OA
ATOM     18  C   UNL d   1      -1.056   5.976  -0.776  0.00  0.00     0.213 C 
ENDBRANCH  15  17
ENDBRANCH   1  15
TORSDOF 6
