REMARK  3 active torsions:
REMARK  status: ('A' for Active; 'I' for Inactive)
REMARK       I    between atoms: N_2  and  C_1 
REMARK       I    between atoms: N_8  and  C_1 
REMARK    1  A    between atoms: C_9  and  N_2 
REMARK    2  A    between atoms: C_5  and  C_14 
REMARK    3  A    between atoms: C_14  and  N_8 
ROOT
ATOM      1  C   UNL d   1       1.019  -0.157   0.089  0.00  0.00     0.320 C 
ATOM      2  N   UNL d   1       0.463   0.885  -0.625  0.00  0.00    -0.309 N 
ATOM      3  N   UNL d   1       0.148  -0.620   1.049  0.00  0.00    -0.342 N 
ATOM      4  O   UNL d   1       2.148  -0.612  -0.044  0.00  0.00    -0.247 OA
ATOM      5  H   UNL d   1      -0.394   1.263  -0.253  0.00  0.00     0.170 HD
ATOM      6  H   UNL d   1      -0.834  -0.421   0.949  0.00  0.00     0.164 HD
ENDROOT
BRANCH   2   7
ATOM      7  C   UNL d   1       1.071   1.613  -1.669  0.00  0.00     0.037 A 
ATOM      8  C   UNL d   1       2.261   1.217  -2.289  0.00  0.00     0.039 A 
ATOM      9  C   UNL d   1       2.798   2.022  -3.277  0.00  0.00    -0.021 A 
ATOM     10  C   UNL d   1       4.003   1.811  -4.108  0.00  0.00     0.068 C 
ATOM     11  C   UNL d   1       2.169   3.191  -3.671  0.00  0.00     0.075 A 
ATOM     12  C   UNL d   1       4.131   3.216  -4.695  0.00  0.00     0.180 C 
ATOM     13  O   UNL d   1       2.835   3.865  -4.660  0.00  0.00    -0.350 OA
ATOM     14  C   UNL d   1       0.978   3.593  -3.109  0.00  0.00     0.039 A 
ATOM     15  C   UNL d   1       0.426   2.795  -2.099  0.00  0.00     0.032 A 
ENDBRANCH   2   7
BRANCH   3  16
ATOM     16  C   UNL d   1       0.527  -1.648   1.990  0.00  0.00     0.129 C 
BRANCH  16  17
ATOM     17  C   UNL d   1      -0.197  -2.921   1.683  0.00  0.00     0.003 A 
ATOM     18  C   UNL d   1      -1.697  -3.033   1.814  0.00  0.00     0.007 A 
ATOM     19  C   UNL d   1      -0.806  -3.720   2.809  0.00  0.00     0.007 A 
ENDBRANCH  16  17
ENDBRANCH   3  16
TORSDOF 3
