REMARK  4 active torsions:
REMARK  status: ('A' for Active; 'I' for Inactive)
REMARK    1  A    between atoms: S_11  and  C_2 
REMARK    2  A    between atoms: C_9  and  C_8 
REMARK    3  A    between atoms: C_12  and  C_9 
REMARK    4  A    between atoms: C_10  and  S_11 
ROOT
ATOM      1  C   UNL d   1       2.812   4.214  -0.268  0.00  0.00     0.063 C 
ATOM      2  C   UNL d   1       2.137   3.127   0.129  0.00  0.00     0.057 C 
ENDROOT
BRANCH   1   3
ATOM      3  C   UNL d   1       4.298   4.181  -0.257  0.00  0.00     0.182 C 
ATOM      4  O   UNL d   1       4.929   3.281   0.288  0.00  0.00    -0.288 OA
BRANCH   3   5
ATOM      5  C   UNL d   1       5.029   5.296  -0.912  0.00  0.00     0.014 A 
ATOM      6  C   UNL d   1       6.284   5.656  -0.400  0.00  0.00     0.017 A 
ATOM      7  C   UNL d   1       7.034   6.661  -1.015  0.00  0.00     0.025 A 
ATOM      8  C   UNL d   1       6.536   7.299  -2.149  0.00  0.00     0.034 A 
ATOM      9  C   UNL d   1       5.291   6.945  -2.669  0.00  0.00     0.025 A 
ATOM     10 CL   UNL d   1       7.469   8.517  -2.925  0.00  0.00    -0.084 Cl
ATOM     11  C   UNL d   1       4.535   5.942  -2.053  0.00  0.00     0.017 A 
ENDBRANCH   3   5
ENDBRANCH   1   3
BRANCH   2  12
ATOM     12  S   UNL d   1       0.404   3.105   0.188  0.00  0.00    -0.064 SA
BRANCH  12  13
ATOM     13  C   UNL d   1       0.212   2.282   1.702  0.00  0.00     0.166 A 
ATOM     14  N   UNL d   1      -0.995   1.920   2.227  0.00  0.00    -0.326 N 
ATOM     15  C   UNL d   1      -0.717   1.358   3.438  0.00  0.00     0.201 A 
ATOM     16  C   UNL d   1      -2.322   2.072   1.690  0.00  0.00     0.159 C 
ATOM     17  N   UNL d   1       0.580   1.353   3.637  0.00  0.00    -0.294 N 
ATOM     18  N   UNL d   1       1.166   1.940   2.540  0.00  0.00    -0.279 N 
ATOM     19  HN  UNL d   1       1.064   0.983   4.454  1.00  0.00     0.187 HD
ATOM     20  HN  UNL d   1       2.166   2.084   2.401  1.00  0.00     0.189 HD
ENDBRANCH  12  13
ENDBRANCH   2  12
TORSDOF 4
