REMARK  6 active torsions:
REMARK  status: ('A' for Active; 'I' for Inactive)
REMARK    1  A    between atoms: N_2  and  C_1 
REMARK    2  A    between atoms: N_3  and  C_1 
REMARK    3  A    between atoms: C_5  and  N_2 
REMARK    4  A    between atoms: C_6  and  N_3 
REMARK    5  A    between atoms: O_17  and  C_7 
REMARK    6  A    between atoms: O_18  and  C_8 
ROOT
ATOM      1  C   UNL d   1       0.998   0.012  -0.023  0.00  0.00     0.176 C 
ATOM      2  S   UNL d   1       2.638   0.073  -0.373  0.00  0.00    -0.041 SA
ENDROOT
BRANCH   1   3
ATOM      3  N   UNL d   1       0.449  -0.149   1.222  0.00  0.00    -0.333 N 
ATOM      4  H   UNL d   1      -0.280  -0.852   1.259  0.00  0.00     0.168 HD
BRANCH   3   5
ATOM      5  C   UNL d   1       0.908   0.358   2.453  0.00  0.00     0.034 A 
ATOM      6  C   UNL d   1       1.628   1.550   2.545  0.00  0.00     0.032 A 
ATOM      7  C   UNL d   1       2.039   2.039   3.788  0.00  0.00     0.039 A 
ATOM      8  C   UNL d   1       1.737   1.332   4.951  0.00  0.00     0.068 A 
ATOM      9  C   UNL d   1       0.962   0.175   4.867  0.00  0.00     0.039 A 
ATOM     10  C   UNL d   1       0.539  -0.307   3.624  0.00  0.00     0.032 A 
BRANCH   8  11
ATOM     11  O   UNL d   1       2.110   1.707   6.212  0.00  0.00    -0.356 OA
ATOM     12  C   UNL d   1       3.345   2.416   6.286  0.00  0.00     0.210 C 
ENDBRANCH   8  11
ENDBRANCH   3   5
ENDBRANCH   1   3
BRANCH   1  13
ATOM     13  N   UNL d   1       0.135  -0.007  -1.085  0.00  0.00    -0.333 N 
ATOM     14  H   UNL d   1       0.602  -0.146  -1.974  0.00  0.00     0.168 HD
BRANCH  13  15
ATOM     15  C   UNL d   1      -1.231   0.343  -1.160  0.00  0.00     0.034 A 
ATOM     16  C   UNL d   1      -1.954   0.909  -0.110  0.00  0.00     0.032 A 
ATOM     17  C   UNL d   1      -3.302   1.258  -0.266  0.00  0.00     0.039 A 
ATOM     18  C   UNL d   1      -3.941   1.060  -1.486  0.00  0.00     0.068 A 
ATOM     19  C   UNL d   1      -3.213   0.532  -2.554  0.00  0.00     0.039 A 
ATOM     20  C   UNL d   1      -1.869   0.178  -2.394  0.00  0.00     0.032 A 
BRANCH  18  21
ATOM     21  O   UNL d   1      -5.249   1.349  -1.758  0.00  0.00    -0.356 OA
ATOM     22  C   UNL d   1      -6.032   1.831  -0.671  0.00  0.00     0.210 C 
ENDBRANCH  18  21
ENDBRANCH  13  15
ENDBRANCH   1  13
TORSDOF 6
