REMARK  5 active torsions:
REMARK  status: ('A' for Active; 'I' for Inactive)
REMARK    1  A    between atoms: N_2  and  C_1 
REMARK    2  A    between atoms: N_12  and  C_3 
REMARK    3  A    between atoms: C_14  and  C_6 
REMARK    4  A    between atoms: O_21  and  C_14 
REMARK    5  A    between atoms: C_22  and  O_21 
ROOT
ATOM      1  N   UNL d   1       1.529  -2.339   0.241  0.00  0.00    -0.219 N 
ATOM      2  C   UNL d   1       2.524  -2.582   1.185  0.00  0.00     0.140 A 
ATOM      3  C   UNL d   1       3.201  -3.706   0.750  0.00  0.00     0.101 A 
ATOM      4  N   UNL d   1       1.466  -3.317  -0.689  0.00  0.00    -0.301 N 
ATOM      5  HN  UNL d   1       0.786  -3.420  -1.442  1.00  0.00     0.186 HD
ATOM      6  C   UNL d   1       2.495  -4.116  -0.398  0.00  0.00     0.129 A 
ATOM      7  N   UNL d   1       2.705  -1.840   2.312  0.00  0.00    -0.383 N 
ATOM      8  H   UNL d   1       1.890  -1.454   2.790  0.00  0.00     0.157 HD
ATOM      9  H   UNL d   1       3.382  -2.201   2.996  0.00  0.00     0.157 HD
ENDROOT
BRANCH   1  10
ATOM     10  C   UNL d   1       0.655  -1.279   0.096  0.00  0.00     0.180 C 
ATOM     11  C   UNL d   1      -0.601  -1.280  -0.478  0.00  0.00     0.173 C 
ATOM     12  C   UNL d   1      -1.099   0.029  -0.292  0.00  0.00     0.059 C 
ATOM     13  C   UNL d   1      -2.442   0.579  -0.605  0.00  0.00     0.072 C 
ATOM     14  N   UNL d   1      -0.188   0.815   0.300  0.00  0.00    -0.299 N 
ATOM     15  N   UNL d   1       0.895   0.019   0.460  0.00  0.00    -0.277 N 
ATOM     16  HN  UNL d   1      -0.288   1.794   0.569  1.00  0.00     0.187 HD
ATOM     17  C   UNL d   1       2.143   0.671   0.792  0.00  0.00     0.179 C 
BRANCH  11  18
ATOM     18  N   UNL d   1      -1.316  -2.390  -1.014  0.00  0.00    -0.110 N 
ATOM     19  O   UNL d   1      -1.567  -3.320  -0.235  0.00  0.00    -0.532 OA
ATOM     20  O   UNL d   1      -1.712  -2.281  -2.181  0.00  0.00    -0.532 OA
ENDBRANCH  11  18
ENDBRANCH   1  10
BRANCH   3  21
ATOM     21  C   UNL d   1       4.359  -4.307   1.375  0.00  0.00     0.298 C 
ATOM     22  O   UNL d   1       4.874  -3.866   2.397  0.00  0.00    -0.259 OA
BRANCH  21  23
ATOM     23  O   UNL d   1       4.833  -5.372   0.667  0.00  0.00    -0.318 OA
BRANCH  23  24
ATOM     24  C   UNL d   1       6.132  -5.839   1.056  0.00  0.00     0.174 C 
ATOM     25  C   UNL d   1       7.172  -5.087   0.245  0.00  0.00     0.034 C 
ENDBRANCH  23  24
ENDBRANCH  21  23
ENDBRANCH   3  21
TORSDOF 5
