REMARK  3 active torsions:
REMARK  status: ('A' for Active; 'I' for Inactive)
REMARK    1  A    between atoms: C_6  and  N_2 
REMARK    2  A    between atoms: C_9  and  C_6 
REMARK    3  A    between atoms: C_11  and  C_9 
ROOT
ATOM      1  S   UNL d   1      -0.274  -1.714   0.792  0.00  0.00     0.269 S 
ATOM      2  N   UNL d   1       1.095  -1.277  -0.079  0.00  0.00    -0.230 N 
ATOM      3  C   UNL d   1       1.073   0.053  -0.543  0.00  0.00     0.269 A 
ATOM      4  C   UNL d   1      -0.165   0.710  -0.097  0.00  0.00     0.056 A 
ATOM      5  C   UNL d   1      -1.006  -0.140   0.606  0.00  0.00     0.095 A 
ATOM      6  O   UNL d   1      -1.037  -2.660   0.018  0.00  0.00    -0.200 OA
ATOM      7  O   UNL d   1       0.064  -1.875   2.183  0.00  0.00    -0.200 OA
ATOM      8  O   UNL d   1       1.945   0.579  -1.210  0.00  0.00    -0.266 OA
ATOM      9  C   UNL d   1      -0.491   2.045  -0.280  0.00  0.00     0.018 A 
ATOM     10  C   UNL d   1      -2.214   0.282   1.129  0.00  0.00     0.026 A 
ATOM     11  C   UNL d   1      -1.697   2.502   0.256  0.00  0.00     0.001 A 
ATOM     12  C   UNL d   1      -2.558   1.624   0.944  0.00  0.00     0.002 A 
ENDROOT
BRANCH   2  13
ATOM     13  C   UNL d   1       2.295  -2.106  -0.039  0.00  0.00     0.229 C 
BRANCH  13  14
ATOM     14  C   UNL d   1       2.085  -3.596  -0.060  0.00  0.00     0.178 C 
ATOM     15  O   UNL d   1       2.150  -4.271   0.967  0.00  0.00    -0.290 OA
BRANCH  14  16
ATOM     16  C   UNL d   1       1.845  -4.282  -1.359  0.00  0.00     0.012 A 
ATOM     17  C   UNL d   1       2.240  -5.623  -1.476  0.00  0.00     0.018 A 
ATOM     18  C   UNL d   1       1.967  -6.337  -2.644  0.00  0.00     0.043 A 
ATOM     19  C   UNL d   1       1.292  -5.710  -3.684  0.00  0.00     0.116 A 
ATOM     20  C   UNL d   1       0.915  -4.375  -3.592  0.00  0.00     0.043 A 
ATOM     21  F   UNL d   1       0.989  -6.406  -4.787  0.00  0.00    -0.206 F 
ATOM     22  C   UNL d   1       1.201  -3.651  -2.431  0.00  0.00     0.018 A 
ENDBRANCH  14  16
ENDBRANCH  13  14
ENDBRANCH   2  13
TORSDOF 3
