REMARK  3 active torsions:
REMARK  status: ('A' for Active; 'I' for Inactive)
REMARK    1  A    between atoms: C_6  and  C_1 
REMARK    2  A    between atoms: O_11  and  C_6 
REMARK    3  A    between atoms: C_17  and  O_11 
ROOT
ATOM      1  C   UNL d   1      -1.892   0.705   0.341  0.00  0.00     0.085 A 
ATOM      2  C   UNL d   1      -0.469   0.501   0.398  0.00  0.00     0.062 A 
ATOM      3  C   UNL d   1      -0.259  -0.831   0.047  0.00  0.00     0.132 A 
ATOM      4  C   UNL d   1      -2.429  -0.539   0.028  0.00  0.00     0.067 A 
ATOM      5  O   UNL d   1      -1.442  -1.454  -0.169  0.00  0.00    -0.310 OA
ATOM      6  C   UNL d   1       0.676   1.263   0.707  0.00  0.00     0.172 A 
ATOM      7  C   UNL d   1       0.998  -1.429  -0.054  0.00  0.00     0.192 A 
ATOM      8  C   UNL d   1       1.946   0.680   0.629  0.00  0.00     0.197 A 
ATOM      9  C   UNL d   1       2.103  -0.642   0.243  0.00  0.00     0.199 A 
ATOM     10  F   UNL d   1       0.567   2.539   1.102  0.00  0.00    -0.202 F 
ATOM     11  F   UNL d   1       1.140  -2.707  -0.422  0.00  0.00    -0.200 F 
ATOM     12  F   UNL d   1       3.026   1.413   0.938  0.00  0.00    -0.199 F 
ATOM     13  F   UNL d   1       3.333  -1.172   0.165  0.00  0.00    -0.199 F 
ATOM     14  C   UNL d   1      -3.801  -1.072  -0.143  0.00  0.00     0.078 C 
ENDROOT
BRANCH   1  15
ATOM     15  C   UNL d   1      -2.689   1.910   0.542  0.00  0.00     0.302 C 
ATOM     16  O   UNL d   1      -3.905   1.878   0.692  0.00  0.00    -0.259 OA
BRANCH  15  17
ATOM     17  O   UNL d   1      -1.926   3.078   0.480  0.00  0.00    -0.275 OA
BRANCH  17  18
ATOM     18  C   UNL d   1      -2.431   4.402   0.406  0.00  0.00     0.079 A 
ATOM     19  C   UNL d   1      -3.766   4.728   0.172  0.00  0.00     0.039 A 
ATOM     20  C   UNL d   1      -4.136   6.069   0.020  0.00  0.00     0.022 A 
ATOM     21  C   UNL d   1      -3.170   7.071   0.097  0.00  0.00     0.011 A 
ATOM     22  C   UNL d   1      -1.837   6.748   0.344  0.00  0.00     0.022 A 
ATOM     23 BR   UNL d   1      -3.670   8.875  -0.161  0.00  0.00    -0.051 Br
ATOM     24  C   UNL d   1      -1.465   5.410   0.500  0.00  0.00     0.039 A 
ENDBRANCH  17  18
ENDBRANCH  15  17
ENDBRANCH   1  15
TORSDOF 3
