REMARK  4 active torsions:
REMARK  status: ('A' for Active; 'I' for Inactive)
REMARK    1  A    between atoms: C_12  and  C_2 
REMARK    2  A    between atoms: C_15  and  N_4 
REMARK    3  A    between atoms: C_16  and  C_10 
REMARK       I    between atoms: N_14  and  C_12 
REMARK    4  A    between atoms: C_19  and  N_14 
ROOT
ATOM      1  C   UNL d   1      -1.255  -0.176  -0.243  0.00  0.00     0.118 C 
ATOM      2  C   UNL d   1       0.695   0.389   1.026  0.00  0.00     0.160 C 
ATOM      3  C   UNL d   1      -2.537  -0.108  -0.659  0.00  0.00     0.098 C 
ATOM      4  N   UNL d   1      -0.559  -1.260   0.332  0.00  0.00    -0.247 N 
ATOM      5  S   UNL d   1      -0.207   1.248  -0.179  0.00  0.00    -0.045 SA
ATOM      6  N   UNL d   1       0.514  -0.884   1.175  0.00  0.00    -0.281 N 
ATOM      7  HN  UNL d   1       1.047  -1.503   1.787  1.00  0.00     0.188 HD
ATOM      8  N   UNL d   1      -4.539   0.557  -1.655  0.00  0.00    -0.296 N 
ATOM      9  HN  UNL d   1      -5.279   1.110  -2.088  1.00  0.00     0.187 HD
ATOM     10  C   UNL d   1      -3.436   1.008  -1.107  0.00  0.00     0.077 C 
ATOM     11  C   UNL d   1      -3.420  -1.298  -0.817  0.00  0.00     0.275 C 
ATOM     12  N   UNL d   1      -4.499  -0.805  -1.529  0.00  0.00    -0.265 N 
ATOM     13  O   UNL d   1      -3.284  -2.436  -0.420  0.00  0.00    -0.266 OA
ATOM     14  H   UNL d   1      -5.309  -1.367  -1.765  0.00  0.00     0.190 HD
ENDROOT
BRANCH   4  15
ATOM     15  C   UNL d   1      -0.399  -2.545  -0.263  0.00  0.00     0.057 A 
ATOM     16  C   UNL d   1      -0.370  -2.728  -1.656  0.00  0.00     0.031 A 
ATOM     17  C   UNL d   1      -0.229  -4.005  -2.206  0.00  0.00     0.002 A 
ATOM     18  C   UNL d   1      -0.121  -5.117  -1.373  0.00  0.00     0.000 A 
ATOM     19  C   UNL d   1      -0.138  -4.953   0.010  0.00  0.00     0.002 A 
ATOM     20  C   UNL d   1      -0.261  -3.675   0.559  0.00  0.00     0.031 A 
ENDBRANCH   4  15
BRANCH  10  21
ATOM     21  C   UNL d   1      -3.236   2.452  -0.897  0.00  0.00    -0.007 C 
ATOM     22  C   UNL d   1      -2.741   2.962   0.307  0.00  0.00     0.014 C 
ATOM     23  C   UNL d   1      -2.482   4.328   0.436  0.00  0.00     0.001 C 
ATOM     24  C   UNL d   1      -2.819   5.201  -0.596  0.00  0.00     0.000 C 
ATOM     25  C   UNL d   1      -3.436   4.712  -1.746  0.00  0.00     0.001 C 
ATOM     26  C   UNL d   1      -3.644   3.339  -1.899  0.00  0.00     0.014 C 
ENDBRANCH  10  21
BRANCH   2  27
ATOM     27  C   UNL d   1       1.563   1.336   1.810  0.00  0.00     0.281 C 
ATOM     28  N   UNL d   1       2.734   0.759   2.277  0.00  0.00    -0.321 N 
ATOM     29  H   UNL d   1       2.872  -0.225   2.064  0.00  0.00     0.169 HD
ATOM     30  O   UNL d   1       1.168   2.471   2.023  0.00  0.00    -0.265 OA
BRANCH  28  31
ATOM     31  C   UNL d   1       3.721   1.392   3.068  0.00  0.00     0.035 A 
ATOM     32  C   UNL d   1       3.648   2.725   3.486  0.00  0.00     0.029 A 
ATOM     33  C   UNL d   1       4.663   3.289   4.264  0.00  0.00     0.002 A 
ATOM     34  C   UNL d   1       5.766   2.527   4.635  0.00  0.00     0.000 A 
ATOM     35  C   UNL d   1       5.850   1.198   4.229  0.00  0.00     0.002 A 
ATOM     36  C   UNL d   1       4.832   0.632   3.452  0.00  0.00     0.029 A 
ENDBRANCH  28  31
ENDBRANCH   2  27
TORSDOF 4
