REMARK  3 active torsions:
REMARK  status: ('A' for Active; 'I' for Inactive)
REMARK    1  A    between atoms: N_9  and  C_3 
REMARK    2  A    between atoms: C_15  and  C_4 
REMARK       I    between atoms: C_7  and  N_10 
REMARK       I    between atoms: N_11  and  C_7 
REMARK    3  A    between atoms: C_16  and  N_11 
ROOT
ATOM      1  C   UNL d   1       1.255  -6.383   1.025  0.00  0.00     0.322 C 
ATOM      2  N   UNL d   1       0.539  -2.621   0.183  0.00  0.00    -0.359 N 
ATOM      3  N   UNL d   1       0.222  -5.446   0.967  0.00  0.00    -0.332 N 
ATOM      4  N   UNL d   1       1.595  -6.803   2.291  0.00  0.00    -0.309 N 
ATOM      5  O   UNL d   1       1.784  -6.785  -0.009  0.00  0.00    -0.247 OA
ATOM      6  C   UNL d   1       0.590  -3.692  -0.826  0.00  0.00     0.145 C 
ATOM      7  C   UNL d   1      -0.170  -4.953  -0.364  0.00  0.00     0.147 C 
ATOM      8  C   UNL d   1       0.479  -3.475   2.500  0.00  0.00     0.040 C 
ATOM      9  C   UNL d   1       1.333  -2.862   1.393  0.00  0.00     0.126 C 
ATOM     10  C   UNL d   1      -0.345  -4.694   2.087  0.00  0.00     0.129 C 
ATOM     11  H   UNL d   1       1.161  -6.333   3.064  0.00  0.00     0.170 HD
ENDROOT
BRANCH   2  12
ATOM     12  C   UNL d   1       0.213  -1.327  -0.117  0.00  0.00     0.164 A 
ATOM     13  N   UNL d   1       0.482  -0.308   0.667  0.00  0.00    -0.321 N 
ATOM     14  C   UNL d   1       0.033   0.886   0.104  0.00  0.00     0.123 A 
ATOM     15  HN  UNL d   1       0.955  -0.380   1.568  1.00  0.00     0.169 HD
ATOM     16  N   UNL d   1      -0.608   0.828  -1.067  0.00  0.00    -0.309 N 
ATOM     17  S   UNL d   1      -0.641  -0.773  -1.521  0.00  0.00     0.024 SA
ATOM     18  HN  UNL d   1      -1.002   1.614  -1.584  1.00  0.00     0.176 HD
BRANCH  14  19
ATOM     19  C   UNL d   1       0.276   2.146   0.817  0.00  0.00     0.009 A 
ATOM     20  C   UNL d   1       1.146   2.170   1.919  0.00  0.00     0.015 A 
ATOM     21  C   UNL d   1       1.383   3.353   2.622  0.00  0.00     0.001 A 
ATOM     22  C   UNL d   1       0.750   4.529   2.231  0.00  0.00     0.000 A 
ATOM     23  C   UNL d   1      -0.113   4.525   1.136  0.00  0.00     0.001 A 
ATOM     24  C   UNL d   1      -0.347   3.341   0.429  0.00  0.00     0.015 A 
ENDBRANCH  14  19
ENDBRANCH   2  12
BRANCH   4  25
ATOM     25  C   UNL d   1       2.463  -7.863   2.649  0.00  0.00     0.036 A 
ATOM     26  C   UNL d   1       3.142  -8.668   1.732  0.00  0.00     0.029 A 
ATOM     27  C   UNL d   1       3.937  -9.735   2.170  0.00  0.00     0.002 A 
ATOM     28  C   UNL d   1       4.061 -10.007   3.529  0.00  0.00     0.000 A 
ATOM     29  C   UNL d   1       3.400  -9.206   4.455  0.00  0.00     0.002 A 
ATOM     30  C   UNL d   1       2.610  -8.137   4.019  0.00  0.00     0.029 A 
ENDBRANCH   4  25
TORSDOF 3
