REMARK  6 active torsions:
REMARK  status: ('A' for Active; 'I' for Inactive)
REMARK    1  A    between atoms: C_3  and  C_1 
REMARK    2  A    between atoms: O_10  and  C_2 
REMARK       I    between atoms: N_6  and  C_3 
REMARK    3  A    between atoms: C_17  and  N_6 
REMARK    4  A    between atoms: C_18  and  N_8 
REMARK    5  A    between atoms: C_9  and  O_10 
REMARK    6  A    between atoms: C_25  and  C_18 
ROOT
ATOM      1  C   UNL d   1      -0.675   2.250   0.205  0.00  0.00     0.275 C 
ATOM      2  N   UNL d   1      -1.951   2.723   0.401  0.00  0.00    -0.351 N 
ATOM      3  O   UNL d   1      -0.424   1.141  -0.250  0.00  0.00    -0.265 OA
ATOM      4  H   UNL d   1      -2.002   3.678   0.741  0.00  0.00     0.163 HD
ENDROOT
BRANCH   1   5
ATOM      5  C   UNL d   1       0.371   3.176   0.600  0.00  0.00     0.145 A 
ATOM      6  O   UNL d   1       0.054   4.447   1.017  0.00  0.00    -0.282 OA
ATOM      7  C   UNL d   1       1.229   5.089   1.283  0.00  0.00     0.191 A 
ATOM      8  C   UNL d   1       2.292   4.231   1.094  0.00  0.00     0.067 A 
ATOM      9  C   UNL d   1       1.744   3.012   0.634  0.00  0.00     0.048 A 
BRANCH   7  10
ATOM     10  O   UNL d   1       1.081   6.360   1.657  0.00  0.00    -0.288 OA
BRANCH  10  11
ATOM     11  C   UNL d   1       2.133   7.244   1.555  0.00  0.00     0.081 A 
ATOM     12  C   UNL d   1       2.939   7.319   0.418  0.00  0.00     0.061 A 
ATOM     13  C   UNL d   1       3.980   8.245   0.366  0.00  0.00     0.038 A 
ATOM     14 CL   UNL d   1       4.998   8.300  -1.020  0.00  0.00    -0.084 Cl
ATOM     15  C   UNL d   1       4.203   9.121   1.424  0.00  0.00     0.048 A 
ATOM     16  C   UNL d   1       3.368   9.068   2.539  0.00  0.00     0.038 A 
ATOM     17  C   UNL d   1       2.330   8.135   2.612  0.00  0.00     0.061 A 
ATOM     18 CL   UNL d   1       3.620  10.168   3.839  0.00  0.00    -0.084 Cl
ENDBRANCH  10  11
ENDBRANCH   7  10
ENDBRANCH   1   5
BRANCH   2  19
ATOM     19  C   UNL d   1      -3.223   2.075   0.067  0.00  0.00     0.088 C 
ATOM     20  C   UNL d   1      -3.320   0.565   0.315  0.00  0.00     0.055 C 
ATOM     21  C   UNL d   1      -3.012  -0.319  -0.900  0.00  0.00     0.275 C 
ATOM     22  N   UNL d   1      -3.688   0.143  -2.126  0.00  0.00     0.092 N 
ATOM     23  C   UNL d   1      -3.279   1.526  -2.418  0.00  0.00     0.275 C 
ATOM     24  C   UNL d   1      -3.739   2.471  -1.316  0.00  0.00     0.055 C 
BRANCH  22  25
ATOM     25  C   UNL d   1      -3.338  -0.714  -3.280  0.00  0.00     0.311 C 
BRANCH  25  26
ATOM     26  C   UNL d   1      -3.786  -2.155  -3.146  0.00  0.00    -0.030 A 
ATOM     27  C   UNL d   1      -5.147  -2.477  -3.042  0.00  0.00     0.009 A 
ATOM     28  C   UNL d   1      -5.553  -3.806  -2.904  0.00  0.00     0.001 A 
ATOM     29  C   UNL d   1      -4.603  -4.827  -2.873  0.00  0.00     0.000 A 
ATOM     30  C   UNL d   1      -3.249  -4.521  -2.985  0.00  0.00     0.001 A 
ATOM     31  C   UNL d   1      -2.841  -3.193  -3.122  0.00  0.00     0.009 A 
ENDBRANCH  25  26
ENDBRANCH  22  25
ENDBRANCH   2  19
TORSDOF 6
