REMARK  4 active torsions:
REMARK  status: ('A' for Active; 'I' for Inactive)
REMARK    1  A    between atoms: C_9  and  N_1 
REMARK    2  A    between atoms: N_7  and  N_2 
REMARK    3  A    between atoms: C_16  and  C_10 
REMARK    4  A    between atoms: O_19  and  C_17 
ROOT
ATOM      1  N   UNL d   1      -0.696  -1.133   0.195  0.00  0.00    -0.308 N 
ATOM      2  N   UNL d   1       0.833   1.137   0.160  0.00  0.00    -0.251 N 
ATOM      3  C   UNL d   1      -1.393   0.084   0.082  0.00  0.00     0.244 C 
ATOM      4  C   UNL d   1       1.528  -0.067  -0.026  0.00  0.00     0.257 C 
ATOM      5  C   UNL d   1      -0.518   1.243  -0.390  0.00  0.00     0.255 C 
ATOM      6  C   UNL d   1       0.614  -1.202  -0.468  0.00  0.00     0.236 C 
ATOM      7  O   UNL d   1       2.743  -0.239   0.028  0.00  0.00    -0.270 OA
ATOM      8  O   UNL d   1      -2.599   0.254   0.249  0.00  0.00    -0.271 OA
ENDROOT
BRANCH   2   9
ATOM      9  N   UNL d   1       1.368   2.328   0.610  0.00  0.00    -0.304 N 
ATOM     10  C   UNL d   1       2.587   2.401   1.037  0.00  0.00     0.136 C 
ATOM     11  HN  UNL d   1       0.789   3.168   0.606  1.00  0.00     0.186 HD
BRANCH  10  12
ATOM     12  C   UNL d   1       3.137   3.651   1.604  0.00  0.00     0.049 A 
ATOM     13  N   UNL d   1       4.452   3.597   1.928  0.00  0.00    -0.365 N 
ATOM     14  C   UNL d   1       4.979   4.700   2.496  0.00  0.00     0.088 A 
ATOM     15  HN  UNL d   1       5.014   2.764   1.751  1.00  0.00     0.165 HD
ATOM     16  C   UNL d   1       4.252   5.851   2.762  0.00  0.00     0.017 A 
ATOM     17  C   UNL d   1       2.904   5.877   2.419  0.00  0.00     0.004 A 
ATOM     18  C   UNL d   1       2.329   4.760   1.824  0.00  0.00     0.031 A 
ENDBRANCH  10  12
ENDBRANCH   2   9
BRANCH   1  19
ATOM     19  C   UNL d   1      -1.317  -2.368   0.577  0.00  0.00     0.040 A 
ATOM     20  C   UNL d   1      -2.687  -2.601   0.386  0.00  0.00     0.066 A 
ATOM     21  C   UNL d   1      -3.263  -3.839   0.692  0.00  0.00     0.070 A 
ATOM     22  C   UNL d   1      -2.470  -4.852   1.228  0.00  0.00     0.037 A 
ATOM     23  C   UNL d   1      -1.117  -4.632   1.463  0.00  0.00     0.005 A 
ATOM     24  C   UNL d   1      -0.547  -3.398   1.141  0.00  0.00     0.030 A 
BRANCH  21  25
ATOM     25  O   UNL d   1      -4.574  -4.180   0.493  0.00  0.00    -0.356 OA
ATOM     26  C   UNL d   1      -5.417  -3.181  -0.071  0.00  0.00     0.210 C 
ENDBRANCH  21  25
ENDBRANCH   1  19
TORSDOF 4
