REMARK  5 active torsions:
REMARK  status: ('A' for Active; 'I' for Inactive)
REMARK       I    between atoms: N_2  and  C_1 
REMARK       I    between atoms: N_3  and  C_1 
REMARK    1  A    between atoms: C_6  and  N_2 
REMARK    2  A    between atoms: C_7  and  N_2 
REMARK    3  A    between atoms: C_16  and  N_3 
REMARK    4  A    between atoms: C_4  and  C_6 
REMARK    5  A    between atoms: C_14  and  C_7 
ROOT
ATOM      1  C   UNL d   1       1.133   0.305  -0.394  0.00  0.00     0.319 C 
ATOM      2  N   UNL d   1       0.229  -0.172  -1.323  0.00  0.00    -0.325 N 
ATOM      3  N   UNL d   1       0.605   0.807   0.770  0.00  0.00    -0.339 N 
ATOM      4  O   UNL d   1       2.349   0.248  -0.567  0.00  0.00    -0.247 OA
ATOM      5  H   UNL d   1      -0.278   1.284   0.683  0.00  0.00     0.164 HD
ENDROOT
BRANCH   2   6
ATOM      6  C   UNL d   1      -1.226  -0.243  -1.157  0.00  0.00     0.174 C 
BRANCH   6   7
ATOM      7  C   UNL d   1      -1.956   0.716  -2.066  0.00  0.00     0.000 A 
ATOM      8  S   UNL d   1      -3.654   0.506  -2.269  0.00  0.00    -0.105 SA
ATOM      9  C   UNL d   1      -3.761   1.799  -3.378  0.00  0.00     0.050 A 
ATOM     10  C   UNL d   1      -2.542   2.405  -3.580  0.00  0.00     0.008 A 
ATOM     11  C   UNL d   1      -1.506   1.794  -2.810  0.00  0.00     0.017 A 
ENDBRANCH   6   7
ENDBRANCH   2   6
BRANCH   2  12
ATOM     12  C   UNL d   1       0.794  -0.863  -2.490  0.00  0.00     0.168 C 
BRANCH  12  13
ATOM     13  C   UNL d   1       1.068  -2.328  -2.251  0.00  0.00    -0.025 A 
ATOM     14  C   UNL d   1       0.154  -3.306  -2.630  0.00  0.00     0.096 A 
ATOM     15  N   UNL d   1       0.341  -4.636  -2.467  0.00  0.00    -0.375 N 
ATOM     16  C   UNL d   1       1.503  -5.020  -1.897  0.00  0.00     0.087 A 
ATOM     17  HN  UNL d   1      -0.362  -5.314  -2.761  1.00  0.00     0.164 HD
ATOM     18  C   UNL d   1       2.480  -4.134  -1.475  0.00  0.00     0.018 A 
ATOM     19  C   UNL d   1       2.253  -2.771  -1.653  0.00  0.00     0.011 A 
ENDBRANCH  12  13
ENDBRANCH   2  12
BRANCH   3  20
ATOM     20  C   UNL d   1       1.444   1.239   1.889  0.00  0.00     0.078 C 
ATOM     21  C   UNL d   1       2.317   0.111   2.456  0.00  0.00     0.032 C 
ATOM     22  C   UNL d   1       2.277   2.475   1.546  0.00  0.00     0.032 C 
ENDBRANCH   3  20
TORSDOF 5
