REMARK  1 active torsions:
REMARK  status: ('A' for Active; 'I' for Inactive)
REMARK       I    between atoms: C_2  and  N_1 
REMARK    1  A    between atoms: C_10  and  C_2 
ROOT
ATOM      1  N   UNL d   1       0.599   1.448   0.703  0.00  0.00    -0.307 N 
ATOM      2  C   UNL d   1       0.737   2.083   1.956  0.00  0.00     0.258 C 
ATOM      3  C   UNL d   1       1.707   1.570  -0.246  0.00  0.00     0.098 C 
ATOM      4  N   UNL d   1       0.979  -1.345  -0.338  0.00  0.00    -0.325 N 
ATOM      5  C   UNL d   1      -0.470   0.598   0.336  0.00  0.00     0.064 A 
ATOM      6  C   UNL d   1       2.266  -0.928  -0.341  0.00  0.00     0.224 C 
ATOM      7  C   UNL d   1       2.716   0.466  -0.017  0.00  0.00     0.128 C 
ATOM      8  C   UNL d   1      -0.261  -0.712  -0.128  0.00  0.00     0.061 A 
ATOM      9  O   UNL d   1       1.688   2.834   2.196  0.00  0.00    -0.267 OA
ATOM     10  O   UNL d   1       3.122  -1.788  -0.597  0.00  0.00    -0.273 OA
ATOM     11  C   UNL d   1       1.288   1.742  -1.714  0.00  0.00     0.033 C 
ATOM     12  C   UNL d   1      -1.782   1.098   0.436  0.00  0.00     0.032 A 
ATOM     13  C   UNL d   1      -1.384  -1.517  -0.389  0.00  0.00     0.032 A 
ATOM     14  C   UNL d   1      -2.881   0.293   0.140  0.00  0.00     0.002 A 
ATOM     15  C   UNL d   1      -2.682  -1.022  -0.256  0.00  0.00     0.002 A 
ATOM     16  H   UNL d   1       0.941  -2.324  -0.600  0.00  0.00     0.169 HD
ENDROOT
BRANCH   2  17
ATOM     17  C   UNL d   1      -0.229   1.883   3.079  0.00  0.00     0.032 A 
ATOM     18  C   UNL d   1      -0.829   0.656   3.389  0.00  0.00     0.017 A 
ATOM     19  C   UNL d   1      -1.754   0.568   4.434  0.00  0.00     0.001 A 
ATOM     20  C   UNL d   1      -2.038   1.686   5.217  0.00  0.00     0.000 A 
ATOM     21  C   UNL d   1      -1.389   2.892   4.965  0.00  0.00     0.001 A 
ATOM     22  C   UNL d   1      -0.490   2.990   3.901  0.00  0.00     0.017 A 
ENDBRANCH   2  17
TORSDOF 1
