REMARK  4 active torsions:
REMARK  status: ('A' for Active; 'I' for Inactive)
REMARK    1  A    between atoms: N_2  and  C_1 
REMARK    2  A    between atoms: N_4  and  C_1 
REMARK    3  A    between atoms: C_3  and  N_2 
REMARK    4  A    between atoms: C_5  and  N_4 
ROOT
ATOM      1  C   UNL d   1      -0.784  -0.803   0.205  0.00  0.00     0.176 C 
ATOM      2  S   UNL d   1      -2.207  -1.024   1.053  0.00  0.00    -0.041 SA
ENDROOT
BRANCH   1   3
ATOM      3  N   UNL d   1       0.497  -0.921   0.697  0.00  0.00    -0.333 N 
ATOM      4  H   UNL d   1       1.119  -0.194   0.366  0.00  0.00     0.168 HD
BRANCH   3   5
ATOM      5  C   UNL d   1       0.983  -1.750   1.727  0.00  0.00     0.040 A 
ATOM      6  C   UNL d   1       2.078  -1.346   2.512  0.00  0.00    -0.035 A 
ATOM      7  C   UNL d   1       2.628  -2.259   3.430  0.00  0.00     0.009 A 
ATOM      8  C   UNL d   1       2.689   0.029   2.462  0.00  0.00     0.050 C 
ATOM      9  C   UNL d   1       2.098  -3.541   3.576  0.00  0.00     0.007 A 
ATOM     10  C   UNL d   1       1.005  -3.941   2.807  0.00  0.00    -0.060 A 
ATOM     11  C   UNL d   1       0.457  -3.041   1.885  0.00  0.00     0.037 A 
ATOM     12  C   UNL d   1       0.441  -5.322   2.954  0.00  0.00     0.048 C 
ENDBRANCH   3   5
ENDBRANCH   1   3
BRANCH   1  13
ATOM     13  N   UNL d   1      -0.856  -0.296  -1.069  0.00  0.00    -0.332 N 
ATOM     14  H   UNL d   1      -1.720   0.188  -1.301  0.00  0.00     0.168 HD
BRANCH  13  15
ATOM     15  C   UNL d   1       0.004  -0.563  -2.164  0.00  0.00     0.056 A 
ATOM     16  C   UNL d   1      -0.049   0.255  -3.302  0.00  0.00     0.060 A 
ATOM     17 CL   UNL d   1      -1.071   1.650  -3.355  0.00  0.00    -0.082 Cl
ATOM     18  C   UNL d   1       0.752  -0.021  -4.413  0.00  0.00     0.026 A 
ATOM     19  C   UNL d   1       1.587  -1.138  -4.410  0.00  0.00     0.002 A 
ATOM     20  C   UNL d   1       1.627  -1.972  -3.297  0.00  0.00     0.002 A 
ATOM     21  C   UNL d   1       0.843  -1.686  -2.177  0.00  0.00     0.031 A 
ENDBRANCH  13  15
ENDBRANCH   1  13
TORSDOF 4
