REMARK  3 active torsions:
REMARK  status: ('A' for Active; 'I' for Inactive)
REMARK       I    between atoms: N_2  and  C_1 
REMARK       I    between atoms: N_3  and  C_1 
REMARK    1  A    between atoms: C_5  and  N_3 
REMARK    2  A    between atoms: C_8  and  C_12 
REMARK    3  A    between atoms: O_16  and  C_13 
ROOT
ATOM      1  N   UNL d   1       3.944  -0.132   1.367  0.00  0.00    -0.191 NA
ATOM      2  C   UNL d   1       0.885  -1.999   1.569  0.00  0.00     0.057 A 
ATOM      3  C   UNL d   1       3.178  -1.000   1.497  0.00  0.00     0.102 C 
ATOM      4  C   UNL d   1       2.275  -2.078   1.783  0.00  0.00     0.071 A 
ATOM      5  C   UNL d   1       2.816  -3.206   2.433  0.00  0.00     0.025 A 
ATOM      6  C   UNL d   1       0.061  -2.981   2.145  0.00  0.00     0.031 A 
ATOM      7  C   UNL d   1       1.988  -4.215   2.921  0.00  0.00     0.002 A 
ATOM      8  C   UNL d   1       0.608  -4.085   2.806  0.00  0.00     0.002 A 
ENDROOT
BRANCH   2   9
ATOM      9  N   UNL d   1       0.225  -1.002   0.791  0.00  0.00    -0.307 N 
ATOM     10  C   UNL d   1       0.731  -0.521  -0.404  0.00  0.00     0.322 C 
ATOM     11  N   UNL d   1      -0.046   0.454  -1.045  0.00  0.00    -0.334 N 
ATOM     12  O   UNL d   1       1.769  -0.950  -0.900  0.00  0.00    -0.247 OA
ATOM     13  C   UNL d   1       0.593   1.150  -2.163  0.00  0.00     0.128 C 
ATOM     14  C   UNL d   1      -1.145   1.186  -0.423  0.00  0.00     0.128 C 
ATOM     15  C   UNL d   1      -0.396   1.604  -3.233  0.00  0.00     0.029 C 
ATOM     16  C   UNL d   1      -1.595   2.398  -2.687  0.00  0.00     0.024 C 
ATOM     17  C   UNL d   1      -2.173   1.689  -1.443  0.00  0.00     0.029 C 
ATOM     18  H   UNL d   1      -0.781  -1.052   0.806  0.00  0.00     0.170 HD
BRANCH  16  19
ATOM     19  C   UNL d   1      -1.351   3.908  -2.570  0.00  0.00    -0.021 A 
ATOM     20  C   UNL d   1      -1.408   4.747  -3.712  0.00  0.00     0.074 A 
ATOM     21  C   UNL d   1      -1.205   6.131  -3.586  0.00  0.00     0.037 A 
ATOM     22  C   UNL d   1      -1.001   6.710  -2.337  0.00  0.00     0.003 A 
ATOM     23  C   UNL d   1      -0.971   5.907  -1.208  0.00  0.00     0.001 A 
ATOM     24  C   UNL d   1      -1.131   4.524  -1.326  0.00  0.00     0.010 A 
BRANCH  20  25
ATOM     25  O   UNL d   1      -1.671   4.147  -4.921  0.00  0.00    -0.355 OA
ATOM     26  C   UNL d   1      -2.202   4.999  -5.937  0.00  0.00     0.210 C 
ENDBRANCH  20  25
ENDBRANCH  16  19
ENDBRANCH   2   9
TORSDOF 3
