REMARK  2 active torsions:
REMARK  status: ('A' for Active; 'I' for Inactive)
REMARK    1  A    between atoms: N_6  and  N_2 
REMARK    2  A    between atoms: C_9  and  N_6 
ROOT
ATOM      1  C   UNL d   1      -1.005   0.880   0.070  0.00  0.00     0.109 A 
ATOM      2  N   UNL d   1      -1.264   2.151   0.190  0.00  0.00    -0.296 N 
ATOM      3  HN  UNL d   1      -0.504   2.831   0.194  1.00  0.00     0.187 HD
ATOM      4  C   UNL d   1       0.417   0.455   0.004  0.00  0.00     0.006 A 
ATOM      5  C   UNL d   1      -2.066  -0.212   0.014  0.00  0.00     0.200 A 
ATOM      6  C   UNL d   1      -1.611  -1.619   0.043  0.00  0.00     0.058 A 
ATOM      7  C   UNL d   1      -0.311  -1.931   0.052  0.00  0.00     0.016 A 
ATOM      8  C   UNL d   1       0.735  -0.908   0.022  0.00  0.00    -0.023 A 
ATOM      9  O   UNL d   1      -3.260   0.050  -0.061  0.00  0.00    -0.286 OA
ATOM     10  C   UNL d   1       1.435   1.420  -0.038  0.00  0.00     0.015 A 
ATOM     11  C   UNL d   1       2.083  -1.289   0.016  0.00  0.00     0.012 A 
ATOM     12  C   UNL d   1       2.771   1.030  -0.052  0.00  0.00     0.001 A 
ATOM     13  C   UNL d   1       3.095  -0.323  -0.018  0.00  0.00     0.001 A 
ENDROOT
BRANCH   2  14
ATOM     14  N   UNL d   1      -2.545   2.562   0.308  0.00  0.00    -0.299 N 
ATOM     15  H   UNL d   1      -3.338   1.928   0.149  0.00  0.00     0.187 HD
BRANCH  14  16
ATOM     16  C   UNL d   1      -2.824   3.944   0.302  0.00  0.00     0.069 A 
ATOM     17  C   UNL d   1      -4.137   4.427   0.438  0.00  0.00     0.062 A 
ATOM     18 CL   UNL d   1      -5.479   3.339   0.549  0.00  0.00    -0.082 Cl
ATOM     19  C   UNL d   1      -4.400   5.802   0.490  0.00  0.00     0.026 A 
ATOM     20  C   UNL d   1      -3.353   6.720   0.417  0.00  0.00     0.002 A 
ATOM     21  C   UNL d   1      -2.045   6.264   0.299  0.00  0.00     0.002 A 
ATOM     22  C   UNL d   1      -1.786   4.892   0.251  0.00  0.00     0.033 A 
ENDBRANCH  14  16
ENDBRANCH   2  14
TORSDOF 2
