REMARK  7 active torsions:
REMARK  status: ('A' for Active; 'I' for Inactive)
REMARK       I    between atoms: C_3  and  N_1 
REMARK    1  A    between atoms: C_5  and  N_7 
REMARK    2  A    between atoms: N_14  and  C_5 
REMARK    3  A    between atoms: N_7  and  C_12 
REMARK    4  A    between atoms: C_19  and  N_14 
REMARK    5  A    between atoms: C_15  and  S_17 
REMARK    6  A    between atoms: S_17  and  C_23 
REMARK    7  A    between atoms: C_23  and  C_19 
ROOT
ATOM      1  N   UNL d   1      -3.627  -1.033   0.013  0.00  0.00    -0.333 N 
ATOM      2  H   UNL d   1      -3.648  -1.996   0.321  0.00  0.00     0.168 HD
ENDROOT
BRANCH   1   3
ATOM      3  C   UNL d   1      -4.829  -0.348   0.140  0.00  0.00     0.172 C 
ATOM      4  S   UNL d   1      -5.037   1.303   0.345  0.00  0.00    -0.041 SA
BRANCH   3   5
ATOM      5  N   UNL d   1      -5.899  -1.229   0.009  0.00  0.00    -0.366 N 
ATOM      6  H   UNL d   1      -5.818  -2.132   0.460  0.00  0.00     0.161 HD
BRANCH   5   7
ATOM      7  C   UNL d   1      -7.256  -0.807  -0.332  0.00  0.00     0.132 C 
BRANCH   7   8
ATOM      8  C   UNL d   1      -8.146  -1.942  -0.836  0.00  0.00     0.094 C 
BRANCH   8   9
ATOM      9  S   UNL d   1      -8.539  -3.115   0.507  0.00  0.00    -0.159 SA
BRANCH   9  10
ATOM     10  C   UNL d   1      -9.748  -4.244  -0.326  0.00  0.00    -0.003 C 
ATOM     11  C   UNL d   1      -9.057  -5.005  -1.463  0.00  0.00     0.026 C 
ATOM     12  C   UNL d   1     -10.215  -5.242   0.746  0.00  0.00     0.026 C 
ATOM     13  C   UNL d   1     -10.968  -3.478  -0.853  0.00  0.00     0.026 C 
ENDBRANCH   9  10
ENDBRANCH   8   9
ENDBRANCH   7   8
ENDBRANCH   5   7
ENDBRANCH   3   5
ENDBRANCH   1   3
BRANCH   1  14
ATOM     14  C   UNL d   1      -2.398  -0.616  -0.564  0.00  0.00     0.034 A 
ATOM     15  C   UNL d   1      -1.307  -1.504  -0.485  0.00  0.00     0.032 A 
ATOM     16  C   UNL d   1      -0.067  -1.202  -1.079  0.00  0.00     0.032 A 
ATOM     17  C   UNL d   1       0.071  -0.007  -1.760  0.00  0.00     0.043 A 
ATOM     18  N   UNL d   1       1.190   0.534  -2.427  0.00  0.00    -0.318 N 
ATOM     19  C   UNL d   1      -1.007   0.865  -1.857  0.00  0.00    -0.027 A 
ATOM     20  C   UNL d   1       2.446  -0.034  -2.485  0.00  0.00     0.220 C 
ATOM     21  C   UNL d   1       0.761   1.774  -3.099  0.00  0.00     0.137 C 
ATOM     22  O   UNL d   1       2.760  -1.096  -1.937  0.00  0.00    -0.273 OA
ATOM     23  C   UNL d   1       3.513   0.732  -3.233  0.00  0.00     0.117 C 
ATOM     24  C   UNL d   1      -0.639   2.117  -2.583  0.00  0.00     0.061 C 
ATOM     25  C   UNL d   1      -2.237   0.572  -1.280  0.00  0.00     0.039 A 
ENDBRANCH   1  14
TORSDOF 7
