REMARK  2 active torsions:
REMARK  status: ('A' for Active; 'I' for Inactive)
REMARK    1  A    between atoms: C_10  and  C_5 
REMARK    2  A    between atoms: O_19  and  C_15 
ROOT
ATOM      1  C   UNL d   1      -0.736   0.348   0.000  0.00  0.00     0.050 C 
ATOM      2  C   UNL d   1      -1.382  -0.834  -0.006  0.00  0.00    -0.025 C 
ATOM      3  N   UNL d   1      -1.481   1.499  -0.067  0.00  0.00    -0.332 N 
ATOM      4  C   UNL d   1      -2.836   1.554   0.049  0.00  0.00     0.173 C 
ATOM      5  C   UNL d   1      -2.890  -0.886  -0.119  0.00  0.00     0.148 C 
ATOM      6  N   UNL d   1      -3.478   0.377   0.261  0.00  0.00    -0.354 N 
ATOM      7  C   UNL d   1       0.748   0.406   0.033  0.00  0.00    -0.003 A 
ATOM      8  C   UNL d   1      -0.683  -2.163   0.049  0.00  0.00     0.043 C 
ATOM      9  S   UNL d   1      -3.667   2.988  -0.057  0.00  0.00    -0.041 SA
ATOM     10  C   UNL d   1       1.498  -0.785   0.014  0.00  0.00    -0.045 A 
ATOM     11  C   UNL d   1       0.844  -2.139  -0.054  0.00  0.00     0.044 C 
ATOM     12  C   UNL d   1       1.453   1.625   0.082  0.00  0.00     0.014 A 
ATOM     13  C   UNL d   1       2.905  -0.738   0.023  0.00  0.00     0.008 A 
ATOM     14  C   UNL d   1       2.850   1.660   0.088  0.00  0.00     0.001 A 
ATOM     15  C   UNL d   1       3.578   0.479   0.056  0.00  0.00     0.001 A 
ATOM     16  H   UNL d   1      -1.025   2.395  -0.182  0.00  0.00     0.168 HD
ATOM     17  H   UNL d   1      -4.487   0.430   0.287  0.00  0.00     0.163 HD
ENDROOT
BRANCH   5  18
ATOM     18  C   UNL d   1      -3.354  -1.274  -1.517  0.00  0.00    -0.031 A 
ATOM     19  C   UNL d   1      -4.116  -2.428  -1.721  0.00  0.00     0.012 A 
ATOM     20  C   UNL d   1      -4.454  -2.831  -3.015  0.00  0.00     0.037 A 
ATOM     21  C   UNL d   1      -4.066  -2.077  -4.123  0.00  0.00     0.068 A 
ATOM     22  C   UNL d   1      -3.352  -0.897  -3.931  0.00  0.00     0.037 A 
ATOM     23  C   UNL d   1      -2.998  -0.502  -2.639  0.00  0.00     0.012 A 
BRANCH  21  24
ATOM     24  O   UNL d   1      -4.374  -2.625  -5.336  0.00  0.00    -0.356 OA
ATOM     25  C   UNL d   1      -4.559  -1.717  -6.415  0.00  0.00     0.210 C 
ENDBRANCH  21  24
ENDBRANCH   5  18
TORSDOF 2
