REMARK  3 active torsions:
REMARK  status: ('A' for Active; 'I' for Inactive)
REMARK    1  A    between atoms: C_9  and  C_1 
REMARK    2  A    between atoms: C_8  and  C_2 
REMARK    3  A    between atoms: C_10  and  C_11 
ROOT
ATOM      1  C   UNL d   1      -0.199   1.050   0.082  0.00  0.00     0.175 A 
ATOM      2  C   UNL d   1      -0.224  -1.082   0.073  0.00  0.00     0.176 A 
ATOM      3  O   UNL d   1      -1.073  -0.008  -0.033  0.00  0.00    -0.273 OA
ATOM      4  N   UNL d   1       1.044   0.652   0.266  0.00  0.00    -0.277 N 
ATOM      5  HN  UNL d   1       1.860   1.250   0.393  1.00  0.00     0.189 HD
ATOM      6  N   UNL d   1       1.029  -0.722   0.252  0.00  0.00    -0.277 N 
ATOM      7  HN  UNL d   1       1.832  -1.341   0.360  1.00  0.00     0.189 HD
ENDROOT
BRANCH   2   8
ATOM      8  C   UNL d   1      -0.780  -2.417  -0.049  0.00  0.00     0.033 A 
ATOM      9  C   UNL d   1      -2.149  -2.681  -0.190  0.00  0.00     0.031 A 
ATOM     10  C   UNL d   1      -2.616  -3.999  -0.318  0.00  0.00    -0.003 A 
ATOM     11  C   UNL d   1      -1.653  -5.009  -0.298  0.00  0.00     0.100 A 
ATOM     12  N   UNL d   1      -0.322  -4.799  -0.158  0.00  0.00    -0.373 N 
ATOM     13  C   UNL d   1       0.078  -3.513  -0.037  0.00  0.00     0.103 A 
ATOM     14  HN  UNL d   1       0.344  -5.572  -0.145  1.00  0.00     0.164 HD
BRANCH  10  15
ATOM     15  C   UNL d   1      -4.050  -4.283  -0.494  0.00  0.00     0.016 A 
ATOM     16  S   UNL d   1      -4.747  -5.724   0.137  0.00  0.00    -0.101 SA
ATOM     17  C   UNL d   1      -6.297  -5.332  -0.459  0.00  0.00     0.050 A 
ATOM     18  C   UNL d   1      -6.307  -4.119  -1.107  0.00  0.00     0.008 A 
ATOM     19  C   UNL d   1      -5.016  -3.514  -1.123  0.00  0.00     0.020 A 
ENDBRANCH  10  15
ENDBRANCH   2   8
BRANCH   1  20
ATOM     20  C   UNL d   1      -0.752   2.401  -0.010  0.00  0.00     0.028 A 
ATOM     21  C   UNL d   1      -0.005   3.484  -0.570  0.00  0.00    -0.011 A 
ATOM     22  C   UNL d   1      -0.576   4.785  -0.550  0.00  0.00    -0.025 A 
ATOM     23  C   UNL d   1       1.278   3.358  -1.164  0.00  0.00     0.013 A 
ATOM     24  C   UNL d   1       0.134   5.880  -1.075  0.00  0.00     0.012 A 
ATOM     25  C   UNL d   1      -1.852   4.984  -0.006  0.00  0.00     0.012 A 
ATOM     26  C   UNL d   1       1.398   5.717  -1.637  0.00  0.00     0.001 A 
ATOM     27  C   UNL d   1       1.968   4.455  -1.687  0.00  0.00     0.001 A 
ATOM     28  C   UNL d   1      -2.582   3.921   0.515  0.00  0.00     0.002 A 
ATOM     29  C   UNL d   1      -2.037   2.640   0.513  0.00  0.00     0.017 A 
ENDBRANCH   1  20
TORSDOF 3
