REMARK  5 active torsions:
REMARK  status: ('A' for Active; 'I' for Inactive)
REMARK    1  A    between atoms: C_2  and  C_1 
REMARK    2  A    between atoms: O_9  and  C_1 
REMARK    3  A    between atoms: C_7  and  C_2 
REMARK    4  A    between atoms: C_3  and  N_6 
REMARK    5  A    between atoms: N_6  and  C_7 
ROOT
ATOM      1  N   UNL d   1       0.679  -3.467  -1.172  0.00  0.00    -0.388 N 
ATOM      2  H   UNL d   1      -0.262  -3.473  -1.564  0.00  0.00     0.159 HD
ENDROOT
BRANCH   1   3
ATOM      3  C   UNL d   1       1.441  -4.529  -1.701  0.00  0.00     0.050 A 
ATOM      4  C   UNL d   1       0.825  -5.761  -2.011  0.00  0.00     0.060 A 
ATOM      5 CL   UNL d   1      -0.889  -5.959  -1.855  0.00  0.00    -0.082 Cl
ATOM      6  C   UNL d   1       1.569  -6.859  -2.462  0.00  0.00     0.026 A 
ATOM      7  C   UNL d   1       2.950  -6.753  -2.605  0.00  0.00     0.002 A 
ATOM      8  C   UNL d   1       3.583  -5.557  -2.285  0.00  0.00     0.002 A 
ATOM      9  C   UNL d   1       2.838  -4.467  -1.822  0.00  0.00     0.031 A 
ENDBRANCH   1   3
BRANCH   1  10
ATOM     10  C   UNL d   1       1.299  -2.155  -1.002  0.00  0.00     0.130 C 
BRANCH  10  11
ATOM     11  C   UNL d   1       0.284  -1.133  -0.508  0.00  0.00     0.129 C 
BRANCH  11  12
ATOM     12  C   UNL d   1       0.978   0.180  -0.253  0.00  0.00     0.140 C 
ATOM     13  O   UNL d   1       2.166   0.398  -0.429  0.00  0.00    -0.650 OA
BRANCH  12  14
ATOM     14  O   UNL d   1       0.132   1.137   0.198  0.00  0.00    -0.776 OA
ATOM     15  H   UNL d   1      -0.790   0.837   0.299  0.00  0.00     0.167 HD
ENDBRANCH  12  14
ENDBRANCH  11  12
ENDBRANCH  10  11
ENDBRANCH   1  10
TORSDOF 5
