REMARK  6 active torsions:
REMARK  status: ('A' for Active; 'I' for Inactive)
REMARK    1  A    between atoms: C_12  and  C_5 
REMARK    2  A    between atoms: N_15  and  C_9 
REMARK    3  A    between atoms: O_18  and  C_12 
REMARK    4  A    between atoms: N_13  and  N_15 
REMARK    5  A    between atoms: C_19  and  C_17 
REMARK    6  A    between atoms: C_28  and  O_18 
ROOT
ATOM      1  C   UNL d   1       1.537  -0.891  -0.029  0.00  0.00     0.162 A 
ATOM      2  N   UNL d   1       0.876   0.308   0.063  0.00  0.00    -0.221 N 
ATOM      3  N   UNL d   1       0.883  -2.075  -0.147  0.00  0.00    -0.324 N 
ATOM      4  HN  UNL d   1       1.406  -2.946  -0.241  1.00  0.00     0.169 HD
ATOM      5  C   UNL d   1       2.874  -0.529  -0.006  0.00  0.00     0.167 A 
ATOM      6  N   UNL d   1       1.729   1.345   0.140  0.00  0.00    -0.013 NA
ATOM      7  N   UNL d   1       2.960   0.845   0.107  0.00  0.00    -0.275 N 
ATOM      8  HN  UNL d   1       3.824   1.386   0.156  1.00  0.00     0.184 HD
ATOM      9  C   UNL d   1      -0.429  -2.087  -0.139  0.00  0.00     0.134 A 
ATOM     10  C   UNL d   1      -1.222  -0.810  -0.009  0.00  0.00     0.038 A 
ATOM     11  C   UNL d   1      -0.520   0.404   0.057  0.00  0.00     0.070 A 
ATOM     12  C   UNL d   1      -2.621  -0.783  -0.020  0.00  0.00     0.017 A 
ATOM     13  C   UNL d   1      -1.183   1.631   0.094  0.00  0.00     0.032 A 
ATOM     14  C   UNL d   1      -3.292   0.443   0.027  0.00  0.00     0.001 A 
ATOM     15  C   UNL d   1      -2.577   1.643   0.074  0.00  0.00     0.002 A 
ENDROOT
BRANCH   9  16
ATOM     16  N   UNL d   1      -1.121  -3.290  -0.300  0.00  0.00    -0.285 N 
ATOM     17  H   UNL d   1      -1.939  -3.384   0.298  0.00  0.00     0.188 HD
BRANCH  16  18
ATOM     18  N   UNL d   1      -0.541  -4.503  -0.596  0.00  0.00    -0.309 N 
ATOM     19  C   UNL d   1       0.285  -4.470  -1.598  0.00  0.00     0.118 C 
ATOM     20  HN  UNL d   1      -0.742  -5.355  -0.073  1.00  0.00     0.186 HD
BRANCH  19  21
ATOM     21  C   UNL d   1       1.091  -5.633  -2.004  0.00  0.00    -0.019 A 
ATOM     22  C   UNL d   1       0.944  -6.868  -1.365  0.00  0.00     0.014 A 
ATOM     23  C   UNL d   1       1.755  -7.941  -1.742  0.00  0.00     0.024 A 
ATOM     24  C   UNL d   1       2.707  -7.772  -2.747  0.00  0.00     0.034 A 
ATOM     25  C   UNL d   1       2.851  -6.543  -3.390  0.00  0.00     0.024 A 
ATOM     26 CL   UNL d   1       3.721  -9.089  -3.192  0.00  0.00    -0.084 Cl
ATOM     27  C   UNL d   1       2.038  -5.469  -3.020  0.00  0.00     0.014 A 
ENDBRANCH  19  21
ENDBRANCH  16  18
ENDBRANCH   9  16
BRANCH   5  28
ATOM     28  C   UNL d   1       4.041  -1.390  -0.127  0.00  0.00     0.315 C 
ATOM     29  O   UNL d   1       5.193  -0.970  -0.112  0.00  0.00    -0.257 OA
BRANCH  28  30
ATOM     30  O   UNL d   1       3.715  -2.704  -0.314  0.00  0.00    -0.317 OA
BRANCH  30  31
ATOM     31  C   UNL d   1       4.765  -3.605  -0.687  0.00  0.00     0.175 C 
ATOM     32  C   UNL d   1       5.099  -4.535   0.462  0.00  0.00     0.034 C 
ENDBRANCH  30  31
ENDBRANCH  28  30
ENDBRANCH   5  28
TORSDOF 6
