REMARK  2 active torsions:
REMARK  status: ('A' for Active; 'I' for Inactive)
REMARK    1  A    between atoms: C_6  and  C_1 
REMARK       I    between atoms: N_8  and  C_6 
REMARK    2  A    between atoms: C_12  and  N_8 
ROOT
ATOM      1  C   UNL d   1      -3.176  -1.927   0.338  0.00  0.00     0.263 C 
ATOM      2  N   UNL d   1      -4.327  -1.218   0.028  0.00  0.00    -0.323 N 
ATOM      3  O   UNL d   1      -3.158  -3.121   0.624  0.00  0.00    -0.267 OA
ATOM      4  H   UNL d   1      -4.193  -0.248  -0.229  0.00  0.00     0.169 HD
ENDROOT
BRANCH   1   5
ATOM      5  C   UNL d   1      -1.921  -1.174   0.275  0.00  0.00     0.075 A 
ATOM      6  S   UNL d   1      -1.861   0.509  -0.067  0.00  0.00    -0.084 SA
ATOM      7  C   UNL d   1      -0.114   0.481  -0.009  0.00  0.00     0.023 A 
ATOM      8  C   UNL d   1       0.926   1.439  -0.211  0.00  0.00     0.027 A 
ATOM      9  C   UNL d   1       0.364  -0.762   0.296  0.00  0.00     0.023 A 
ATOM     10  C   UNL d   1       2.164   0.857  -0.049  0.00  0.00     0.052 A 
ATOM     11  S   UNL d   1       2.105  -0.803   0.367  0.00  0.00    -0.101 SA
ATOM     12  C   UNL d   1      -0.670  -1.725   0.472  0.00  0.00     0.044 A 
ENDBRANCH   1   5
BRANCH   2  13
ATOM     13  C   UNL d   1      -5.641  -1.730  -0.072  0.00  0.00     0.035 A 
ATOM     14  C   UNL d   1      -5.999  -3.030   0.295  0.00  0.00     0.029 A 
ATOM     15  C   UNL d   1      -7.306  -3.491   0.114  0.00  0.00     0.002 A 
ATOM     16  C   UNL d   1      -8.272  -2.654  -0.434  0.00  0.00     0.000 A 
ATOM     17  C   UNL d   1      -7.936  -1.348  -0.780  0.00  0.00     0.002 A 
ATOM     18  C   UNL d   1      -6.628  -0.885  -0.593  0.00  0.00     0.029 A 
ENDBRANCH   2  13
TORSDOF 2
