REMARK  4 active torsions:
REMARK  status: ('A' for Active; 'I' for Inactive)
REMARK    1  A    between atoms: C_3  and  C_1 
REMARK    2  A    between atoms: C_4  and  C_2 
REMARK       I    between atoms: N_6  and  C_3 
REMARK    3  A    between atoms: C_15  and  N_6 
REMARK    4  A    between atoms: O_18  and  C_9 
ROOT
ATOM      1  C   UNL d   1       0.820   1.224  -0.227  0.00  0.00     0.062 A 
ATOM      2  C   UNL d   1       1.583   0.061  -0.057  0.00  0.00     0.069 A 
ATOM      3  C   UNL d   1      -0.558   1.064  -0.403  0.00  0.00     0.108 A 
ATOM      4  N   UNL d   1      -1.215  -0.120  -0.372  0.00  0.00    -0.346 N 
ATOM      5  HN  UNL d   1      -2.226  -0.176  -0.501  1.00  0.00     0.167 HD
ATOM      6  C   UNL d   1      -0.470  -1.217  -0.164  0.00  0.00     0.142 A 
ATOM      7  C   UNL d   1       0.903  -1.177  -0.008  0.00  0.00     0.073 A 
ENDROOT
BRANCH   1   8
ATOM      8  C   UNL d   1       1.273   2.643  -0.235  0.00  0.00     0.258 C 
ATOM      9  N   UNL d   1       2.269   3.007   0.650  0.00  0.00    -0.323 N 
ATOM     10  H   UNL d   1       2.843   2.289   1.071  0.00  0.00     0.169 HD
ATOM     11  O   UNL d   1       0.685   3.407  -0.992  0.00  0.00    -0.267 OA
BRANCH   9  12
ATOM     12  C   UNL d   1       2.641   4.331   0.984  0.00  0.00     0.035 A 
ATOM     13  C   UNL d   1       1.853   5.450   0.704  0.00  0.00     0.031 A 
ATOM     14  C   UNL d   1       2.250   6.723   1.128  0.00  0.00     0.026 A 
ATOM     15  C   UNL d   1       3.442   6.883   1.823  0.00  0.00     0.034 A 
ATOM     16  C   UNL d   1       4.247   5.779   2.101  0.00  0.00     0.026 A 
ATOM     17 CL   UNL d   1       3.924   8.446   2.355  0.00  0.00    -0.084 Cl
ATOM     18  C   UNL d   1       3.840   4.504   1.689  0.00  0.00     0.031 A 
ENDBRANCH   9  12
ENDBRANCH   1   8
BRANCH   2  19
ATOM     19  C   UNL d   1       3.072   0.015   0.082  0.00  0.00     0.418 C 
ATOM     20  F   UNL d   1       3.717   1.137  -0.325  0.00  0.00    -0.166 F 
ATOM     21  F   UNL d   1       3.444  -0.162   1.380  0.00  0.00    -0.166 F 
ATOM     22  F   UNL d   1       3.641  -1.007  -0.613  0.00  0.00    -0.166 F 
ENDBRANCH   2  19
BRANCH   6  23
ATOM     23  O   UNL d   1      -1.065  -2.457  -0.090  0.00  0.00    -0.341 OA
ATOM     24  C   UNL d   1      -2.477  -2.412  -0.277  0.00  0.00     0.211 C 
ENDBRANCH   6  23
TORSDOF 4
