REMARK  6 active torsions:
REMARK  status: ('A' for Active; 'I' for Inactive)
REMARK    1  A    between atoms: O_5  and  C_1 
REMARK    2  A    between atoms: C_2  and  C_3 
REMARK    3  A    between atoms: O_12  and  C_2 
REMARK    4  A    between atoms: C_3  and  O_4 
REMARK    5  A    between atoms: O_4  and  C_10 
REMARK    6  A    between atoms: C_11  and  O_5 
ROOT
ATOM      1  C   UNL d   1       1.823   3.149  -3.886  0.00  0.00     0.070 A 
ATOM      2  C   UNL d   1       0.947   1.226  -2.044  0.00  0.00     0.078 A 
ATOM      3  C   UNL d   1       0.591   2.521  -4.061  0.00  0.00     0.039 A 
ATOM      4  C   UNL d   1       2.576   2.878  -2.744  0.00  0.00     0.039 A 
ATOM      5  C   UNL d   1       0.145   1.575  -3.132  0.00  0.00     0.040 A 
ATOM      6  C   UNL d   1       2.128   1.928  -1.820  0.00  0.00     0.040 A 
ENDROOT
BRANCH   1   7
ATOM      7  O   UNL d   1       2.254   3.904  -4.941  0.00  0.00    -0.336 OA
BRANCH   7   8
ATOM      8  C   UNL d   1       3.061   5.050  -4.655  0.00  0.00     0.222 C 
ATOM      9  C   UNL d   1       2.754   6.064  -5.752  0.00  0.00     0.051 C 
BRANCH   8  10
ATOM     10  C   UNL d   1       4.570   4.773  -4.680  0.00  0.00     0.170 C 
ATOM     11  O   UNL d   1       5.423   5.612  -4.443  0.00  0.00    -0.648 OA
BRANCH  10  12
ATOM     12  O   UNL d   1       4.883   3.492  -4.995  0.00  0.00    -0.775 OA
ATOM     13  H   UNL d   1       4.077   2.960  -5.169  0.00  0.00     0.167 HD
ENDBRANCH  10  12
ENDBRANCH   8  10
ENDBRANCH   7   8
ENDBRANCH   1   7
BRANCH   2  14
ATOM     14  O   UNL d   1       0.459   0.241  -1.242  0.00  0.00    -0.255 OA
BRANCH  14  15
ATOM     15  C   UNL d   1       1.375  -0.709  -0.704  0.00  0.00     0.530 C 
ATOM     16  F   UNL d   1       2.665  -0.498  -1.038  0.00  0.00    -0.144 F 
ATOM     17  F   UNL d   1       1.033  -1.942  -1.141  0.00  0.00    -0.144 F 
ATOM     18  F   UNL d   1       1.274  -0.698   0.643  0.00  0.00    -0.144 F 
ENDBRANCH  14  15
ENDBRANCH   2  14
TORSDOF 6
