REMARK  4 active torsions:
REMARK  status: ('A' for Active; 'I' for Inactive)
REMARK    1  A    between atoms: N_6  and  C_1 
REMARK    2  A    between atoms: N_2  and  C_3 
REMARK    3  A    between atoms: C_5  and  C_4 
REMARK    4  A    between atoms: O_14  and  C_5 
REMARK       I    between atoms: C_7  and  N_6 
ROOT
ATOM      1  C   UNL d   1       1.417  -0.289  -0.030  0.00  0.00     0.084 A 
ATOM      2  C   UNL d   1       0.467  -1.333  -0.038  0.00  0.00     0.130 A 
ATOM      3  C   UNL d   1       0.930   1.036  -0.103  0.00  0.00     0.068 A 
ATOM      4  C   UNL d   1      -0.914  -1.082  -0.004  0.00  0.00     0.038 A 
ATOM      5  C   UNL d   1      -0.458   1.280  -0.056  0.00  0.00     0.020 A 
ATOM      6  C   UNL d   1      -1.373   0.229   0.013  0.00  0.00     0.004 A 
ENDROOT
BRANCH   1   7
ATOM      7  N   UNL d   1       2.821  -0.509   0.076  0.00  0.00    -0.325 N 
ATOM      8  C   UNL d   1       3.359  -1.400   0.988  0.00  0.00     0.218 C 
ATOM      9  O   UNL d   1       2.697  -2.068   1.775  0.00  0.00    -0.274 OA
ATOM     10  C   UNL d   1       4.862  -1.479   0.950  0.00  0.00     0.117 C 
ATOM     11  H   UNL d   1       3.417   0.298  -0.124  0.00  0.00     0.169 HD
ENDBRANCH   1   7
BRANCH   2  12
ATOM     12  N   UNL d   1       0.861  -2.713  -0.298  0.00  0.00    -0.113 N 
ATOM     13  O   UNL d   1       1.601  -2.914  -1.274  0.00  0.00    -0.532 OA
ATOM     14  O   UNL d   1       0.335  -3.596   0.396  0.00  0.00    -0.532 OA
ENDBRANCH   2  12
BRANCH   3  15
ATOM     15  C   UNL d   1       1.881   2.186  -0.192  0.00  0.00     0.295 C 
ATOM     16  O   UNL d   1       3.082   2.086  -0.003  0.00  0.00    -0.259 OA
BRANCH  15  17
ATOM     17  O   UNL d   1       1.227   3.315  -0.564  0.00  0.00    -0.322 OA
ATOM     18  C   UNL d   1       2.057   4.467  -0.715  0.00  0.00     0.213 C 
ENDBRANCH  15  17
ENDBRANCH   3  15
TORSDOF 4
