REMARK  5 active torsions:
REMARK  status: ('A' for Active; 'I' for Inactive)
REMARK       I    between atoms: N_2  and  C_1 
REMARK       I    between atoms: N_4  and  C_1 
REMARK    1  A    between atoms: C_3  and  S_6 
REMARK    2  A    between atoms: C_15  and  N_4 
REMARK    3  A    between atoms: C_5  and  C_10 
REMARK    4  A    between atoms: C_12  and  C_5 
REMARK    5  A    between atoms: S_6  and  C_19 
ROOT
ATOM      1  C   UNL d   1       0.948  -0.081   0.057  0.00  0.00     0.322 C 
ATOM      2  N   UNL d   1       0.180  -0.509  -1.024  0.00  0.00    -0.334 N 
ATOM      3  N   UNL d   1       0.621   1.157   0.566  0.00  0.00    -0.309 N 
ATOM      4  O   UNL d   1       1.835  -0.797   0.518  0.00  0.00    -0.247 OA
ATOM      5  C   UNL d   1      -0.956   0.176  -1.644  0.00  0.00     0.128 C 
ATOM      6  C   UNL d   1       0.593  -1.732  -1.711  0.00  0.00     0.128 C 
ATOM      7  C   UNL d   1      -1.803  -2.109  -2.463  0.00  0.00     0.064 C 
ATOM      8  C   UNL d   1      -2.152  -0.764  -1.806  0.00  0.00     0.032 C 
ATOM      9  C   UNL d   1      -0.561  -2.727  -1.815  0.00  0.00     0.032 C 
ATOM     10  H   UNL d   1      -0.009   1.721   0.029  0.00  0.00     0.170 HD
ENDROOT
BRANCH   3  11
ATOM     11  C   UNL d   1       1.107   1.759   1.746  0.00  0.00     0.036 A 
ATOM     12  C   UNL d   1       2.088   1.198   2.565  0.00  0.00     0.031 A 
ATOM     13  C   UNL d   1       2.455   1.815   3.765  0.00  0.00     0.021 A 
ATOM     14  C   UNL d   1       1.825   2.989   4.180  0.00  0.00     0.009 A 
ATOM     15  C   UNL d   1       0.888   3.589   3.337  0.00  0.00     0.021 A 
ATOM     16  C   UNL d   1       0.535   2.979   2.127  0.00  0.00     0.031 A 
BRANCH  14  17
ATOM     17  S   UNL d   1       2.208   3.735   5.748  0.00  0.00    -0.016 SA
BRANCH  17  18
ATOM     18  C   UNL d   1       1.664   2.441   6.880  0.00  0.00     0.448 C 
ATOM     19  F   UNL d   1       1.205   1.325   6.269  0.00  0.00    -0.160 F 
ATOM     20  F   UNL d   1       2.680   2.059   7.693  0.00  0.00    -0.160 F 
ATOM     21  F   UNL d   1       0.665   2.892   7.677  0.00  0.00    -0.160 F 
ENDBRANCH  17  18
ENDBRANCH  14  17
ENDBRANCH   3  11
BRANCH   7  22
ATOM     22  C   UNL d   1      -1.625  -1.965  -3.976  0.00  0.00     0.163 C 
ATOM     23  O   UNL d   1      -1.269  -0.899  -4.480  0.00  0.00    -0.292 OA
BRANCH  22  24
ATOM     24  C   UNL d   1      -1.880  -3.135  -4.878  0.00  0.00     0.010 A 
ATOM     25  C   UNL d   1      -2.249  -4.400  -4.405  0.00  0.00     0.015 A 
ATOM     26  C   UNL d   1      -2.490  -5.445  -5.302  0.00  0.00     0.001 A 
ATOM     27  C   UNL d   1      -2.360  -5.237  -6.674  0.00  0.00     0.000 A 
ATOM     28  C   UNL d   1      -1.987  -3.985  -7.154  0.00  0.00     0.001 A 
ATOM     29  C   UNL d   1      -1.748  -2.939  -6.261  0.00  0.00     0.015 A 
ENDBRANCH  22  24
ENDBRANCH   7  22
TORSDOF 5
