REMARK  6 active torsions:
REMARK  status: ('A' for Active; 'I' for Inactive)
REMARK    1  A    between atoms: N_3  and  C_1 
REMARK    2  A    between atoms: N_4  and  C_2 
REMARK    3  A    between atoms: N_9  and  C_5 
REMARK    4  A    between atoms: C_6  and  N_10 
REMARK    5  A    between atoms: C_7  and  C_14 
REMARK    6  A    between atoms: C_8  and  C_13 
ROOT
ATOM      1  N   UNL d   1       1.127  -2.506  -0.384  0.00  0.00    -0.376 N 
ATOM      2  N   UNL d   1       1.928  -5.232  -0.813  0.00  0.00    -0.376 N 
ATOM      3  C   UNL d   1       2.789  -4.316  -0.026  0.00  0.00     0.143 C 
ATOM      4  C   UNL d   1       1.916  -3.224   0.649  0.00  0.00     0.143 C 
ATOM      5  C   UNL d   1       0.265  -3.430  -1.166  0.00  0.00     0.143 C 
ATOM      6  C   UNL d   1       1.132  -4.521  -1.841  0.00  0.00     0.143 C 
ENDROOT
BRANCH   1   7
ATOM      7  C   UNL d   1       0.570  -1.263  -0.083  0.00  0.00     0.063 A 
ATOM      8  C   UNL d   1       0.336  -0.277  -1.065  0.00  0.00     0.130 A 
ATOM      9  C   UNL d   1      -0.221   0.980  -0.773  0.00  0.00     0.054 A 
ATOM     10  C   UNL d   1      -0.559   1.302   0.545  0.00  0.00     0.050 A 
ATOM     11  C   UNL d   1      -0.335   0.343   1.541  0.00  0.00     0.018 A 
ATOM     12  C   UNL d   1       0.217  -0.911   1.231  0.00  0.00     0.032 A 
BRANCH   8  13
ATOM     13  N   UNL d   1       0.716  -0.510  -2.450  0.00  0.00    -0.113 N 
ATOM     14  O   UNL d   1       1.911  -0.693  -2.706  0.00  0.00    -0.532 OA
ATOM     15  O   UNL d   1      -0.199  -0.466  -3.288  0.00  0.00    -0.532 OA
ENDBRANCH   8  13
BRANCH  10  16
ATOM     16  C   UNL d   1      -1.143   2.648   0.899  0.00  0.00     0.417 C 
ATOM     17  F   UNL d   1      -1.261   3.483  -0.170  0.00  0.00    -0.166 F 
ATOM     18  F   UNL d   1      -2.387   2.548   1.438  0.00  0.00    -0.166 F 
ATOM     19  F   UNL d   1      -0.387   3.315   1.813  0.00  0.00    -0.166 F 
ENDBRANCH  10  16
ENDBRANCH   1   7
BRANCH   2  20
ATOM     20  C   UNL d   1       2.139  -6.596  -0.878  0.00  0.00     0.063 A 
ATOM     21  C   UNL d   1       2.334  -7.441   0.235  0.00  0.00     0.130 A 
ATOM     22  C   UNL d   1       2.482  -8.840   0.129  0.00  0.00     0.054 A 
ATOM     23  C   UNL d   1       2.428  -9.459  -1.122  0.00  0.00     0.050 A 
ATOM     24  C   UNL d   1       2.245  -8.651  -2.247  0.00  0.00     0.018 A 
ATOM     25  C   UNL d   1       2.113  -7.258  -2.122  0.00  0.00     0.032 A 
BRANCH  21  26
ATOM     26  N   UNL d   1       2.304  -6.925   1.593  0.00  0.00    -0.113 N 
ATOM     27  O   UNL d   1       1.263  -6.384   1.987  0.00  0.00    -0.532 OA
ATOM     28  O   UNL d   1       3.325  -7.098   2.276  0.00  0.00    -0.532 OA
ENDBRANCH  21  26
BRANCH  23  29
ATOM     29  C   UNL d   1       2.543 -10.956  -1.266  0.00  0.00     0.417 C 
ATOM     30  F   UNL d   1       2.739 -11.599  -0.084  0.00  0.00    -0.166 F 
ATOM     31  F   UNL d   1       1.428 -11.511  -1.815  0.00  0.00    -0.166 F 
ATOM     32  F   UNL d   1       3.582 -11.322  -2.070  0.00  0.00    -0.166 F 
ENDBRANCH  23  29
ENDBRANCH   2  20
TORSDOF 6
