REMARK  4 active torsions:
REMARK  status: ('A' for Active; 'I' for Inactive)
REMARK    1  A    between atoms: S_5  and  C_4 
REMARK    2  A    between atoms: C_9  and  S_5 
REMARK    3  A    between atoms: N_10  and  C_8 
REMARK    4  A    between atoms: C_12  and  C_9 
ROOT
ATOM      1  C   UNL d   1      -1.395   0.028   0.415  0.00  0.00     0.063 A 
ATOM      2  N   UNL d   1      -3.654   0.100   1.675  0.00  0.00    -0.191 NA
ATOM      3  C   UNL d   1      -2.638   0.040   1.115  0.00  0.00     0.101 C 
ATOM      4  C   UNL d   1      -0.804  -1.137  -0.102  0.00  0.00     0.021 A 
ATOM      5  C   UNL d   1      -0.732   1.268   0.308  0.00  0.00     0.047 A 
ATOM      6  C   UNL d   1       0.475  -1.014  -0.676  0.00  0.00     0.022 A 
ATOM      7  C   UNL d   1       0.505   1.387  -0.322  0.00  0.00     0.007 A 
ATOM      8  C   UNL d   1       1.126   0.223  -0.763  0.00  0.00     0.024 A 
ENDROOT
BRANCH   4   9
ATOM      9  S   UNL d   1      -1.406  -2.827   0.026  0.00  0.00    -0.124 SA
BRANCH   9  10
ATOM     10  C   UNL d   1      -3.199  -2.721  -0.326  0.00  0.00     0.117 C 
BRANCH  10  11
ATOM     11  C   UNL d   1      -3.808  -4.096  -0.480  0.00  0.00    -0.049 A 
ATOM     12  C   UNL d   1      -4.186  -4.832   0.656  0.00  0.00     0.008 A 
ATOM     13  C   UNL d   1      -4.747  -6.104   0.527  0.00  0.00     0.001 A 
ATOM     14  C   UNL d   1      -4.938  -6.656  -0.738  0.00  0.00     0.000 A 
ATOM     15  C   UNL d   1      -4.566  -5.936  -1.873  0.00  0.00     0.001 A 
ATOM     16  C   UNL d   1      -4.003  -4.664  -1.746  0.00  0.00     0.008 A 
ENDBRANCH  10  11
ENDBRANCH   9  10
ENDBRANCH   4   9
BRANCH   7  17
ATOM     17  N   UNL d   1       1.205   2.594  -0.274  0.00  0.00    -0.303 NA
ATOM     18  H   UNL d   1       0.619   3.422  -0.221  0.00  0.00     0.124 HD
ATOM     19  H   UNL d   1       1.933   2.686  -0.976  0.00  0.00     0.124 HD
ENDBRANCH   7  17
TORSDOF 4
