REMARK  1 active torsions:
REMARK  status: ('A' for Active; 'I' for Inactive)
REMARK    1  A    between atoms: C_3  and  N_1 
ROOT
ATOM      1  C   UNL d   1      -0.766  -1.531   0.359  0.00  0.00     0.025 A 
ATOM      2  C   UNL d   1       0.267  -0.735   0.894  0.00  0.00     0.115 A 
ATOM      3  N   UNL d   1      -2.356  -3.095   0.514  0.00  0.00    -0.365 N 
ATOM      4  C   UNL d   1      -1.403  -2.413   1.238  0.00  0.00     0.044 A 
ATOM      5  C   UNL d   1      -2.349  -2.675  -0.788  0.00  0.00     0.089 A 
ATOM      6  C   UNL d   1      -1.379  -1.708  -0.916  0.00  0.00     0.033 A 
ATOM      7  C   UNL d   1       0.644  -0.811   2.240  0.00  0.00     0.037 A 
ATOM      8  C   UNL d   1      -0.026  -1.696   3.080  0.00  0.00     0.005 A 
ATOM      9  C   UNL d   1      -1.056  -2.514   2.595  0.00  0.00     0.030 A 
ATOM     10  H   UNL d   1      -2.967  -3.805   0.894  0.00  0.00     0.165 HD
ENDROOT
BRANCH   2  11
ATOM     11  N   UNL d   1       0.975   0.162   0.007  0.00  0.00    -0.115 N 
ATOM     12  O   UNL d   1       0.308   1.005  -0.609  0.00  0.00    -0.532 OA
ATOM     13  O   UNL d   1       2.207   0.041  -0.048  0.00  0.00    -0.532 OA
ENDBRANCH   2  11
TORSDOF 1
