REMARK  3 active torsions:
REMARK  status: ('A' for Active; 'I' for Inactive)
REMARK    1  A    between atoms: C_5  and  C_2 
REMARK       I    between atoms: N_14  and  C_5 
REMARK    2  A    between atoms: N_13  and  C_15 
REMARK    3  A    between atoms: C_19  and  N_14 
ROOT
ATOM      1  C   UNL d   1      -4.662  -2.979  -0.903  0.00  0.00     0.256 C 
ATOM      2  N   UNL d   1      -3.589  -2.837  -0.034  0.00  0.00    -0.323 N 
ATOM      3  O   UNL d   1      -4.876  -3.958  -1.612  0.00  0.00    -0.267 OA
ATOM      4  H   UNL d   1      -3.576  -2.068   0.614  0.00  0.00     0.169 HD
ENDROOT
BRANCH   2   5
ATOM      5  C   UNL d   1      -2.481  -3.720   0.057  0.00  0.00     0.035 A 
ATOM      6  C   UNL d   1      -2.279  -4.795  -0.801  0.00  0.00     0.032 A 
ATOM      7  C   UNL d   1      -1.135  -5.596  -0.695  0.00  0.00     0.031 A 
ATOM      8  C   UNL d   1      -0.149  -5.361   0.268  0.00  0.00     0.030 A 
ATOM      9  C   UNL d   1      -0.380  -4.296   1.149  0.00  0.00     0.031 A 
ATOM     10  C   UNL d   1      -1.522  -3.480   1.045  0.00  0.00     0.032 A 
BRANCH   8  11
ATOM     11  N   UNL d   1       0.972  -6.162   0.337  0.00  0.00    -0.381 N 
ATOM     12  C   UNL d   1       1.657  -6.451   1.592  0.00  0.00     0.123 C 
ATOM     13  C   UNL d   1       1.848  -7.966   1.700  0.00  0.00     0.020 C 
ATOM     14  C   UNL d   1       2.566  -8.533   0.475  0.00  0.00     0.003 C 
ATOM     15  C   UNL d   1       1.868  -8.118  -0.820  0.00  0.00     0.020 C 
ATOM     16  C   UNL d   1       1.658  -6.606  -0.880  0.00  0.00     0.123 C 
ENDBRANCH   8  11
ENDBRANCH   2   5
BRANCH   1  17
ATOM     17  C   UNL d   1      -5.666  -1.863  -0.974  0.00  0.00     0.034 A 
ATOM     18  C   UNL d   1      -5.469  -0.621  -0.335  0.00  0.00     0.051 A 
ATOM     19  C   UNL d   1      -6.529   0.296  -0.496  0.00  0.00     0.086 A 
ATOM     20  C   UNL d   1      -7.719   0.003  -1.283  0.00  0.00     0.085 A 
ATOM     21  N   UNL d   1      -6.653   1.532   0.002  0.00  0.00    -0.240 N 
ATOM     22  N   UNL d   1      -8.530   1.065  -1.233  0.00  0.00    -0.240 N 
ATOM     23  C   UNL d   1      -7.897  -1.218  -1.947  0.00  0.00     0.035 A 
ATOM     24  O   UNL d   1      -7.880   1.997  -0.441  0.00  0.00    -0.156 OA
ATOM     25  HN  UNL d   1      -9.438   1.167  -1.684  1.00  0.00     0.197 HD
ATOM     26  C   UNL d   1      -6.839  -2.128  -1.759  0.00  0.00     0.019 A 
ATOM     27  HN  UNL d   1      -5.982   2.029   0.588  1.00  0.00     0.197 HD
ENDBRANCH   1  17
TORSDOF 3
