REMARK  6 active torsions:
REMARK  status: ('A' for Active; 'I' for Inactive)
REMARK    1  A    between atoms: N_7  and  C_1 
REMARK    2  A    between atoms: C_11  and  N_7 
REMARK    3  A    between atoms: C_8  and  C_9 
REMARK    4  A    between atoms: O_17  and  C_8 
REMARK    5  A    between atoms: O_18  and  N_12 
REMARK    6  A    between atoms: C_19  and  O_17 
ROOT
ATOM      1  C   UNL d   1      -2.051  -0.741  -0.020  0.00  0.00     0.150 A 
ATOM      2  N   UNL d   1      -0.998  -1.531  -0.002  0.00  0.00    -0.335 N 
ATOM      3  HN  UNL d   1      -1.038  -2.551  -0.006  1.00  0.00     0.168 HD
ATOM      4  S   UNL d   1      -1.683   0.941  -0.006  0.00  0.00    -0.052 SA
ATOM      5  C   UNL d   1      -0.006   0.593   0.026  0.00  0.00     0.036 A 
ATOM      6  C   UNL d   1       0.170  -0.788   0.023  0.00  0.00     0.051 A 
ATOM      7  C   UNL d   1       2.375   0.959   0.044  0.00  0.00     0.041 A 
ATOM      8  C   UNL d   1       1.076   1.486   0.041  0.00  0.00     0.038 A 
ATOM      9  C   UNL d   1       1.482  -1.303   0.040  0.00  0.00     0.032 A 
ATOM     10  C   UNL d   1       2.575  -0.426   0.050  0.00  0.00     0.020 A 
ENDROOT
BRANCH   1  11
ATOM     11  N   UNL d   1      -3.310  -1.233  -0.047  0.00  0.00    -0.331 N 
ATOM     12  H   UNL d   1      -3.385  -2.243  -0.052  0.00  0.00     0.168 HD
BRANCH  11  13
ATOM     13  C   UNL d   1      -4.503  -0.587  -0.065  0.00  0.00     0.206 C 
ATOM     14  N   UNL d   1      -5.654  -1.178  -0.086  0.00  0.00    -0.265 N 
ATOM     15  HN  UNL d   1      -5.804  -2.187  -0.095  1.00  0.00     0.194 HD
BRANCH  14  16
ATOM     16  O   UNL d   1      -6.659  -0.203  -0.097  0.00  0.00    -0.289 OA
ATOM     17  H   UNL d   1      -7.473  -0.740  -0.111  0.00  0.00     0.244 HD
ENDBRANCH  14  16
ENDBRANCH  11  13
ENDBRANCH   1  11
BRANCH   7  18
ATOM     18  C   UNL d   1       3.497   1.930  -0.044  0.00  0.00     0.293 C 
ATOM     19  O   UNL d   1       3.331   3.138  -0.105  0.00  0.00    -0.259 OA
BRANCH  18  20
ATOM     20  O   UNL d   1       4.676   1.276  -0.167  0.00  0.00    -0.318 OA
BRANCH  20  21
ATOM     21  C   UNL d   1       5.751   2.060  -0.705  0.00  0.00     0.174 C 
ATOM     22  C   UNL d   1       5.708   1.930  -2.217  0.00  0.00     0.034 C 
ENDBRANCH  20  21
ENDBRANCH  18  20
ENDBRANCH   7  18
TORSDOF 6
