REMARK  7 active torsions:
REMARK  status: ('A' for Active; 'I' for Inactive)
REMARK    1  A    between atoms: C_3  and  C_1 
REMARK       I    between atoms: N_4  and  C_1 
REMARK    2  A    between atoms: C_2  and  C_3 
REMARK       I    between atoms: N_5  and  C_2 
REMARK    3  A    between atoms: C_10  and  C_3 
REMARK    4  A    between atoms: C_8  and  N_4 
REMARK    5  A    between atoms: C_9  and  N_5 
REMARK    6  A    between atoms: O_15  and  C_13 
REMARK    7  A    between atoms: O_16  and  C_14 
ROOT
ATOM      1  C   UNL d   1       0.479   1.105  -0.484  0.00  0.00     0.203 C 
ENDROOT
BRANCH   1   2
ATOM      2  C   UNL d   1      -0.418   2.148   0.194  0.00  0.00     0.239 C 
ATOM      3  N   UNL d   1      -1.005   3.205  -0.440  0.00  0.00    -0.326 N 
ATOM      4  H   UNL d   1      -1.415   3.834   0.244  0.00  0.00     0.169 HD
ATOM      5  O   UNL d   1      -0.622   2.112   1.420  0.00  0.00    -0.272 OA
BRANCH   3   6
ATOM      6  C   UNL d   1      -0.997   3.675  -1.761  0.00  0.00     0.037 A 
ATOM      7  C   UNL d   1      -0.758   2.881  -2.879  0.00  0.00     0.066 A 
ATOM      8  C   UNL d   1      -0.632   3.454  -4.147  0.00  0.00     0.070 A 
ATOM      9  C   UNL d   1      -0.820   4.828  -4.302  0.00  0.00     0.037 A 
ATOM     10  C   UNL d   1      -1.152   5.620  -3.206  0.00  0.00     0.005 A 
ATOM     11  C   UNL d   1      -1.247   5.042  -1.941  0.00  0.00     0.029 A 
BRANCH   8  12
ATOM     12  O   UNL d   1      -0.329   2.778  -5.298  0.00  0.00    -0.356 OA
ATOM     13  C   UNL d   1      -0.021   1.395  -5.163  0.00  0.00     0.210 C 
ENDBRANCH   8  12
ENDBRANCH   3   6
ENDBRANCH   1   2
BRANCH   1  14
ATOM     14  C   UNL d   1       0.907  -0.069   0.421  0.00  0.00     0.239 C 
ATOM     15  N   UNL d   1       1.073   0.236   1.760  0.00  0.00    -0.326 N 
ATOM     16  H   UNL d   1       0.597   1.080   2.079  0.00  0.00     0.169 HD
ATOM     17  O   UNL d   1       1.121  -1.176  -0.081  0.00  0.00    -0.272 OA
BRANCH  15  18
ATOM     18  C   UNL d   1       1.556  -0.608   2.772  0.00  0.00     0.037 A 
ATOM     19  C   UNL d   1       2.298  -1.763   2.517  0.00  0.00     0.066 A 
ATOM     20  C   UNL d   1       2.711  -2.585   3.568  0.00  0.00     0.070 A 
ATOM     21  C   UNL d   1       2.389  -2.236   4.881  0.00  0.00     0.037 A 
ATOM     22  C   UNL d   1       1.679  -1.065   5.147  0.00  0.00     0.005 A 
ATOM     23  C   UNL d   1       1.273  -0.249   4.095  0.00  0.00     0.029 A 
BRANCH  20  24
ATOM     24  O   UNL d   1       3.425  -3.747   3.438  0.00  0.00    -0.356 OA
ATOM     25  C   UNL d   1       3.764  -4.137   2.112  0.00  0.00     0.210 C 
ENDBRANCH  20  24
ENDBRANCH  15  18
ENDBRANCH   1  14
BRANCH   1  26
ATOM     26  C   UNL d   1       1.727   1.659  -1.176  0.00  0.00    -0.036 A 
ATOM     27  C   UNL d   1       2.327   2.866  -0.795  0.00  0.00     0.008 A 
ATOM     28  C   UNL d   1       3.441   3.355  -1.487  0.00  0.00     0.001 A 
ATOM     29  C   UNL d   1       3.989   2.635  -2.544  0.00  0.00     0.000 A 
ATOM     30  C   UNL d   1       3.437   1.407  -2.903  0.00  0.00     0.001 A 
ATOM     31  C   UNL d   1       2.324   0.918  -2.213  0.00  0.00     0.008 A 
ENDBRANCH   1  26
TORSDOF 7
