REMARK  5 active torsions:
REMARK  status: ('A' for Active; 'I' for Inactive)
REMARK    1  A    between atoms: C_13  and  C_2 
REMARK    2  A    between atoms: S_9  and  C_5 
REMARK    3  A    between atoms: N_8  and  C_10 
REMARK    4  A    between atoms: C_19  and  S_9 
REMARK    5  A    between atoms: C_20  and  C_19 
ROOT
ATOM      1  N   UNL d   1       0.834   0.002  -0.039  0.00  0.00    -0.315 N 
ATOM      2  C   UNL d   1       0.002   1.105  -0.103  0.00  0.00     0.134 A 
ATOM      3  N   UNL d   1      -1.246   0.665  -0.132  0.00  0.00    -0.283 N 
ATOM      4  HN  UNL d   1      -2.081   1.251  -0.122  1.00  0.00     0.188 HD
ATOM      5  C   UNL d   1       0.016  -1.092  -0.141  0.00  0.00     0.162 A 
ATOM      6  N   UNL d   1      -1.235  -0.708  -0.177  0.00  0.00    -0.278 N 
ATOM      7  HN  UNL d   1      -2.052  -1.317  -0.229  1.00  0.00     0.189 HD
ATOM      8  C   UNL d   1       2.262  -0.029   0.148  0.00  0.00     0.160 C 
ENDROOT
BRANCH   5   9
ATOM      9  S   UNL d   1       0.596  -2.721  -0.208  0.00  0.00    -0.088 SA
BRANCH   9  10
ATOM     10  C   UNL d   1      -0.839  -3.560  -0.945  0.00  0.00     0.121 C 
BRANCH  10  11
ATOM     11  C   UNL d   1      -0.603  -5.050  -1.077  0.00  0.00    -0.048 A 
ATOM     12  C   UNL d   1      -0.999  -5.922  -0.050  0.00  0.00     0.010 A 
ATOM     13  C   UNL d   1      -0.787  -7.299  -0.160  0.00  0.00     0.036 A 
ATOM     14  C   UNL d   1      -0.166  -7.813  -1.305  0.00  0.00     0.102 A 
ATOM     15  C   UNL d   1       0.245  -6.957  -2.335  0.00  0.00     0.036 A 
ATOM     16  C   UNL d   1       0.027  -5.581  -2.215  0.00  0.00     0.010 A 
BRANCH  14  17
ATOM     17  N   UNL d   1       0.059  -9.259  -1.424  0.00  0.00    -0.116 N 
ATOM     18  O   UNL d   1       0.624  -9.674  -2.446  0.00  0.00    -0.532 OA
ATOM     19  O   UNL d   1      -0.329  -9.983  -0.495  0.00  0.00    -0.532 OA
ENDBRANCH  14  17
ENDBRANCH  10  11
ENDBRANCH   9  10
ENDBRANCH   5   9
BRANCH   2  20
ATOM     20  C   UNL d   1       0.384   2.522  -0.107  0.00  0.00     0.012 A 
ATOM     21  C   UNL d   1       1.500   2.998  -0.799  0.00  0.00     0.032 A 
ATOM     22  C   UNL d   1       1.799   4.350  -0.737  0.00  0.00     0.088 A 
ATOM     23  N   UNL d   1       1.057   5.252  -0.064  0.00  0.00    -0.375 N 
ATOM     24  C   UNL d   1      -0.044   4.788   0.557  0.00  0.00     0.088 A 
ATOM     25  HN  UNL d   1       1.317   6.238  -0.027  1.00  0.00     0.164 HD
ATOM     26  C   UNL d   1      -0.418   3.451   0.564  0.00  0.00     0.032 A 
ENDBRANCH   2  20
TORSDOF 5
