REMARK  4 active torsions:
REMARK  status: ('A' for Active; 'I' for Inactive)
REMARK       I    between atoms: N_2  and  C_1 
REMARK       I    between atoms: N_3  and  C_1 
REMARK    1  A    between atoms: C_13  and  N_2 
REMARK    2  A    between atoms: C_14  and  N_3 
REMARK    3  A    between atoms: C_4  and  C_5 
REMARK    4  A    between atoms: N_8  and  C_6 
ROOT
ATOM      1  C   UNL d   1       1.020  -0.004  -0.217  0.00  0.00     0.325 C 
ATOM      2  N   UNL d   1       2.380  -0.233  -0.077  0.00  0.00    -0.309 N 
ATOM      3  N   UNL d   1       0.265  -0.887   0.539  0.00  0.00    -0.309 N 
ATOM      4  O   UNL d   1       0.534   0.861  -0.935  0.00  0.00    -0.247 OA
ATOM      5  H   UNL d   1       2.646  -1.117   0.333  0.00  0.00     0.170 HD
ATOM      6  H   UNL d   1       0.703  -1.267   1.363  0.00  0.00     0.170 HD
ENDROOT
BRANCH   2   7
ATOM      7  C   UNL d   1       3.397   0.498  -0.730  0.00  0.00     0.036 A 
ATOM      8  C   UNL d   1       3.181   1.726  -1.351  0.00  0.00     0.032 A 
ATOM      9  C   UNL d   1       4.212   2.391  -2.026  0.00  0.00     0.031 A 
ATOM     10  C   UNL d   1       5.513   1.879  -2.091  0.00  0.00     0.029 A 
ATOM     11  C   UNL d   1       5.719   0.656  -1.431  0.00  0.00     0.031 A 
ATOM     12  C   UNL d   1       4.688  -0.028  -0.760  0.00  0.00     0.032 A 
BRANCH  10  13
ATOM     13  N   UNL d   1       6.559   2.567  -2.699  0.00  0.00    -0.390 N 
ATOM     14  C   UNL d   1       7.564   1.826  -3.460  0.00  0.00     0.149 C 
ATOM     15  C   UNL d   1       6.395   3.958  -3.121  0.00  0.00     0.149 C 
ENDBRANCH  10  13
ENDBRANCH   2   7
BRANCH   3  16
ATOM     16  C   UNL d   1      -1.137  -1.049   0.421  0.00  0.00     0.036 A 
ATOM     17  C   UNL d   1      -1.854  -0.637  -0.703  0.00  0.00     0.030 A 
ATOM     18  C   UNL d   1      -3.232  -0.843  -0.793  0.00  0.00     0.010 A 
ATOM     19  C   UNL d   1      -3.950  -1.479   0.233  0.00  0.00    -0.051 A 
ATOM     20  C   UNL d   1      -3.219  -1.880   1.365  0.00  0.00     0.010 A 
ATOM     21  C   UNL d   1      -1.831  -1.677   1.452  0.00  0.00     0.030 A 
BRANCH  19  22
ATOM     22  C   UNL d   1      -5.458  -1.729   0.066  0.00  0.00    -0.024 C 
ATOM     23  C   UNL d   1      -6.096  -2.468   1.262  0.00  0.00     0.019 C 
ATOM     24  C   UNL d   1      -6.204  -0.388  -0.102  0.00  0.00     0.019 C 
ATOM     25  C   UNL d   1      -5.701  -2.597  -1.190  0.00  0.00     0.019 C 
ENDBRANCH  19  22
ENDBRANCH   3  16
TORSDOF 4
