REMARK  4 active torsions:
REMARK  status: ('A' for Active; 'I' for Inactive)
REMARK    1  A    between atoms: C_8  and  C_3 
REMARK    2  A    between atoms: C_16  and  C_7 
REMARK    3  A    between atoms: C_18  and  C_16 
REMARK    4  A    between atoms: O_21  and  C_20 
ROOT
ATOM      1  N   UNL d   1       1.072  -0.693   0.188  0.00  0.00    -0.277 N 
ATOM      2  HN  UNL d   1       1.890  -1.282   0.341  1.00  0.00     0.189 HD
ATOM      3  C   UNL d   1      -0.163  -1.102  -0.034  0.00  0.00     0.174 A 
ATOM      4  O   UNL d   1      -1.038  -0.057  -0.202  0.00  0.00    -0.277 OA
ATOM      5  N   UNL d   1       1.042   0.684   0.173  0.00  0.00    -0.281 N 
ATOM      6  HN  UNL d   1       1.832   1.315   0.314  1.00  0.00     0.189 HD
ATOM      7  C   UNL d   1      -0.208   1.026  -0.059  0.00  0.00     0.144 A 
ENDROOT
BRANCH   3   8
ATOM      8  C   UNL d   1      -0.695  -2.458  -0.090  0.00  0.00     0.019 A 
ATOM      9  C   UNL d   1       0.149  -3.536   0.232  0.00  0.00     0.055 A 
ATOM     10  C   UNL d   1      -0.363  -4.815   0.170  0.00  0.00     0.105 A 
ATOM     11  O   UNL d   1       0.319  -5.958   0.451  0.00  0.00    -0.323 OA
ATOM     12  C   UNL d   1      -1.664  -5.058  -0.197  0.00  0.00     0.105 A 
ATOM     13  C   UNL d   1      -0.704  -6.949   0.224  0.00  0.00     0.352 A 
ATOM     14  O   UNL d   1      -1.964  -6.384  -0.197  0.00  0.00    -0.323 OA
ATOM     15  C   UNL d   1      -2.527  -4.034  -0.518  0.00  0.00     0.041 A 
ATOM     16  C   UNL d   1      -2.035  -2.723  -0.462  0.00  0.00     0.019 A 
ENDBRANCH   3   8
BRANCH   7  17
ATOM     17  C   UNL d   1      -0.813   2.380  -0.114  0.00  0.00     0.124 C 
BRANCH  17  18
ATOM     18  C   UNL d   1      -0.759   3.029  -1.480  0.00  0.00    -0.048 A 
ATOM     19  C   UNL d   1       0.476   3.287  -2.106  0.00  0.00     0.044 A 
ATOM     20  C   UNL d   1       0.527   3.917  -3.352  0.00  0.00     0.068 A 
ATOM     21  C   UNL d   1      -0.663   4.301  -3.973  0.00  0.00     0.037 A 
ATOM     22  C   UNL d   1      -1.893   4.061  -3.361  0.00  0.00     0.003 A 
ATOM     23  C   UNL d   1      -1.941   3.428  -2.120  0.00  0.00     0.007 A 
BRANCH  20  24
ATOM     24  O   UNL d   1       1.660   4.217  -4.058  0.00  0.00    -0.356 OA
ATOM     25  C   UNL d   1       2.901   3.838  -3.474  0.00  0.00     0.210 C 
ENDBRANCH  20  24
ENDBRANCH  17  18
ENDBRANCH   7  17
TORSDOF 4
