REMARK  5 active torsions:
REMARK  status: ('A' for Active; 'I' for Inactive)
REMARK    1  A    between atoms: O_10  and  C_3 
REMARK    2  A    between atoms: S_9  and  C_4 
REMARK    3  A    between atoms: C_11  and  C_5 
REMARK    4  A    between atoms: C_14  and  C_11 
REMARK    5  A    between atoms: C_15  and  C_14 
ROOT
ATOM      1  N   UNL d   1      -0.559   1.287   0.019  0.00  0.00    -0.317 N 
ATOM      2  HN  UNL d   1      -1.023   2.195   0.035  1.00  0.00     0.170 HD
ATOM      3  C   UNL d   1      -1.238   0.136   0.019  0.00  0.00     0.150 A 
ATOM      4  C   UNL d   1       0.772   1.164  -0.003  0.00  0.00     0.146 A 
ATOM      5  C   UNL d   1      -0.700  -1.134  -0.028  0.00  0.00     0.015 A 
ATOM      6  N   UNL d   1       1.425  -0.004  -0.014  0.00  0.00    -0.340 N 
ATOM      7  HN  UNL d   1       2.445  -0.037  -0.020  1.00  0.00     0.167 HD
ATOM      8  C   UNL d   1       0.691  -1.138  -0.017  0.00  0.00     0.018 A 
ATOM      9  C   UNL d   1       1.494  -2.407   0.002  0.00  0.00     0.069 C 
ENDROOT
BRANCH   5  10
ATOM     10  C   UNL d   1      -1.497  -2.413   0.002  0.00  0.00     0.045 C 
BRANCH  10  11
ATOM     11  C   UNL d   1      -2.876  -2.450  -0.670  0.00  0.00     0.004 C 
BRANCH  11  12
ATOM     12  C   UNL d   1      -2.840  -2.108  -2.161  0.00  0.00    -0.004 C 
ATOM     13  C   UNL d   1      -4.239  -2.142  -2.758  0.00  0.00     0.005 C 
ENDBRANCH  11  12
ENDBRANCH  10  11
ENDBRANCH   5  10
BRANCH   3  14
ATOM     14  O   UNL d   1      -2.576   0.349   0.074  0.00  0.00    -0.346 OA
ATOM     15  H   UNL d   1      -2.600   1.323   0.057  0.00  0.00     0.219 HD
ENDBRANCH   3  14
BRANCH   4  16
ATOM     16  S   UNL d   1       1.713   2.672  -0.003  0.00  0.00    -0.098 SA
ATOM     17  C   UNL d   1       3.389   1.990   0.004  0.00  0.00     0.099 C 
ENDBRANCH   4  16
TORSDOF 5
