REMARK  3 active torsions:
REMARK  status: ('A' for Active; 'I' for Inactive)
REMARK    1  A    between atoms: C_6  and  C_1 
REMARK    2  A    between atoms: O_13  and  C_6 
REMARK    3  A    between atoms: O_15  and  C_12 
ROOT
ATOM      1  C   UNL d   1      -1.817  -1.309  -0.100  0.00  0.00     0.114 A 
ATOM      2  C   UNL d   1      -2.115   0.133  -0.093  0.00  0.00     0.305 A 
ATOM      3  C   UNL d   1      -0.547  -1.745  -0.056  0.00  0.00     0.039 A 
ATOM      4  O   UNL d   1      -1.051   1.022  -0.080  0.00  0.00    -0.274 OA
ATOM      5  C   UNL d   1       0.278   0.562  -0.041  0.00  0.00     0.092 A 
ATOM      6  C   UNL d   1       0.557  -0.800  -0.014  0.00  0.00    -0.001 A 
ATOM      7  C   UNL d   1       1.286   1.527  -0.027  0.00  0.00     0.075 A 
ATOM      8  O   UNL d   1      -3.281   0.526  -0.102  0.00  0.00    -0.259 OA
ATOM      9  C   UNL d   1       1.888  -1.210   0.041  0.00  0.00     0.017 A 
ATOM     10  C   UNL d   1       2.616   1.115   0.020  0.00  0.00     0.070 A 
ATOM     11  C   UNL d   1       2.909  -0.253   0.059  0.00  0.00     0.038 A 
ENDROOT
BRANCH   1  12
ATOM     12  C   UNL d   1      -2.888  -2.333  -0.159  0.00  0.00     0.182 C 
ATOM     13  O   UNL d   1      -2.660  -3.535  -0.183  0.00  0.00    -0.646 OA
BRANCH  12  14
ATOM     14  O   UNL d   1      -4.150  -1.853  -0.189  0.00  0.00    -0.772 OA
ATOM     15  H   UNL d   1      -4.232  -0.869  -0.163  0.00  0.00     0.167 HD
ENDBRANCH  12  14
ENDBRANCH   1  12
BRANCH  10  16
ATOM     16  O   UNL d   1       3.710   1.936   0.033  0.00  0.00    -0.356 OA
ATOM     17  C   UNL d   1       3.465   3.336  -0.036  0.00  0.00     0.210 C 
ENDBRANCH  10  16
TORSDOF 3
