REMARK  3 active torsions:
REMARK  status: ('A' for Active; 'I' for Inactive)
REMARK    1  A    between atoms: S_7  and  C_1 
REMARK    2  A    between atoms: C_10  and  S_7 
REMARK    3  A    between atoms: C_8  and  C_10 
ROOT
ATOM      1  C   UNL d   1      -2.346   0.035  -0.055  0.00  0.00     0.145 A 
ATOM      2  N   UNL d   1      -1.625   1.128  -0.074  0.00  0.00    -0.335 N 
ATOM      3  HN  UNL d   1      -1.956   2.092  -0.106  1.00  0.00     0.168 HD
ATOM      4  N   UNL d   1      -1.582  -1.093  -0.011  0.00  0.00    -0.335 N 
ATOM      5  C   UNL d   1      -0.322   0.685  -0.040  0.00  0.00     0.061 A 
ATOM      6  C   UNL d   1      -0.267  -0.707  -0.015  0.00  0.00     0.061 A 
ATOM      7  C   UNL d   1       0.875   1.415  -0.032  0.00  0.00     0.032 A 
ATOM      8  C   UNL d   1       0.929  -1.429   0.002  0.00  0.00     0.032 A 
ATOM      9  C   UNL d   1       2.112  -0.681   0.001  0.00  0.00     0.002 A 
ATOM     10  C   UNL d   1       2.090   0.716  -0.011  0.00  0.00     0.002 A 
ATOM     11  H   UNL d   1      -1.937  -2.036   0.011  0.00  0.00     0.168 HD
ENDROOT
BRANCH   1  12
ATOM     12  S   UNL d   1      -4.063  -0.105  -0.075  0.00  0.00    -0.090 SA
BRANCH  12  13
ATOM     13  C   UNL d   1      -4.512   1.476  -0.844  0.00  0.00     0.108 C 
BRANCH  13  14
ATOM     14  C   UNL d   1      -6.009   1.581  -0.902  0.00  0.00    -0.026 C 
ATOM     15  C   UNL d   1      -6.728   1.644  -2.031  0.00  0.00     0.007 C 
ENDBRANCH  13  14
ENDBRANCH  12  13
ENDBRANCH   1  12
TORSDOF 3
