REMARK  4 active torsions:
REMARK  status: ('A' for Active; 'I' for Inactive)
REMARK       I    between atoms: C_2  and  N_1 
REMARK    1  A    between atoms: C_5  and  C_2 
REMARK    2  A    between atoms: N_3  and  C_11 
REMARK    3  A    between atoms: C_6  and  C_8 
REMARK    4  A    between atoms: C_7  and  C_9 
ROOT
ATOM      1  C   UNL d   1       3.389   2.846   0.073  0.00  0.00     0.034 A 
ATOM      2  C   UNL d   1       5.650   2.561   0.963  0.00  0.00     0.049 A 
ATOM      3  C   UNL d   1       5.158   4.440  -0.513  0.00  0.00     0.049 A 
ATOM      4  C   UNL d   1       3.825   3.997  -0.607  0.00  0.00     0.033 A 
ATOM      5  C   UNL d   1       4.299   2.182   0.898  0.00  0.00     0.033 A 
ATOM      6  C   UNL d   1       6.071   3.689   0.246  0.00  0.00     0.032 A 
ENDROOT
BRANCH   1   7
ATOM      7  C   UNL d   1       1.944   2.462  -0.034  0.00  0.00     0.258 C 
ATOM      8  N   UNL d   1       1.561   1.120   0.004  0.00  0.00    -0.313 N 
ATOM      9  C   UNL d   1       0.219   0.667  -0.029  0.00  0.00     0.044 A 
ATOM     10  C   UNL d   1       2.418  -0.082   0.117  0.00  0.00     0.137 C 
ATOM     11  C   UNL d   1       0.179  -0.731  -0.043  0.00  0.00    -0.027 A 
ATOM     12  C   UNL d   1      -0.958   1.400  -0.037  0.00  0.00     0.033 A 
ATOM     13  C   UNL d   1      -1.018  -1.432  -0.025  0.00  0.00     0.045 A 
ATOM     14  C   UNL d   1       1.549  -1.315  -0.136  0.00  0.00     0.061 C 
ATOM     15  C   UNL d   1      -2.206  -0.693  -0.006  0.00  0.00     0.103 A 
ATOM     16  C   UNL d   1      -2.182   0.716  -0.024  0.00  0.00     0.038 A 
ATOM     17  O   UNL d   1       1.162   3.400  -0.185  0.00  0.00    -0.267 OA
BRANCH  15  18
ATOM     18  N   UNL d   1      -3.490  -1.402   0.030  0.00  0.00    -0.116 N 
ATOM     19  O   UNL d   1      -3.469  -2.640   0.078  0.00  0.00    -0.532 OA
ATOM     20  O   UNL d   1      -4.525  -0.722   0.018  0.00  0.00    -0.532 OA
ENDBRANCH  15  18
ENDBRANCH   1   7
BRANCH   3  21
ATOM     21  C   UNL d   1       5.613   5.719  -1.179  0.00  0.00     0.417 C 
ATOM     22  F   UNL d   1       4.618   6.396  -1.813  0.00  0.00    -0.166 F 
ATOM     23  F   UNL d   1       6.154   6.595  -0.287  0.00  0.00    -0.166 F 
ATOM     24  F   UNL d   1       6.577   5.499  -2.115  0.00  0.00    -0.166 F 
ENDBRANCH   3  21
BRANCH   2  25
ATOM     25  C   UNL d   1       6.619   1.782   1.822  0.00  0.00     0.417 C 
ATOM     26  F   UNL d   1       6.046   0.704   2.428  0.00  0.00    -0.166 F 
ATOM     27  F   UNL d   1       7.668   1.291   1.109  0.00  0.00    -0.166 F 
ATOM     28  F   UNL d   1       7.152   2.535   2.820  0.00  0.00    -0.166 F 
ENDBRANCH   2  25
TORSDOF 4
