REMARK  4 active torsions:
REMARK  status: ('A' for Active; 'I' for Inactive)
REMARK    1  A    between atoms: C_9  and  C_3 
REMARK    2  A    between atoms: O_11  and  C_4 
REMARK    3  A    between atoms: C_13  and  C_7 
REMARK    4  A    between atoms: C_19  and  C_13 
ROOT
ATOM      1  N   UNL d   1      -0.652   1.214  -0.022  0.00  0.00    -0.322 N 
ATOM      2  HN  UNL d   1      -1.102   2.130  -0.036  1.00  0.00     0.169 HD
ATOM      3  C   UNL d   1      -1.350   0.069  -0.003  0.00  0.00     0.117 A 
ATOM      4  C   UNL d   1       0.675   1.067  -0.021  0.00  0.00     0.149 A 
ATOM      5  N   UNL d   1      -0.787  -1.154   0.020  0.00  0.00    -0.345 N 
ATOM      6  HN  UNL d   1      -1.366  -1.993   0.038  1.00  0.00     0.167 HD
ATOM      7  C   UNL d   1       1.376  -0.124  -0.007  0.00  0.00     0.015 A 
ATOM      8  C   UNL d   1       0.562  -1.246   0.017  0.00  0.00     0.017 A 
ATOM      9  C   UNL d   1       1.049  -2.663   0.030  0.00  0.00     0.069 C 
ENDROOT
BRANCH   3  10
ATOM     10  C   UNL d   1      -2.822   0.138  -0.008  0.00  0.00     0.009 A 
ATOM     11  C   UNL d   1      -3.610  -1.032   0.037  0.00  0.00     0.022 A 
ATOM     12  C   UNL d   1      -5.011  -0.985   0.038  0.00  0.00    -0.061 A 
ATOM     13  C   UNL d   1      -5.822  -2.248   0.068  0.00  0.00     0.048 C 
ATOM     14  C   UNL d   1      -5.650   0.257  -0.018  0.00  0.00     0.007 A 
ATOM     15  C   UNL d   1      -4.897   1.429  -0.067  0.00  0.00     0.002 A 
ATOM     16  C   UNL d   1      -3.501   1.365  -0.059  0.00  0.00     0.015 A 
ENDBRANCH   3  10
BRANCH   4  17
ATOM     17  O   UNL d   1       1.327   2.259  -0.054  0.00  0.00    -0.346 OA
ATOM     18  H   UNL d   1       0.567   2.868  -0.085  0.00  0.00     0.219 HD
ENDBRANCH   4  17
BRANCH   7  19
ATOM     19  C   UNL d   1       2.879  -0.133  -0.030  0.00  0.00     0.044 C 
BRANCH  19  20
ATOM     20  C   UNL d   1       3.550   0.055   1.335  0.00  0.00     0.000 C 
ATOM     21  C   UNL d   1       3.361  -1.118   2.285  0.00  0.00     0.005 C 
ENDBRANCH  19  20
ENDBRANCH   7  19
TORSDOF 4
