REMARK  2 active torsions:
REMARK  status: ('A' for Active; 'I' for Inactive)
REMARK    1  A    between atoms: N_2  and  N_4 
REMARK    2  A    between atoms: C_9  and  C_8 
ROOT
ATOM      1  N   UNL d   1       2.633   1.224   0.064  0.00  0.00    -0.290 N 
ATOM      2  HN  UNL d   1       2.174   0.318  -0.032  1.00  0.00     0.187 HD
ATOM      3  C   UNL d   1       3.928   1.367   0.058  0.00  0.00     0.032 C 
ATOM      4  C   UNL d   1       4.631   2.708   0.182  0.00  0.00     0.070 C 
ENDROOT
BRANCH   1   5
ATOM      5  N   UNL d   1       1.929   2.420   0.215  0.00  0.00    -0.132 N 
ATOM      6  C   UNL d   1       0.650   2.253   0.179  0.00  0.00     0.688 C 
ATOM      7  N   UNL d   1      -0.058   1.091  -0.003  0.00  0.00    -0.224 N 
ATOM      8  N   UNL d   1      -0.281   3.243   0.357  0.00  0.00    -0.224 N 
ATOM      9  C   UNL d   1      -1.458   1.254   0.330  0.00  0.00     0.158 C 
ATOM     10  H   UNL d   1       0.461   0.254   0.226  0.00  0.00     0.177 HD
ATOM     11  C   UNL d   1      -1.635   2.774   0.154  0.00  0.00     0.158 C 
ATOM     12  H   UNL d   1      -0.002   4.200   0.202  0.00  0.00     0.177 HD
ATOM     13  HN  UNL d   1       2.378   3.327   0.341  1.00  0.00     0.205 HD
ENDBRANCH   1   5
BRANCH   3  14
ATOM     14  C   UNL d   1       4.791   0.140  -0.070  0.00  0.00    -0.013 A 
ATOM     15  C   UNL d   1       4.187  -1.117  -0.224  0.00  0.00     0.015 A 
ATOM     16  C   UNL d   1       4.965  -2.275  -0.328  0.00  0.00     0.020 A 
ATOM     17  C   UNL d   1       6.354  -2.180  -0.281  0.00  0.00     0.011 A 
ATOM     18  C   UNL d   1       6.970  -0.941  -0.132  0.00  0.00     0.020 A 
ATOM     19 BR   UNL d   1       7.410  -3.742  -0.415  0.00  0.00    -0.051 Br
ATOM     20  C   UNL d   1       6.191   0.217  -0.026  0.00  0.00     0.015 A 
ENDBRANCH   3  14
TORSDOF 2
