REMARK  0 active torsions:
REMARK  status: ('A' for Active; 'I' for Inactive)
ROOT
ATOM      1  N   UNL d   1       1.128  -0.139  -0.042  0.00  0.00    -0.191 NA
ATOM      2  C   UNL d   1       2.288  -0.121  -0.042  0.00  0.00     0.099 C 
ATOM      3  C   UNL d   1       3.722  -0.095  -0.040  0.00  0.00     0.047 A 
ATOM      4  C   UNL d   1       6.522  -0.037  -0.035  0.00  0.00     0.038 A 
ATOM      5  C   UNL d   1       5.793   1.150  -0.038  0.00  0.00     0.013 A 
ATOM      6  C   UNL d   1       5.843  -1.253  -0.035  0.00  0.00     0.013 A 
ATOM      7  C   UNL d   1       4.447  -1.291  -0.039  0.00  0.00     0.041 A 
ATOM      8  C   UNL d   1       4.398   1.131  -0.039  0.00  0.00     0.041 A 
ATOM      9 BR   UNL d   1       6.706   2.806  -0.041  0.00  0.00    -0.051 Br
ATOM     10 BR   UNL d   1       6.824  -2.869  -0.031  0.00  0.00    -0.051 Br
ENDROOT
TORSDOF 0
