REMARK  4 active torsions:
REMARK  status: ('A' for Active; 'I' for Inactive)
REMARK    1  A    between atoms: N_2  and  S_1 
REMARK    2  A    between atoms: C_9  and  S_1 
REMARK    3  A    between atoms: C_3  and  C_4 
REMARK    4  A    between atoms: C_6  and  N_5 
ROOT
ATOM      1  N   UNL d   1       0.424  -1.564  -0.541  0.00  0.00    -0.205 NA
ATOM      2  N   UNL d   1       0.210  -4.121  -2.113  0.00  0.00    -0.366 N 
ATOM      3  C   UNL d   1       0.068  -1.646  -2.014  0.00  0.00     0.127 C 
ATOM      4  C   UNL d   1      -0.640  -2.962  -2.391  0.00  0.00     0.140 C 
ATOM      5  C   UNL d   1       0.900  -3.899   0.261  0.00  0.00     0.035 C 
ATOM      6  C   UNL d   1       1.490  -2.568  -0.191  0.00  0.00     0.109 C 
ATOM      7  C   UNL d   1       0.118  -4.692  -0.779  0.00  0.00     0.125 C 
ENDROOT
BRANCH   2   8
ATOM      8  C   UNL d   1       0.940  -4.706  -3.124  0.00  0.00     0.102 A 
ATOM      9  N   UNL d   1       0.517  -4.556  -4.397  0.00  0.00    -0.352 N 
ATOM     10  C   UNL d   1       1.188  -5.184  -5.395  0.00  0.00     0.106 A 
ATOM     11  HN  UNL d   1      -0.298  -3.979  -4.606  1.00  0.00     0.166 HD
ATOM     12  C   UNL d   1       2.327  -5.944  -5.208  0.00  0.00     0.063 A 
ATOM     13  C   UNL d   1       2.800  -6.051  -3.904  0.00  0.00     0.021 A 
ATOM     14  C   UNL d   1       2.098  -5.440  -2.862  0.00  0.00     0.049 A 
BRANCH  12  15
ATOM     15  C   UNL d   1       3.015  -6.611  -6.356  0.00  0.00     0.418 C 
ATOM     16  F   UNL d   1       2.352  -6.487  -7.540  0.00  0.00    -0.166 F 
ATOM     17  F   UNL d   1       4.265  -6.118  -6.574  0.00  0.00    -0.166 F 
ATOM     18  F   UNL d   1       3.173  -7.950  -6.161  0.00  0.00    -0.166 F 
ENDBRANCH  12  15
ENDBRANCH   2   8
BRANCH   1  19
ATOM     19  S   UNL d   1       0.914   0.020  -0.051  0.00  0.00     0.243 S 
ATOM     20  O   UNL d   1       1.938   0.458  -0.975  0.00  0.00    -0.206 OA
ATOM     21  O   UNL d   1       1.158  -0.009   1.376  0.00  0.00    -0.206 OA
BRANCH  19  22
ATOM     22  C   UNL d   1      -0.526   1.034  -0.297  0.00  0.00     0.074 A 
ATOM     23  C   UNL d   1      -1.625   0.875   0.554  0.00  0.00     0.026 A 
ATOM     24  C   UNL d   1      -2.719   1.735   0.429  0.00  0.00     0.025 A 
ATOM     25  C   UNL d   1      -2.703   2.745  -0.534  0.00  0.00     0.034 A 
ATOM     26  C   UNL d   1      -1.603   2.905  -1.379  0.00  0.00     0.025 A 
ATOM     27 CL   UNL d   1      -4.043   3.816  -0.669  0.00  0.00    -0.084 Cl
ATOM     28  C   UNL d   1      -0.507   2.049  -1.259  0.00  0.00     0.026 A 
ENDBRANCH  19  22
ENDBRANCH   1  19
TORSDOF 4
