REMARK  4 active torsions:
REMARK  status: ('A' for Active; 'I' for Inactive)
REMARK    1  A    between atoms: C_11  and  N_1 
REMARK    2  A    between atoms: C_10  and  C_6 
REMARK       I    between atoms: C_8  and  N_9 
REMARK    3  A    between atoms: C_13  and  C_8 
REMARK    4  A    between atoms: N_9  and  C_10 
ROOT
ATOM      1  N   UNL d   1      -0.081  -1.152   0.043  0.00  0.00    -0.197 N 
ATOM      2  N   UNL d   1       1.206  -0.730   0.193  0.00  0.00    -0.280 N 
ATOM      3  HN  UNL d   1       2.045  -1.285   0.359  1.00  0.00     0.189 HD
ATOM      4  N   UNL d   1      -1.013  -0.169  -0.096  0.00  0.00    -0.282 N 
ATOM      5  HN  UNL d   1      -2.023  -0.259  -0.201  1.00  0.00     0.189 HD
ATOM      6  C   UNL d   1       1.092   0.600   0.066  0.00  0.00     0.069 A 
ATOM      7  C   UNL d   1      -0.272   0.944  -0.060  0.00  0.00     0.049 A 
ATOM      8  C   UNL d   1      -0.883   2.290  -0.149  0.00  0.00     0.072 C 
ENDROOT
BRANCH   6   9
ATOM      9  C   UNL d   1       2.288   1.481   0.064  0.00  0.00     0.183 C 
BRANCH   9  10
ATOM     10  N   UNL d   1       2.520   1.987   1.399  0.00  0.00    -0.355 N 
ATOM     11  C   UNL d   1       2.449   3.332   1.687  0.00  0.00     0.222 C 
ATOM     12  O   UNL d   1       2.155   4.158   0.821  0.00  0.00    -0.273 OA
ATOM     13  H   UNL d   1       2.737   1.315   2.121  0.00  0.00     0.162 HD
BRANCH  11  14
ATOM     14  C   UNL d   1       2.755   3.715   3.154  0.00  0.00     0.078 C 
ATOM     15  C   UNL d   1       2.388   2.751   4.315  0.00  0.00     0.014 C 
ATOM     16  C   UNL d   1       2.004   3.991   5.144  0.00  0.00     0.002 C 
ATOM     17  C   UNL d   1       1.778   4.727   3.814  0.00  0.00     0.014 C 
ENDBRANCH  11  14
ENDBRANCH   9  10
ENDBRANCH   6   9
BRANCH   1  18
ATOM     18  C   UNL d   1      -0.414  -2.530   0.018  0.00  0.00     0.074 A 
ATOM     19  C   UNL d   1       0.575  -3.490   0.281  0.00  0.00     0.033 A 
ATOM     20  C   UNL d   1       0.255  -4.850   0.253  0.00  0.00     0.002 A 
ATOM     21  C   UNL d   1      -1.044  -5.255  -0.052  0.00  0.00     0.000 A 
ATOM     22  C   UNL d   1      -2.029  -4.303  -0.322  0.00  0.00     0.002 A 
ATOM     23  C   UNL d   1      -1.721  -2.941  -0.282  0.00  0.00     0.033 A 
ENDBRANCH   1  18
TORSDOF 4
