REMARK  6 active torsions:
REMARK  status: ('A' for Active; 'I' for Inactive)
REMARK    1  A    between atoms: C_11  and  C_1 
REMARK    2  A    between atoms: C_2  and  N_12 
REMARK    3  A    between atoms: C_15  and  N_3 
REMARK    4  A    between atoms: C_18  and  C_4 
REMARK       I    between atoms: N_12  and  C_11 
REMARK    5  A    between atoms: C_17  and  C_13 
REMARK    6  A    between atoms: C_24  and  C_18 
ROOT
ATOM      1  C   UNL d   1      -0.693   2.569  -0.108  0.00  0.00     0.260 C 
ATOM      2  N   UNL d   1      -1.556   2.728  -1.248  0.00  0.00    -0.307 N 
ATOM      3  O   UNL d   1      -0.390   3.503   0.608  0.00  0.00    -0.267 OA
ATOM      4  H   UNL d   1      -1.730   1.932  -1.845  0.00  0.00     0.170 HD
ENDROOT
BRANCH   1   5
ATOM      5  C   UNL d   1      -0.290   1.191   0.063  0.00  0.00     0.073 C 
ATOM      6  C   UNL d   1       0.902   0.630   0.540  0.00  0.00     0.051 C 
ATOM      7  N   UNL d   1       0.778  -0.757   0.321  0.00  0.00    -0.260 N 
ATOM      8  N   UNL d   1      -0.517  -1.094   0.114  0.00  0.00    -0.304 N 
ATOM      9  C   UNL d   1      -1.120   0.058  -0.146  0.00  0.00     0.126 C 
ATOM     10  HN  UNL d   1      -0.934  -2.024   0.149  1.00  0.00     0.186 HD
BRANCH   6  11
ATOM     11  C   UNL d   1       2.167   1.187   1.142  0.00  0.00     0.060 C 
BRANCH  11  12
ATOM     12  C   UNL d   1       2.108   2.472   1.964  0.00  0.00     0.002 C 
ATOM     13  C   UNL d   1       1.384   2.356   3.296  0.00  0.00     0.005 C 
ENDBRANCH  11  12
ENDBRANCH   6  11
BRANCH   7  14
ATOM     14  C   UNL d   1       1.779  -1.761   0.135  0.00  0.00     0.056 A 
ATOM     15  C   UNL d   1       1.466  -3.105   0.401  0.00  0.00     0.031 A 
ATOM     16  C   UNL d   1       2.374  -4.119   0.076  0.00  0.00     0.002 A 
ATOM     17  C   UNL d   1       3.581  -3.804  -0.542  0.00  0.00     0.000 A 
ATOM     18  C   UNL d   1       3.901  -2.473  -0.801  0.00  0.00     0.002 A 
ATOM     19  C   UNL d   1       3.012  -1.450  -0.452  0.00  0.00     0.031 A 
ENDBRANCH   7  14
ENDBRANCH   1   5
BRANCH   2  20
ATOM     20  C   UNL d   1      -2.214   3.925  -1.555  0.00  0.00     0.126 A 
ATOM     21  C   UNL d   1      -2.060   5.179  -1.004  0.00  0.00     0.082 A 
ATOM     22  C   UNL d   1      -3.102   5.994  -1.547  0.00  0.00     0.062 A 
ATOM     23  N   UNL d   1      -3.769   5.304  -2.487  0.00  0.00    -0.296 N 
ATOM     24  N   UNL d   1      -3.225   4.078  -2.474  0.00  0.00    -0.281 N 
ATOM     25  HN  UNL d   1      -4.527   5.640  -3.083  1.00  0.00     0.187 HD
ATOM     26  C   UNL d   1      -3.826   3.039  -3.275  0.00  0.00     0.179 C 
BRANCH  22  27
ATOM     27  C   UNL d   1      -3.505   7.356  -1.151  0.00  0.00    -0.008 A 
ATOM     28  C   UNL d   1      -2.851   8.036  -0.112  0.00  0.00     0.014 A 
ATOM     29  C   UNL d   1      -3.296   9.293   0.319  0.00  0.00     0.001 A 
ATOM     30  C   UNL d   1      -4.398   9.893  -0.284  0.00  0.00     0.000 A 
ATOM     31  C   UNL d   1      -5.053   9.241  -1.324  0.00  0.00     0.001 A 
ATOM     32  C   UNL d   1      -4.609   7.984  -1.755  0.00  0.00     0.014 A 
ENDBRANCH  22  27
ENDBRANCH   2  20
TORSDOF 6
