REMARK  5 active torsions:
REMARK  status: ('A' for Active; 'I' for Inactive)
REMARK    1  A    between atoms: C_3  and  C_1 
REMARK    2  A    between atoms: C_6  and  C_1 
REMARK    3  A    between atoms: C_2  and  C_9 
REMARK    4  A    between atoms: O_11  and  C_2 
REMARK    5  A    between atoms: C_9  and  C_6 
ROOT
ATOM      1  C   UNL d   1       0.993   0.093   0.176  0.00  0.00     0.160 C 
ATOM      2  O   UNL d   1       0.416   1.108  -0.226  0.00  0.00    -0.292 OA
ENDROOT
BRANCH   1   3
ATOM      3  C   UNL d   1       0.199  -1.084   0.619  0.00  0.00     0.010 A 
ATOM      4  C   UNL d   1      -1.022  -1.344  -0.016  0.00  0.00     0.017 A 
ATOM      5  C   UNL d   1      -1.790  -2.447   0.367  0.00  0.00     0.025 A 
ATOM      6  C   UNL d   1      -1.345  -3.281   1.393  0.00  0.00     0.034 A 
ATOM      7  C   UNL d   1      -0.143  -3.014   2.046  0.00  0.00     0.025 A 
ATOM      8 CL   UNL d   1      -2.287  -4.641   1.861  0.00  0.00    -0.084 Cl
ATOM      9  C   UNL d   1       0.629  -1.913   1.662  0.00  0.00     0.017 A 
ENDBRANCH   1   3
BRANCH   1  10
ATOM     10  C   UNL d   1       2.509   0.004   0.187  0.00  0.00     0.094 C 
BRANCH  10  11
ATOM     11  C   UNL d   1       3.136   1.391   0.157  0.00  0.00     0.117 C 
BRANCH  11  12
ATOM     12  C   UNL d   1       2.830   2.136   1.431  0.00  0.00     0.139 C 
ATOM     13  O   UNL d   1       3.541   2.091   2.423  0.00  0.00    -0.650 OA
BRANCH  12  14
ATOM     14  O   UNL d   1       1.661   2.811   1.400  0.00  0.00    -0.776 OA
ATOM     15  H   UNL d   1       1.116   2.613   0.601  0.00  0.00     0.167 HD
ENDBRANCH  12  14
ENDBRANCH  11  12
ENDBRANCH  10  11
ENDBRANCH   1  10
TORSDOF 5
