REMARK  4 active torsions:
REMARK  status: ('A' for Active; 'I' for Inactive)
REMARK    1  A    between atoms: C_5  and  C_1 
REMARK    2  A    between atoms: C_8  and  N_3 
REMARK    3  A    between atoms: C_9  and  C_8 
REMARK    4  A    between atoms: O_17  and  C_10 
ROOT
ATOM      1  N   UNL d   1       0.718   2.620   1.782  0.00  0.00    -0.392 N 
ATOM      2  HN  UNL d   1       0.450   3.350   2.442  1.00  0.00     0.159 HD
ATOM      3  C   UNL d   1      -0.086   2.310   0.826  0.00  0.00    -0.008 C 
ATOM      4  C   UNL d   1       0.166   1.217  -0.193  0.00  0.00     0.064 C 
ENDROOT
BRANCH   1   5
ATOM      5  C   UNL d   1       2.004   1.951   1.942  0.00  0.00     0.158 C 
BRANCH   5   6
ATOM      6  C   UNL d   1       2.725   2.482   3.156  0.00  0.00    -0.040 A 
ATOM      7  C   UNL d   1       2.522   1.896   4.412  0.00  0.00     0.011 A 
ATOM      8  C   UNL d   1       3.197   2.370   5.541  0.00  0.00     0.037 A 
ATOM      9  C   UNL d   1       4.073   3.452   5.432  0.00  0.00     0.068 A 
ATOM     10  C   UNL d   1       4.252   4.060   4.189  0.00  0.00     0.037 A 
ATOM     11  C   UNL d   1       3.579   3.587   3.058  0.00  0.00     0.011 A 
BRANCH   9  12
ATOM     12  O   UNL d   1       4.797   4.002   6.455  0.00  0.00    -0.356 OA
ATOM     13  C   UNL d   1       4.670   3.383   7.729  0.00  0.00     0.210 C 
ENDBRANCH   9  12
ENDBRANCH   5   6
ENDBRANCH   1   5
BRANCH   3  14
ATOM     14  C   UNL d   1      -1.409   3.067   0.736  0.00  0.00     0.132 C 
ATOM     15  C   UNL d   1      -1.586   3.837  -0.541  0.00  0.00     0.268 C 
ATOM     16  O   UNL d   1      -2.131   5.063  -0.299  0.00  0.00    -0.321 OA
ATOM     17  O   UNL d   1      -1.347   3.426  -1.665  0.00  0.00    -0.264 OA
ATOM     18  C   UNL d   1      -2.397   5.208   1.092  0.00  0.00     0.180 C 
ATOM     19  C   UNL d   1      -1.583   4.151   1.787  0.00  0.00     0.047 C 
ENDBRANCH   3  14
TORSDOF 4
