REMARK  2 active torsions:
REMARK  status: ('A' for Active; 'I' for Inactive)
REMARK    1  A    between atoms: C_8  and  C_3 
REMARK    2  A    between atoms: O_14  and  N_9 
ROOT
ATOM      1  C   UNL d   1       1.285  -1.492   0.009  0.00  0.00     0.057 A 
ATOM      2  C   UNL d   1      -0.000  -0.773   0.003  0.00  0.00     0.021 A 
ATOM      3  C   UNL d   1       2.411  -0.765  -0.004  0.00  0.00     0.006 A 
ATOM      4  O   UNL d   1       1.137   1.389   0.018  0.00  0.00    -0.346 OA
ATOM      5  C   UNL d   1       0.007   0.627   0.005  0.00  0.00     0.081 A 
ATOM      6  C   UNL d   1       2.409   0.733  -0.026  0.00  0.00     0.217 A 
ATOM      7  C   UNL d   1      -1.247  -1.424  -0.001  0.00  0.00     0.040 A 
ATOM      8 CL   UNL d   1       1.277  -3.223   0.027  0.00  0.00    -0.083 Cl
ATOM      9  C   UNL d   1      -1.189   1.355   0.004  0.00  0.00     0.039 A 
ATOM     10  C   UNL d   1      -2.438  -0.694  -0.000  0.00  0.00     0.035 A 
ATOM     11  C   UNL d   1      -2.415   0.695   0.000  0.00  0.00     0.026 A 
ATOM     12 CL   UNL d   1      -3.947  -1.521   0.000  0.00  0.00    -0.084 Cl
ENDROOT
BRANCH   3  13
ATOM     13  C   UNL d   1       3.761  -1.390   0.001  0.00  0.00     0.124 C 
ATOM     14  N   UNL d   1       4.854  -0.693  -0.009  0.00  0.00    -0.280 N 
ATOM     15  HN  UNL d   1       4.908   0.325  -0.023  1.00  0.00     0.193 HD
BRANCH  14  16
ATOM     16  O   UNL d   1       5.947  -1.567   0.002  0.00  0.00    -0.290 OA
ATOM     17  H   UNL d   1       6.708  -0.956  -0.003  0.00  0.00     0.244 HD
ENDBRANCH  14  16
ENDBRANCH   3  13
TORSDOF 2
