REMARK  1 active torsions:
REMARK  status: ('A' for Active; 'I' for Inactive)
REMARK       I    between atoms: N_2  and  C_1 
REMARK       I    between atoms: N_3  and  C_1 
REMARK    1  A    between atoms: C_5  and  N_2 
ROOT
ATOM      1  C   UNL d   1       1.026   0.018   0.122  0.00  0.00     0.322 C 
ATOM      2  N   UNL d   1       0.422  -0.026  -1.115  0.00  0.00    -0.309 N 
ATOM      3  N   UNL d   1       0.214   0.433   1.173  0.00  0.00    -0.343 N 
ATOM      4  O   UNL d   1       2.210  -0.261   0.315  0.00  0.00    -0.247 OA
ATOM      5  C   UNL d   1       0.835   0.620   2.477  0.00  0.00     0.154 C 
ATOM      6  C   UNL d   1      -1.233   0.596   1.153  0.00  0.00     0.154 C 
ATOM      7  H   UNL d   1      -0.416   0.519  -1.218  0.00  0.00     0.170 HD
ENDROOT
BRANCH   2   8
ATOM      8  C   UNL d   1       1.009  -0.465  -2.326  0.00  0.00     0.036 A 
ATOM      9  C   UNL d   1       2.204  -1.186  -2.392  0.00  0.00     0.029 A 
ATOM     10  C   UNL d   1       2.756  -1.543  -3.626  0.00  0.00     0.002 A 
ATOM     11  C   UNL d   1       2.109  -1.197  -4.808  0.00  0.00     0.000 A 
ATOM     12  C   UNL d   1       0.899  -0.510  -4.756  0.00  0.00     0.002 A 
ATOM     13  C   UNL d   1       0.348  -0.152  -3.522  0.00  0.00     0.029 A 
ENDBRANCH   2   8
TORSDOF 1
