REMARK  4 active torsions:
REMARK  status: ('A' for Active; 'I' for Inactive)
REMARK       I    between atoms: N_3  and  C_1 
REMARK    1  A    between atoms: C_5  and  C_1 
REMARK    2  A    between atoms: C_2  and  O_7 
REMARK    3  A    between atoms: C_6  and  N_3 
REMARK    4  A    between atoms: O_7  and  C_4 
ROOT
ATOM      1  C   UNL d   1       0.334   3.107  -1.679  0.00  0.00     0.106 A 
ATOM      2  C   UNL d   1       1.036   1.892  -1.580  0.00  0.00     0.069 A 
ATOM      3  C   UNL d   1       0.850   4.163  -2.443  0.00  0.00     0.063 A 
ATOM      4  C   UNL d   1       2.261   1.772  -2.252  0.00  0.00     0.034 A 
ATOM      5  C   UNL d   1       2.072   4.024  -3.093  0.00  0.00     0.036 A 
ATOM      6  C   UNL d   1       2.779   2.829  -3.005  0.00  0.00     0.026 A 
ATOM      7 CL   UNL d   1       2.711   5.329  -4.010  0.00  0.00    -0.084 Cl
ENDROOT
BRANCH   2   8
ATOM      8  N   UNL d   1       0.497   0.809  -0.852  0.00  0.00    -0.319 N 
ATOM      9  C   UNL d   1       1.246  -0.165  -0.201  0.00  0.00     0.280 C 
ATOM     10  O   UNL d   1       2.472  -0.210  -0.183  0.00  0.00    -0.265 OA
ATOM     11  H   UNL d   1      -0.491   0.812  -0.623  0.00  0.00     0.169 HD
BRANCH   9  12
ATOM     12  C   UNL d   1       0.440  -1.104   0.549  0.00  0.00     0.142 A 
ATOM     13  O   UNL d   1      -0.910  -1.192   0.308  0.00  0.00    -0.317 OA
ATOM     14  C   UNL d   1      -1.393  -2.164   1.123  0.00  0.00     0.143 A 
ATOM     15  C   UNL d   1      -0.392  -2.683   1.910  0.00  0.00     0.027 A 
ATOM     16  C   UNL d   1       0.791  -2.003   1.539  0.00  0.00     0.045 A 
ENDBRANCH   9  12
ENDBRANCH   2   8
BRANCH   1  17
ATOM     17  O   UNL d   1      -0.876   3.363  -1.098  0.00  0.00    -0.253 OA
BRANCH  17  18
ATOM     18  C   UNL d   1      -0.940   3.175   0.310  0.00  0.00     0.530 C 
ATOM     19  F   UNL d   1       0.271   3.068   0.896  0.00  0.00    -0.144 F 
ATOM     20  F   UNL d   1      -1.586   4.224   0.864  0.00  0.00    -0.144 F 
ATOM     21  F   UNL d   1      -1.651   2.053   0.563  0.00  0.00    -0.144 F 
ENDBRANCH  17  18
ENDBRANCH   1  17
TORSDOF 4
