REMARK  1 active torsions:
REMARK  status: ('A' for Active; 'I' for Inactive)
REMARK    1  A    between atoms: C_8  and  N_1 
ROOT
ATOM      1  N   UNL d   1       0.836  -0.826   0.072  0.00  0.00    -0.213 N 
ATOM      2  C   UNL d   1      -0.438  -1.024  -0.448  0.00  0.00     0.215 A 
ATOM      3  N   UNL d   1       0.834   0.373   0.758  0.00  0.00    -0.219 N 
ATOM      4  HN  UNL d   1       1.631   0.763   1.261  1.00  0.00     0.210 HD
ATOM      5  N   UNL d   1      -0.308   0.917   0.668  0.00  0.00    -0.225 N 
ATOM      6  HN  UNL d   1      -0.576   1.809   1.084  1.00  0.00     0.210 HD
ATOM      7  N   UNL d   1      -1.115   0.117  -0.070  0.00  0.00    -0.259 N 
ATOM      8  S   UNL d   1      -1.169  -2.269  -1.258  0.00  0.00    -0.037 SA
ATOM      9  H   UNL d   1      -2.089   0.331  -0.218  0.00  0.00     0.191 HD
ENDROOT
BRANCH   1  10
ATOM     10  C   UNL d   1       2.038  -1.568   0.014  0.00  0.00     0.062 A 
ATOM     11  C   UNL d   1       2.258  -2.575  -0.933  0.00  0.00     0.055 A 
ATOM     12  C   UNL d   1       3.466  -3.279  -0.958  0.00  0.00     0.036 A 
ATOM     13 CL   UNL d   1       3.720  -4.492  -2.154  0.00  0.00    -0.084 Cl
ATOM     14  C   UNL d   1       4.472  -3.002  -0.038  0.00  0.00     0.024 A 
ATOM     15  C   UNL d   1       4.276  -2.001   0.906  0.00  0.00     0.004 A 
ATOM     16  C   UNL d   1       3.075  -1.285   0.923  0.00  0.00     0.032 A 
ENDBRANCH   1  10
TORSDOF 1
