REMARK  3 active torsions:
REMARK  status: ('A' for Active; 'I' for Inactive)
REMARK    1  A    between atoms: C_3  and  N_1 
REMARK    2  A    between atoms: O_19  and  C_7 
REMARK    3  A    between atoms: C_10  and  C_11 
ROOT
ATOM      1  C   UNL d   1      -0.351  -2.538   0.141  0.00  0.00     0.154 A 
ATOM      2  N   UNL d   1      -1.113  -3.068  -0.854  0.00  0.00    -0.348 N 
ATOM      3  HN  UNL d   1      -1.542  -2.461  -1.552  1.00  0.00     0.167 HD
ATOM      4  C   UNL d   1      -0.759  -5.296   0.004  0.00  0.00     0.065 A 
ATOM      5  C   UNL d   1       0.198  -3.370   1.131  0.00  0.00     0.081 A 
ATOM      6  C   UNL d   1      -0.011  -4.753   1.049  0.00  0.00     0.045 A 
ATOM      7  C   UNL d   1      -1.297  -4.409  -0.909  0.00  0.00     0.106 A 
ATOM      8 CL   UNL d   1       1.061  -2.830   2.531  0.00  0.00    -0.080 Cl
ENDROOT
BRANCH   1   9
ATOM      9  N   UNL d   1      -0.118  -1.145   0.092  0.00  0.00    -0.177 N 
ATOM     10  C   UNL d   1      -0.781  -0.215  -0.688  0.00  0.00     0.396 A 
ATOM     11  O   UNL d   1      -0.126   0.974  -0.510  0.00  0.00    -0.219 OA
ATOM     12  O   UNL d   1      -1.769  -0.322  -1.397  0.00  0.00    -0.235 OA
ATOM     13  C   UNL d   1       0.874   0.652   0.334  0.00  0.00     0.288 A 
ATOM     14  N   UNL d   1       0.949  -0.573   0.728  0.00  0.00    -0.246 N 
ATOM     15  HN  UNL d   1       1.630  -1.004   1.353  1.00  0.00     0.192 HD
BRANCH  13  16
ATOM     16  O   UNL d   1       1.685   1.680   0.648  0.00  0.00    -0.320 OA
ATOM     17  C   UNL d   1       2.769   1.336   1.516  0.00  0.00     0.214 C 
ENDBRANCH  13  16
ENDBRANCH   1   9
BRANCH   4  18
ATOM     18  C   UNL d   1      -0.988  -6.767  -0.143  0.00  0.00     0.418 C 
ATOM     19  F   UNL d   1      -0.392  -7.504   0.834  0.00  0.00    -0.166 F 
ATOM     20  F   UNL d   1      -2.306  -7.098  -0.109  0.00  0.00    -0.166 F 
ATOM     21  F   UNL d   1      -0.507  -7.252  -1.320  0.00  0.00    -0.166 F 
ENDBRANCH   4  18
TORSDOF 3
