REMARK  4 active torsions:
REMARK  status: ('A' for Active; 'I' for Inactive)
REMARK    1  A    between atoms: N_5  and  C_1 
REMARK    2  A    between atoms: S_8  and  C_1 
REMARK    3  A    between atoms: C_4  and  C_12 
REMARK    4  A    between atoms: C_12  and  S_8 
ROOT
ATOM      1  S   UNL d   1       2.441  -0.468   0.859  0.00  0.00    -0.093 SA
ENDROOT
BRANCH   1   2
ATOM      2  C   UNL d   1       0.946  -0.085  -0.002  0.00  0.00     0.137 C 
ATOM      3  S   UNL d   1       0.506   1.527  -0.218  0.00  0.00    -0.053 SA
BRANCH   2   4
ATOM      4  N   UNL d   1       0.275  -1.178  -0.566  0.00  0.00    -0.362 N 
ATOM      5  C   UNL d   1       0.599  -2.603  -0.331  0.00  0.00     0.150 C 
ATOM      6  C   UNL d   1       0.815  -3.325  -1.666  0.00  0.00     0.187 C 
ATOM      7  O   UNL d   1      -0.345  -3.208  -2.503  0.00  0.00    -0.388 OA
ATOM      8  C   UNL d   1      -0.634  -1.829  -2.778  0.00  0.00     0.187 C 
ATOM      9  C   UNL d   1      -0.875  -1.038  -1.485  0.00  0.00     0.150 C 
ENDBRANCH   2   4
ENDBRANCH   1   2
BRANCH   1  10
ATOM     10  C   UNL d   1       2.141   0.270   2.490  0.00  0.00     0.160 C 
BRANCH  10  11
ATOM     11  C   UNL d   1       0.982  -0.303   3.223  0.00  0.00     0.113 A 
ATOM     12  N   UNL d   1      -0.091   0.463   3.613  0.00  0.00    -0.333 N 
ATOM     13  C   UNL d   1      -0.807  -0.396   4.291  0.00  0.00     0.260 A 
ATOM     14  HN  UNL d   1      -0.280   1.448   3.423  1.00  0.00     0.168 HD
ATOM     15  O   UNL d   1      -0.265  -1.638   4.354  0.00  0.00    -0.232 OA
ATOM     16  N   UNL d   1       0.938  -1.577   3.646  0.00  0.00    -0.247 N 
ATOM     17  HN  UNL d   1       1.619  -2.320   3.488  1.00  0.00     0.196 HD
ENDBRANCH  10  11
ENDBRANCH   1  10
TORSDOF 4
