REMARK  5 active torsions:
REMARK  status: ('A' for Active; 'I' for Inactive)
REMARK    1  A    between atoms: C_3  and  C_1 
REMARK    2  A    between atoms: C_10  and  N_2 
REMARK    3  A    between atoms: C_9  and  C_3 
REMARK    4  A    between atoms: N_11  and  C_8 
REMARK    5  A    between atoms: C_21  and  C_17 
ROOT
ATOM      1  C   UNL d   1       0.580  -3.604   0.057  0.00  0.00     0.153 C 
ATOM      2  N   UNL d   1       1.947  -3.323  -0.036  0.00  0.00    -0.224 N 
ATOM      3  N   UNL d   1       2.581  -4.461  -0.402  0.00  0.00     0.001 NA
ATOM      4  N   UNL d   1       1.677  -5.423  -0.316  0.00  0.00    -0.007 NA
ATOM      5  N   UNL d   1       0.440  -4.915  -0.024  0.00  0.00    -0.269 N 
ATOM      6  HN  UNL d   1      -0.422  -5.445   0.106  1.00  0.00     0.185 HD
ENDROOT
BRANCH   1   7
ATOM      7  C   UNL d   1      -0.415  -2.580   0.116  0.00  0.00     0.071 C 
ATOM      8  C   UNL d   1      -0.349  -1.585  -0.799  0.00  0.00     0.103 C 
BRANCH   8   9
ATOM      9  N   UNL d   1      -0.980  -0.364  -0.987  0.00  0.00    -0.398 N 
ATOM     10  C   UNL d   1      -1.663   0.383   0.071  0.00  0.00     0.148 C 
ATOM     11  C   UNL d   1      -0.966   0.312  -2.285  0.00  0.00     0.148 C 
ENDBRANCH   8   9
BRANCH   7  12
ATOM     12  C   UNL d   1      -1.516  -2.707   1.134  0.00  0.00     0.160 C 
ATOM     13  O   UNL d   1      -2.602  -2.140   1.010  0.00  0.00    -0.293 OA
ATOM     14  C   UNL d   1      -1.280  -3.589   2.337  0.00  0.00     0.097 C 
ENDBRANCH   7  12
ENDBRANCH   1   7
BRANCH   2  15
ATOM     15  C   UNL d   1       2.651  -2.106   0.134  0.00  0.00     0.056 A 
ATOM     16  C   UNL d   1       2.220  -1.157   1.070  0.00  0.00     0.032 A 
ATOM     17  C   UNL d   1       2.810   0.105   1.104  0.00  0.00     0.009 A 
ATOM     18  C   UNL d   1       3.832   0.434   0.206  0.00  0.00    -0.058 A 
ATOM     19  C   UNL d   1       4.305  -0.543  -0.681  0.00  0.00     0.009 A 
ATOM     20  C   UNL d   1       3.736  -1.820  -0.702  0.00  0.00     0.032 A 
BRANCH  18  21
ATOM     21  C   UNL d   1       4.361   1.845   0.154  0.00  0.00     0.034 C 
ATOM     22  C   UNL d   1       3.488   2.728  -0.730  0.00  0.00     0.010 C 
ENDBRANCH  18  21
ENDBRANCH   2  15
TORSDOF 5
