REMARK  2 active torsions:
REMARK  status: ('A' for Active; 'I' for Inactive)
REMARK    1  A    between atoms: N_2  and  C_1 
REMARK       I    between atoms: C_4  and  N_2 
REMARK    2  A    between atoms: C_6  and  C_3 
ROOT
ATOM      1  C   UNL d   1       1.510  -0.394  -0.053  0.00  0.00     0.041 A 
ATOM      2  C   UNL d   1       0.568  -1.448  -0.112  0.00  0.00    -0.028 A 
ATOM      3  C   UNL d   1       1.051   0.927   0.096  0.00  0.00     0.030 A 
ATOM      4  C   UNL d   1      -0.805  -1.125   0.001  0.00  0.00     0.010 A 
ATOM      5  C   UNL d   1      -0.309   1.218   0.192  0.00  0.00     0.002 A 
ATOM      6  C   UNL d   1      -1.238   0.193   0.148  0.00  0.00     0.001 A 
ENDROOT
BRANCH   1   7
ATOM      7  N   UNL d   1       2.896  -0.663  -0.092  0.00  0.00    -0.327 N 
ATOM      8  C   UNL d   1       3.909   0.232  -0.393  0.00  0.00     0.218 C 
ATOM      9  O   UNL d   1       3.776   1.374  -0.816  0.00  0.00    -0.274 OA
ATOM     10  C   UNL d   1       5.286  -0.332  -0.139  0.00  0.00     0.117 C 
ATOM     11  H   UNL d   1       3.172  -1.625   0.026  0.00  0.00     0.169 HD
ENDBRANCH   1   7
BRANCH   2  12
ATOM     12  C   UNL d   1       0.892  -2.917  -0.375  0.00  0.00     0.013 C 
ATOM     13  C   UNL d   1       1.661  -3.132  -1.683  0.00  0.00     0.015 C 
ATOM     14  C   UNL d   1       1.548  -3.623   0.813  0.00  0.00     0.015 C 
ENDBRANCH   2  12
TORSDOF 2
