REMARK  7 active torsions:
REMARK  status: ('A' for Active; 'I' for Inactive)
REMARK    1  A    between atoms: C_6  and  C_2 
REMARK    2  A    between atoms: O_11  and  C_3 
REMARK    3  A    between atoms: C_13  and  C_7 
REMARK    4  A    between atoms: C_18  and  O_11 
REMARK    5  A    between atoms: C_12  and  C_18 
REMARK    6  A    between atoms: O_19  and  C_12 
REMARK    7  A    between atoms: C_22  and  O_19 
ROOT
ATOM      1  C   UNL d   1       0.591   0.079   0.087  0.00  0.00     0.110 A 
ATOM      2  C   UNL d   1      -0.072   1.310   0.043  0.00  0.00     0.075 A 
ATOM      3  C   UNL d   1      -0.193  -1.069   0.121  0.00  0.00     0.165 A 
ATOM      4  N   UNL d   1      -1.545  -1.070   0.067  0.00  0.00    -0.335 N 
ATOM      5  HN  UNL d   1      -2.066  -1.947   0.084  1.00  0.00     0.168 HD
ATOM      6  C   UNL d   1      -2.190   0.115  -0.011  0.00  0.00     0.045 A 
ATOM      7  C   UNL d   1      -1.482   1.313   0.000  0.00  0.00     0.048 A 
ATOM      8  C   UNL d   1       2.016  -0.041   0.096  0.00  0.00     0.104 C 
ATOM      9  N   UNL d   1       3.175  -0.132   0.084  0.00  0.00    -0.191 NA
ENDROOT
BRANCH   2  10
ATOM     10  C   UNL d   1       0.623   2.645   0.024  0.00  0.00     0.419 C 
ATOM     11  F   UNL d   1       1.976   2.603   0.059  0.00  0.00    -0.166 F 
ATOM     12  F   UNL d   1       0.301   3.357  -1.093  0.00  0.00    -0.166 F 
ATOM     13  F   UNL d   1       0.246   3.424   1.076  0.00  0.00    -0.166 F 
ENDBRANCH   2  10
BRANCH   3  14
ATOM     14  O   UNL d   1       0.442  -2.292   0.150  0.00  0.00    -0.325 OA
BRANCH  14  15
ATOM     15  C   UNL d   1      -0.358  -3.331   0.709  0.00  0.00     0.288 C 
BRANCH  15  16
ATOM     16  C   UNL d   1      -0.557  -3.217   2.216  0.00  0.00     0.283 C 
ATOM     17  O   UNL d   1      -0.116  -2.321   2.925  0.00  0.00    -0.263 OA
BRANCH  16  18
ATOM     18  O   UNL d   1      -1.213  -4.327   2.667  0.00  0.00    -0.320 OA
BRANCH  18  19
ATOM     19  C   UNL d   1      -1.121  -4.563   4.080  0.00  0.00     0.174 C 
ATOM     20  C   UNL d   1       0.141  -5.365   4.347  0.00  0.00     0.034 C 
ENDBRANCH  18  19
ENDBRANCH  16  18
ENDBRANCH  15  16
ENDBRANCH  14  15
ENDBRANCH   3  14
BRANCH   6  21
ATOM     21  C   UNL d   1      -3.660   0.041  -0.138  0.00  0.00    -0.009 A 
ATOM     22  C   UNL d   1      -4.380  -1.038   0.409  0.00  0.00     0.013 A 
ATOM     23  C   UNL d   1      -5.769  -1.131   0.279  0.00  0.00     0.001 A 
ATOM     24  C   UNL d   1      -6.472  -0.145  -0.407  0.00  0.00     0.000 A 
ATOM     25  C   UNL d   1      -5.787   0.929  -0.965  0.00  0.00     0.001 A 
ATOM     26  C   UNL d   1      -4.397   1.018  -0.834  0.00  0.00     0.013 A 
ENDBRANCH   6  21
TORSDOF 7
