REMARK  4 active torsions:
REMARK  status: ('A' for Active; 'I' for Inactive)
REMARK    1  A    between atoms: N_2  and  C_1 
REMARK    2  A    between atoms: N_3  and  C_1 
REMARK    3  A    between atoms: C_4  and  N_2 
REMARK    4  A    between atoms: C_5  and  N_3 
ROOT
ATOM      1  C   UNL d   1       1.058  -0.005  -0.041  0.00  0.00     0.178 C 
ATOM      2  S   UNL d   1       2.657   0.261  -0.464  0.00  0.00    -0.040 SA
ENDROOT
BRANCH   1   3
ATOM      3  N   UNL d   1       0.549  -0.527   1.111  0.00  0.00    -0.319 N 
ATOM      4  H   UNL d   1      -0.468  -0.609   1.118  0.00  0.00     0.169 HD
BRANCH   3   5
ATOM      5  C   UNL d   1       1.090  -1.119   2.254  0.00  0.00     0.106 A 
ATOM      6  N   UNL d   1       0.153  -1.740   3.009  0.00  0.00    -0.352 N 
ATOM      7  C   UNL d   1       0.565  -2.436   4.091  0.00  0.00     0.089 A 
ATOM      8  HN  UNL d   1      -0.836  -1.684   2.767  1.00  0.00     0.166 HD
ATOM      9  C   UNL d   1       1.885  -2.532   4.484  0.00  0.00     0.017 A 
ATOM     10  C   UNL d   1       2.832  -1.855   3.731  0.00  0.00     0.005 A 
ATOM     11  C   UNL d   1       2.432  -1.136   2.603  0.00  0.00     0.048 A 
ENDBRANCH   3   5
ENDBRANCH   1   3
BRANCH   1  12
ATOM     12  N   UNL d   1       0.146   0.296  -1.026  0.00  0.00    -0.319 N 
ATOM     13  H   UNL d   1       0.567   0.597  -1.893  0.00  0.00     0.169 HD
BRANCH  12  14
ATOM     14  C   UNL d   1      -1.253   0.191  -1.000  0.00  0.00     0.106 A 
ATOM     15  N   UNL d   1      -1.881  -0.120   0.153  0.00  0.00    -0.352 N 
ATOM     16  C   UNL d   1      -3.230  -0.198   0.131  0.00  0.00     0.089 A 
ATOM     17  HN  UNL d   1      -1.356  -0.291   1.010  1.00  0.00     0.166 HD
ATOM     18  C   UNL d   1      -3.992   0.006  -1.005  0.00  0.00     0.017 A 
ATOM     19  C   UNL d   1      -3.332   0.314  -2.187  0.00  0.00     0.005 A 
ATOM     20  C   UNL d   1      -1.942   0.417  -2.186  0.00  0.00     0.048 A 
ENDBRANCH  12  14
ENDBRANCH   1  12
TORSDOF 4
