REMARK  3 active torsions:
REMARK  status: ('A' for Active; 'I' for Inactive)
REMARK    1  A    between atoms: C_2  and  C_1 
REMARK    2  A    between atoms: N_4  and  N_11 
REMARK    3  A    between atoms: N_11  and  C_10 
ROOT
ATOM      1  C   UNL d   1      -5.344   1.226   0.598  0.00  0.00     0.209 C 
ATOM      2  N   UNL d   1      -4.050   1.121   0.553  0.00  0.00    -0.281 N 
ATOM      3  HN  UNL d   1      -3.470   1.857   0.958  1.00  0.00     0.188 HD
ATOM      4  N   UNL d   1      -6.883  -0.583  -0.446  0.00  0.00    -0.189 NA
ATOM      5  N   UNL d   1      -6.245   3.359   1.781  0.00  0.00    -0.189 NA
ATOM      6  C   UNL d   1      -6.202   0.234   0.019  0.00  0.00     0.130 C 
ATOM      7  C   UNL d   1      -5.831   2.409   1.251  0.00  0.00     0.130 C 
ENDROOT
BRANCH   2   8
ATOM      8  N   UNL d   1      -3.455   0.039  -0.031  0.00  0.00    -0.298 N 
ATOM      9  H   UNL d   1      -3.941  -0.853  -0.176  0.00  0.00     0.187 HD
BRANCH   8  10
ATOM     10  C   UNL d   1      -2.042  -0.007  -0.031  0.00  0.00     0.063 A 
ATOM     11  C   UNL d   1      -1.327  -1.224  -0.044  0.00  0.00     0.078 A 
ATOM     12  C   UNL d   1       0.085  -1.199  -0.031  0.00  0.00     0.060 A 
ATOM     13  C   UNL d   1       0.772   0.007  -0.007  0.00  0.00     0.117 A 
ATOM     14  C   UNL d   1       0.087   1.208   0.013  0.00  0.00     0.044 A 
ATOM     15  F   UNL d   1       2.110   0.006   0.002  0.00  0.00    -0.206 F 
ATOM     16  C   UNL d   1      -1.308   1.198   0.008  0.00  0.00     0.035 A 
BRANCH  11  17
ATOM     17  C   UNL d   1      -1.990  -2.575  -0.032  0.00  0.00     0.419 C 
ATOM     18  F   UNL d   1      -3.353  -2.522  -0.098  0.00  0.00    -0.166 F 
ATOM     19  F   UNL d   1      -1.602  -3.356  -1.077  0.00  0.00    -0.166 F 
ATOM     20  F   UNL d   1      -1.702  -3.286   1.093  0.00  0.00    -0.166 F 
ENDBRANCH  11  17
ENDBRANCH   8  10
ENDBRANCH   2   8
TORSDOF 3
