REMARK  2 active torsions:
REMARK  status: ('A' for Active; 'I' for Inactive)
REMARK    1  A    between atoms: C_13  and  N_2 
REMARK    2  A    between atoms: C_15  and  C_13 
ROOT
ATOM      1  S   UNL d   1       1.360   0.409   0.007  0.00  0.00     0.268 S 
ATOM      2  N   UNL d   1       1.220  -1.261   0.077  0.00  0.00    -0.233 N 
ATOM      3  C   UNL d   1      -0.108  -1.723   0.159  0.00  0.00     0.269 A 
ATOM      4  C   UNL d   1      -1.025  -0.570   0.107  0.00  0.00     0.056 A 
ATOM      5  C   UNL d   1      -0.363   0.648   0.034  0.00  0.00     0.095 A 
ATOM      6  O   UNL d   1       1.913   0.883   1.252  0.00  0.00    -0.200 OA
ATOM      7  O   UNL d   1       1.860   0.804  -1.287  0.00  0.00    -0.200 OA
ATOM      8  O   UNL d   1      -0.448  -2.888   0.252  0.00  0.00    -0.266 OA
ATOM      9  C   UNL d   1      -2.410  -0.621   0.104  0.00  0.00     0.018 A 
ATOM     10  C   UNL d   1      -1.031   1.858  -0.034  0.00  0.00     0.026 A 
ATOM     11  C   UNL d   1      -3.112   0.588   0.033  0.00  0.00     0.001 A 
ATOM     12  C   UNL d   1      -2.427   1.817  -0.032  0.00  0.00     0.002 A 
ENDROOT
BRANCH   2  13
ATOM     13  C   UNL d   1       2.426  -2.078   0.028  0.00  0.00     0.183 C 
BRANCH  13  14
ATOM     14  C   UNL d   1       2.863  -2.382  -1.394  0.00  0.00    -0.037 A 
ATOM     15  C   UNL d   1       2.023  -3.176  -2.215  0.00  0.00     0.042 A 
ATOM     16  C   UNL d   1       2.447  -3.312  -3.550  0.00  0.00     0.086 A 
ATOM     17  N   UNL d   1       1.859  -3.956  -4.565  0.00  0.00    -0.240 N 
ATOM     18  C   UNL d   1       3.678  -2.711  -4.042  0.00  0.00     0.085 A 
ATOM     19  O   UNL d   1       2.680  -3.757  -5.663  0.00  0.00    -0.156 OA
ATOM     20  HN  UNL d   1       0.986  -4.483  -4.536  1.00  0.00     0.197 HD
ATOM     21  N   UNL d   1       3.798  -3.004  -5.342  0.00  0.00    -0.240 N 
ATOM     22  HN  UNL d   1       4.556  -2.730  -5.968  1.00  0.00     0.197 HD
ATOM     23  C   UNL d   1       4.531  -1.962  -3.214  0.00  0.00     0.034 A 
ATOM     24  C   UNL d   1       4.080  -1.815  -1.886  0.00  0.00     0.011 A 
ENDBRANCH  13  14
ENDBRANCH   2  13
TORSDOF 2
