REMARK  8 active torsions:
REMARK  status: ('A' for Active; 'I' for Inactive)
REMARK    1  A    between atoms: C_5  and  C_1 
REMARK    2  A    between atoms: N_9  and  C_2 
REMARK    3  A    between atoms: C_8  and  C_11 
REMARK       I    between atoms: C_10  and  N_9 
REMARK    4  A    between atoms: O_22  and  C_10 
REMARK    5  A    between atoms: C_14  and  O_26 
REMARK    6  A    between atoms: C_32  and  O_22 
REMARK    7  A    between atoms: O_26  and  C_33 
REMARK    8  A    between atoms: C_33  and  C_32 
ROOT
ATOM      1  N   UNL d   1       0.689  -2.624  -0.454  0.00  0.00    -0.298 N 
ATOM      2  C   UNL d   1       1.894  -2.921   0.079  0.00  0.00     0.365 C 
ATOM      3  O   UNL d   1       2.772  -2.151   0.449  0.00  0.00    -0.238 OA
ATOM      4  H   UNL d   1       0.146  -3.445  -0.682  0.00  0.00     0.171 HD
ENDROOT
BRANCH   1   5
ATOM      5  C   UNL d   1       0.089  -1.397  -0.655  0.00  0.00     0.098 A 
ATOM      6  C   UNL d   1      -1.065  -1.183  -1.486  0.00  0.00     0.098 A 
ATOM      7  N   UNL d   1      -1.430   0.107  -1.448  0.00  0.00    -0.258 N 
ATOM      8  O   UNL d   1      -0.521   0.744  -0.639  0.00  0.00    -0.240 OA
ATOM      9  HN  UNL d   1      -2.225   0.531  -1.925  1.00  0.00     0.195 HD
ATOM     10  C   UNL d   1       0.372  -0.151  -0.133  0.00  0.00     0.101 A 
ATOM     11  C   UNL d   1       1.304   0.437   0.852  0.00  0.00     0.081 C 
BRANCH   6  12
ATOM     12  C   UNL d   1      -1.775  -2.144  -2.349  0.00  0.00     0.038 A 
ATOM     13  C   UNL d   1      -2.240  -3.386  -1.865  0.00  0.00     0.048 A 
ATOM     14 CL   UNL d   1      -2.125  -3.871  -0.204  0.00  0.00    -0.083 Cl
ATOM     15  C   UNL d   1      -2.857  -4.314  -2.718  0.00  0.00     0.025 A 
ATOM     16  C   UNL d   1      -3.079  -4.004  -4.053  0.00  0.00     0.003 A 
ATOM     17  C   UNL d   1      -2.660  -2.775  -4.546  0.00  0.00     0.025 A 
ATOM     18  C   UNL d   1      -1.995  -1.861  -3.715  0.00  0.00     0.048 A 
ATOM     19 CL   UNL d   1      -1.427  -0.421  -4.498  0.00  0.00    -0.083 Cl
ENDBRANCH   6  12
ENDBRANCH   1   5
BRANCH   2  20
ATOM     20  O   UNL d   1       1.967  -4.273   0.180  0.00  0.00    -0.302 OA
BRANCH  20  21
ATOM     21  C   UNL d   1       2.824  -4.760   1.220  0.00  0.00     0.207 C 
BRANCH  21  22
ATOM     22  C   UNL d   1       1.990  -4.814   2.495  0.00  0.00     0.204 C 
BRANCH  22  23
ATOM     23  O   UNL d   1       2.780  -5.250   3.597  0.00  0.00    -0.334 OA
BRANCH  23  24
ATOM     24  C   UNL d   1       2.059  -5.219   4.776  0.00  0.00     0.142 A 
ATOM     25  N   UNL d   1       0.743  -4.916   4.752  0.00  0.00    -0.347 N 
ATOM     26  C   UNL d   1       0.094  -4.890   5.932  0.00  0.00     0.091 A 
ATOM     27  HN  UNL d   1       0.260  -4.715   3.876  1.00  0.00     0.167 HD
ATOM     28  C   UNL d   1       0.704  -5.163   7.143  0.00  0.00     0.033 A 
ATOM     29  C   UNL d   1       2.066  -5.485   7.150  0.00  0.00     0.053 A 
ATOM     30  C   UNL d   1       2.756  -5.513   5.933  0.00  0.00     0.072 A 
BRANCH  29  31
ATOM     31  C   UNL d   1       2.763  -5.793   8.445  0.00  0.00     0.417 C 
ATOM     32  F   UNL d   1       4.087  -6.074   8.299  0.00  0.00    -0.166 F 
ATOM     33  F   UNL d   1       2.694  -4.761   9.329  0.00  0.00    -0.166 F 
ATOM     34  F   UNL d   1       2.220  -6.867   9.080  0.00  0.00    -0.166 F 
ENDBRANCH  29  31
ENDBRANCH  23  24
ENDBRANCH  22  23
ENDBRANCH  21  22
ENDBRANCH  20  21
ENDBRANCH   2  20
TORSDOF 8
