REMARK  2 active torsions:
REMARK  status: ('A' for Active; 'I' for Inactive)
REMARK    1  A    between atoms: N_13  and  C_9 
REMARK    2  A    between atoms: C_14  and  N_10 
ROOT
ATOM      1  C   UNL d   1       0.199  -0.673   0.019  0.00  0.00     0.141 A 
ATOM      2  C   UNL d   1       0.138   0.695   0.027  0.00  0.00     0.148 A 
ATOM      3  N   UNL d   1      -0.943  -1.475  -0.041  0.00  0.00    -0.317 N 
ATOM      4  HN  UNL d   1      -0.902  -2.494  -0.049  1.00  0.00     0.170 HD
ATOM      5  C   UNL d   1      -1.091   1.401   0.002  0.00  0.00     0.278 A 
ATOM      6  N   UNL d   1      -2.171   0.554  -0.049  0.00  0.00    -0.298 N 
ATOM      7  N   UNL d   1       1.488  -1.115   0.051  0.00  0.00    -0.336 N 
ATOM      8  HN  UNL d   1       1.816  -2.080   0.068  1.00  0.00     0.168 HD
ATOM      9  C   UNL d   1      -2.062  -0.815  -0.084  0.00  0.00     0.159 A 
ATOM     10  N   UNL d   1       1.439   1.110   0.034  0.00  0.00    -0.336 N 
ATOM     11  C   UNL d   1       2.217  -0.018   0.056  0.00  0.00     0.185 A 
ATOM     12  O   UNL d   1      -1.218   2.621   0.020  0.00  0.00    -0.265 OA
ATOM     13  H   UNL d   1      -3.074   0.991  -0.122  0.00  0.00     0.171 HD
ENDROOT
BRANCH   9  14
ATOM     14  N   UNL d   1      -3.234  -1.498  -0.167  0.00  0.00    -0.274 NA
ATOM     15  H   UNL d   1      -4.031  -1.113   0.319  0.00  0.00     0.127 HD
ATOM     16  H   UNL d   1      -3.101  -2.490   0.015  0.00  0.00     0.127 HD
ENDBRANCH   9  14
BRANCH  10  17
ATOM     17  C   UNL d   1       1.940   2.466  -0.049  0.00  0.00     0.126 C 
ATOM     18  C   UNL d   1       2.221   3.072   1.314  0.00  0.00     0.027 C 
ENDBRANCH  10  17
TORSDOF 2
