REMARK  6 active torsions:
REMARK  status: ('A' for Active; 'I' for Inactive)
REMARK    1  A    between atoms: C_12  and  N_1 
REMARK    2  A    between atoms: S_3  and  C_13 
REMARK    3  A    between atoms: N_7  and  S_3 
REMARK    4  A    between atoms: C_9  and  C_4 
REMARK    5  A    between atoms: C_8  and  N_7 
REMARK    6  A    between atoms: C_23  and  C_9 
ROOT
ATOM      1  C   UNL d   1       0.458  -2.630  -0.054  0.00  0.00     0.044 A 
ATOM      2  C   UNL d   1       1.116  -5.348   0.107  0.00  0.00     0.075 A 
ATOM      3  C   UNL d   1       1.618  -4.454   1.057  0.00  0.00     0.027 A 
ATOM      4  C   UNL d   1       0.319  -4.892  -0.944  0.00  0.00     0.027 A 
ATOM      5  C   UNL d   1       1.299  -3.098   0.966  0.00  0.00     0.031 A 
ATOM      6  C   UNL d   1      -0.018  -3.536  -1.015  0.00  0.00     0.031 A 
ENDROOT
BRANCH   1   7
ATOM      7  N   UNL d   1       0.121  -1.250  -0.133  0.00  0.00    -0.262 N 
ATOM      8  C   UNL d   1      -1.186  -0.782  -0.172  0.00  0.00     0.153 A 
ATOM      9  S   UNL d   1      -1.180   0.976  -0.286  0.00  0.00    -0.054 SA
ATOM     10  S   UNL d   1      -2.628  -1.619  -0.031  0.00  0.00    -0.052 SA
ATOM     11  C   UNL d   1       0.539   1.065  -0.320  0.00  0.00     0.078 A 
ATOM     12  C   UNL d   1       1.130  -0.290  -0.126  0.00  0.00     0.271 A 
ATOM     13  O   UNL d   1       2.331  -0.487   0.023  0.00  0.00    -0.266 OA
BRANCH  11  14
ATOM     14  C   UNL d   1       1.189   2.213  -0.554  0.00  0.00     0.054 C 
BRANCH  14  15
ATOM     15  C   UNL d   1       2.629   2.339  -0.731  0.00  0.00     0.033 A 
ATOM     16  N   UNL d   1       3.054   2.254  -2.011  0.00  0.00    -0.366 N 
ATOM     17  C   UNL d   1       4.379   2.403  -2.223  0.00  0.00     0.088 A 
ATOM     18  HN  UNL d   1       2.405   2.086  -2.780  1.00  0.00     0.165 HD
ATOM     19  C   UNL d   1       5.296   2.667  -1.219  0.00  0.00     0.017 A 
ATOM     20  C   UNL d   1       4.831   2.766   0.088  0.00  0.00     0.004 A 
ATOM     21  C   UNL d   1       3.473   2.594   0.343  0.00  0.00     0.029 A 
ENDBRANCH  14  15
ENDBRANCH  11  14
ENDBRANCH   1   7
BRANCH   2  22
ATOM     22  S   UNL d   1       1.612  -7.053   0.174  0.00  0.00     0.247 S 
ATOM     23  O   UNL d   1       1.499  -7.585  -1.169  0.00  0.00    -0.205 OA
ATOM     24  O   UNL d   1       2.865  -7.148   0.887  0.00  0.00    -0.205 OA
BRANCH  22  25
ATOM     25  N   UNL d   1       0.375  -7.792   1.044  0.00  0.00    -0.160 NA
ATOM     26  H   UNL d   1       0.215  -8.696   0.605  0.00  0.00     0.148 HD
BRANCH  25  27
ATOM     27  C   UNL d   1       0.664  -7.881   2.421  0.00  0.00     0.136 A 
ATOM     28  N   UNL d   1       0.356  -6.895   3.229  0.00  0.00    -0.350 N 
ATOM     29  C   UNL d   1       0.599  -7.290   4.531  0.00  0.00     0.097 A 
ATOM     30  HN  UNL d   1      -0.003  -5.984   2.943  1.00  0.00     0.166 HD
ATOM     31  C   UNL d   1       1.137  -8.551   4.682  0.00  0.00     0.069 A 
ATOM     32  S   UNL d   1       1.246  -9.313   3.149  0.00  0.00    -0.070 SA
ENDBRANCH  25  27
ENDBRANCH  22  25
ENDBRANCH   2  22
TORSDOF 6
