REMARK  5 active torsions:
REMARK  status: ('A' for Active; 'I' for Inactive)
REMARK    1  A    between atoms: C_11  and  C_1 
REMARK    2  A    between atoms: C_2  and  C_11 
REMARK    3  A    between atoms: N_23  and  C_3 
REMARK    4  A    between atoms: N_22  and  C_4 
REMARK    5  A    between atoms: C_14  and  C_11 
ROOT
ATOM      1  C   UNL d   1      -1.508   2.387  -0.174  0.00  0.00     0.104 C 
ENDROOT
BRANCH   1   2
ATOM      2  C   UNL d   1      -1.024   3.167  -1.412  0.00  0.00     0.061 A 
ATOM      3  C   UNL d   1      -0.443   4.393  -1.387  0.00  0.00     0.092 A 
ATOM      4  N   UNL d   1      -0.029   4.970  -2.558  0.00  0.00    -0.323 N 
ATOM      5  C   UNL d   1      -0.106   4.393  -3.783  0.00  0.00     0.179 A 
ATOM      6  H   UNL d   1       0.374   5.897  -2.523  0.00  0.00     0.169 HD
ATOM      7  N   UNL d   1      -0.653   3.149  -3.827  0.00  0.00    -0.300 N 
ATOM      8  S   UNL d   1       0.443   5.157  -5.150  0.00  0.00    -0.040 SA
ATOM      9  C   UNL d   1      -1.107   2.473  -2.734  0.00  0.00     0.258 A 
ATOM     10  H   UNL d   1      -0.716   2.678  -4.717  0.00  0.00     0.171 HD
ATOM     11  O   UNL d   1      -1.571   1.346  -2.862  0.00  0.00    -0.267 OA
BRANCH   3  12
ATOM     12  N   UNL d   1      -0.198   5.125  -0.246  0.00  0.00    -0.288 NA
ATOM     13  H   UNL d   1       0.002   4.541   0.565  0.00  0.00     0.125 HD
ATOM     14  H   UNL d   1       0.582   5.765  -0.370  0.00  0.00     0.125 HD
ENDBRANCH   3  12
ENDBRANCH   1   2
BRANCH   1  15
ATOM     15  C   UNL d   1      -0.825   1.011  -0.040  0.00  0.00     0.061 C 
ATOM     16  C   UNL d   1      -1.335  -0.246  -0.016  0.00  0.00     0.092 C 
ATOM     17  N   UNL d   1      -0.483  -1.314   0.061  0.00  0.00    -0.323 N 
ATOM     18  C   UNL d   1       0.870  -1.246   0.044  0.00  0.00     0.179 C 
ATOM     19  H   UNL d   1      -0.891  -2.239  -0.002  0.00  0.00     0.169 HD
ATOM     20  N   UNL d   1       1.408  -0.004   0.046  0.00  0.00    -0.300 N 
ATOM     21  S   UNL d   1       1.815  -2.613   0.031  0.00  0.00    -0.040 SA
ATOM     22  C   UNL d   1       0.668   1.138   0.119  0.00  0.00     0.258 C 
ATOM     23  H   UNL d   1       2.411   0.088   0.104  0.00  0.00     0.171 HD
ATOM     24  O   UNL d   1       1.213   2.222   0.315  0.00  0.00    -0.267 OA
BRANCH  16  25
ATOM     25  N   UNL d   1      -2.651  -0.618  -0.091  0.00  0.00    -0.288 NA
ATOM     26  H   UNL d   1      -3.339   0.120  -0.051  0.00  0.00     0.125 HD
ATOM     27  H   UNL d   1      -2.888  -1.375   0.543  0.00  0.00     0.125 HD
ENDBRANCH  16  25
ENDBRANCH   1  15
BRANCH   1  28
ATOM     28  C   UNL d   1      -3.034   2.412   0.064  0.00  0.00    -0.023 A 
ATOM     29  C   UNL d   1      -3.571   2.324   1.372  0.00  0.00     0.043 A 
ATOM     30  C   UNL d   1      -4.944   2.148   1.583  0.00  0.00     0.048 A 
ATOM     31 CL   UNL d   1      -2.575   2.345   2.788  0.00  0.00    -0.084 Cl
ATOM     32  C   UNL d   1      -5.808   2.068   0.498  0.00  0.00     0.035 A 
ATOM     33  C   UNL d   1      -5.320   2.204  -0.794  0.00  0.00     0.024 A 
ATOM     34 CL   UNL d   1      -7.480   1.758   0.752  0.00  0.00    -0.084 Cl
ATOM     35  C   UNL d   1      -3.949   2.386  -1.008  0.00  0.00     0.011 A 
ENDBRANCH   1  28
TORSDOF 5
