REMARK  3 active torsions:
REMARK  status: ('A' for Active; 'I' for Inactive)
REMARK    1  A    between atoms: C_6  and  C_1 
REMARK       I    between atoms: C_4  and  N_5 
REMARK    2  A    between atoms: C_12  and  C_4 
REMARK    3  A    between atoms: N_5  and  C_6 
ROOT
ATOM      1  C   UNL d   1      -0.783   1.152  -0.044  0.00  0.00    -0.013 A 
ATOM      2  C   UNL d   1      -0.393   0.460   1.126  0.00  0.00     0.044 A 
ATOM      3  C   UNL d   1      -0.508   0.552  -1.298  0.00  0.00    -0.051 A 
ATOM      4  C   UNL d   1       0.288  -0.759   1.059  0.00  0.00     0.048 A 
ATOM      5  C   UNL d   1       0.578  -1.317  -0.177  0.00  0.00     0.036 A 
ATOM      6  C   UNL d   1       0.179  -0.677  -1.345  0.00  0.00     0.031 A 
ATOM      7 CL   UNL d   1      -0.739   1.062   2.712  0.00  0.00    -0.084 Cl
ATOM      8 CL   UNL d   1       1.429  -2.810  -0.267  0.00  0.00    -0.084 Cl
ATOM      9  C   UNL d   1      -0.894   1.157  -2.624  0.00  0.00     0.049 C 
ENDROOT
BRANCH   1  10
ATOM     10  C   UNL d   1      -1.477   2.494   0.051  0.00  0.00     0.163 C 
BRANCH  10  11
ATOM     11  N   UNL d   1      -2.915   2.376  -0.020  0.00  0.00    -0.356 N 
ATOM     12  C   UNL d   1      -3.711   3.500   0.045  0.00  0.00     0.221 C 
ATOM     13  O   UNL d   1      -3.240   4.634   0.086  0.00  0.00    -0.273 OA
ATOM     14  H   UNL d   1      -3.335   1.456  -0.011  0.00  0.00     0.162 HD
BRANCH  12  15
ATOM     15  C   UNL d   1      -5.213   3.218   0.029  0.00  0.00     0.070 C 
ATOM     16  C   UNL d   1      -5.638   2.414   1.257  0.00  0.00     0.019 C 
ATOM     17  C   UNL d   1      -6.016   4.516  -0.044  0.00  0.00     0.019 C 
ENDBRANCH  12  15
ENDBRANCH  10  11
ENDBRANCH   1  10
TORSDOF 3
