REMARK  3 active torsions:
REMARK  status: ('A' for Active; 'I' for Inactive)
REMARK    1  A    between atoms: C_10  and  C_1 
REMARK    2  A    between atoms: N_4  and  C_8 
REMARK    3  A    between atoms: C_16  and  C_10 
ROOT
ATOM      1  C   UNL d   1      -0.094   1.607   0.149  0.00  0.00     0.189 C 
ATOM      2  C   UNL d   1      -1.340   0.793   0.108  0.00  0.00     0.275 C 
ATOM      3  C   UNL d   1       1.154   0.824   0.358  0.00  0.00     0.275 C 
ATOM      4  O   UNL d   1       1.180  -0.413  -0.162  0.00  0.00    -0.283 OA
ATOM      5  O   UNL d   1      -1.234  -0.486  -0.281  0.00  0.00    -0.283 OA
ATOM      6  C   UNL d   1      -0.009  -1.194  -0.112  0.00  0.00     0.175 C 
ATOM      7  O   UNL d   1       2.167   1.331   0.832  0.00  0.00    -0.264 OA
ATOM      8  O   UNL d   1      -2.443   1.280   0.330  0.00  0.00    -0.264 OA
ATOM      9  C   UNL d   1      -0.048  -1.951   1.217  0.00  0.00     0.079 C 
ATOM     10  C   UNL d   1       0.067  -2.185  -1.272  0.00  0.00     0.079 C 
ENDROOT
BRANCH   1  11
ATOM     11  C   UNL d   1       0.086   2.406  -1.151  0.00  0.00     0.063 C 
BRANCH  11  12
ATOM     12  C   UNL d   1      -0.997   3.419  -1.447  0.00  0.00    -0.057 A 
ATOM     13  C   UNL d   1      -1.240   4.490  -0.574  0.00  0.00     0.009 A 
ATOM     14  C   UNL d   1      -2.240   5.425  -0.856  0.00  0.00     0.036 A 
ATOM     15  C   UNL d   1      -2.996   5.296  -2.027  0.00  0.00     0.102 A 
ATOM     16  C   UNL d   1      -2.761   4.238  -2.912  0.00  0.00     0.036 A 
ATOM     17  C   UNL d   1      -1.763   3.305  -2.618  0.00  0.00     0.009 A 
BRANCH  15  18
ATOM     18  N   UNL d   1      -4.035   6.286  -2.338  0.00  0.00    -0.116 N 
ATOM     19  O   UNL d   1      -4.668   6.146  -3.395  0.00  0.00    -0.532 OA
ATOM     20  O   UNL d   1      -4.212   7.210  -1.531  0.00  0.00    -0.532 OA
ENDBRANCH  15  18
ENDBRANCH  11  12
ENDBRANCH   1  11
TORSDOF 3
