REMARK  8 active torsions:
REMARK  status: ('A' for Active; 'I' for Inactive)
REMARK    1  A    between atoms: C9_7  and  C1_1 
REMARK    2  A    between atoms: C6_6  and  O1_8 
REMARK       I    between atoms: N_18  and  C6_6 
REMARK    3  A    between atoms: O1_8  and  C9_7 
REMARK    4  A    between atoms: CA_19  and  N_18 
REMARK    5  A    between atoms: CB_22  and  CA_19 
REMARK    6  A    between atoms: CA_19  and  C_20 
REMARK    7  A    between atoms: OXT_23  and  C_20 
REMARK    8  A    between atoms: CG_24  and  CB_22 
ROOT
ATOM      1  C9  <1> d   1      -1.029   5.417   1.814  0.00  0.00     0.194 C 
ENDROOT
BRANCH   1   2
ATOM      2  C1  <1> d   1      -2.508   5.796   1.568  0.00  0.00     0.078 C 
ATOM      3  C4  <1> d   1      -3.034   5.016   0.370  0.00  0.00    -0.036 A 
ATOM      4  C2  <1> d   1      -3.277   5.890  -0.711  0.00  0.00    -0.018 A 
ATOM      5  C14 <1> d   1      -3.148   3.640   0.241  0.00  0.00     0.009 A 
ATOM      6  C11 <1> d   1      -3.603   5.380  -1.954  0.00  0.00     0.013 A 
ATOM      7  C3  <1> d   1      -3.071   7.254  -0.267  0.00  0.00    -0.018 A 
ATOM      8  C18 <1> d   1      -3.682   3.991  -2.105  0.00  0.00     0.001 A 
ATOM      9  C21 <1> d   1      -3.465   3.130  -1.016  0.00  0.00     0.001 A 
ATOM     10  C5  <1> d   1      -2.672   7.238   1.090  0.00  0.00    -0.036 A 
ATOM     11  C12 <1> d   1      -3.196   8.452  -0.949  0.00  0.00     0.013 A 
ATOM     12  C13 <1> d   1      -2.453   8.416   1.789  0.00  0.00     0.009 A 
ATOM     13  C20 <1> d   1      -2.598   9.625   1.103  0.00  0.00     0.001 A 
ATOM     14  C19 <1> d   1      -2.951   9.642  -0.257  0.00  0.00     0.001 A 
ENDBRANCH   1   2
BRANCH   1  15
ATOM     15  O1  <1> d   1      -0.231   5.798   0.662  0.00  0.00    -0.303 OA
BRANCH  15  16
ATOM     16  C6  <1> d   1       0.146   4.842  -0.214  0.00  0.00     0.361 C 
ATOM     17  N   LEU d   1       0.416   5.433  -1.410  0.00  0.00    -0.322 N 
ATOM     18  H   LEU d   1       0.164   6.413  -1.446  0.00  0.00     0.165 HD
ATOM     19  O2  <1> d   1       0.243   3.644  -0.012  0.00  0.00    -0.238 OA
BRANCH  17  20
ATOM     20  CA  LEU d   1       0.636   4.703  -2.667  0.00  0.00     0.185 C 
BRANCH  20  21
ATOM     21  CB  LEU d   1       0.320   5.614  -3.875  0.00  0.00     0.040 C 
BRANCH  21  22
ATOM     22  CG  LEU d   1       0.258   4.903  -5.249  0.00  0.00    -0.020 C 
ATOM     23  CD1 LEU d   1      -0.816   3.816  -5.295  0.00  0.00     0.009 C 
ATOM     24  CD2 LEU d   1       0.012   5.919  -6.370  0.00  0.00     0.009 C 
ENDBRANCH  21  22
ENDBRANCH  20  21
BRANCH  20  25
ATOM     25  C   LEU d   1       2.086   4.169  -2.715  0.00  0.00     0.163 C 
ATOM     26  O   LEU d   1       2.871   4.355  -3.636  0.00  0.00    -0.648 OA
BRANCH  25  27
ATOM     27  OXT LEU d   1       2.413   3.381  -1.662  0.00  0.00    -0.775 OA
ATOM     28  HXT LEU d   1       1.673   3.265  -1.020  0.00  0.00     0.167 HD
ENDBRANCH  25  27
ENDBRANCH  20  25
ENDBRANCH  17  20
ENDBRANCH  15  16
ENDBRANCH   1  15
TORSDOF 8
