REMARK  4 active torsions:
REMARK  status: ('A' for Active; 'I' for Inactive)
REMARK    1  A    between atoms: C_10  and  N_3 
REMARK    2  A    between atoms: C_11  and  N_4 
REMARK    3  A    between atoms: C_12  and  C_7 
REMARK    4  A    between atoms: O_26  and  C_20 
ROOT
ATOM      1  C   UNL d   1       0.049   0.699  -0.260  0.00  0.00     0.220 C 
ATOM      2  C   UNL d   1       0.109  -0.707   0.295  0.00  0.00     0.167 C 
ATOM      3  N   UNL d   1      -1.183   1.155   0.343  0.00  0.00    -0.277 N 
ATOM      4  N   UNL d   1       2.178  -0.010  -0.333  0.00  0.00    -0.250 N 
ATOM      5  C   UNL d   1       1.436   1.114   0.064  0.00  0.00     0.257 C 
ATOM      6  C   UNL d   1       1.326  -1.122  -0.417  0.00  0.00     0.244 C 
ATOM      7  C   UNL d   1      -1.316  -0.973   0.068  0.00  0.00     0.087 C 
ATOM      8  N   UNL d   1      -2.080   0.080   0.211  0.00  0.00    -0.297 N 
ATOM      9  HN  UNL d   1      -3.099   0.114   0.223  1.00  0.00     0.187 HD
ATOM     10  O   UNL d   1       1.807   2.201   0.473  0.00  0.00    -0.270 OA
ATOM     11  O   UNL d   1       1.476  -2.196  -0.971  0.00  0.00    -0.272 OA
ENDROOT
BRANCH   4  12
ATOM     12  C   UNL d   1       3.521   0.040  -0.802  0.00  0.00     0.045 A 
ATOM     13  C   UNL d   1       4.175   1.267  -1.007  0.00  0.00     0.033 A 
ATOM     14  C   UNL d   1       5.442   1.335  -1.598  0.00  0.00     0.039 A 
ATOM     15  C   UNL d   1       6.095   0.172  -1.988  0.00  0.00     0.068 A 
ATOM     16  C   UNL d   1       5.494  -1.057  -1.728  0.00  0.00     0.039 A 
ATOM     17  C   UNL d   1       4.221  -1.124  -1.147  0.00  0.00     0.033 A 
BRANCH  15  18
ATOM     18  O   UNL d   1       7.319   0.120  -2.592  0.00  0.00    -0.356 OA
ATOM     19  C   UNL d   1       7.664   1.256  -3.380  0.00  0.00     0.210 C 
ENDBRANCH  15  18
ENDBRANCH   4  12
BRANCH   3  20
ATOM     20  C   UNL d   1      -1.688   2.444   0.137  0.00  0.00     0.051 A 
ATOM     21  C   UNL d   1      -1.007   3.436  -0.583  0.00  0.00     0.031 A 
ATOM     22  C   UNL d   1      -1.511   4.738  -0.695  0.00  0.00     0.009 A 
ATOM     23  C   UNL d   1      -2.711   5.089  -0.073  0.00  0.00    -0.062 A 
ATOM     24  C   UNL d   1      -3.414   4.109   0.628  0.00  0.00     0.009 A 
ATOM     25  C   UNL d   1      -3.214   6.499  -0.154  0.00  0.00     0.048 C 
ATOM     26  C   UNL d   1      -2.909   2.807   0.725  0.00  0.00     0.031 A 
ENDBRANCH   3  20
BRANCH   7  27
ATOM     27  C   UNL d   1      -1.829  -2.359  -0.144  0.00  0.00     0.170 C 
ATOM     28  O   UNL d   1      -1.307  -3.268   0.487  0.00  0.00    -0.291 OA
ATOM     29  C   UNL d   1      -2.906  -2.544  -1.171  0.00  0.00     0.098 C 
ENDBRANCH   7  27
TORSDOF 4
