REMARK  5 active torsions:
REMARK  status: ('A' for Active; 'I' for Inactive)
REMARK    1  A    between atoms: S_2  and  C_1 
REMARK    2  A    between atoms: N_9  and  S_2 
REMARK    3  A    between atoms: N_6  and  C_13 
REMARK    4  A    between atoms: C_20  and  N_9 
REMARK    5  A    between atoms: C_21  and  C_20 
ROOT
ATOM      1  C   UNL d   1      -2.770  -4.632  -6.073  0.00  0.00     0.030 A 
ATOM      2  C   UNL d   1      -3.891  -3.854  -5.751  0.00  0.00     0.030 A 
ATOM      3  C   UNL d   1      -1.650  -4.504  -5.242  0.00  0.00     0.030 A 
ATOM      4  C   UNL d   1      -2.773  -2.869  -3.839  0.00  0.00    -0.044 A 
ATOM      5  C   UNL d   1      -3.897  -2.982  -4.660  0.00  0.00     0.010 A 
ATOM      6  C   UNL d   1      -1.647  -3.639  -4.141  0.00  0.00     0.010 A 
ENDROOT
BRANCH   4   7
ATOM      7  C   UNL d   1      -2.773  -1.931  -2.656  0.00  0.00     0.143 C 
BRANCH   7   8
ATOM      8  N   UNL d   1      -3.812  -2.303  -1.686  0.00  0.00    -0.210 NA
ATOM      9  H   UNL d   1      -4.742  -2.390  -2.090  0.00  0.00     0.140 HD
BRANCH   8  10
ATOM     10  S   UNL d   1      -3.891  -1.336  -0.312  0.00  0.00     0.258 S 
ATOM     11  O   UNL d   1      -5.013  -1.822   0.469  0.00  0.00    -0.204 OA
ATOM     12  O   UNL d   1      -3.795   0.050  -0.720  0.00  0.00    -0.204 OA
BRANCH  10  13
ATOM     13  C   UNL d   1      -2.481  -1.636   0.674  0.00  0.00     0.160 A 
ATOM     14  N   UNL d   1      -1.183  -1.421   0.237  0.00  0.00    -0.341 N 
ATOM     15  C   UNL d   1      -0.420  -1.793   1.240  0.00  0.00     0.183 A 
ATOM     16  HN  UNL d   1      -0.885  -1.054  -0.667  1.00  0.00     0.167 HD
ATOM     17  N   UNL d   1      -1.165  -2.252   2.292  0.00  0.00    -0.354 N 
ATOM     18  C   UNL d   1      -2.479  -2.163   1.950  0.00  0.00     0.134 A 
ATOM     19  C   UNL d   1      -0.634  -2.759   3.530  0.00  0.00     0.156 C 
ENDBRANCH  10  13
ENDBRANCH   8  10
ENDBRANCH   7   8
ENDBRANCH   4   7
BRANCH   1  20
ATOM     20  N   UNL d   1      -2.823  -5.524  -7.125  0.00  0.00    -0.378 N 
ATOM     21  C   UNL d   1      -1.926  -6.685  -7.207  0.00  0.00     0.153 C 
ATOM     22  C   UNL d   1      -2.675  -7.856  -7.887  0.00  0.00     0.291 C 
ATOM     23  N   UNL d   1      -3.212  -7.491  -9.220  0.00  0.00     0.087 N 
ATOM     24  C   UNL d   1      -4.104  -6.316  -9.073  0.00  0.00     0.291 C 
ATOM     25  C   UNL d   1      -3.933  -8.614  -9.808  0.00  0.00     0.310 C 
ATOM     26  C   UNL d   1      -3.381  -5.113  -8.425  0.00  0.00     0.153 C 
ENDBRANCH   1  20
TORSDOF 5
