REMARK  4 active torsions:
REMARK  status: ('A' for Active; 'I' for Inactive)
REMARK    1  A    between atoms: C_2  and  C_1 
REMARK       I    between atoms: N_5  and  C_2 
REMARK    2  A    between atoms: C_4  and  C_3 
REMARK    3  A    between atoms: C_11  and  N_5 
REMARK    4  A    between atoms: O_22  and  C_10 
ROOT
ATOM      1  C   UNL d   1       0.614   1.262   0.072  0.00  0.00     0.063 A 
ATOM      2  C   UNL d   1       1.231   0.238  -0.666  0.00  0.00     0.069 A 
ATOM      3  C   UNL d   1      -0.536   0.944   0.785  0.00  0.00     0.108 A 
ATOM      4  N   UNL d   1      -1.139  -0.269   0.765  0.00  0.00    -0.346 N 
ATOM      5  HN  UNL d   1      -2.009  -0.442   1.268  1.00  0.00     0.167 HD
ATOM      6  C   UNL d   1       0.638  -1.035  -0.664  0.00  0.00     0.073 A 
ATOM      7  C   UNL d   1      -0.533  -1.234   0.047  0.00  0.00     0.142 A 
ENDROOT
BRANCH   1   8
ATOM      8  C   UNL d   1       1.263   2.579   0.241  0.00  0.00     0.260 C 
ATOM      9  N   UNL d   1       0.536   3.770   0.158  0.00  0.00    -0.318 N 
ATOM     10  C   UNL d   1      -0.889   3.891  -0.164  0.00  0.00     0.159 C 
ATOM     11  O   UNL d   1       2.465   2.522   0.507  0.00  0.00    -0.267 OA
BRANCH   9  12
ATOM     12  C   UNL d   1       1.226   5.004   0.340  0.00  0.00     0.037 A 
ATOM     13  C   UNL d   1       2.359   5.296  -0.430  0.00  0.00     0.031 A 
ATOM     14  C   UNL d   1       3.034   6.508  -0.262  0.00  0.00     0.026 A 
ATOM     15  C   UNL d   1       2.596   7.414   0.701  0.00  0.00     0.034 A 
ATOM     16  C   UNL d   1       1.474   7.129   1.478  0.00  0.00     0.026 A 
ATOM     17 CL   UNL d   1       3.447   8.890   0.935  0.00  0.00    -0.084 Cl
ATOM     18  C   UNL d   1       0.775   5.934   1.283  0.00  0.00     0.031 A 
ENDBRANCH   9  12
ENDBRANCH   1   8
BRANCH   2  19
ATOM     19  C   UNL d   1       2.528   0.440  -1.405  0.00  0.00     0.418 C 
ATOM     20  F   UNL d   1       2.630   1.651  -2.019  0.00  0.00    -0.166 F 
ATOM     21  F   UNL d   1       3.627   0.286  -0.622  0.00  0.00    -0.166 F 
ATOM     22  F   UNL d   1       2.680  -0.470  -2.414  0.00  0.00    -0.166 F 
ENDBRANCH   2  19
BRANCH   7  23
ATOM     23  O   UNL d   1      -1.053  -2.510   0.012  0.00  0.00    -0.341 OA
ATOM     24  C   UNL d   1      -2.255  -2.650   0.762  0.00  0.00     0.211 C 
ENDBRANCH   7  23
TORSDOF 4
