REMARK  4 active torsions:
REMARK  status: ('A' for Active; 'I' for Inactive)
REMARK    1  A    between atoms: C1*_4  and  N9_1 
REMARK    2  A    between atoms: C4*_15  and  C5*_19 
REMARK    3  A    between atoms: C3*_16  and  O3*_18 
REMARK    4  A    between atoms: O5*_20  and  C5*_19 
ROOT
ATOM      1  N9  I11 d   1       3.432   2.446  -0.016  0.00  0.00    -0.300 N 
ATOM      2  C4  I11 d   1       3.944   1.324  -0.610  0.00  0.00     0.144 A 
ATOM      3  C5  I11 d   1       5.263   1.628  -0.877  0.00  0.00     0.146 A 
ATOM      4  N7  I11 d   1       5.568   2.905  -0.484  0.00  0.00    -0.345 N 
ATOM      5  H7  I11 d   1       6.461   3.389  -0.575  1.00  0.00     0.167 HD
ATOM      6  C8  I11 d   1       4.449   3.366   0.037  0.00  0.00     0.188 A 
ATOM      7  N3  I11 d   1       3.284   0.163  -0.850  0.00  0.00    -0.336 N 
ATOM      8  H3  I11 d   1       2.303   0.011  -0.620  1.00  0.00     0.168 HD
ATOM      9  C6  I11 d   1       6.089   0.601  -1.477  0.00  0.00     0.277 A 
ATOM     10  N1  I11 d   1       5.379  -0.566  -1.723  0.00  0.00    -0.318 N 
ATOM     11  C2  I11 d   1       4.043  -0.733  -1.406  0.00  0.00     0.185 A 
ATOM     12  O6  I11 d   1       7.282   0.700  -1.745  0.00  0.00    -0.266 OA
ATOM     13  H1  I11 d   1       5.910  -1.316  -2.138  0.00  0.00     0.169 HD
ENDROOT
BRANCH   1  14
ATOM     14  C1* I11 d   1       2.115   2.553   0.578  0.00  0.00     0.233 C 
ATOM     15  O4* I11 d   1       1.913   3.877   1.130  0.00  0.00    -0.356 OA
ATOM     16  C4* I11 d   1       0.512   4.228   0.971  0.00  0.00     0.176 C 
ATOM     17  C3* I11 d   1      -0.176   3.007   0.365  0.00  0.00     0.153 C 
ATOM     18  C2* I11 d   1       0.950   2.318  -0.370  0.00  0.00     0.088 C 
BRANCH  16  19
ATOM     19  C5* I11 d   1       0.423   5.459   0.066  0.00  0.00     0.198 C 
BRANCH  19  20
ATOM     20  O5* I11 d   1       1.068   6.567   0.692  0.00  0.00    -0.398 OA
ATOM     21  H5* I11 d   1       1.945   6.249   0.981  0.00  0.00     0.209 HD
ENDBRANCH  19  20
ENDBRANCH  16  19
BRANCH  17  22
ATOM     22  O3* I11 d   1      -0.671   2.129   1.380  0.00  0.00    -0.393 OA
ATOM     23  H3* I11 d   1      -0.139   2.227   2.190  0.00  0.00     0.210 HD
ENDBRANCH  17  22
ENDBRANCH   1  14
TORSDOF 4
