REMARK  7 active torsions:
REMARK  status: ('A' for Active; 'I' for Inactive)
REMARK    1  A    between atoms: C_2  and  S_1 
REMARK    2  A    between atoms: N_7  and  S_1 
REMARK    3  A    between atoms: C_16  and  N_7 
REMARK    4  A    between atoms: N_9  and  C_8 
REMARK    5  A    between atoms: C_17  and  C_16 
REMARK    6  A    between atoms: C_19  and  C_17 
REMARK    7  A    between atoms: C_18  and  C_19 
ROOT
ATOM      1  C   UNL d   1       0.479   1.680   0.082  0.00  0.00     0.090 A 
ATOM      2  C   UNL d   1       0.670   2.576  -1.017  0.00  0.00    -0.001 A 
ATOM      3  C   UNL d   1       0.055   3.862  -0.949  0.00  0.00    -0.003 A 
ATOM      4  C   UNL d   1       0.177   4.770  -2.044  0.00  0.00     0.017 A 
ATOM      5  C   UNL d   1       1.409   2.271  -2.184  0.00  0.00     0.014 A 
ATOM      6  C   UNL d   1      -0.239   2.067   1.224  0.00  0.00     0.026 A 
ATOM      7  C   UNL d   1      -0.678   4.198   0.213  0.00  0.00     0.014 A 
ATOM      8  C   UNL d   1      -0.812   3.326   1.290  0.00  0.00     0.002 A 
ATOM      9  C   UNL d   1       1.493   3.148  -3.263  0.00  0.00     0.003 A 
ATOM     10  C   UNL d   1       0.841   4.369  -3.207  0.00  0.00     0.024 A 
ENDROOT
BRANCH   1  11
ATOM     11  S   UNL d   1       0.991  -0.035   0.029  0.00  0.00     0.259 S 
ATOM     12  O   UNL d   1       0.413  -0.632  -1.151  0.00  0.00    -0.201 OA
ATOM     13  O   UNL d   1       0.786  -0.611   1.343  0.00  0.00    -0.201 OA
BRANCH  11  14
ATOM     14  N   UNL d   1       2.643  -0.003  -0.222  0.00  0.00    -0.315 N 
ATOM     15  H   UNL d   1       2.944  -0.231  -1.166  0.00  0.00     0.172 HD
BRANCH  14  16
ATOM     16  C   UNL d   1       3.514   0.719   0.687  0.00  0.00     0.132 C 
BRANCH  16  17
ATOM     17  C   UNL d   1       4.969   0.452   0.304  0.00  0.00     0.020 C 
BRANCH  17  18
ATOM     18  C   UNL d   1       5.905   1.280   1.181  0.00  0.00     0.001 C 
BRANCH  18  19
ATOM     19  C   UNL d   1       7.372   1.069   0.818  0.00  0.00    -0.004 C 
ATOM     20  C   UNL d   1       8.270   1.912   1.709  0.00  0.00     0.005 C 
ENDBRANCH  18  19
ENDBRANCH  17  18
ENDBRANCH  16  17
ENDBRANCH  14  16
ENDBRANCH  11  14
ENDBRANCH   1  11
BRANCH   4  21
ATOM     21  N   UNL d   1      -0.539   5.987  -2.099  0.00  0.00    -0.302 NA
ATOM     22  H   UNL d   1      -0.655   6.439  -1.200  0.00  0.00     0.124 HD
ATOM     23  H   UNL d   1      -0.185   6.634  -2.796  0.00  0.00     0.124 HD
ENDBRANCH   4  21
TORSDOF 7
