REMARK  7 active torsions:
REMARK  status: ('A' for Active; 'I' for Inactive)
REMARK    1  A    between atoms: C_4  and  C_1 
REMARK    2  A    between atoms: O_17  and  C_2 
REMARK    3  A    between atoms: O_11  and  C_4 
REMARK    4  A    between atoms: C_6  and  C_12 
REMARK    5  A    between atoms: N_8  and  O_11 
REMARK    6  A    between atoms: C_13  and  C_10 
REMARK    7  A    between atoms: N_24  and  C_10 
ROOT
ATOM      1  N   UNL d   1       1.297  -3.998   0.333  0.00  0.00    -0.246 N 
ATOM      2  HN  UNL d   1       2.246  -3.875   0.684  1.00  0.00     0.196 HD
ATOM      3  C   UNL d   1       0.744  -5.149   0.078  0.00  0.00     0.109 C 
ENDROOT
BRANCH   3   4
ATOM      4  C   UNL d   1       1.546  -6.394   0.301  0.00  0.00     0.004 A 
ATOM      5  C   UNL d   1       2.589  -6.406   1.233  0.00  0.00     0.015 A 
ATOM      6  C   UNL d   1       3.308  -7.584   1.468  0.00  0.00     0.017 A 
ATOM      7  C   UNL d   1       3.005  -8.760   0.763  0.00  0.00     0.048 A 
ATOM      8  C   UNL d   1       1.969  -8.733  -0.185  0.00  0.00     0.017 A 
ATOM      9  C   UNL d   1       1.246  -7.559  -0.415  0.00  0.00     0.015 A 
BRANCH   7  10
ATOM     10  C   UNL d   1       3.757 -10.044   1.014  0.00  0.00     0.417 C 
ATOM     11  F   UNL d   1       4.721  -9.938   1.970  0.00  0.00    -0.166 F 
ATOM     12  F   UNL d   1       2.938 -11.054   1.423  0.00  0.00    -0.166 F 
ATOM     13  F   UNL d   1       4.386 -10.504  -0.103  0.00  0.00    -0.166 F 
ENDBRANCH   7  10
ENDBRANCH   3   4
BRANCH   3  14
ATOM     14  N   UNL d   1      -0.553  -5.280  -0.370  0.00  0.00    -0.286 NA
ATOM     15  H   UNL d   1      -1.089  -4.426  -0.253  0.00  0.00     0.125 HD
ATOM     16  H   UNL d   1      -1.053  -6.092  -0.024  0.00  0.00     0.125 HD
ENDBRANCH   3  14
BRANCH   1  17
ATOM     17  O   UNL d   1       0.399  -2.943   0.056  0.00  0.00    -0.193 OA
BRANCH  17  18
ATOM     18  C   UNL d   1       0.996  -1.710   0.217  0.00  0.00     0.325 C 
ATOM     19  O   UNL d   1       2.157  -1.528   0.575  0.00  0.00    -0.257 OA
BRANCH  18  20
ATOM     20  C   UNL d   1       0.040  -0.652  -0.102  0.00  0.00     0.116 A 
ATOM     21  C   UNL d   1       0.301   0.670  -0.446  0.00  0.00     0.109 A 
ATOM     22  C   UNL d   1      -0.910   1.399  -0.674  0.00  0.00     0.052 A 
ATOM     23 BR   UNL d   1      -1.075   3.197  -1.246  0.00  0.00    -0.048 Br
ATOM     24  C   UNL d   1      -2.037   0.635  -0.483  0.00  0.00     0.072 A 
ATOM     25  S   UNL d   1      -1.654  -0.961  -0.040  0.00  0.00    -0.092 SA
BRANCH  21  26
ATOM     26  O   UNL d   1       1.599   1.042  -0.612  0.00  0.00    -0.353 OA
ATOM     27  C   UNL d   1       1.926   2.380  -0.275  0.00  0.00     0.210 C 
ENDBRANCH  21  26
ENDBRANCH  18  20
ENDBRANCH  17  18
ENDBRANCH   1  17
TORSDOF 7
