REMARK  6 active torsions:
REMARK  status: ('A' for Active; 'I' for Inactive)
REMARK    1  A    between atoms: C_3  and  C_1 
REMARK    2  A    between atoms: C_12  and  N_2 
REMARK    3  A    between atoms: S_16  and  C_6 
REMARK    4  A    between atoms: C_21  and  S_16 
REMARK    5  A    between atoms: C_19  and  C_21 
REMARK    6  A    between atoms: C_20  and  C_19 
ROOT
ATOM      1  C   UNL d   1      -0.109  -1.299  -0.006  0.00  0.00     0.145 A 
ATOM      2  N   UNL d   1       1.184  -0.800   0.060  0.00  0.00    -0.305 N 
ATOM      3  N   UNL d   1      -0.943  -0.284  -0.137  0.00  0.00    -0.282 N 
ATOM      4  HN  UNL d   1      -1.955  -0.353  -0.243  1.00  0.00     0.188 HD
ATOM      5  C   UNL d   1       1.055   0.570   0.021  0.00  0.00     0.163 A 
ATOM      6  N   UNL d   1      -0.218   0.881  -0.107  0.00  0.00    -0.278 N 
ATOM      7  HN  UNL d   1      -0.599   1.825  -0.173  1.00  0.00     0.189 HD
ENDROOT
BRANCH   5   8
ATOM      8  S   UNL d   1       2.341   1.731   0.001  0.00  0.00    -0.085 SA
BRANCH   8   9
ATOM      9  C   UNL d   1       1.405   3.289  -0.061  0.00  0.00     0.166 C 
BRANCH   9  10
ATOM     10  C   UNL d   1       2.300   4.523  -0.102  0.00  0.00     0.169 C 
ATOM     11  O   UNL d   1       3.525   4.478  -0.155  0.00  0.00    -0.291 OA
BRANCH  10  12
ATOM     12  C   UNL d   1       1.630   5.870  -0.082  0.00  0.00     0.011 A 
ATOM     13  C   UNL d   1       0.238   6.011  -0.041  0.00  0.00     0.015 A 
ATOM     14  C   UNL d   1      -0.345   7.285  -0.008  0.00  0.00     0.007 A 
ATOM     15  C   UNL d   1       0.449   8.435  -0.017  0.00  0.00    -0.062 A 
ATOM     16  C   UNL d   1       1.840   8.296  -0.068  0.00  0.00     0.007 A 
ATOM     17  C   UNL d   1      -0.200   9.787   0.031  0.00  0.00     0.048 C 
ATOM     18  C   UNL d   1       2.427   7.024  -0.100  0.00  0.00     0.015 A 
ENDBRANCH  10  12
ENDBRANCH   9  10
ENDBRANCH   8   9
ENDBRANCH   5   8
BRANCH   2  19
ATOM     19  C   UNL d   1       2.371  -1.634   0.100  0.00  0.00     0.094 A 
ATOM     20  C   UNL d   1       3.034  -1.951   1.426  0.00  0.00     0.028 A 
ATOM     21  C   UNL d   1       3.806  -1.247   0.355  0.00  0.00     0.028 A 
ENDBRANCH   2  19
BRANCH   1  22
ATOM     22  C   UNL d   1      -0.552  -2.658   0.127  0.00  0.00     0.092 A 
ATOM     23  C   UNL d   1      -1.635  -3.308  -0.460  0.00  0.00     0.044 A 
ATOM     24  N   UNL d   1      -1.790  -4.643  -0.086  0.00  0.00    -0.298 N 
ATOM     25  C   UNL d   1      -2.633  -2.775  -1.421  0.00  0.00     0.071 C 
ATOM     26  N   UNL d   1      -0.891  -5.017   0.803  0.00  0.00    -0.269 N 
ATOM     27  HN  UNL d   1      -2.513  -5.258  -0.458  1.00  0.00     0.187 HD
ATOM     28  S   UNL d   1       0.134  -3.784   1.236  0.00  0.00     0.007 SA
ATOM     29  HN  UNL d   1      -0.832  -5.962   1.185  1.00  0.00     0.195 HD
ENDBRANCH   1  22
TORSDOF 6
