REMARK  3 active torsions:
REMARK  status: ('A' for Active; 'I' for Inactive)
REMARK    1  A    between atoms: C_12  and  C_2 
REMARK       I    between atoms: C_5  and  N_10 
REMARK    2  A    between atoms: C_6  and  C_5 
REMARK    3  A    between atoms: N_10  and  C_16 
ROOT
ATOM      1  C   UNL d   1       2.421  -1.566   0.078  0.00  0.00    -0.008 A 
ATOM      2  C   UNL d   1       2.590  -2.396  -1.038  0.00  0.00     0.016 A 
ATOM      3  C   UNL d   1       3.419  -1.562   1.056  0.00  0.00     0.016 A 
ATOM      4  C   UNL d   1       4.723  -3.202  -0.179  0.00  0.00     0.034 A 
ATOM      5  C   UNL d   1       4.556  -2.368   0.927  0.00  0.00     0.030 A 
ATOM      6  C   UNL d   1       3.731  -3.202  -1.167  0.00  0.00     0.030 A 
ENDROOT
BRANCH   4   7
ATOM      7  N   UNL d   1       5.826  -4.070  -0.343  0.00  0.00    -0.327 N 
ATOM      8  C   UNL d   1       6.882  -4.241   0.531  0.00  0.00     0.226 C 
ATOM      9  O   UNL d   1       7.077  -3.623   1.570  0.00  0.00    -0.273 OA
ATOM     10  H   UNL d   1       5.813  -4.656  -1.165  0.00  0.00     0.169 HD
BRANCH   8  11
ATOM     11  C   UNL d   1       7.872  -5.306   0.184  0.00  0.00     0.078 A 
ATOM     12  C   UNL d   1       8.120  -5.863  -1.195  0.00  0.00     0.015 A 
ATOM     13  C   UNL d   1       7.404  -6.698  -0.169  0.00  0.00     0.015 A 
ENDBRANCH   8  11
ENDBRANCH   4   7
BRANCH   1  14
ATOM     14  C   UNL d   1       1.215  -0.757   0.222  0.00  0.00     0.063 A 
ATOM     15  N   UNL d   1       0.023  -1.120  -0.397  0.00  0.00    -0.292 N 
ATOM     16  N   UNL d   1      -0.958  -0.278  -0.116  0.00  0.00    -0.061 NA
ATOM     17  HN  UNL d   1      -0.082  -1.938  -0.996  1.00  0.00     0.183 HD
ATOM     18  S   UNL d   1      -0.474   0.977   0.877  0.00  0.00    -0.010 SA
ATOM     19  C   UNL d   1       1.142   0.409   0.968  0.00  0.00     0.096 A 
ENDBRANCH   1  14
TORSDOF 3
