REMARK  4 active torsions:
REMARK  status: ('A' for Active; 'I' for Inactive)
REMARK    1  A    between atoms: C_8  and  C_2 
REMARK       I    between atoms: C_5  and  N_9 
REMARK       I    between atoms: N_10  and  C_5 
REMARK    2  A    between atoms: N_9  and  N_11 
REMARK    3  A    between atoms: C_15  and  N_10 
REMARK    4  A    between atoms: N_11  and  C_16 
ROOT
ATOM      1  N   UNL d   1       6.009  -3.852  -0.724  0.00  0.00    -0.219 NA
ATOM      2  H   UNL d   1       6.695  -3.662   0.020  0.00  0.00     0.147 HD
ENDROOT
BRANCH   1   3
ATOM      3  N   UNL d   1       5.940  -5.249  -0.962  0.00  0.00    -0.172 NA
ATOM      4  C   UNL d   1       7.015  -5.970  -0.436  0.00  0.00     0.312 C 
ATOM      5  N   UNL d   1       6.979  -7.287  -0.844  0.00  0.00    -0.313 N 
ATOM      6  O   UNL d   1       7.848  -5.442   0.295  0.00  0.00    -0.252 OA
ATOM      7  H   UNL d   1       6.104  -7.591  -1.248  0.00  0.00     0.170 HD
ATOM      8  H   UNL d   1       5.711  -5.463  -1.926  0.00  0.00     0.152 HD
BRANCH   5   9
ATOM      9  C   UNL d   1       7.965  -8.273  -0.642  0.00  0.00     0.036 A 
ATOM     10  C   UNL d   1       9.216  -8.012  -0.075  0.00  0.00     0.031 A 
ATOM     11  C   UNL d   1      10.167  -9.031   0.049  0.00  0.00     0.026 A 
ATOM     12  C   UNL d   1       9.871 -10.317  -0.396  0.00  0.00     0.034 A 
ATOM     13  C   UNL d   1       8.625 -10.593  -0.953  0.00  0.00     0.026 A 
ATOM     14 CL   UNL d   1      11.050 -11.561  -0.270  0.00  0.00    -0.084 Cl
ATOM     15  C   UNL d   1       7.676  -9.573  -1.075  0.00  0.00     0.031 A 
ENDBRANCH   5   9
ENDBRANCH   1   3
BRANCH   1  16
ATOM     16  C   UNL d   1       4.760  -3.245  -0.457  0.00  0.00     0.023 A 
ATOM     17  C   UNL d   1       4.715  -2.127   0.387  0.00  0.00     0.025 A 
ATOM     18  C   UNL d   1       3.532  -1.399   0.568  0.00  0.00     0.015 A 
ATOM     19  C   UNL d   1       2.365  -1.755  -0.119  0.00  0.00    -0.008 A 
ATOM     20  C   UNL d   1       2.403  -2.874  -0.961  0.00  0.00     0.015 A 
ATOM     21  C   UNL d   1       3.589  -3.601  -1.137  0.00  0.00     0.025 A 
BRANCH  19  22
ATOM     22  C   UNL d   1       1.134  -0.980  -0.009  0.00  0.00     0.063 A 
ATOM     23  N   UNL d   1      -0.105  -1.553  -0.286  0.00  0.00    -0.292 N 
ATOM     24  N   UNL d   1      -1.093  -0.683  -0.164  0.00  0.00    -0.061 NA
ATOM     25  HN  UNL d   1      -0.234  -2.529  -0.552  1.00  0.00     0.183 HD
ATOM     26  S   UNL d   1      -0.567   0.843   0.267  0.00  0.00    -0.010 SA
ATOM     27  C   UNL d   1       1.082   0.365   0.316  0.00  0.00     0.096 A 
ENDBRANCH  19  22
ENDBRANCH   1  16
TORSDOF 4
