REMARK  8 active torsions:
REMARK  status: ('A' for Active; 'I' for Inactive)
REMARK       I    between atoms: N_4  and  C_1 
REMARK    1  A    between atoms: C_5  and  C_1 
REMARK    2  A    between atoms: C_2  and  O_8 
REMARK    3  A    between atoms: C_3  and  O_7 
REMARK    4  A    between atoms: C_10  and  N_4 
REMARK    5  A    between atoms: O_6  and  C_5 
REMARK    6  A    between atoms: C_17  and  O_6 
REMARK    7  A    between atoms: O_7  and  C_18 
REMARK    8  A    between atoms: O_8  and  C_19 
ROOT
ATOM      1  C   UNL d   1       0.663   0.403   0.057  0.00  0.00     0.251 C 
ATOM      2  N   UNL d   1       1.915   0.987  -0.104  0.00  0.00    -0.325 N 
ATOM      3  O   UNL d   1       0.051   0.300   1.115  0.00  0.00    -0.270 OA
ATOM      4  H   UNL d   1       2.334   0.900  -1.021  0.00  0.00     0.169 HD
ENDROOT
BRANCH   1   5
ATOM      5  C   UNL d   1       0.066  -0.064  -1.288  0.00  0.00     0.217 C 
ATOM      6  C   UNL d   1      -1.409  -0.415  -1.123  0.00  0.00     0.050 C 
BRANCH   5   7
ATOM      7  O   UNL d   1       0.818  -1.207  -1.709  0.00  0.00    -0.337 OA
BRANCH   7   8
ATOM      8  C   UNL d   1       0.710  -1.568  -3.023  0.00  0.00     0.070 A 
ATOM      9  C   UNL d   1       0.775  -0.679  -4.092  0.00  0.00     0.039 A 
ATOM     10  C   UNL d   1       0.751  -1.155  -5.410  0.00  0.00     0.040 A 
ATOM     11  C   UNL d   1       0.681  -2.525  -5.666  0.00  0.00     0.078 A 
ATOM     12  C   UNL d   1       0.590  -3.412  -4.590  0.00  0.00     0.040 A 
ATOM     13  C   UNL d   1       0.620  -2.937  -3.276  0.00  0.00     0.039 A 
BRANCH  11  14
ATOM     14  O   UNL d   1       0.693  -3.116  -6.897  0.00  0.00    -0.255 OA
BRANCH  14  15
ATOM     15  C   UNL d   1       1.185  -2.343  -7.980  0.00  0.00     0.530 C 
ATOM     16  F   UNL d   1       2.372  -1.770  -7.683  0.00  0.00    -0.144 F 
ATOM     17  F   UNL d   1       1.369  -3.154  -9.045  0.00  0.00    -0.144 F 
ATOM     18  F   UNL d   1       0.299  -1.386  -8.328  0.00  0.00    -0.144 F 
ENDBRANCH  14  15
ENDBRANCH  11  14
ENDBRANCH   7   8
ENDBRANCH   5   7
ENDBRANCH   1   5
BRANCH   2  19
ATOM     19  C   UNL d   1       2.670   1.680   0.868  0.00  0.00     0.035 A 
ATOM     20  C   UNL d   1       2.271   1.851   2.193  0.00  0.00     0.032 A 
ATOM     21  C   UNL d   1       3.066   2.565   3.101  0.00  0.00     0.039 A 
ATOM     22  C   UNL d   1       4.276   3.122   2.690  0.00  0.00     0.078 A 
ATOM     23  C   UNL d   1       4.668   2.973   1.359  0.00  0.00     0.039 A 
ATOM     24  C   UNL d   1       3.877   2.252   0.456  0.00  0.00     0.032 A 
BRANCH  22  25
ATOM     25  O   UNL d   1       5.149   3.827   3.467  0.00  0.00    -0.255 OA
BRANCH  25  26
ATOM     26  C   UNL d   1       4.934   3.820   4.868  0.00  0.00     0.530 C 
ATOM     27  F   UNL d   1       4.857   2.561   5.349  0.00  0.00    -0.144 F 
ATOM     28  F   UNL d   1       5.980   4.432   5.468  0.00  0.00    -0.144 F 
ATOM     29  F   UNL d   1       3.812   4.497   5.190  0.00  0.00    -0.144 F 
ENDBRANCH  25  26
ENDBRANCH  22  25
ENDBRANCH   2  19
TORSDOF 8
