REMARK  0 active torsions:
REMARK  status: ('A' for Active; 'I' for Inactive)
ROOT
ATOM      1  C   UNL d   1      -0.384   0.419  -0.764  0.00  0.00     0.160 A 
ATOM      2  C   UNL d   1      -0.337  -0.430   0.300  0.00  0.00     0.162 A 
ATOM      3  N   UNL d   1       0.739   0.867  -1.419  0.00  0.00    -0.287 N 
ATOM      4  N   UNL d   1       2.054  -0.438   0.119  0.00  0.00    -0.269 N 
ATOM      5  C   UNL d   1       2.034   0.424  -0.966  0.00  0.00     0.332 A 
ATOM      6  N   UNL d   1      -1.703   0.676  -0.972  0.00  0.00    -0.174 N 
ATOM      7  C   UNL d   1      -2.432  -0.038  -0.045  0.00  0.00     0.682 A 
ATOM      8  N   UNL d   1      -1.615  -0.707   0.745  0.00  0.00    -0.182 N 
ATOM      9  HN  UNL d   1      -1.875  -1.308   1.527  1.00  0.00     0.184 HD
ATOM     10  C   UNL d   1       0.930  -0.910   0.810  0.00  0.00     0.282 A 
ATOM     11  N   UNL d   1      -3.783   0.025  -0.019  0.00  0.00    -0.213 N 
ATOM     12  O   UNL d   1      -6.396  -0.982  -0.593  0.00  0.00    -0.378 OA
ATOM     13  O   UNL d   1       3.010   0.838  -1.573  0.00  0.00    -0.246 OA
ATOM     14  C   UNL d   1      -4.557  -0.655   1.040  0.00  0.00     0.172 C 
ATOM     15  C   UNL d   1      -4.628   0.635  -1.051  0.00  0.00     0.172 C 
ATOM     16  O   UNL d   1       1.015  -1.672   1.770  0.00  0.00    -0.265 OA
ATOM     17  C   UNL d   1      -5.576  -0.429  -1.634  0.00  0.00     0.136 C 
ATOM     18  C   UNL d   1      -5.584  -1.633   0.411  0.00  0.00     0.136 C 
ATOM     19  C   UNL d   1       0.704   1.771  -2.574  0.00  0.00     0.163 C 
ATOM     20  C   UNL d   1       3.347  -0.898   0.587  0.00  0.00     0.164 C 
ATOM     21  C   UNL d   1      -6.542  -2.189   1.457  0.00  0.00     0.041 C 
ATOM     22  C   UNL d   1      -6.483   0.184  -2.690  0.00  0.00     0.041 C 
ATOM     23  H   UNL d   1      -2.092   1.293  -1.661  0.00  0.00     0.186 HD
ENDROOT
TORSDOF 0
