REMARK  3 active torsions:
REMARK  status: ('A' for Active; 'I' for Inactive)
REMARK    1  A    between atoms: C_2  and  S_1 
REMARK    2  A    between atoms: N_6  and  S_1 
REMARK    3  A    between atoms: C_15  and  N_8 
ROOT
ATOM      1  N   UNL d   1       0.425   1.103  -0.442  0.00  0.00    -0.203 NA
ATOM      2  N   UNL d   1      -1.149   2.412   1.654  0.00  0.00    -0.379 N 
ATOM      3  C   UNL d   1       0.769   2.483   0.024  0.00  0.00     0.127 C 
ATOM      4  C   UNL d   1      -1.051   0.894  -0.311  0.00  0.00     0.127 C 
ATOM      5  C   UNL d   1       0.277   2.785   1.460  0.00  0.00     0.138 C 
ATOM      6  C   UNL d   1      -1.515   1.072   1.142  0.00  0.00     0.138 C 
ENDROOT
BRANCH   1   7
ATOM      7  S   UNL d   1       1.376  -0.168   0.158  0.00  0.00     0.250 S 
ATOM      8  O   UNL d   1       1.620   0.051   1.569  0.00  0.00    -0.205 OA
ATOM      9  O   UNL d   1       0.835  -1.419  -0.320  0.00  0.00    -0.205 OA
BRANCH   7  10
ATOM     10  C   UNL d   1       2.986  -0.053  -0.582  0.00  0.00     0.118 A 
ATOM     11  S   UNL d   1       3.026   0.058  -2.290  0.00  0.00    -0.064 SA
ATOM     12  C   UNL d   1       4.719   0.153  -2.294  0.00  0.00     0.093 A 
ATOM     13 CL   UNL d   1       5.539   0.319  -3.795  0.00  0.00    -0.075 Cl
ATOM     14  C   UNL d   1       5.253   0.092  -1.035  0.00  0.00     0.041 A 
ATOM     15  C   UNL d   1       4.256  -0.038  -0.035  0.00  0.00     0.053 A 
ATOM     16 BR   UNL d   1       7.082   0.175  -0.582  0.00  0.00    -0.049 Br
ENDBRANCH   7  10
ENDBRANCH   1   7
BRANCH   2  17
ATOM     17  C   UNL d   1      -1.742   2.833   2.858  0.00  0.00     0.030 A 
ATOM     18  C   UNL d   1      -2.573   2.004   3.634  0.00  0.00     0.029 A 
ATOM     19  C   UNL d   1      -3.238   2.474   4.774  0.00  0.00     0.002 A 
ATOM     20  C   UNL d   1      -3.084   3.794   5.177  0.00  0.00     0.000 A 
ATOM     21  C   UNL d   1      -2.254   4.634   4.447  0.00  0.00     0.002 A 
ATOM     22  C   UNL d   1      -1.597   4.158   3.305  0.00  0.00     0.029 A 
ENDBRANCH   2  17
TORSDOF 3
