REMARK  6 active torsions:
REMARK  status: ('A' for Active; 'I' for Inactive)
REMARK    1  A    between atoms: C_7  and  C_1 
REMARK    2  A    between atoms: C_8  and  C_2 
REMARK    3  A    between atoms: C_14  and  C_4 
REMARK    4  A    between atoms: C_6  and  C_8 
REMARK    5  A    between atoms: C_9  and  C_13 
REMARK    6  A    between atoms: C_22  and  C_10 
ROOT
ATOM      1  C   UNL d   1      -1.527  -3.165   0.013  0.00  0.00     0.096 C 
ATOM      2  C   UNL d   1      -1.754  -4.416  -0.440  0.00  0.00     0.038 C 
ATOM      3  C   UNL d   1      -0.282  -2.783   0.583  0.00  0.00     0.103 C 
ATOM      4  N   UNL d   1       0.725  -2.478   1.062  0.00  0.00    -0.191 NA
ENDROOT
BRANCH   1   5
ATOM      5  C   UNL d   1      -2.682  -2.190  -0.014  0.00  0.00     0.209 C 
ATOM      6  O   UNL d   1      -3.827  -2.651  -0.045  0.00  0.00    -0.285 OA
BRANCH   5   7
ATOM      7  C   UNL d   1      -2.473  -0.741   0.042  0.00  0.00     0.058 A 
ATOM      8  S   UNL d   1      -1.149   0.033  -0.685  0.00  0.00    -0.081 SA
ATOM      9  C   UNL d   1      -1.672   1.610  -0.224  0.00  0.00     0.100 A 
ATOM     10  C   UNL d   1      -2.891   1.561   0.453  0.00  0.00    -0.003 A 
ATOM     11  C   UNL d   1      -3.345   0.194   0.568  0.00  0.00     0.036 A 
BRANCH   9  12
ATOM     12  C   UNL d   1      -0.805   2.769  -0.626  0.00  0.00     0.424 C 
ATOM     13  F   UNL d   1       0.225   2.412  -1.442  0.00  0.00    -0.166 F 
ATOM     14  F   UNL d   1      -1.502   3.722  -1.294  0.00  0.00    -0.166 F 
ATOM     15  F   UNL d   1      -0.228   3.372   0.447  0.00  0.00    -0.166 F 
ENDBRANCH   9  12
BRANCH  10  16
ATOM     16  C   UNL d   1      -3.644   2.737   0.932  0.00  0.00    -0.025 A 
ATOM     17  C   UNL d   1      -5.050   2.730   0.888  0.00  0.00     0.012 A 
ATOM     18  C   UNL d   1      -5.797   3.819   1.355  0.00  0.00     0.001 A 
ATOM     19  C   UNL d   1      -5.152   4.945   1.856  0.00  0.00     0.000 A 
ATOM     20  C   UNL d   1      -3.763   4.968   1.917  0.00  0.00     0.001 A 
ATOM     21  C   UNL d   1      -3.019   3.864   1.482  0.00  0.00     0.012 A 
ENDBRANCH  10  16
ENDBRANCH   5   7
ENDBRANCH   1   5
BRANCH   2  22
ATOM     22  C   UNL d   1      -0.766  -5.500  -0.417  0.00  0.00    -0.035 A 
ATOM     23  C   UNL d   1      -0.655  -6.326   0.708  0.00  0.00     0.012 A 
ATOM     24  C   UNL d   1       0.283  -7.362   0.737  0.00  0.00     0.017 A 
ATOM     25  C   UNL d   1       1.127  -7.593  -0.360  0.00  0.00     0.048 A 
ATOM     26  C   UNL d   1       1.015  -6.758  -1.484  0.00  0.00     0.017 A 
ATOM     27  C   UNL d   1       0.077  -5.720  -1.512  0.00  0.00     0.012 A 
BRANCH  25  28
ATOM     28  C   UNL d   1       2.134  -8.719  -0.350  0.00  0.00     0.417 C 
ATOM     29  F   UNL d   1       2.141  -9.436   0.808  0.00  0.00    -0.166 F 
ATOM     30  F   UNL d   1       1.909  -9.623  -1.344  0.00  0.00    -0.166 F 
ATOM     31  F   UNL d   1       3.411  -8.281  -0.526  0.00  0.00    -0.166 F 
ENDBRANCH  25  28
ENDBRANCH   2  22
TORSDOF 6
