REMARK  7 active torsions:
REMARK  status: ('A' for Active; 'I' for Inactive)
REMARK    1  A    between atoms: C_2  and  C_1 
REMARK    2  A    between atoms: C_7  and  N_3 
REMARK    3  A    between atoms: C_6  and  N_4 
REMARK    4  A    between atoms: C_15  and  C_6 
REMARK    5  A    between atoms: C_16  and  C_7 
REMARK    6  A    between atoms: O_29  and  C_18 
REMARK    7  A    between atoms: O_28  and  C_19 
ROOT
ATOM      1  C   UNL d   1       0.001   1.435   0.180  0.00  0.00     0.493 C 
ATOM      2  N   UNL d   1       1.263   0.732  -0.256  0.00  0.00     0.131 N 
ATOM      3  N   UNL d   1      -1.217   0.648  -0.162  0.00  0.00     0.131 N 
ATOM      4  C   UNL d   1      -1.135  -0.761   0.251  0.00  0.00     0.278 C 
ATOM      5  C   UNL d   1       1.314  -0.607   0.341  0.00  0.00     0.278 C 
ATOM      6  C   UNL d   1       0.150  -1.467  -0.124  0.00  0.00     0.061 C 
ENDROOT
BRANCH   1   7
ATOM      7  C   UNL d   1      -0.062   2.901  -0.300  0.00  0.00     0.041 A 
ATOM      8  C   UNL d   1      -0.026   3.977   0.582  0.00  0.00     0.115 A 
ATOM      9  O   UNL d   1       0.028   3.918   1.945  0.00  0.00    -0.322 OA
ATOM     10  C   UNL d   1      -0.097   5.292   0.153  0.00  0.00     0.105 A 
ATOM     11  C   UNL d   1      -0.247   5.288   2.296  0.00  0.00     0.352 C 
ATOM     12  O   UNL d   1      -0.136   6.186   1.180  0.00  0.00    -0.323 OA
ATOM     13  C   UNL d   1      -0.144   5.636  -1.178  0.00  0.00     0.040 A 
ATOM     14  C   UNL d   1      -0.191   4.598  -2.099  0.00  0.00     0.004 A 
ATOM     15  C   UNL d   1      -0.207   3.258  -1.661  0.00  0.00     0.014 A 
ENDBRANCH   1   7
BRANCH   2  16
ATOM     16  C   UNL d   1       1.456   0.693  -1.720  0.00  0.00     0.314 C 
BRANCH  16  17
ATOM     17  C   UNL d   1       2.673  -0.061  -2.234  0.00  0.00    -0.030 A 
ATOM     18  C   UNL d   1       2.524  -1.185  -3.060  0.00  0.00     0.011 A 
ATOM     19  C   UNL d   1       3.638  -1.802  -3.640  0.00  0.00     0.037 A 
ATOM     20  C   UNL d   1       4.918  -1.302  -3.402  0.00  0.00     0.068 A 
ATOM     21  C   UNL d   1       5.072  -0.190  -2.572  0.00  0.00     0.037 A 
ATOM     22  C   UNL d   1       3.962   0.424  -1.985  0.00  0.00     0.011 A 
BRANCH  20  23
ATOM     23  O   UNL d   1       6.082  -1.797  -3.923  0.00  0.00    -0.356 OA
ATOM     24  C   UNL d   1       5.976  -2.958  -4.737  0.00  0.00     0.210 C 
ENDBRANCH  20  23
ENDBRANCH  16  17
ENDBRANCH   2  16
BRANCH   3  25
ATOM     25  C   UNL d   1      -2.494   1.246   0.343  0.00  0.00     0.314 C 
BRANCH  25  26
ATOM     26  C   UNL d   1      -2.660   1.444   1.846  0.00  0.00    -0.030 C 
ATOM     27  C   UNL d   1      -2.701   2.735   2.386  0.00  0.00     0.011 C 
ATOM     28  C   UNL d   1      -2.661   2.949   3.773  0.00  0.00     0.037 C 
ATOM     29  C   UNL d   1      -2.599   1.870   4.647  0.00  0.00     0.068 C 
ATOM     30  C   UNL d   1      -2.716   0.584   4.131  0.00  0.00     0.037 C 
ATOM     31  C   UNL d   1      -2.782   0.379   2.748  0.00  0.00     0.011 C 
BRANCH  29  32
ATOM     32  O   UNL d   1      -2.485   1.964   6.006  0.00  0.00    -0.356 OA
ATOM     33  C   UNL d   1      -1.706   3.061   6.473  0.00  0.00     0.210 C 
ENDBRANCH  29  32
ENDBRANCH  25  26
ENDBRANCH   3  25
TORSDOF 7
