REMARK  2 active torsions:
REMARK  status: ('A' for Active; 'I' for Inactive)
REMARK    1  A    between atoms: N_2  and  C_1 
REMARK    2  A    between atoms: C_8  and  C_4 
ROOT
ATOM      1  C   UNL d   1       1.423  -0.738   0.003  0.00  0.00     0.110 A 
ATOM      2  C   UNL d   1       1.459   0.696   0.001  0.00  0.00     0.059 A 
ATOM      3  C   UNL d   1       0.200   1.269  -0.008  0.00  0.00     0.052 A 
ATOM      4  S   UNL d   1      -1.018   0.054  -0.014  0.00  0.00    -0.096 SA
ATOM      5  C   UNL d   1       0.128  -1.214  -0.005  0.00  0.00     0.086 A 
ENDROOT
BRANCH   1   6
ATOM      6  N   UNL d   1       2.584  -1.598   0.012  0.00  0.00    -0.115 N 
ATOM      7  O   UNL d   1       3.687  -1.038   0.018  0.00  0.00    -0.532 OA
ATOM      8  O   UNL d   1       2.387  -2.819   0.013  0.00  0.00    -0.532 OA
ENDBRANCH   1   6
BRANCH   3   9
ATOM      9  C   UNL d   1      -0.207   2.673  -0.013  0.00  0.00     0.162 C 
ATOM     10  O   UNL d   1      -1.385   3.038  -0.021  0.00  0.00    -0.292 OA
ATOM     11  C   UNL d   1       0.866   3.737  -0.010  0.00  0.00     0.097 C 
ENDBRANCH   3   9
TORSDOF 2
