REMARK  11 active torsions:
REMARK  status: ('A' for Active; 'I' for Inactive)
REMARK    1  A    between atoms: C_6  and  S_1 
REMARK    2  A    between atoms: N_7  and  S_1 
REMARK    3  A    between atoms: C_2  and  N_12 
REMARK    4  A    between atoms: N_3  and  C_2 
REMARK    5  A    between atoms: C_5  and  N_3 
REMARK    6  A    between atoms: C_4  and  C_14 
REMARK       I    between atoms: N_8  and  C_4 
REMARK    7  A    between atoms: C_25  and  N_7 
REMARK    8  A    between atoms: C_26  and  N_7 
REMARK    9  A    between atoms: N_12  and  N_8 
REMARK   10  A    between atoms: C_27  and  C_25 
REMARK   11  A    between atoms: C_28  and  C_26 
ROOT
ATOM      1  C   UNL d   1      -0.895  -4.344   3.695  0.00  0.00     0.270 C 
ATOM      2  N   UNL d   1      -1.883  -3.902   4.551  0.00  0.00    -0.264 N 
ATOM      3  O   UNL d   1      -0.460  -5.486   3.659  0.00  0.00    -0.266 OA
ATOM      4  H   UNL d   1      -2.410  -3.056   4.344  0.00  0.00     0.190 HD
ENDROOT
BRANCH   1   5
ATOM      5  C   UNL d   1      -0.386  -3.271   2.780  0.00  0.00     0.033 A 
ATOM      6  C   UNL d   1      -0.276  -1.954   3.256  0.00  0.00     0.018 A 
ATOM      7  C   UNL d   1       0.179  -0.934   2.419  0.00  0.00     0.026 A 
ATOM      8  C   UNL d   1       0.511  -1.224   1.094  0.00  0.00     0.074 A 
ATOM      9  C   UNL d   1       0.446  -2.543   0.624  0.00  0.00     0.026 A 
ATOM     10  C   UNL d   1       0.006  -3.570   1.474  0.00  0.00     0.018 A 
BRANCH   8  11
ATOM     11  S   UNL d   1       1.165   0.078   0.056  0.00  0.00     0.243 S 
ATOM     12  O   UNL d   1       1.681  -0.556  -1.137  0.00  0.00    -0.206 OA
ATOM     13  O   UNL d   1       2.026   0.888   0.895  0.00  0.00    -0.206 OA
BRANCH  11  14
ATOM     14  N   UNL d   1      -0.253   1.009  -0.341  0.00  0.00    -0.206 NA
BRANCH  14  15
ATOM     15  C   UNL d   1      -0.437   2.180   0.592  0.00  0.00     0.107 C 
BRANCH  15  16
ATOM     16  C   UNL d   1      -1.739   2.960   0.397  0.00  0.00     0.011 C 
ATOM     17  C   UNL d   1      -1.917   4.013   1.485  0.00  0.00     0.006 C 
ENDBRANCH  15  16
ENDBRANCH  14  15
BRANCH  14  18
ATOM     18  C   UNL d   1      -0.376   1.359  -1.791  0.00  0.00     0.107 C 
BRANCH  18  19
ATOM     19  C   UNL d   1      -0.814   0.183  -2.668  0.00  0.00     0.011 C 
ATOM     20  C   UNL d   1      -2.075  -0.514  -2.184  0.00  0.00     0.006 C 
ENDBRANCH  18  19
ENDBRANCH  14  18
ENDBRANCH  11  14
ENDBRANCH   8  11
ENDBRANCH   1   5
BRANCH   2  21
ATOM     21  N   UNL d   1      -2.493  -4.771   5.470  0.00  0.00    -0.274 N 
ATOM     22  H   UNL d   1      -1.991  -5.640   5.644  0.00  0.00     0.189 HD
BRANCH  21  23
ATOM     23  C   UNL d   1      -3.861  -4.756   5.609  0.00  0.00     0.186 C 
ATOM     24  S   UNL d   1      -4.918  -3.853   4.676  0.00  0.00    -0.040 SA
BRANCH  23  25
ATOM     25  N   UNL d   1      -4.383  -5.493   6.634  0.00  0.00    -0.361 N 
ATOM     26  H   UNL d   1      -5.393  -5.408   6.680  0.00  0.00     0.162 HD
BRANCH  25  27
ATOM     27  C   UNL d   1      -3.720  -5.793   7.894  0.00  0.00     0.088 C 
ATOM     28  C   UNL d   1      -3.727  -4.615   8.904  0.00  0.00     0.009 C 
ATOM     29  C   UNL d   1      -3.438  -5.356  10.213  0.00  0.00     0.011 C 
ATOM     30  C   UNL d   1      -5.159  -4.105   9.170  0.00  0.00     0.007 C 
ATOM     31  C   UNL d   1      -4.654  -6.273  10.070  0.00  0.00    -0.012 C 
ATOM     32  C   UNL d   1      -4.418  -6.915   8.688  0.00  0.00     0.030 C 
ATOM     33  C   UNL d   1      -5.801  -5.257   9.955  0.00  0.00     0.005 C 
ENDBRANCH  25  27
ENDBRANCH  23  25
ENDBRANCH  21  23
ENDBRANCH   2  21
TORSDOF 11
