REMARK  3 active torsions:
REMARK  status: ('A' for Active; 'I' for Inactive)
REMARK       I    between atoms: N_2  and  C_1 
REMARK       I    between atoms: N_3  and  C_1 
REMARK    1  A    between atoms: C_7  and  N_2 
REMARK    2  A    between atoms: C_11  and  N_3 
REMARK    3  A    between atoms: N_6  and  C_4 
ROOT
ATOM      1  C   UNL d   1       1.157   1.147  -1.805  0.00  0.00     0.325 C 
ATOM      2  N   UNL d   1       2.433   0.654  -1.587  0.00  0.00    -0.309 N 
ATOM      3  N   UNL d   1       0.289   0.800  -0.778  0.00  0.00    -0.309 N 
ATOM      4  O   UNL d   1       0.828   1.796  -2.792  0.00  0.00    -0.247 OA
ATOM      5  H   UNL d   1       2.519  -0.057  -0.873  0.00  0.00     0.170 HD
ATOM      6  H   UNL d   1       0.704   0.599   0.118  0.00  0.00     0.170 HD
ENDROOT
BRANCH   2   7
ATOM      7  C   UNL d   1       3.548   0.834  -2.440  0.00  0.00     0.037 A 
ATOM      8  C   UNL d   1       3.589   1.770  -3.480  0.00  0.00     0.053 A 
ATOM      9  C   UNL d   1       4.710   1.859  -4.307  0.00  0.00     0.036 A 
ATOM     10 CL   UNL d   1       4.738   3.005  -5.592  0.00  0.00    -0.084 Cl
ATOM     11  C   UNL d   1       5.807   1.027  -4.104  0.00  0.00     0.024 A 
ATOM     12  C   UNL d   1       5.788   0.109  -3.058  0.00  0.00     0.004 A 
ATOM     13  C   UNL d   1       4.667   0.019  -2.226  0.00  0.00     0.029 A 
ENDBRANCH   2   7
BRANCH   3  14
ATOM     14  C   UNL d   1      -1.113   0.980  -0.806  0.00  0.00     0.036 A 
ATOM     15  C   UNL d   1      -1.834   1.174  -1.982  0.00  0.00     0.032 A 
ATOM     16  C   UNL d   1      -3.229   1.316  -1.962  0.00  0.00     0.031 A 
ATOM     17  C   UNL d   1      -3.972   1.255  -0.776  0.00  0.00     0.029 A 
ATOM     18  C   UNL d   1      -3.224   1.064   0.399  0.00  0.00     0.031 A 
ATOM     19  C   UNL d   1      -1.823   0.922   0.391  0.00  0.00     0.032 A 
BRANCH  17  20
ATOM     20  N   UNL d   1      -5.360   1.299  -0.759  0.00  0.00    -0.390 N 
ATOM     21  C   UNL d   1      -6.073   1.961   0.331  0.00  0.00     0.149 C 
ATOM     22  C   UNL d   1      -6.143   1.137  -1.983  0.00  0.00     0.149 C 
ENDBRANCH  17  20
ENDBRANCH   3  14
TORSDOF 3
