REMARK  3 active torsions:
REMARK  status: ('A' for Active; 'I' for Inactive)
REMARK    1  A    between atoms: C_6  and  N_1 
REMARK    2  A    between atoms: C_11  and  C_2 
REMARK    3  A    between atoms: C_8  and  C_9 
ROOT
ATOM      1  N   UNL d   1      -0.209  -1.332  -0.194  0.00  0.00    -0.239 N 
ATOM      2  C   UNL d   1       0.973  -0.702  -0.006  0.00  0.00     0.147 A 
ATOM      3  N   UNL d   1       0.850   0.575   0.184  0.00  0.00    -0.238 N 
ATOM      4  HN  UNL d   1       1.598   1.252   0.333  1.00  0.00     0.196 HD
ATOM      5  C   UNL d   1      -1.166  -0.381  -0.036  0.00  0.00     0.395 A 
ATOM      6  O   UNL d   1      -0.549   0.834   0.140  0.00  0.00    -0.179 OA
ATOM      7  O   UNL d   1      -2.379  -0.532  -0.012  0.00  0.00    -0.235 OA
ENDROOT
BRANCH   1   8
ATOM      8  C   UNL d   1      -0.500  -2.700  -0.101  0.00  0.00     0.047 A 
ATOM      9  C   UNL d   1      -0.579  -3.339   1.142  0.00  0.00     0.046 A 
ATOM     10  C   UNL d   1      -0.875  -4.711   1.212  0.00  0.00     0.050 A 
ATOM     11  C   UNL d   1      -1.050  -5.432   0.018  0.00  0.00     0.016 A 
ATOM     12  C   UNL d   1      -0.985  -4.789  -1.218  0.00  0.00     0.003 A 
ATOM     13  C   UNL d   1      -0.741  -3.419  -1.276  0.00  0.00     0.030 A 
BRANCH  10  14
ATOM     14  C   UNL d   1      -1.027  -5.419   2.537  0.00  0.00     0.417 C 
ATOM     15  F   UNL d   1      -0.891  -4.598   3.614  0.00  0.00    -0.166 F 
ATOM     16  F   UNL d   1      -2.245  -6.014   2.671  0.00  0.00    -0.166 F 
ATOM     17  F   UNL d   1      -0.108  -6.411   2.703  0.00  0.00    -0.166 F 
ENDBRANCH  10  14
ENDBRANCH   1   8
BRANCH   2  18
ATOM     18  C   UNL d   1       2.301  -1.362  -0.037  0.00  0.00     0.010 A 
ATOM     19  C   UNL d   1       2.570  -2.494  -0.814  0.00  0.00     0.015 A 
ATOM     20  C   UNL d   1       3.851  -3.053  -0.839  0.00  0.00     0.001 A 
ATOM     21  C   UNL d   1       4.882  -2.466  -0.112  0.00  0.00     0.000 A 
ATOM     22  C   UNL d   1       4.637  -1.317   0.638  0.00  0.00     0.001 A 
ATOM     23  C   UNL d   1       3.353  -0.767   0.676  0.00  0.00     0.015 A 
ENDBRANCH   2  18
TORSDOF 3
