REMARK  3 active torsions:
REMARK  status: ('A' for Active; 'I' for Inactive)
REMARK    1  A    between atoms: C_2  and  C_1 
REMARK    2  A    between atoms: O_7  and  C_2 
REMARK    3  A    between atoms: C_9  and  O_7 
ROOT
ATOM      1  C   UNL d   1      -2.501   2.668   0.200  0.00  0.00     0.107 A 
ATOM      2  C   UNL d   1      -3.456   3.041  -0.755  0.00  0.00     0.076 A 
ATOM      3  N   UNL d   1      -3.150   3.887  -1.768  0.00  0.00    -0.363 N 
ATOM      4  HN  UNL d   1      -2.210   4.271  -1.861  1.00  0.00     0.165 HD
ATOM      5  C   UNL d   1      -4.752   2.498  -0.615  0.00  0.00    -0.007 A 
ATOM      6  C   UNL d   1      -2.802   1.837   1.284  0.00  0.00     0.040 A 
ATOM      7  C   UNL d   1      -4.084   1.311   1.401  0.00  0.00     0.004 A 
ATOM      8  C   UNL d   1      -4.120   4.210  -2.651  0.00  0.00     0.088 A 
ATOM      9  C   UNL d   1      -5.053   1.633   0.453  0.00  0.00     0.014 A 
ATOM     10  C   UNL d   1      -5.726   2.848  -1.560  0.00  0.00     0.015 A 
ATOM     11  C   UNL d   1      -5.409   3.720  -2.593  0.00  0.00     0.018 A 
ENDROOT
BRANCH   1  12
ATOM     12  O   UNL d   1      -1.210   3.241   0.042  0.00  0.00    -0.272 OA
BRANCH  12  13
ATOM     13  C   UNL d   1      -0.042   2.510   0.247  0.00  0.00     0.303 C 
ATOM     14  O   UNL d   1       0.005   1.377   0.712  0.00  0.00    -0.259 OA
BRANCH  13  15
ATOM     15  C   UNL d   1       1.143   3.244  -0.150  0.00  0.00     0.095 A 
ATOM     16  C   UNL d   1       1.210   4.444  -0.832  0.00  0.00     0.090 A 
ATOM     17  O   UNL d   1       2.511   4.790  -1.014  0.00  0.00    -0.242 OA
ATOM     18  C   UNL d   1       0.215   5.378  -1.397  0.00  0.00     0.080 C 
ATOM     19  N   UNL d   1       3.329   3.826  -0.467  0.00  0.00    -0.265 N 
ATOM     20  C   UNL d   1       2.511   2.894   0.038  0.00  0.00     0.047 A 
ATOM     21  HN  UNL d   1       4.349   3.823  -0.450  1.00  0.00     0.194 HD
ATOM     22  C   UNL d   1       3.094   1.704   0.704  0.00  0.00     0.071 C 
ENDBRANCH  13  15
ENDBRANCH  12  13
ENDBRANCH   1  12
TORSDOF 3
