REMARK  2 active torsions:
REMARK  status: ('A' for Active; 'I' for Inactive)
REMARK    1  A    between atoms: C_12  and  N_7 
REMARK    2  A    between atoms: C_17  and  C_12 
ROOT
ATOM      1  C   UNL d   1      -0.339  -0.788  -0.042  0.00  0.00     0.160 A 
ATOM      2  C   UNL d   1      -0.586   0.548  -0.049  0.00  0.00     0.165 A 
ATOM      3  N   UNL d   1      -1.482  -1.510  -0.038  0.00  0.00    -0.174 N 
ATOM      4  HN  UNL d   1      -1.564  -2.526  -0.022  1.00  0.00     0.186 HD
ATOM      5  N   UNL d   1       0.934  -1.297  -0.029  0.00  0.00    -0.287 N 
ATOM      6  C   UNL d   1      -2.472  -0.635  -0.058  0.00  0.00     0.685 A 
ATOM      7  N   UNL d   1      -1.961   0.661  -0.067  0.00  0.00    -0.170 N 
ATOM      8  N   UNL d   1       1.739   0.951  -0.022  0.00  0.00    -0.269 N 
ATOM      9  C   UNL d   1       2.021  -0.426  -0.019  0.00  0.00     0.332 A 
ATOM     10  C   UNL d   1       0.458   1.517  -0.038  0.00  0.00     0.282 A 
ATOM     11  N   UNL d   1      -3.794  -0.960   0.001  0.00  0.00    -0.217 N 
ATOM     12  O   UNL d   1       3.180  -0.855  -0.011  0.00  0.00    -0.246 OA
ATOM     13  O   UNL d   1       0.254   2.728  -0.058  0.00  0.00    -0.265 OA
ATOM     14  C   UNL d   1       1.186  -2.725  -0.013  0.00  0.00     0.163 C 
ATOM     15  C   UNL d   1       2.852   1.879  -0.009  0.00  0.00     0.164 C 
ATOM     16  C   UNL d   1      -4.114  -2.393   0.188  0.00  0.00     0.141 C 
ATOM     17  C   UNL d   1      -4.762  -0.371  -0.930  0.00  0.00     0.141 C 
ATOM     18  C   UNL d   1      -5.177  -2.708  -0.859  0.00  0.00     0.022 C 
ATOM     19  C   UNL d   1      -5.899  -1.387  -1.009  0.00  0.00     0.022 C 
ENDROOT
BRANCH   7  20
ATOM     20  C   UNL d   1      -2.695   1.917   0.049  0.00  0.00     0.186 C 
BRANCH  20  21
ATOM     21  C   UNL d   1      -3.083   2.534  -1.283  0.00  0.00    -0.038 A 
ATOM     22  C   UNL d   1      -4.242   3.330  -1.352  0.00  0.00     0.034 A 
ATOM     23  C   UNL d   1      -4.680   3.869  -2.569  0.00  0.00     0.056 A 
ATOM     24 CL   UNL d   1      -6.149   4.779  -2.563  0.00  0.00    -0.083 Cl
ATOM     25  C   UNL d   1      -3.945   3.645  -3.735  0.00  0.00     0.055 A 
ATOM     26  C   UNL d   1      -2.755   2.919  -3.668  0.00  0.00     0.026 A 
ATOM     27 CL   UNL d   1      -4.455   4.215  -5.283  0.00  0.00    -0.083 Cl
ATOM     28  C   UNL d   1      -2.324   2.379  -2.452  0.00  0.00     0.010 A 
ENDBRANCH  20  21
ENDBRANCH   7  20
TORSDOF 2
