REMARK  4 active torsions:
REMARK  status: ('A' for Active; 'I' for Inactive)
REMARK    1  A    between atoms: C_7  and  C_1 
REMARK    2  A    between atoms: N_23  and  C_2 
REMARK    3  A    between atoms: N_6  and  N_12 
REMARK       I    between atoms: N_12  and  C_7 
REMARK    4  A    between atoms: C_17  and  N_8 
ROOT
ATOM      1  C   UNL d   1       4.916  -0.561   1.211  0.00  0.00     0.279 C 
ATOM      2  N   UNL d   1       4.630  -1.194   0.003  0.00  0.00    -0.260 N 
ATOM      3  O   UNL d   1       4.725  -1.118   2.294  0.00  0.00    -0.265 OA
ATOM      4  H   UNL d   1       4.602  -0.650  -0.858  0.00  0.00     0.190 HD
ENDROOT
BRANCH   1   5
ATOM      5  C   UNL d   1       5.513   0.771   1.133  0.00  0.00     0.103 A 
ATOM      6  C   UNL d   1       5.975   1.547   2.190  0.00  0.00     0.062 A 
ATOM      7  C   UNL d   1       6.656   2.756   1.772  0.00  0.00     0.032 A 
ATOM      8  C   UNL d   1       7.318   3.832   2.436  0.00  0.00    -0.045 A 
ATOM      9  C   UNL d   1       6.657   2.807   0.377  0.00  0.00     0.088 A 
ATOM     10  C   UNL d   1       7.992   4.766   1.624  0.00  0.00     0.032 A 
ATOM     11  C   UNL d   1       7.370   4.091   3.920  0.00  0.00     0.049 C 
ATOM     12  C   UNL d   1       7.960   4.659   0.241  0.00  0.00     0.006 A 
ATOM     13  N   UNL d   1       7.263   3.715  -0.412  0.00  0.00    -0.354 N 
ATOM     14  C   UNL d   1       8.713   5.645  -0.602  0.00  0.00     0.068 C 
ATOM     15  HN  UNL d   1       7.197   3.689  -1.429  1.00  0.00     0.166 HD
ATOM     16  S   UNL d   1       5.777   1.550  -0.359  0.00  0.00    -0.064 SA
BRANCH   6  17
ATOM     17  N   UNL d   1       5.834   1.134   3.470  0.00  0.00    -0.397 N 
ATOM     18  H   UNL d   1       5.443   0.209   3.675  0.00  0.00     0.156 HD
ATOM     19  H   UNL d   1       6.248   1.576   4.278  0.00  0.00     0.156 HD
ENDBRANCH   6  17
ENDBRANCH   1   5
BRANCH   2  20
ATOM     20  N   UNL d   1       4.154  -2.533  -0.102  0.00  0.00    -0.248 N 
ATOM     21  C   UNL d   1       3.129  -2.783  -1.010  0.00  0.00     0.257 C 
ATOM     22  C   UNL d   1       2.467  -4.135  -0.766  0.00  0.00     0.236 C 
ATOM     23  O   UNL d   1       2.728  -1.969  -1.832  0.00  0.00    -0.270 OA
ATOM     24  N   UNL d   1       3.490  -5.162  -0.513  0.00  0.00    -0.308 N 
ATOM     25  C   UNL d   1       4.397  -4.903   0.537  0.00  0.00     0.244 C 
ATOM     26  C   UNL d   1       4.397  -3.443   1.010  0.00  0.00     0.255 C 
ATOM     27  O   UNL d   1       5.107  -5.720   1.112  0.00  0.00    -0.271 OA
BRANCH  24  28
ATOM     28  C   UNL d   1       3.425  -6.419  -1.209  0.00  0.00     0.037 A 
ATOM     29  C   UNL d   1       3.977  -7.594  -0.684  0.00  0.00     0.030 A 
ATOM     30  C   UNL d   1       3.933  -8.807  -1.392  0.00  0.00     0.009 A 
ATOM     31  C   UNL d   1       3.337  -8.871  -2.651  0.00  0.00    -0.062 A 
ATOM     32  C   UNL d   1       2.781  -7.713  -3.186  0.00  0.00     0.009 A 
ATOM     33  C   UNL d   1       3.313 -10.163  -3.409  0.00  0.00     0.048 C 
ATOM     34  C   UNL d   1       2.830  -6.504  -2.477  0.00  0.00     0.030 A 
ENDBRANCH  24  28
ENDBRANCH   2  20
TORSDOF 4
