REMARK  7 active torsions:
REMARK  status: ('A' for Active; 'I' for Inactive)
REMARK    1  A    between atoms: N_2  and  S_1 
REMARK    2  A    between atoms: C_4  and  S_1 
REMARK    3  A    between atoms: C_3  and  N_2 
REMARK    4  A    between atoms: O_12  and  C_10 
REMARK    5  A    between atoms: C_22  and  O_12 
REMARK    6  A    between atoms: C_24  and  C_13 
REMARK    7  A    between atoms: C_20  and  C_22 
ROOT
ATOM      1  C   UNL d   1       1.067   1.573  -2.058  0.00  0.00     0.128 A 
ATOM      2  N   UNL d   1       0.078   2.474  -1.915  0.00  0.00    -0.354 N 
ATOM      3  HN  UNL d   1      -0.810   2.236  -1.473  1.00  0.00     0.166 HD
ATOM      4  C   UNL d   1       2.306   1.823  -2.658  0.00  0.00     0.108 A 
ATOM      5  C   UNL d   1       0.329   3.712  -2.389  0.00  0.00     0.089 A 
ATOM      6  C   UNL d   1       2.522   3.114  -3.139  0.00  0.00     0.041 A 
ATOM      7  C   UNL d   1       1.522   4.077  -2.994  0.00  0.00     0.020 A 
ENDROOT
BRANCH   1   8
ATOM      8  N   UNL d   1       0.735   0.309  -1.496  0.00  0.00    -0.164 NA
ATOM      9  H   UNL d   1      -0.283   0.272  -1.587  0.00  0.00     0.147 HD
BRANCH   8  10
ATOM     10  S   UNL d   1       0.987   0.155   0.176  0.00  0.00     0.247 S 
ATOM     11  O   UNL d   1       1.357  -1.224   0.426  0.00  0.00    -0.205 OA
ATOM     12  O   UNL d   1      -0.179   0.718   0.826  0.00  0.00    -0.205 OA
BRANCH  10  13
ATOM     13  C   UNL d   1       2.385   1.163   0.598  0.00  0.00     0.074 A 
ATOM     14  C   UNL d   1       2.210   2.378   1.261  0.00  0.00     0.025 A 
ATOM     15  C   UNL d   1       3.323   3.180   1.533  0.00  0.00     0.009 A 
ATOM     16  C   UNL d   1       4.609   2.785   1.131  0.00  0.00    -0.055 A 
ATOM     17  C   UNL d   1       4.769   1.524   0.539  0.00  0.00     0.009 A 
ATOM     18  C   UNL d   1       3.665   0.706   0.292  0.00  0.00     0.025 A 
BRANCH  16  19
ATOM     19  C   UNL d   1       5.828   3.668   1.341  0.00  0.00     0.010 C 
ATOM     20  C   UNL d   1       5.615   5.098   0.834  0.00  0.00     0.015 C 
ATOM     21  C   UNL d   1       6.262   3.662   2.806  0.00  0.00     0.015 C 
ENDBRANCH  16  19
ENDBRANCH  10  13
ENDBRANCH   8  10
ENDBRANCH   1   8
BRANCH   4  22
ATOM     22  O   UNL d   1       3.173   0.780  -2.800  0.00  0.00    -0.343 OA
BRANCH  22  23
ATOM     23  C   UNL d   1       4.569   1.064  -2.878  0.00  0.00     0.214 C 
BRANCH  23  24
ATOM     24  C   UNL d   1       5.118   0.695  -4.230  0.00  0.00    -0.032 A 
ATOM     25  C   UNL d   1       5.856   1.621  -4.979  0.00  0.00     0.035 A 
ATOM     26  C   UNL d   1       6.415   1.252  -6.208  0.00  0.00     0.056 A 
ATOM     27 CL   UNL d   1       7.317   2.451  -7.065  0.00  0.00    -0.083 Cl
ATOM     28  C   UNL d   1       6.243  -0.049  -6.694  0.00  0.00     0.055 A 
ATOM     29  C   UNL d   1       5.510  -0.976  -5.948  0.00  0.00     0.026 A 
ATOM     30 CL   UNL d   1       6.915  -0.575  -8.195  0.00  0.00    -0.083 Cl
ATOM     31  C   UNL d   1       4.950  -0.606  -4.725  0.00  0.00     0.011 A 
ENDBRANCH  23  24
ENDBRANCH  22  23
ENDBRANCH   4  22
TORSDOF 7
