REMARK  4 active torsions:
REMARK  status: ('A' for Active; 'I' for Inactive)
REMARK    1  A    between atoms: N_6  and  C_1 
REMARK    2  A    between atoms: C_10  and  N_2 
REMARK       I    between atoms: C_8  and  N_6 
REMARK    3  A    between atoms: C_11  and  C_8 
REMARK    4  A    between atoms: N_9  and  C_11 
ROOT
ATOM      1  C   UNL d   1      -0.163  -1.240   0.686  0.00  0.00     0.132 C 
ATOM      2  N   UNL d   1      -0.391  -0.529   1.876  0.00  0.00    -0.240 N 
ATOM      3  N   UNL d   1       0.174   0.715   1.796  0.00  0.00    -0.297 N 
ATOM      4  HN  UNL d   1       0.028   1.503   2.428  1.00  0.00     0.187 HD
ATOM      5  C   UNL d   1       0.805  -0.529   0.008  0.00  0.00     0.076 C 
ATOM      6  C   UNL d   1       0.954   0.678   0.718  0.00  0.00     0.026 C 
ATOM      7  C   UNL d   1       1.821   1.837   0.395  0.00  0.00     0.070 C 
ENDROOT
BRANCH   1   8
ATOM      8  N   UNL d   1      -0.749  -2.427   0.261  0.00  0.00    -0.310 N 
ATOM      9  C   UNL d   1      -2.098  -2.691   0.465  0.00  0.00     0.251 C 
ATOM     10  O   UNL d   1      -2.909  -1.924   0.974  0.00  0.00    -0.271 OA
ATOM     11  H   UNL d   1      -0.356  -2.912  -0.543  0.00  0.00     0.170 HD
BRANCH   9  12
ATOM     12  C   UNL d   1      -2.486  -4.110   0.043  0.00  0.00     0.374 C 
BRANCH  12  13
ATOM     13  N   UNL d   1      -1.986  -4.448  -1.316  0.00  0.00     0.097 N 
ATOM     14  C   UNL d   1      -2.788  -3.746  -2.340  0.00  0.00     0.273 C 
ATOM     15  C   UNL d   1      -2.313  -4.093  -3.753  0.00  0.00     0.030 C 
ATOM     16  C   UNL d   1      -2.341  -5.597  -4.001  0.00  0.00     0.003 C 
ATOM     17  C   UNL d   1      -1.604  -6.336  -2.891  0.00  0.00     0.030 C 
ATOM     18  C   UNL d   1      -2.103  -5.908  -1.511  0.00  0.00     0.273 C 
ENDBRANCH  12  13
ENDBRANCH   9  12
ENDBRANCH   1   8
BRANCH   2  19
ATOM     19  C   UNL d   1      -0.916  -0.952   3.139  0.00  0.00     0.058 A 
ATOM     20  C   UNL d   1      -1.064  -2.306   3.465  0.00  0.00     0.031 A 
ATOM     21  C   UNL d   1      -1.554  -2.680   4.721  0.00  0.00     0.002 A 
ATOM     22  C   UNL d   1      -1.874  -1.710   5.668  0.00  0.00     0.000 A 
ATOM     23  C   UNL d   1      -1.698  -0.362   5.368  0.00  0.00     0.002 A 
ATOM     24  C   UNL d   1      -1.218   0.017   4.112  0.00  0.00     0.031 A 
ENDBRANCH   2  19
TORSDOF 4
