REMARK  6 active torsions:
REMARK  status: ('A' for Active; 'I' for Inactive)
REMARK    1  A    between atoms: C_13  and  C_2 
REMARK    2  A    between atoms: S_15  and  C_10 
REMARK    3  A    between atoms: C_14  and  C_17 
REMARK    4  A    between atoms: O_18  and  C_14 
REMARK    5  A    between atoms: C_17  and  S_15 
REMARK    6  A    between atoms: C_21  and  O_18 
ROOT
ATOM      1  N   UNL d   1       0.073   0.683  -0.043  0.00  0.00    -0.219 N 
ATOM      2  C   UNL d   1       1.377   1.147  -0.045  0.00  0.00     0.154 A 
ATOM      3  N   UNL d   1       2.193   0.105  -0.120  0.00  0.00    -0.282 N 
ATOM      4  HN  UNL d   1       3.210   0.150  -0.174  1.00  0.00     0.188 HD
ATOM      5  C   UNL d   1       0.178  -0.695  -0.063  0.00  0.00     0.143 A 
ATOM      6  N   UNL d   1      -1.087   1.425  -0.024  0.00  0.00    -0.284 N 
ATOM      7  HN  UNL d   1      -1.105   2.444  -0.011  1.00  0.00     0.188 HD
ATOM      8  N   UNL d   1       1.441  -1.047  -0.114  0.00  0.00    -0.282 N 
ATOM      9  HN  UNL d   1       1.800  -2.002  -0.144  1.00  0.00     0.188 HD
ATOM     10  C   UNL d   1      -2.150   0.689  -0.023  0.00  0.00     0.085 A 
ATOM     11  C   UNL d   1      -1.017  -1.443  -0.028  0.00  0.00     0.054 A 
ATOM     12  C   UNL d   1      -2.192  -0.797  -0.009  0.00  0.00     0.042 A 
ENDROOT
BRANCH  10  13
ATOM     13  S   UNL d   1      -3.734   1.447   0.040  0.00  0.00    -0.101 SA
BRANCH  13  14
ATOM     14  C   UNL d   1      -3.418   3.023  -0.829  0.00  0.00     0.191 C 
BRANCH  14  15
ATOM     15  C   UNL d   1      -2.948   2.809  -2.255  0.00  0.00     0.268 C 
ATOM     16  O   UNL d   1      -2.763   1.727  -2.787  0.00  0.00    -0.264 OA
BRANCH  15  17
ATOM     17  O   UNL d   1      -2.687   4.017  -2.836  0.00  0.00    -0.321 OA
BRANCH  17  18
ATOM     18  C   UNL d   1      -1.759   3.952  -3.930  0.00  0.00     0.174 C 
ATOM     19  C   UNL d   1      -0.363   4.049  -3.340  0.00  0.00     0.034 C 
ENDBRANCH  17  18
ENDBRANCH  15  17
ENDBRANCH  14  15
ENDBRANCH  13  14
ENDBRANCH  10  13
BRANCH   2  20
ATOM     20  C   UNL d   1       1.789   2.550   0.014  0.00  0.00     0.011 A 
ATOM     21  C   UNL d   1       1.025   3.527   0.670  0.00  0.00     0.015 A 
ATOM     22  C   UNL d   1       1.465   4.849   0.745  0.00  0.00     0.001 A 
ATOM     23  C   UNL d   1       2.677   5.213   0.167  0.00  0.00     0.000 A 
ATOM     24  C   UNL d   1       3.449   4.257  -0.491  0.00  0.00     0.001 A 
ATOM     25  C   UNL d   1       3.008   2.934  -0.564  0.00  0.00     0.015 A 
ENDBRANCH   2  20
TORSDOF 6
