REMARK  6 active torsions:
REMARK  status: ('A' for Active; 'I' for Inactive)
REMARK    1  A    between atoms: C_2  and  C_1 
REMARK    2  A    between atoms: O_6  and  C_1 
REMARK    3  A    between atoms: C_3  and  C_7 
REMARK    4  A    between atoms: O_17  and  C_3 
REMARK    5  A    between atoms: C_15  and  O_6 
REMARK    6  A    between atoms: C_21  and  O_17 
ROOT
ATOM      1  C   UNL d   1      -3.876   1.442  -0.051  0.00  0.00     0.039 A 
ATOM      2  C   UNL d   1      -3.151   2.114  -1.047  0.00  0.00     0.020 A 
ATOM      3  C   UNL d   1      -3.184   0.692   0.912  0.00  0.00     0.020 A 
ATOM      4  C   UNL d   1      -1.082   1.280  -0.119  0.00  0.00     0.079 A 
ATOM      5  C   UNL d   1      -1.757   2.030  -1.084  0.00  0.00     0.038 A 
ATOM      6  C   UNL d   1      -1.789   0.604   0.875  0.00  0.00     0.038 A 
ENDROOT
BRANCH   4   7
ATOM      7  O   UNL d   1       0.318   1.181  -0.284  0.00  0.00    -0.275 OA
BRANCH   7   8
ATOM      8  C   UNL d   1       1.177   1.013   0.792  0.00  0.00     0.298 C 
ATOM      9  O   UNL d   1       0.886   1.026   1.976  0.00  0.00    -0.259 OA
BRANCH   8  10
ATOM     10  C   UNL d   1       2.571   0.796   0.306  0.00  0.00     0.041 A 
ATOM     11  C   UNL d   1       3.567   0.546   1.262  0.00  0.00     0.043 A 
ATOM     12  C   UNL d   1       4.893   0.318   0.874  0.00  0.00     0.056 A 
ATOM     13 CL   UNL d   1       6.054   0.015   2.115  0.00  0.00    -0.083 Cl
ATOM     14  C   UNL d   1       5.234   0.338  -0.484  0.00  0.00     0.055 A 
ATOM     15  C   UNL d   1       4.247   0.593  -1.441  0.00  0.00     0.026 A 
ATOM     16 CL   UNL d   1       6.842   0.053  -1.040  0.00  0.00    -0.083 Cl
ATOM     17  C   UNL d   1       2.923   0.821  -1.053  0.00  0.00     0.019 A 
ENDBRANCH   8  10
ENDBRANCH   7   8
ENDBRANCH   4   7
BRANCH   1  18
ATOM     18  C   UNL d   1      -5.354   1.600  -0.030  0.00  0.00     0.293 C 
ATOM     19  O   UNL d   1      -5.968   2.304  -0.819  0.00  0.00    -0.259 OA
BRANCH  18  20
ATOM     20  O   UNL d   1      -5.882   0.931   1.024  0.00  0.00    -0.318 OA
BRANCH  20  21
ATOM     21  C   UNL d   1      -7.211   1.319   1.399  0.00  0.00     0.174 C 
ATOM     22  C   UNL d   1      -7.101   2.470   2.383  0.00  0.00     0.034 C 
ENDBRANCH  20  21
ENDBRANCH  18  20
ENDBRANCH   1  18
TORSDOF 6
