REMARK  5 active torsions:
REMARK  status: ('A' for Active; 'I' for Inactive)
REMARK    1  A    between atoms: C_3  and  C_1 
REMARK    2  A    between atoms: O_8  and  C_2 
REMARK    3  A    between atoms: O_9  and  C_3 
REMARK    4  A    between atoms: C_11  and  C_5 
REMARK    5  A    between atoms: C_6  and  C_11 
ROOT
ATOM      1  C   UNL d   1       0.201   1.377   0.043  0.00  0.00     0.071 A 
ATOM      2  C   UNL d   1       0.945   0.187   0.037  0.00  0.00     0.089 A 
ATOM      3  C   UNL d   1       0.309  -1.067   0.044  0.00  0.00    -0.021 A 
ATOM      4  C   UNL d   1      -1.196   1.308  -0.012  0.00  0.00     0.021 A 
ATOM      5  C   UNL d   1      -1.841   0.073  -0.041  0.00  0.00     0.002 A 
ATOM      6  C   UNL d   1      -1.094  -1.103  -0.005  0.00  0.00     0.010 A 
ENDROOT
BRANCH   1   7
ATOM      7  C   UNL d   1       0.821   2.731   0.089  0.00  0.00     0.179 C 
ATOM      8  O   UNL d   1       0.214   3.745  -0.228  0.00  0.00    -0.646 OA
BRANCH   7   9
ATOM      9  O   UNL d   1       2.081   2.761   0.573  0.00  0.00    -0.773 OA
ATOM     10  H   UNL d   1       2.444   1.857   0.714  0.00  0.00     0.167 HD
ENDBRANCH   7   9
ENDBRANCH   1   7
BRANCH   2  11
ATOM     11  O   UNL d   1       2.314   0.264   0.015  0.00  0.00    -0.359 OA
ATOM     12  H   UNL d   1       2.628  -0.434  -0.595  0.00  0.00     0.217 HD
ENDBRANCH   2  11
BRANCH   3  13
ATOM     13  C   UNL d   1       1.075  -2.368   0.106  0.00  0.00     0.067 C 
BRANCH  13  14
ATOM     14  C   UNL d   1       1.427  -2.999  -1.215  0.00  0.00    -0.032 C 
ATOM     15  C   UNL d   1       1.164  -2.540  -2.447  0.00  0.00     0.007 C 
ENDBRANCH  13  14
ENDBRANCH   3  13
TORSDOF 5
