REMARK  4 active torsions:
REMARK  status: ('A' for Active; 'I' for Inactive)
REMARK    1  A    between atoms: C_7  and  C_5 
REMARK    2  A    between atoms: O_9  and  C_6 
REMARK    3  A    between atoms: C_14  and  O_9 
REMARK    4  A    between atoms: O_15  and  C_10 
ROOT
ATOM      1  C   UNL d   1      -1.042   0.553  -3.911  0.00  0.00     0.103 A 
ATOM      2  C   UNL d   1      -1.819   0.971  -1.617  0.00  0.00    -0.036 A 
ATOM      3  C   UNL d   1      -0.924   0.377  -2.522  0.00  0.00     0.048 A 
ATOM      4  C   UNL d   1      -2.132   1.285  -4.407  0.00  0.00     0.101 A 
ATOM      5  C   UNL d   1      -2.871   1.734  -2.130  0.00  0.00     0.012 A 
ATOM      6  C   UNL d   1      -3.025   1.885  -3.509  0.00  0.00     0.040 A 
ENDROOT
BRANCH   2   7
ATOM      7  C   UNL d   1      -1.594   0.779  -0.126  0.00  0.00     0.118 C 
ATOM      8  C   UNL d   1      -2.758   0.088   0.587  0.00  0.00     0.130 C 
ATOM      9  C   UNL d   1      -3.434   1.225   1.284  0.00  0.00     0.233 C 
ATOM     10  N   UNL d   1      -2.547   2.279   1.319  0.00  0.00    -0.291 N 
ATOM     11  O   UNL d   1      -4.547   1.212   1.775  0.00  0.00    -0.272 OA
ATOM     12  N   UNL d   1      -1.391   2.075   0.558  0.00  0.00    -0.229 NA
ATOM     13  H   UNL d   1      -2.854   3.197   1.627  0.00  0.00     0.183 HD
ATOM     14  H   UNL d   1      -0.601   1.982   1.202  0.00  0.00     0.147 HD
ENDBRANCH   2   7
BRANCH   1  15
ATOM     15  O   UNL d   1      -0.125   0.037  -4.792  0.00  0.00    -0.343 OA
BRANCH  15  16
ATOM     16  C   UNL d   1       1.215  -0.139  -4.327  0.00  0.00     0.129 C 
ATOM     17  C   UNL d   1       1.923   1.183  -4.028  0.00  0.00     0.032 C 
ATOM     18  C   UNL d   1       3.398   0.961  -4.348  0.00  0.00     0.002 C 
ATOM     19  C   UNL d   1       3.492  -0.395  -5.039  0.00  0.00     0.002 C 
ATOM     20  C   UNL d   1       2.068  -0.749  -5.436  0.00  0.00     0.032 C 
ENDBRANCH  15  16
ENDBRANCH   1  15
BRANCH   4  21
ATOM     21  O   UNL d   1      -2.414   1.568  -5.718  0.00  0.00    -0.353 OA
ATOM     22  C   UNL d   1      -2.106   0.552  -6.663  0.00  0.00     0.210 C 
ENDBRANCH   4  21
TORSDOF 4
