REMARK  5 active torsions:
REMARK  status: ('A' for Active; 'I' for Inactive)
REMARK    1  A    between atoms: C_7  and  C_1 
REMARK    2  A    between atoms: C_3  and  C_6 
REMARK       I    between atoms: C_6  and  N_8 
REMARK    3  A    between atoms: C_9  and  C_7 
REMARK    4  A    between atoms: C_12  and  C_7 
REMARK    5  A    between atoms: N_8  and  C_9 
ROOT
ATOM      1  C   UNL d   1      -2.066  -2.533  -0.043  0.00  0.00     0.071 C 
ENDROOT
BRANCH   1   2
ATOM      2  C   UNL d   1      -1.471  -1.135  -0.129  0.00  0.00    -0.020 A 
ATOM      3  C   UNL d   1      -1.613  -0.239  -1.177  0.00  0.00     0.097 A 
ATOM      4  N   UNL d   1      -1.024   0.945  -0.837  0.00  0.00    -0.365 N 
ATOM      5  C   UNL d   1      -0.469   0.855   0.414  0.00  0.00     0.042 A 
ATOM      6  H   UNL d   1      -1.002   1.775  -1.413  0.00  0.00     0.165 HD
ATOM      7  C   UNL d   1      -0.706  -0.440   0.881  0.00  0.00    -0.001 A 
ATOM      8  C   UNL d   1       0.222   1.823   1.154  0.00  0.00     0.030 A 
ATOM      9  C   UNL d   1      -0.197  -0.782   2.154  0.00  0.00     0.014 A 
ATOM     10  C   UNL d   1       0.514   0.168   2.899  0.00  0.00     0.001 A 
ATOM     11  C   UNL d   1       0.713   1.455   2.408  0.00  0.00     0.002 A 
ENDBRANCH   1   2
BRANCH   1  12
ATOM     12  C   UNL d   1      -2.947  -2.934  -1.249  0.00  0.00     0.137 C 
BRANCH  12  13
ATOM     13  N   UNL d   1      -4.153  -2.122  -1.387  0.00  0.00    -0.352 N 
ATOM     14  C   UNL d   1      -4.970  -2.233  -2.509  0.00  0.00     0.325 C 
ATOM     15  O   UNL d   1      -4.782  -3.104  -3.360  0.00  0.00    -0.263 OA
ATOM     16  H   UNL d   1      -4.249  -1.289  -0.810  0.00  0.00     0.162 HD
BRANCH  14  17
ATOM     17  C   UNL d   1      -6.099  -1.180  -2.601  0.00  0.00     0.472 C 
ATOM     18  F   UNL d   1      -6.053  -0.295  -1.560  0.00  0.00    -0.162 F 
ATOM     19  F   UNL d   1      -6.022  -0.431  -3.735  0.00  0.00    -0.162 F 
ATOM     20  F   UNL d   1      -7.341  -1.735  -2.577  0.00  0.00    -0.162 F 
ENDBRANCH  14  17
ENDBRANCH  12  13
ENDBRANCH   1  12
BRANCH   1  21
ATOM     21  C   UNL d   1      -0.917  -3.517   0.139  0.00  0.00    -0.048 A 
ATOM     22  C   UNL d   1      -0.921  -4.384   1.247  0.00  0.00     0.008 A 
ATOM     23  C   UNL d   1       0.100  -5.321   1.431  0.00  0.00     0.001 A 
ATOM     24  C   UNL d   1       1.135  -5.412   0.503  0.00  0.00     0.000 A 
ATOM     25  C   UNL d   1       1.148  -4.572  -0.607  0.00  0.00     0.001 A 
ATOM     26  C   UNL d   1       0.128  -3.635  -0.792  0.00  0.00     0.008 A 
ENDBRANCH   1  21
TORSDOF 5
