REMARK  1 active torsions:
REMARK  status: ('A' for Active; 'I' for Inactive)
REMARK    1  A    between atoms: O_12  and  N_7 
ROOT
ATOM      1  C   UNL d   1      -0.697   0.485   0.018  0.00  0.00     0.024 A 
ATOM      2  C   UNL d   1      -1.119  -0.834  -0.020  0.00  0.00     0.025 A 
ATOM      3  N   UNL d   1      -0.009  -1.637  -0.044  0.00  0.00    -0.353 N 
ATOM      4  C   UNL d   1       0.728   0.479   0.038  0.00  0.00     0.005 A 
ATOM      5  C   UNL d   1       1.135  -0.859  -0.006  0.00  0.00     0.045 A 
ATOM      6  C   UNL d   1      -1.669   1.571   0.027  0.00  0.00     0.045 C 
ATOM      7  N   UNL d   1      -1.244   2.775   0.270  0.00  0.00    -0.273 N 
ATOM      8  HN  UNL d   1      -0.270   3.007   0.463  1.00  0.00     0.194 HD
ATOM      9  C   UNL d   1      -2.541  -1.292  -0.052  0.00  0.00     0.058 C 
ATOM     10  C   UNL d   1       0.006  -3.083  -0.111  0.00  0.00     0.156 C 
ATOM     11  C   UNL d   1       1.718   1.484   0.073  0.00  0.00     0.014 A 
ATOM     12  C   UNL d   1       2.493  -1.223  -0.014  0.00  0.00     0.030 A 
ATOM     13  C   UNL d   1      -3.113   1.185  -0.288  0.00  0.00     0.060 C 
ATOM     14  C   UNL d   1      -3.473  -0.148   0.378  0.00  0.00     0.012 C 
ATOM     15  C   UNL d   1       3.071   1.131   0.065  0.00  0.00     0.001 A 
ATOM     16  C   UNL d   1       3.451  -0.206   0.021  0.00  0.00     0.002 A 
ENDROOT
BRANCH   7  17
ATOM     17  O   UNL d   1      -2.280   3.715   0.238  0.00  0.00    -0.290 OA
ATOM     18  H   UNL d   1      -1.823   4.535   0.502  0.00  0.00     0.244 HD
ENDBRANCH   7  17
TORSDOF 1
