REMARK  2 active torsions:
REMARK  status: ('A' for Active; 'I' for Inactive)
REMARK    1  A    between atoms: N_15  and  C_4 
REMARK    2  A    between atoms: C_13  and  C_7 
ROOT
ATOM      1  C   UNL d   1       1.444   0.892   0.024  0.00  0.00     0.073 A 
ATOM      2  C   UNL d   1       0.641   2.155  -0.017  0.00  0.00     0.301 A 
ATOM      3  C   UNL d   1       0.782  -0.349   0.068  0.00  0.00    -0.004 A 
ATOM      4  C   UNL d   1       2.861   0.970  -0.043  0.00  0.00     0.045 A 
ATOM      5  C   UNL d   1       3.617  -0.232  -0.058  0.00  0.00     0.077 A 
ATOM      6  O   UNL d   1      -0.734   2.044   0.068  0.00  0.00    -0.274 OA
ATOM      7  C   UNL d   1       2.993  -1.498   0.025  0.00  0.00    -0.003 A 
ATOM      8  C   UNL d   1       1.581  -1.513   0.101  0.00  0.00     0.027 A 
ATOM      9  C   UNL d   1      -0.690  -0.394   0.068  0.00  0.00     0.009 A 
ATOM     10  C   UNL d   1      -1.399   0.807   0.068  0.00  0.00     0.090 A 
ATOM     11  C   UNL d   1       5.045  -0.122  -0.218  0.00  0.00     0.102 C 
ATOM     12  N   UNL d   1       6.189  -0.002  -0.368  0.00  0.00    -0.191 NA
ATOM     13  O   UNL d   1       1.165   3.259  -0.147  0.00  0.00    -0.259 OA
ATOM     14  C   UNL d   1      -1.462  -1.569   0.040  0.00  0.00     0.015 A 
ATOM     15  C   UNL d   1      -2.795   0.873   0.047  0.00  0.00     0.038 A 
ATOM     16  C   UNL d   1      -2.864  -1.525   0.018  0.00  0.00     0.001 A 
ATOM     17  C   UNL d   1      -3.531  -0.304   0.021  0.00  0.00     0.003 A 
ENDROOT
BRANCH   4  18
ATOM     18  N   UNL d   1       3.525   2.208   0.138  0.00  0.00    -0.301 NA
ATOM     19  H   UNL d   1       2.935   3.027  -0.059  0.00  0.00     0.124 HD
ATOM     20  H   UNL d   1       4.454   2.308  -0.265  0.00  0.00     0.124 HD
ENDBRANCH   4  18
BRANCH   7  21
ATOM     21  C   UNL d   1       3.735  -2.795   0.012  0.00  0.00    -0.024 A 
ATOM     22  C   UNL d   1       4.926  -2.991   0.741  0.00  0.00     0.015 A 
ATOM     23  C   UNL d   1       5.649  -4.186   0.656  0.00  0.00     0.043 A 
ATOM     24  C   UNL d   1       5.164  -5.229  -0.115  0.00  0.00     0.116 A 
ATOM     25  C   UNL d   1       3.967  -5.099  -0.803  0.00  0.00     0.043 A 
ATOM     26  F   UNL d   1       5.854  -6.374  -0.196  0.00  0.00    -0.206 F 
ATOM     27  C   UNL d   1       3.266  -3.888  -0.748  0.00  0.00     0.015 A 
ENDBRANCH   7  21
TORSDOF 2
