REMARK  7 active torsions:
REMARK  status: ('A' for Active; 'I' for Inactive)
REMARK    1  A    between atoms: C_2  and  S_1 
REMARK    2  A    between atoms: N_7  and  S_1 
REMARK    3  A    between atoms: C_13  and  N_4 
REMARK    4  A    between atoms: C_9  and  N_7 
REMARK    5  A    between atoms: C_10  and  N_7 
REMARK    6  A    between atoms: C_18  and  C_9 
REMARK    7  A    between atoms: C_19  and  C_10 
ROOT
ATOM      1  N   UNL d   1       0.438  -0.167  -1.371  0.00  0.00    -0.295 N 
ENDROOT
BRANCH   1   2
ATOM      2  S   UNL d   1       1.070  -0.069   0.200  0.00  0.00     0.264 S 
ATOM      3  O   UNL d   1       2.365   0.570   0.192  0.00  0.00    -0.200 OA
ATOM      4  O   UNL d   1       0.044   0.374   1.120  0.00  0.00    -0.200 OA
BRANCH   2   5
ATOM      5  C   UNL d   1       1.393  -1.668   0.760  0.00  0.00     0.120 A 
ATOM      6  C   UNL d   1       0.522  -2.693   1.107  0.00  0.00     0.055 A 
ATOM      7  N   UNL d   1       1.331  -3.733   1.559  0.00  0.00    -0.260 N 
ATOM      8  C   UNL d   1      -0.962  -2.711   1.164  0.00  0.00     0.072 C 
ATOM      9  N   UNL d   1       2.632  -3.347   1.651  0.00  0.00    -0.303 N 
ATOM     10  C   UNL d   1       2.666  -2.129   1.111  0.00  0.00     0.135 A 
ATOM     11  HN  UNL d   1       3.411  -3.873   2.048  1.00  0.00     0.186 HD
BRANCH   7  12
ATOM     12  C   UNL d   1       0.967  -5.056   1.949  0.00  0.00     0.056 A 
ATOM     13  C   UNL d   1      -0.152  -5.702   1.408  0.00  0.00     0.031 A 
ATOM     14  C   UNL d   1      -0.493  -6.989   1.830  0.00  0.00     0.002 A 
ATOM     15  C   UNL d   1       0.279  -7.640   2.791  0.00  0.00     0.000 A 
ATOM     16  C   UNL d   1       1.407  -7.013   3.316  0.00  0.00     0.002 A 
ATOM     17  C   UNL d   1       1.762  -5.732   2.888  0.00  0.00     0.031 A 
ENDBRANCH   7  12
ENDBRANCH   2   5
ENDBRANCH   1   2
BRANCH   1  18
ATOM     18  C   UNL d   1      -1.044  -0.239  -1.506  0.00  0.00     0.192 C 
BRANCH  18  19
ATOM     19  C   UNL d   1      -1.808   0.996  -1.050  0.00  0.00     0.027 A 
ATOM     20  N   UNL d   1      -1.545   2.166  -1.691  0.00  0.00    -0.368 N 
ATOM     21  C   UNL d   1      -2.098   3.289  -1.180  0.00  0.00     0.088 A 
ATOM     22  HN  UNL d   1      -0.955   2.195  -2.522  1.00  0.00     0.165 HD
ATOM     23  C   UNL d   1      -2.925   3.308  -0.071  0.00  0.00     0.017 A 
ATOM     24  C   UNL d   1      -3.227   2.100   0.542  0.00  0.00     0.003 A 
ATOM     25  C   UNL d   1      -2.675   0.925   0.041  0.00  0.00     0.027 A 
ENDBRANCH  18  19
ENDBRANCH   1  18
BRANCH   1  26
ATOM     26  C   UNL d   1       1.047   0.754  -2.373  0.00  0.00     0.192 C 
BRANCH  26  27
ATOM     27  C   UNL d   1       2.513   0.532  -2.705  0.00  0.00     0.027 A 
ATOM     28  N   UNL d   1       3.029  -0.720  -2.623  0.00  0.00    -0.368 N 
ATOM     29  C   UNL d   1       4.345  -0.858  -2.892  0.00  0.00     0.088 A 
ATOM     30  HN  UNL d   1       2.449  -1.520  -2.370  1.00  0.00     0.165 HD
ATOM     31  C   UNL d   1       5.177   0.183  -3.278  0.00  0.00     0.017 A 
ATOM     32  C   UNL d   1       4.623   1.450  -3.402  0.00  0.00     0.003 A 
ATOM     33  C   UNL d   1       3.275   1.630  -3.120  0.00  0.00     0.027 A 
ENDBRANCH  26  27
ENDBRANCH   1  26
TORSDOF 7
