REMARK  2 active torsions:
REMARK  status: ('A' for Active; 'I' for Inactive)
REMARK    1  A    between atoms: C_16  and  N_7 
REMARK    2  A    between atoms: C_19  and  C_13 
ROOT
ATOM      1  C   UNL d   1       0.712  -0.806  -0.004  0.00  0.00     0.173 A 
ATOM      2  C   UNL d   1       0.439   0.547  -0.061  0.00  0.00     0.090 A 
ATOM      3  C   UNL d   1       1.896  -1.585   0.252  0.00  0.00     0.285 C 
ATOM      4  C   UNL d   1      -0.990   0.673  -0.172  0.00  0.00     0.051 A 
ATOM      5  C   UNL d   1      -1.477  -0.630  -0.104  0.00  0.00     0.162 A 
ATOM      6  O   UNL d   1      -0.454  -1.512  -0.077  0.00  0.00    -0.285 OA
ATOM      7  N   UNL d   1       2.961  -0.880   0.832  0.00  0.00    -0.303 N 
ATOM      8  N   UNL d   1       1.334   1.593   0.037  0.00  0.00    -0.322 N 
ATOM      9  N   UNL d   1      -2.754  -1.030  -0.029  0.00  0.00    -0.335 N 
ATOM     10  HN  UNL d   1      -3.022  -2.014  -0.002  1.00  0.00     0.168 HD
ATOM     11  C   UNL d   1      -1.947   1.707  -0.280  0.00  0.00    -0.043 A 
ATOM     12  C   UNL d   1       2.690   1.561   0.151  0.00  0.00     0.240 C 
ATOM     13  C   UNL d   1      -3.654  -0.031   0.009  0.00  0.00     0.044 A 
ATOM     14  C   UNL d   1       3.481   0.254   0.081  0.00  0.00     0.235 C 
ATOM     15  C   UNL d   1      -3.297   1.312  -0.155  0.00  0.00     0.038 A 
ATOM     16  O   UNL d   1       1.932  -2.803   0.081  0.00  0.00    -0.265 OA
ATOM     17  O   UNL d   1       3.283   2.647   0.148  0.00  0.00    -0.271 OA
ATOM     18  C   UNL d   1      -1.647   3.168  -0.445  0.00  0.00     0.049 C 
ATOM     19  H   UNL d   1       0.961   2.534   0.040  0.00  0.00     0.169 HD
ENDROOT
BRANCH   7  20
ATOM     20  C   UNL d   1       3.731  -1.546   1.850  0.00  0.00     0.038 A 
ATOM     21  C   UNL d   1       5.099  -1.333   2.058  0.00  0.00     0.031 A 
ATOM     22  C   UNL d   1       5.786  -2.017   3.074  0.00  0.00     0.026 A 
ATOM     23  C   UNL d   1       5.112  -2.908   3.904  0.00  0.00     0.034 A 
ATOM     24  C   UNL d   1       3.752  -3.121   3.733  0.00  0.00     0.026 A 
ATOM     25 CL   UNL d   1       5.962  -3.746   5.141  0.00  0.00    -0.084 Cl
ATOM     26  C   UNL d   1       3.072  -2.444   2.717  0.00  0.00     0.031 A 
ENDBRANCH   7  20
BRANCH  13  27
ATOM     27  C   UNL d   1      -5.044  -0.456   0.289  0.00  0.00    -0.009 A 
ATOM     28  C   UNL d   1      -5.927   0.340   1.045  0.00  0.00     0.013 A 
ATOM     29  C   UNL d   1      -7.223  -0.092   1.345  0.00  0.00     0.001 A 
ATOM     30  C   UNL d   1      -7.666  -1.333   0.900  0.00  0.00     0.000 A 
ATOM     31  C   UNL d   1      -6.813  -2.145   0.159  0.00  0.00     0.001 A 
ATOM     32  C   UNL d   1      -5.517  -1.710  -0.140  0.00  0.00     0.013 A 
ENDBRANCH  13  27
TORSDOF 2
