REMARK  5 active torsions:
REMARK  status: ('A' for Active; 'I' for Inactive)
REMARK       I    between atoms: C_6  and  N_1 
REMARK    1  A    between atoms: C_8  and  C_3 
REMARK    2  A    between atoms: C_9  and  C_6 
REMARK    3  A    between atoms: O_18  and  C_8 
REMARK    4  A    between atoms: C_10  and  C_9 
REMARK    5  A    between atoms: C_19  and  O_18 
ROOT
ATOM      1  N   UNL d   1       0.873  -0.625  -0.411  0.00  0.00    -0.207 N 
ATOM      2  C   UNL d   1       0.748   0.739  -0.665  0.00  0.00     0.142 C 
ATOM      3  C   UNL d   1      -0.505   1.112  -0.224  0.00  0.00     0.101 C 
ATOM      4  N   UNL d   1      -0.320  -1.165  -0.008  0.00  0.00    -0.300 N 
ATOM      5  HN  UNL d   1      -0.545  -2.148   0.145  1.00  0.00     0.186 HD
ATOM      6  C   UNL d   1       2.041  -1.405  -0.480  0.00  0.00     0.248 C 
ATOM      7  C   UNL d   1      -1.119  -0.103   0.138  0.00  0.00     0.129 C 
ATOM      8  O   UNL d   1       3.128  -0.851  -0.632  0.00  0.00    -0.271 OA
ATOM      9  N   UNL d   1       1.741   1.484  -1.205  0.00  0.00    -0.383 N 
ATOM     10  H   UNL d   1       2.698   1.125  -1.270  0.00  0.00     0.157 HD
ATOM     11  H   UNL d   1       1.661   2.500  -1.268  0.00  0.00     0.157 HD
ENDROOT
BRANCH   6  12
ATOM     12  C   UNL d   1       1.800  -2.888  -0.320  0.00  0.00     0.144 C 
BRANCH  12  13
ATOM     13  C   UNL d   1       3.035  -3.706  -0.595  0.00  0.00    -0.042 A 
ATOM     14  C   UNL d   1       4.164  -3.737   0.205  0.00  0.00     0.057 A 
ATOM     15  S   UNL d   1       5.375  -4.787  -0.392  0.00  0.00    -0.113 SA
ATOM     16  C   UNL d   1       4.413  -5.218  -1.735  0.00  0.00     0.050 A 
ATOM     17  C   UNL d   1       3.198  -4.569  -1.730  0.00  0.00     0.015 A 
ENDBRANCH  12  13
ENDBRANCH   6  12
BRANCH   3  18
ATOM     18  C   UNL d   1      -0.995   2.470  -0.113  0.00  0.00     0.298 C 
ATOM     19  O   UNL d   1      -0.390   3.444  -0.537  0.00  0.00    -0.259 OA
BRANCH  18  20
ATOM     20  O   UNL d   1      -2.131   2.537   0.643  0.00  0.00    -0.318 OA
BRANCH  20  21
ATOM     21  C   UNL d   1      -2.376   3.816   1.244  0.00  0.00     0.174 C 
ATOM     22  C   UNL d   1      -1.727   3.823   2.618  0.00  0.00     0.034 C 
ENDBRANCH  20  21
ENDBRANCH  18  20
ENDBRANCH   3  18
TORSDOF 5
