REMARK  7 active torsions:
REMARK  status: ('A' for Active; 'I' for Inactive)
REMARK    1  A    between atoms: C_7  and  C_1 
REMARK    2  A    between atoms: S_13  and  C_7 
REMARK       I    between atoms: C_8  and  N_12 
REMARK    3  A    between atoms: C_9  and  C_8 
REMARK    4  A    between atoms: C_10  and  C_11 
REMARK    5  A    between atoms: O_19  and  C_10 
REMARK    6  A    between atoms: N_12  and  C_14 
REMARK    7  A    between atoms: C_18  and  S_13 
ROOT
ATOM      1  C   UNL d   1      -5.592   5.513   1.835  0.00  0.00     0.036 A 
ATOM      2  C   UNL d   1      -4.413   5.101   1.216  0.00  0.00     0.048 A 
ATOM      3  C   UNL d   1      -4.269   3.808   0.689  0.00  0.00     0.003 A 
ATOM      4  C   UNL d   1      -6.596   3.389   1.220  0.00  0.00     0.004 A 
ATOM      5  C   UNL d   1      -6.693   4.649   1.822  0.00  0.00     0.029 A 
ATOM      6  C   UNL d   1      -5.383   2.966   0.666  0.00  0.00     0.018 A 
ENDROOT
BRANCH   3   7
ATOM      7  S   UNL d   1      -2.610   3.384   0.180  0.00  0.00    -0.125 SA
BRANCH   7   8
ATOM      8  C   UNL d   1      -2.620   1.560   0.037  0.00  0.00     0.119 C 
BRANCH   8   9
ATOM      9  C   UNL d   1      -1.205   0.977   0.029  0.00  0.00    -0.036 A 
ATOM     10  C   UNL d   1      -0.692   0.261   1.153  0.00  0.00    -0.048 A 
ATOM     11  C   UNL d   1       0.666  -0.167   1.163  0.00  0.00    -0.049 A 
ATOM     12  C   UNL d   1      -1.541  -0.048   2.369  0.00  0.00     0.049 C 
ATOM     13  C   UNL d   1       1.287  -0.804   2.393  0.00  0.00     0.049 C 
ATOM     14  C   UNL d   1       1.470  -0.022   0.004  0.00  0.00    -0.049 A 
ATOM     15  C   UNL d   1       0.946   0.622  -1.142  0.00  0.00    -0.049 A 
ATOM     16  C   UNL d   1       2.884  -0.571   0.020  0.00  0.00     0.049 C 
ATOM     17  C   UNL d   1      -0.372   1.157  -1.117  0.00  0.00    -0.048 A 
ATOM     18  C   UNL d   1       1.810   0.732  -2.381  0.00  0.00     0.049 C 
ATOM     19  C   UNL d   1      -0.856   1.910  -2.341  0.00  0.00     0.049 C 
ENDBRANCH   8   9
ENDBRANCH   7   8
ENDBRANCH   3   7
BRANCH   1  20
ATOM     20  N   UNL d   1      -5.709   6.727   2.548  0.00  0.00    -0.324 N 
ATOM     21  C   UNL d   1      -4.708   7.659   2.750  0.00  0.00     0.245 C 
ATOM     22  O   UNL d   1      -3.597   7.692   2.247  0.00  0.00    -0.268 OA
ATOM     23  H   UNL d   1      -6.589   6.870   3.026  0.00  0.00     0.169 HD
BRANCH  21  24
ATOM     24  C   UNL d   1      -5.103   8.710   3.725  0.00  0.00     0.081 C 
ATOM     25  C   UNL d   1      -4.218   9.666   4.042  0.00  0.00     0.086 C 
BRANCH  25  26
ATOM     26  C   UNL d   1      -4.620  10.695   5.000  0.00  0.00     0.165 C 
ATOM     27  O   UNL d   1      -5.738  10.805   5.463  0.00  0.00    -0.647 OA
BRANCH  26  28
ATOM     28  O   UNL d   1      -3.604  11.517   5.327  0.00  0.00    -0.773 OA
ATOM     29  H   UNL d   1      -2.747  11.315   4.906  0.00  0.00     0.167 HD
ENDBRANCH  26  28
ENDBRANCH  25  26
ENDBRANCH  21  24
ENDBRANCH   1  20
TORSDOF 7
