REMARK  3 active torsions:
REMARK  status: ('A' for Active; 'I' for Inactive)
REMARK    1  A    between atoms: C_12  and  C_1 
REMARK    2  A    between atoms: C_15  and  C_7 
REMARK    3  A    between atoms: C_14  and  C_8 
ROOT
ATOM      1  C   UNL d   1       0.122   1.206  -0.038  0.00  0.00     0.100 A 
ATOM      2  N   UNL d   1       0.640  -3.661   0.063  0.00  0.00    -0.318 N 
ATOM      3  HN  UNL d   1       1.655  -3.606   0.152  1.00  0.00     0.169 HD
ATOM      4  C   UNL d   1      -0.230  -2.673  -0.018  0.00  0.00     0.189 A 
ATOM      5  S   UNL d   1      -1.047  -0.062  -0.089  0.00  0.00    -0.081 SA
ATOM      6  C   UNL d   1       0.130  -1.286  -0.019  0.00  0.00     0.059 A 
ATOM      7  C   UNL d   1       1.420   0.700  -0.013  0.00  0.00    -0.003 A 
ATOM      8  C   UNL d   1      -0.154  -4.785  -0.001  0.00  0.00     0.138 A 
ATOM      9  C   UNL d   1       1.399  -0.747   0.022  0.00  0.00     0.037 A 
ATOM     10  N   UNL d   1      -1.465  -4.517  -0.103  0.00  0.00    -0.242 N 
ATOM     11  HN  UNL d   1      -2.241  -5.177  -0.159  1.00  0.00     0.196 HD
ATOM     12  O   UNL d   1      -1.518  -3.129  -0.113  0.00  0.00    -0.217 OA
ENDROOT
BRANCH   1  13
ATOM     13  C   UNL d   1      -0.400   2.614  -0.019  0.00  0.00     0.424 C 
ATOM     14  F   UNL d   1      -1.753   2.685   0.110  0.00  0.00    -0.166 F 
ATOM     15  F   UNL d   1       0.115   3.335   1.009  0.00  0.00    -0.166 F 
ATOM     16  F   UNL d   1      -0.111   3.285  -1.164  0.00  0.00    -0.166 F 
ENDBRANCH   1  13
BRANCH   7  17
ATOM     17  C   UNL d   1       2.652   1.504   0.017  0.00  0.00    -0.025 A 
ATOM     18  C   UNL d   1       3.769   1.055   0.742  0.00  0.00     0.012 A 
ATOM     19  C   UNL d   1       4.969   1.775   0.744  0.00  0.00     0.001 A 
ATOM     20  C   UNL d   1       5.067   2.971   0.041  0.00  0.00     0.000 A 
ATOM     21  C   UNL d   1       3.974   3.429  -0.687  0.00  0.00     0.001 A 
ATOM     22  C   UNL d   1       2.788   2.688  -0.718  0.00  0.00     0.012 A 
ENDBRANCH   7  17
BRANCH   8  23
ATOM     23  C   UNL d   1       0.396  -6.136   0.018  0.00  0.00     0.010 A 
ATOM     24  C   UNL d   1       1.772  -6.342   0.190  0.00  0.00     0.016 A 
ATOM     25  C   UNL d   1       2.304  -7.635   0.187  0.00  0.00     0.007 A 
ATOM     26  C   UNL d   1       1.472  -8.746   0.007  0.00  0.00    -0.062 A 
ATOM     27  C   UNL d   1       0.098  -8.546  -0.155  0.00  0.00     0.007 A 
ATOM     28  C   UNL d   1       2.055 -10.128  -0.006  0.00  0.00     0.048 C 
ATOM     29  C   UNL d   1      -0.434  -7.254  -0.151  0.00  0.00     0.016 A 
ENDBRANCH   8  23
TORSDOF 3
