REMARK  4 active torsions:
REMARK  status: ('A' for Active; 'I' for Inactive)
REMARK    1  A    between atoms: N_2  and  C_1 
REMARK    2  A    between atoms: C_5  and  C_1 
REMARK    3  A    between atoms: C_6  and  N_2 
REMARK    4  A    between atoms: O_8  and  N_3 
ROOT
ATOM      1  C   UNL d   1       1.225  -0.110  -0.276  0.00  0.00     0.135 C 
ATOM      2  N   UNL d   1       2.483  -0.038  -0.623  0.00  0.00    -0.252 N 
ATOM      3  HN  UNL d   1       3.060   0.794  -0.503  1.00  0.00     0.196 HD
ENDROOT
BRANCH   1   4
ATOM      4  N   UNL d   1       0.399  -1.222  -0.328  0.00  0.00    -0.340 N 
ATOM      5  H   UNL d   1      -0.598  -1.054  -0.368  0.00  0.00     0.167 HD
BRANCH   4   6
ATOM      6  C   UNL d   1       0.691  -2.498   0.207  0.00  0.00     0.034 A 
ATOM      7  C   UNL d   1      -0.018  -3.612  -0.272  0.00  0.00     0.036 A 
ATOM      8  C   UNL d   1       0.261  -4.909   0.186  0.00  0.00    -0.060 A 
ATOM      9  C   UNL d   1      -0.480  -6.098  -0.352  0.00  0.00     0.048 C 
ATOM     10  C   UNL d   1       1.262  -5.091   1.146  0.00  0.00     0.007 A 
ATOM     11  C   UNL d   1       1.980  -3.997   1.626  0.00  0.00     0.003 A 
ATOM     12  C   UNL d   1       1.701  -2.713   1.151  0.00  0.00     0.029 A 
ENDBRANCH   4   6
ENDBRANCH   1   4
BRANCH   1  13
ATOM     13  C   UNL d   1       0.616   1.192   0.179  0.00  0.00     0.010 A 
ATOM     14  C   UNL d   1      -0.413   1.222   1.128  0.00  0.00     0.015 A 
ATOM     15  C   UNL d   1      -0.924   2.448   1.566  0.00  0.00     0.001 A 
ATOM     16  C   UNL d   1      -0.414   3.645   1.058  0.00  0.00     0.000 A 
ATOM     17  C   UNL d   1       0.604   3.621   0.107  0.00  0.00     0.001 A 
ATOM     18  C   UNL d   1       1.117   2.399  -0.331  0.00  0.00     0.015 A 
ENDBRANCH   1  13
BRANCH   2  19
ATOM     19  O   UNL d   1       2.949  -1.235  -1.177  0.00  0.00    -0.288 OA
ATOM     20  H   UNL d   1       3.887  -1.039  -1.343  0.00  0.00     0.244 HD
ENDBRANCH   2  19
TORSDOF 4
