REMARK  7 active torsions:
REMARK  status: ('A' for Active; 'I' for Inactive)
REMARK    1  A    between atoms: C_15  and  N_1 
REMARK    2  A    between atoms: N_3  and  C_2 
REMARK    3  A    between atoms: C_18  and  C_8 
REMARK    4  A    between atoms: N_9  and  C_13 
REMARK    5  A    between atoms: C_14  and  N_23 
REMARK    6  A    between atoms: C_28  and  C_18 
REMARK    7  A    between atoms: N_23  and  N_21 
ROOT
ATOM      1  N   UNL d   1      -4.261  -2.099  -0.522  0.00  0.00    -0.315 N 
ATOM      2  HN  UNL d   1      -4.629  -1.560  -1.306  1.00  0.00     0.185 HD
ATOM      3  C   UNL d   1      -3.321  -1.652   0.248  0.00  0.00     0.087 C 
ENDROOT
BRANCH   3   4
ATOM      4  C   UNL d   1      -2.751  -0.272   0.039  0.00  0.00     0.126 C 
BRANCH   4   5
ATOM      5  C   UNL d   1      -1.281  -0.331  -0.132  0.00  0.00     0.125 A 
ATOM      6  N   UNL d   1      -0.413   0.750  -0.300  0.00  0.00    -0.227 N 
ATOM      7  N   UNL d   1       0.826   0.235  -0.521  0.00  0.00    -0.220 N 
ATOM      8  N   UNL d   1       0.715  -1.078  -0.443  0.00  0.00    -0.226 N 
ATOM      9  HN  UNL d   1       1.678   0.762  -0.711  1.00  0.00     0.210 HD
ATOM     10  N   UNL d   1      -0.572  -1.444  -0.200  0.00  0.00    -0.271 N 
ATOM     11  HN  UNL d   1       1.491  -1.731  -0.551  1.00  0.00     0.210 HD
ATOM     12  HN  UNL d   1      -0.922  -2.395  -0.091  1.00  0.00     0.190 HD
BRANCH   6  13
ATOM     13  C   UNL d   1      -0.600   2.165  -0.283  0.00  0.00     0.059 A 
ATOM     14  C   UNL d   1       0.483   2.996  -0.623  0.00  0.00     0.032 A 
ATOM     15  C   UNL d   1       0.341   4.389  -0.654  0.00  0.00     0.009 A 
ATOM     16  C   UNL d   1      -0.882   4.983  -0.337  0.00  0.00    -0.062 A 
ATOM     17  C   UNL d   1      -1.948   4.164   0.039  0.00  0.00     0.009 A 
ATOM     18  C   UNL d   1      -1.042   6.473  -0.410  0.00  0.00     0.048 C 
ATOM     19  C   UNL d   1      -1.812   2.769   0.064  0.00  0.00     0.032 A 
ENDBRANCH   6  13
ENDBRANCH   4   5
ENDBRANCH   3   4
BRANCH   1  20
ATOM     20  N   UNL d   1      -4.722  -3.343  -0.209  0.00  0.00    -0.299 N 
ATOM     21  H   UNL d   1      -4.107  -3.994   0.299  0.00  0.00     0.187 HD
BRANCH  20  22
ATOM     22  C   UNL d   1      -5.573  -3.973  -1.153  0.00  0.00     0.081 A 
ATOM     23  C   UNL d   1      -5.743  -5.374  -1.247  0.00  0.00     0.133 A 
ATOM     24  C   UNL d   1      -6.578  -5.944  -2.234  0.00  0.00     0.074 A 
ATOM     25  C   UNL d   1      -7.277  -5.107  -3.112  0.00  0.00     0.105 A 
ATOM     26  C   UNL d   1      -7.181  -3.720  -2.994  0.00  0.00     0.038 A 
ATOM     27  C   UNL d   1      -6.342  -3.170  -2.021  0.00  0.00     0.036 A 
BRANCH  23  28
ATOM     28  N   UNL d   1      -5.042  -6.297  -0.338  0.00  0.00    -0.113 N 
ATOM     29  O   UNL d   1      -5.231  -7.511  -0.491  0.00  0.00    -0.532 OA
ATOM     30  O   UNL d   1      -4.299  -5.808   0.532  0.00  0.00    -0.532 OA
ENDBRANCH  23  28
BRANCH  25  31
ATOM     31  N   UNL d   1      -8.110  -5.688  -4.173  0.00  0.00    -0.116 N 
ATOM     32  O   UNL d   1      -8.137  -6.922  -4.271  0.00  0.00    -0.532 OA
ATOM     33  O   UNL d   1      -8.727  -4.908  -4.913  0.00  0.00    -0.532 OA
ENDBRANCH  25  31
ENDBRANCH  20  22
ENDBRANCH   1  20
TORSDOF 7
