REMARK  8 active torsions:
REMARK  status: ('A' for Active; 'I' for Inactive)
REMARK    1  A    between atoms: C_10  and  C_1 
REMARK    2  A    between atoms: C_5  and  C_6 
REMARK    3  A    between atoms: C_6  and  O_12 
REMARK    4  A    between atoms: O_13  and  C_7 
REMARK    5  A    between atoms: O_22  and  C_10 
REMARK    6  A    between atoms: O_12  and  C_17 
REMARK    7  A    between atoms: C_23  and  O_13 
REMARK    8  A    between atoms: C_26  and  O_22 
ROOT
ATOM      1  O   UNL d   1       3.978  -0.709  -0.255  0.00  0.00    -0.275 OA
ENDROOT
BRANCH   1   2
ATOM      2  C   UNL d   1       5.144   0.032  -0.382  0.00  0.00     0.302 C 
ATOM      3  O   UNL d   1       5.302   1.222  -0.204  0.00  0.00    -0.259 OA
BRANCH   2   4
ATOM      4  C   UNL d   1       6.101  -0.855  -1.070  0.00  0.00     0.091 A 
ATOM      5  C   UNL d   1       6.320  -2.181  -0.719  0.00  0.00     0.164 A 
ATOM      6  N   UNL d   1       7.021  -3.034  -1.514  0.00  0.00    -0.346 N 
ATOM      7  C   UNL d   1       7.588  -2.537  -2.631  0.00  0.00     0.090 A 
ATOM      8  HN  UNL d   1       7.114  -4.020  -1.272  1.00  0.00     0.167 HD
ATOM      9  C   UNL d   1       7.493  -1.211  -3.006  0.00  0.00     0.018 A 
ATOM     10  C   UNL d   1       6.730  -0.357  -2.216  0.00  0.00     0.023 A 
BRANCH   5  11
ATOM     11  O   UNL d   1       5.828  -2.662   0.493  0.00  0.00    -0.293 OA
BRANCH  11  12
ATOM     12  C   UNL d   1       6.447  -3.776   1.030  0.00  0.00     0.077 A 
ATOM     13  C   UNL d   1       7.839  -3.934   1.061  0.00  0.00     0.037 A 
ATOM     14  C   UNL d   1       8.404  -5.109   1.558  0.00  0.00     0.003 A 
ATOM     15  C   UNL d   1       7.585  -6.107   2.078  0.00  0.00     0.000 A 
ATOM     16  C   UNL d   1       6.202  -5.924   2.116  0.00  0.00     0.003 A 
ATOM     17  C   UNL d   1       5.632  -4.757   1.596  0.00  0.00     0.037 A 
ENDBRANCH  11  12
ENDBRANCH   5  11
ENDBRANCH   2   4
ENDBRANCH   1   2
BRANCH   1  18
ATOM     18  C   UNL d   1       2.660  -0.211  -0.146  0.00  0.00     0.082 A 
ATOM     19  C   UNL d   1       1.707  -1.212   0.045  0.00  0.00     0.075 A 
ATOM     20  C   UNL d   1       0.358  -0.884   0.035  0.00  0.00     0.093 A 
ATOM     21  O   UNL d   1      -0.529  -1.922   0.134  0.00  0.00    -0.303 OA
ATOM     22  C   UNL d   1      -0.037   0.443  -0.110  0.00  0.00     0.048 A 
ATOM     23  C   UNL d   1      -1.877  -1.642   0.002  0.00  0.00     0.154 A 
ATOM     24  C   UNL d   1      -2.392  -0.408  -0.082  0.00  0.00     0.099 A 
ATOM     25  C   UNL d   1      -1.477   0.746  -0.087  0.00  0.00     0.187 A 
ATOM     26  O   UNL d   1      -1.905   1.891  -0.082  0.00  0.00    -0.287 OA
ATOM     27  C   UNL d   1       0.919   1.448  -0.296  0.00  0.00     0.021 A 
ATOM     28  C   UNL d   1       2.280   1.116  -0.332  0.00  0.00     0.038 A 
BRANCH  23  29
ATOM     29  C   UNL d   1      -2.829  -2.786   0.017  0.00  0.00     0.317 C 
ATOM     30  O   UNL d   1      -4.045  -2.680  -0.011  0.00  0.00    -0.257 OA
BRANCH  29  31
ATOM     31  O   UNL d   1      -2.127  -3.941   0.149  0.00  0.00    -0.316 OA
BRANCH  31  32
ATOM     32  C   UNL d   1      -2.886  -5.074   0.591  0.00  0.00     0.175 C 
ATOM     33  C   UNL d   1      -2.900  -5.058   2.109  0.00  0.00     0.034 C 
ENDBRANCH  31  32
ENDBRANCH  29  31
ENDBRANCH  23  29
ENDBRANCH   1  18
TORSDOF 8
