REMARK  2 active torsions:
REMARK  status: ('A' for Active; 'I' for Inactive)
REMARK    1  A    between atoms: C_6  and  C_2 
REMARK       I    between atoms: N_13  and  C_6 
REMARK    2  A    between atoms: C_17  and  N_13 
ROOT
ATOM      1  C   UNL d   1      -3.947  -1.538   0.428  0.00  0.00     0.256 C 
ATOM      2  N   UNL d   1      -3.827  -2.811  -0.121  0.00  0.00    -0.323 N 
ATOM      3  O   UNL d   1      -3.130  -1.017   1.181  0.00  0.00    -0.267 OA
ATOM      4  H   UNL d   1      -4.478  -3.095  -0.836  0.00  0.00     0.169 HD
ENDROOT
BRANCH   1   5
ATOM      5  C   UNL d   1      -5.126  -0.703   0.024  0.00  0.00     0.034 A 
ATOM      6  C   UNL d   1      -6.201  -1.216  -0.729  0.00  0.00     0.049 A 
ATOM      7  C   UNL d   1      -7.223  -0.293  -1.068  0.00  0.00     0.067 A 
ATOM      8  C   UNL d   1      -7.165   1.146  -0.622  0.00  0.00     0.067 A 
ATOM      9  N   UNL d   1      -8.314  -0.572  -1.798  0.00  0.00    -0.310 N 
ATOM     10  N   UNL d   1      -8.210   1.872  -1.038  0.00  0.00    -0.310 N 
ATOM     11  C   UNL d   1      -6.087   1.616   0.155  0.00  0.00     0.033 A 
ATOM     12  S   UNL d   1      -9.175   0.845  -1.918  0.00  0.00     0.068 SA
ATOM     13  HN  UNL d   1      -8.380   2.860  -0.852  1.00  0.00     0.176 HD
ATOM     14  C   UNL d   1      -5.093   0.665   0.447  0.00  0.00     0.019 A 
ATOM     15  HN  UNL d   1      -8.566  -1.476  -2.199  1.00  0.00     0.176 HD
ENDBRANCH   1   5
BRANCH   2  16
ATOM     16  C   UNL d   1      -2.717  -3.674   0.062  0.00  0.00     0.037 A 
ATOM     17  C   UNL d   1      -1.744  -3.476   1.043  0.00  0.00     0.069 A 
ATOM     18  C   UNL d   1      -0.593  -4.260   1.065  0.00  0.00     0.104 A 
ATOM     19  O   UNL d   1       0.353  -3.931   2.003  0.00  0.00    -0.346 OA
ATOM     20  C   UNL d   1      -0.428  -5.300   0.150  0.00  0.00     0.102 A 
ATOM     21  C   UNL d   1       1.640  -4.393   1.590  0.00  0.00     0.202 C 
ATOM     22  C   UNL d   1       1.569  -5.863   1.208  0.00  0.00     0.202 C 
ATOM     23  O   UNL d   1       0.696  -6.080   0.091  0.00  0.00    -0.346 OA
ATOM     24  C   UNL d   1      -1.428  -5.556  -0.785  0.00  0.00     0.042 A 
ATOM     25  C   UNL d   1      -2.573  -4.750  -0.825  0.00  0.00     0.032 A 
ENDBRANCH   2  16
TORSDOF 2
