REMARK  6 active torsions:
REMARK  status: ('A' for Active; 'I' for Inactive)
REMARK    1  A    between atoms: C_16  and  C_1 
REMARK    2  A    between atoms: C_2  and  N_14 
REMARK    3  A    between atoms: N_5  and  C_2 
REMARK    4  A    between atoms: O_21  and  C_4 
REMARK    5  A    between atoms: C_6  and  N_5 
REMARK    6  A    between atoms: N_14  and  N_9 
ROOT
ATOM      1  N   UNL d   1      -0.496   6.087   1.050  0.00  0.00    -0.309 N 
ATOM      2  HN  UNL d   1      -0.879   6.970   0.714  1.00  0.00     0.186 HD
ATOM      3  C   UNL d   1      -1.177   5.298   1.819  0.00  0.00     0.121 C 
ENDROOT
BRANCH   1   4
ATOM      4  N   UNL d   1       0.762   5.676   0.712  0.00  0.00    -0.277 N 
ATOM      5  H   UNL d   1       1.098   4.797   1.079  0.00  0.00     0.189 HD
BRANCH   4   6
ATOM      6  C   UNL d   1       1.538   6.403  -0.161  0.00  0.00     0.186 C 
ATOM      7  S   UNL d   1       1.079   7.805  -0.954  0.00  0.00    -0.040 SA
BRANCH   6   8
ATOM      8  N   UNL d   1       2.806   5.947  -0.390  0.00  0.00    -0.361 N 
ATOM      9  H   UNL d   1       3.322   6.538  -1.035  0.00  0.00     0.162 HD
BRANCH   8  10
ATOM     10  C   UNL d   1       3.522   4.868   0.259  0.00  0.00     0.088 C 
ATOM     11  C   UNL d   1       3.147   3.451  -0.227  0.00  0.00     0.009 C 
ATOM     12  C   UNL d   1       4.303   2.647   0.374  0.00  0.00     0.011 C 
ATOM     13  C   UNL d   1       3.408   3.297  -1.740  0.00  0.00     0.007 C 
ATOM     14  C   UNL d   1       5.371   3.446  -0.374  0.00  0.00    -0.012 C 
ATOM     15  C   UNL d   1       5.047   4.903   0.020  0.00  0.00     0.030 C 
ATOM     16  C   UNL d   1       4.939   3.225  -1.830  0.00  0.00     0.005 C 
ENDBRANCH   8  10
ENDBRANCH   6   8
ENDBRANCH   4   6
ENDBRANCH   1   4
BRANCH   3  17
ATOM     17  C   UNL d   1      -2.546   5.665   2.243  0.00  0.00     0.017 A 
ATOM     18  C   UNL d   1      -3.304   4.794   3.031  0.00  0.00     0.099 A 
ATOM     19  C   UNL d   1      -4.602   5.159   3.412  0.00  0.00     0.069 A 
ATOM     20 CL   UNL d   1      -5.557   4.093   4.380  0.00  0.00    -0.081 Cl
ATOM     21  C   UNL d   1      -5.144   6.381   3.018  0.00  0.00     0.050 A 
ATOM     22  C   UNL d   1      -4.378   7.244   2.237  0.00  0.00     0.036 A 
ATOM     23  C   UNL d   1      -3.087   6.895   1.847  0.00  0.00     0.039 A 
ATOM     24 CL   UNL d   1      -5.039   8.757   1.750  0.00  0.00    -0.084 Cl
BRANCH  18  25
ATOM     25  O   UNL d   1      -2.775   3.593   3.426  0.00  0.00    -0.358 OA
ATOM     26  H   UNL d   1      -3.452   3.132   3.960  0.00  0.00     0.217 HD
ENDBRANCH  18  25
ENDBRANCH   3  17
TORSDOF 6
