REMARK  3 active torsions:
REMARK  status: ('A' for Active; 'I' for Inactive)
REMARK    1  A    between atoms: C_8  and  C_3 
REMARK    2  A    between atoms: C_11  and  C_4 
REMARK    3  A    between atoms: C_16  and  C_11 
ROOT
ATOM      1  N   UNL d   1       1.343  -1.105  -0.070  0.00  0.00    -0.297 N 
ATOM      2  HN  UNL d   1       1.902  -1.958  -0.037  1.00  0.00     0.187 HD
ATOM      3  C   UNL d   1       1.898   0.071  -0.018  0.00  0.00     0.066 A 
ATOM      4  C   UNL d   1      -0.228   1.262  -0.113  0.00  0.00     0.018 A 
ATOM      5  N   UNL d   1      -0.020  -1.152  -0.171  0.00  0.00    -0.266 N 
ATOM      6  C   UNL d   1       1.106   1.330  -0.009  0.00  0.00     0.045 A 
ATOM      7  C   UNL d   1      -0.866  -0.075  -0.224  0.00  0.00     0.266 A 
ATOM      8  O   UNL d   1      -2.081  -0.205  -0.338  0.00  0.00    -0.266 OA
ATOM      9  H   UNL d   1      -0.436  -2.075  -0.235  0.00  0.00     0.190 HD
ENDROOT
BRANCH   4  10
ATOM     10  C   UNL d   1      -1.119   2.462   0.020  0.00  0.00     0.083 C 
BRANCH  10  11
ATOM     11  C   UNL d   1      -1.405   3.199  -1.271  0.00  0.00    -0.052 A 
ATOM     12  C   UNL d   1      -0.952   4.517  -1.450  0.00  0.00     0.033 A 
ATOM     13  C   UNL d   1      -1.300   5.246  -2.595  0.00  0.00     0.056 A 
ATOM     14 CL   UNL d   1      -0.732   6.875  -2.711  0.00  0.00    -0.083 Cl
ATOM     15  C   UNL d   1      -2.098   4.658  -3.580  0.00  0.00     0.055 A 
ATOM     16  C   UNL d   1      -2.530   3.339  -3.422  0.00  0.00     0.026 A 
ATOM     17 CL   UNL d   1      -2.602   5.508  -4.997  0.00  0.00    -0.083 Cl
ATOM     18  C   UNL d   1      -2.187   2.616  -2.276  0.00  0.00     0.009 A 
ENDBRANCH  10  11
ENDBRANCH   4  10
BRANCH   3  19
ATOM     19  C   UNL d   1       3.350   0.137   0.084  0.00  0.00     0.033 A 
ATOM     20  S   UNL d   1       4.236   1.471  -0.535  0.00  0.00    -0.100 SA
ATOM     21  C   UNL d   1       5.729   0.805  -0.046  0.00  0.00     0.050 A 
ATOM     22  C   UNL d   1       5.573  -0.419   0.563  0.00  0.00     0.008 A 
ATOM     23  C   UNL d   1       4.204  -0.813   0.620  0.00  0.00     0.021 A 
ENDBRANCH   3  19
TORSDOF 3
