REMARK  6 active torsions:
REMARK  status: ('A' for Active; 'I' for Inactive)
REMARK    1  A    between atoms: C_2  and  C_1 
REMARK    2  A    between atoms: C_5  and  C_2 
REMARK    3  A    between atoms: C_4  and  C_3 
REMARK    4  A    between atoms: O_14  and  C_4 
REMARK    5  A    between atoms: N_8  and  C_6 
REMARK    6  A    between atoms: C_19  and  O_14 
ROOT
ATOM      1  C   UNL d   1       1.403  -0.310   0.124  0.00  0.00     0.031 A 
ATOM      2  C   UNL d   1       0.619  -1.422  -0.220  0.00  0.00     0.053 A 
ATOM      3  C   UNL d   1       0.767   0.934   0.317  0.00  0.00     0.016 A 
ATOM      4  C   UNL d   1      -0.778  -1.275  -0.338  0.00  0.00     0.018 A 
ATOM      5  C   UNL d   1      -0.616   1.070   0.172  0.00  0.00     0.001 A 
ATOM      6  C   UNL d   1      -1.391  -0.038  -0.144  0.00  0.00     0.001 A 
ENDROOT
BRANCH   1   7
ATOM      7  C   UNL d   1       2.854  -0.418   0.455  0.00  0.00     0.193 C 
ATOM      8  O   UNL d   1       3.281  -1.424   1.006  0.00  0.00    -0.287 OA
BRANCH   7   9
ATOM      9  C   UNL d   1       3.761   0.751   0.277  0.00  0.00     0.015 A 
ATOM     10  C   UNL d   1       3.705   1.574  -0.846  0.00  0.00     0.018 A 
ATOM     11  C   UNL d   1       4.465   2.756  -0.890  0.00  0.00     0.030 A 
ATOM     12  C   UNL d   1       5.301   3.153   0.170  0.00  0.00     0.029 A 
ATOM     13  C   UNL d   1       5.380   2.262   1.256  0.00  0.00     0.030 A 
ATOM     14  C   UNL d   1       4.634   1.073   1.312  0.00  0.00     0.018 A 
BRANCH  12  15
ATOM     15  N   UNL d   1       5.950   4.382   0.195  0.00  0.00    -0.390 N 
ATOM     16  C   UNL d   1       7.251   4.533   0.848  0.00  0.00     0.149 C 
ATOM     17  C   UNL d   1       5.638   5.436  -0.767  0.00  0.00     0.149 C 
ENDBRANCH  12  15
ENDBRANCH   7   9
ENDBRANCH   1   7
BRANCH   2  18
ATOM     18  C   UNL d   1       1.129  -2.792  -0.465  0.00  0.00     0.294 C 
ATOM     19  O   UNL d   1       0.486  -3.789  -0.170  0.00  0.00    -0.259 OA
BRANCH  18  20
ATOM     20  O   UNL d   1       2.266  -2.765  -1.200  0.00  0.00    -0.318 OA
BRANCH  20  21
ATOM     21  C   UNL d   1       2.782  -4.055  -1.567  0.00  0.00     0.174 C 
ATOM     22  C   UNL d   1       3.429  -4.765  -0.388  0.00  0.00     0.034 C 
ENDBRANCH  20  21
ENDBRANCH  18  20
ENDBRANCH   2  18
TORSDOF 6
