REMARK  4 active torsions:
REMARK  status: ('A' for Active; 'I' for Inactive)
REMARK    1  A    between atoms: C_3  and  C_1 
REMARK    2  A    between atoms: N_6  and  C_2 
REMARK    3  A    between atoms: N_7  and  N_6 
REMARK       I    between atoms: C_9  and  N_7 
REMARK    4  A    between atoms: C_12  and  C_9 
ROOT
ATOM      1  N   UNL d   1      -6.410   3.800  -3.368  0.00  0.00    -0.197 NA
ATOM      2  C   UNL d   1      -5.330   3.649  -2.959  0.00  0.00     0.068 C 
ATOM      3  C   UNL d   1      -3.982   3.504  -2.392  0.00  0.00     0.227 C 
ENDROOT
BRANCH   3   4
ATOM      4  C   UNL d   1      -3.513   2.081  -2.632  0.00  0.00     0.245 C 
ATOM      5  N   UNL d   1      -3.593   1.258  -1.518  0.00  0.00    -0.283 N 
ATOM      6  H   UNL d   1      -3.755   1.602  -0.578  0.00  0.00     0.184 HD
ATOM      7  O   UNL d   1      -3.151   1.713  -3.747  0.00  0.00    -0.271 OA
BRANCH   5   8
ATOM      8  N   UNL d   1      -3.740  -0.153  -1.718  0.00  0.00    -0.182 NA
ATOM      9  C   UNL d   1      -4.679  -0.753  -0.755  0.00  0.00     0.144 C 
BRANCH   8  10
ATOM     10  C   UNL d   1      -2.509  -0.865  -1.743  0.00  0.00     0.115 A 
ATOM     11  C   UNL d   1      -2.437  -2.163  -2.281  0.00  0.00     0.089 A 
ATOM     12  C   UNL d   1      -1.238  -2.890  -2.135  0.00  0.00     0.044 A 
ATOM     13  C   UNL d   1      -0.148  -2.316  -1.503  0.00  0.00     0.050 A 
ATOM     14  C   UNL d   1      -0.275  -1.015  -1.065  0.00  0.00     0.113 A 
ATOM     15 CL   UNL d   1       1.293  -3.210  -1.260  0.00  0.00    -0.083 Cl
ATOM     16  N   UNL d   1      -1.421  -0.292  -1.159  0.00  0.00    -0.353 N 
ATOM     17  HN  UNL d   1      -1.465   0.662  -0.799  1.00  0.00     0.166 HD
BRANCH  11  18
ATOM     18  C   UNL d   1      -3.562  -2.864  -2.992  0.00  0.00     0.420 C 
ATOM     19  F   UNL d   1      -4.748  -2.208  -3.079  0.00  0.00    -0.166 F 
ATOM     20  F   UNL d   1      -3.235  -3.214  -4.268  0.00  0.00    -0.166 F 
ATOM     21  F   UNL d   1      -3.861  -4.045  -2.368  0.00  0.00    -0.166 F 
ENDBRANCH  11  18
ENDBRANCH   8  10
ENDBRANCH   5   8
ENDBRANCH   3   4
TORSDOF 4
