REMARK  14 active torsions:
REMARK  status: ('A' for Active; 'I' for Inactive)
REMARK    1  A    between atoms: C_6  and  S_1 
REMARK    2  A    between atoms: N_7  and  S_1 
REMARK    3  A    between atoms: O_23  and  C_2 
REMARK    4  A    between atoms: C_3  and  C_13 
REMARK       I    between atoms: N_8  and  C_3 
REMARK    5  A    between atoms: O_25  and  C_4 
REMARK    6  A    between atoms: O_26  and  C_5 
REMARK    7  A    between atoms: C_28  and  N_7 
REMARK    8  A    between atoms: C_29  and  N_7 
REMARK    9  A    between atoms: N_12  and  N_8 
REMARK       I    between atoms: C_11  and  N_12 
REMARK   10  A    between atoms: C_24  and  C_11 
REMARK   11  A    between atoms: C_16  and  C_27 
REMARK   12  A    between atoms: C_27  and  C_24 
REMARK   13  A    between atoms: C_33  and  C_28 
REMARK   14  A    between atoms: C_34  and  C_29 
ROOT
ATOM      1  C   UNL d   1      -0.898   3.022  -4.990  0.00  0.00     0.270 C 
ATOM      2  N   UNL d   1      -0.477   4.330  -5.143  0.00  0.00    -0.263 N 
ATOM      3  O   UNL d   1      -1.623   2.480  -5.818  0.00  0.00    -0.266 OA
ATOM      4  H   UNL d   1       0.201   4.806  -4.556  0.00  0.00     0.190 HD
ENDROOT
BRANCH   2   5
ATOM      5  N   UNL d   1      -0.823   5.005  -6.319  0.00  0.00    -0.267 N 
ATOM      6  C   UNL d   1      -0.082   6.122  -6.648  0.00  0.00     0.236 C 
ATOM      7  O   UNL d   1       0.746   6.614  -5.883  0.00  0.00    -0.272 OA
ATOM      8  H   UNL d   1      -1.371   4.476  -6.996  0.00  0.00     0.190 HD
BRANCH   6   9
ATOM      9  C   UNL d   1      -0.429   6.691  -8.002  0.00  0.00     0.109 C 
BRANCH   9  10
ATOM     10  C   UNL d   1       0.630   7.683  -8.474  0.00  0.00     0.048 C 
BRANCH  10  11
ATOM     11  C   UNL d   1       0.263   8.281  -9.807  0.00  0.00    -0.052 A 
ATOM     12  C   UNL d   1      -0.495   9.449  -9.876  0.00  0.00     0.047 A 
ATOM     13  C   UNL d   1      -0.853  10.016 -11.112  0.00  0.00     0.104 A 
ATOM     14  C   UNL d   1      -0.467   9.389 -12.321  0.00  0.00     0.135 A 
ATOM     15  C   UNL d   1       0.252   8.175 -12.247  0.00  0.00     0.104 A 
ATOM     16  C   UNL d   1       0.617   7.649 -10.996  0.00  0.00     0.047 A 
BRANCH  13  17
ATOM     17  O   UNL d   1      -1.657  11.132 -11.148  0.00  0.00    -0.353 OA
ATOM     18  C   UNL d   1      -1.439  12.084 -10.107  0.00  0.00     0.210 C 
ENDBRANCH  13  17
BRANCH  14  19
ATOM     19  O   UNL d   1      -0.731   9.853 -13.582  0.00  0.00    -0.351 OA
ATOM     20  C   UNL d   1      -1.235  11.163 -13.787  0.00  0.00     0.210 C 
ENDBRANCH  14  19
BRANCH  15  21
ATOM     21  O   UNL d   1       0.676   7.347 -13.257  0.00  0.00    -0.353 OA
ATOM     22  C   UNL d   1       0.467   7.695 -14.614  0.00  0.00     0.210 C 
ENDBRANCH  15  21
ENDBRANCH  10  11
ENDBRANCH   9  10
ENDBRANCH   6   9
ENDBRANCH   2   5
BRANCH   1  23
ATOM     23  C   UNL d   1      -0.413   2.280  -3.785  0.00  0.00     0.033 A 
ATOM     24  C   UNL d   1       0.430   2.853  -2.820  0.00  0.00     0.018 A 
ATOM     25  C   UNL d   1       0.876   2.096  -1.732  0.00  0.00     0.026 A 
ATOM     26  C   UNL d   1       0.498   0.755  -1.615  0.00  0.00     0.074 A 
ATOM     27  C   UNL d   1      -0.372   0.181  -2.541  0.00  0.00     0.026 A 
ATOM     28  C   UNL d   1      -0.822   0.945  -3.624  0.00  0.00     0.018 A 
BRANCH  26  29
ATOM     29  S   UNL d   1       1.060  -0.189  -0.215  0.00  0.00     0.243 S 
ATOM     30  O   UNL d   1      -0.013  -1.101   0.125  0.00  0.00    -0.206 OA
ATOM     31  O   UNL d   1       1.572   0.747   0.764  0.00  0.00    -0.206 OA
BRANCH  29  32
ATOM     32  N   UNL d   1       2.419  -1.098  -0.815  0.00  0.00    -0.206 NA
BRANCH  32  33
ATOM     33  C   UNL d   1       3.470  -0.218  -1.440  0.00  0.00     0.107 C 
BRANCH  33  34
ATOM     34  C   UNL d   1       4.671  -0.956  -2.042  0.00  0.00     0.011 C 
ATOM     35  C   UNL d   1       4.300  -2.028  -3.053  0.00  0.00     0.006 C 
ENDBRANCH  33  34
ENDBRANCH  32  33
BRANCH  32  36
ATOM     36  C   UNL d   1       2.991  -2.004   0.244  0.00  0.00     0.107 C 
BRANCH  36  37
ATOM     37  C   UNL d   1       2.105  -3.204   0.578  0.00  0.00     0.011 C 
ATOM     38  C   UNL d   1       1.710  -4.023  -0.640  0.00  0.00     0.006 C 
ENDBRANCH  36  37
ENDBRANCH  32  36
ENDBRANCH  29  32
ENDBRANCH  26  29
ENDBRANCH   1  23
TORSDOF 14
