REMARK  5 active torsions:
REMARK  status: ('A' for Active; 'I' for Inactive)
REMARK    1  A    between atoms: C_14  and  N_1 
REMARK    2  A    between atoms: C_5  and  C_2 
REMARK    3  A    between atoms: C_7  and  C_3 
REMARK    4  A    between atoms: O_13  and  C_5 
REMARK    5  A    between atoms: O_18  and  C_15 
ROOT
ATOM      1  N   UNL d   1      -0.419   1.042  -0.011  0.00  0.00    -0.343 N 
ATOM      2  C   UNL d   1       1.822  -0.071  -0.516  0.00  0.00     0.111 C 
ATOM      3  C   UNL d   1       1.045   1.207  -0.140  0.00  0.00     0.134 C 
ATOM      4  C   UNL d   1      -1.000  -0.183   0.301  0.00  0.00     0.220 C 
ATOM      5  C   UNL d   1       1.326  -1.223   0.348  0.00  0.00     0.027 C 
ATOM      6  C   UNL d   1      -0.160  -1.437   0.136  0.00  0.00     0.104 C 
ATOM      7  O   UNL d   1      -2.183  -0.304   0.634  0.00  0.00    -0.273 OA
ENDROOT
BRANCH   3   8
ATOM      8  C   UNL d   1       1.492   2.402  -0.976  0.00  0.00    -0.034 A 
ATOM      9  C   UNL d   1       0.899   2.678  -2.216  0.00  0.00     0.012 A 
ATOM     10  C   UNL d   1       1.311   3.761  -2.989  0.00  0.00     0.037 A 
ATOM     11  C   UNL d   1       2.347   4.580  -2.549  0.00  0.00     0.068 A 
ATOM     12  C   UNL d   1       2.936   4.331  -1.309  0.00  0.00     0.037 A 
ATOM     13  C   UNL d   1       2.519   3.244  -0.530  0.00  0.00     0.012 A 
BRANCH  11  14
ATOM     14  O   UNL d   1       2.834   5.659  -3.235  0.00  0.00    -0.356 OA
ATOM     15  C   UNL d   1       2.674   5.593  -4.650  0.00  0.00     0.210 C 
ENDBRANCH  11  14
ENDBRANCH   3   8
BRANCH   2  16
ATOM     16  C   UNL d   1       1.738  -0.480  -1.981  0.00  0.00     0.146 C 
ATOM     17  O   UNL d   1       0.774  -0.317  -2.709  0.00  0.00    -0.650 OA
BRANCH  16  18
ATOM     18  O   UNL d   1       2.828  -1.166  -2.400  0.00  0.00    -0.776 OA
ATOM     19  H   UNL d   1       3.521  -1.305  -1.728  0.00  0.00     0.167 HD
ENDBRANCH  16  18
ENDBRANCH   2  16
BRANCH   1  20
ATOM     20  C   UNL d   1      -1.255   2.238   0.216  0.00  0.00     0.122 C 
ATOM     21  C   UNL d   1      -0.949   2.960   1.520  0.00  0.00     0.026 C 
ENDBRANCH   1  20
TORSDOF 5
