REMARK  6 active torsions:
REMARK  status: ('A' for Active; 'I' for Inactive)
REMARK    1  A    between atoms: C_3  and  C_1 
REMARK    2  A    between atoms: O_13  and  C_1 
REMARK       I    between atoms: C_2  and  N_7 
REMARK    3  A    between atoms: C_4  and  C_2 
REMARK    4  A    between atoms: C_5  and  C_6 
REMARK    5  A    between atoms: O_14  and  C_5 
REMARK    6  A    between atoms: N_7  and  C_9 
ROOT
ATOM      1  C   UNL d   1       0.260   0.710  -1.453  0.00  0.00     0.039 A 
ATOM      2  C   UNL d   1       0.826  -0.055  -2.478  0.00  0.00     0.048 A 
ATOM      3  C   UNL d   1       0.066  -0.426  -3.587  0.00  0.00     0.035 A 
ATOM      4  C   UNL d   1      -1.034   1.218  -1.597  0.00  0.00     0.018 A 
ATOM      5  C   UNL d   1      -1.766   0.930  -2.748  0.00  0.00     0.003 A 
ATOM      6  C   UNL d   1      -1.223   0.101  -3.734  0.00  0.00     0.029 A 
ENDROOT
BRANCH   3   7
ATOM      7  N   UNL d   1       0.522  -1.347  -4.554  0.00  0.00    -0.324 N 
ATOM      8  C   UNL d   1       1.654  -2.131  -4.449  0.00  0.00     0.245 C 
ATOM      9  O   UNL d   1       2.455  -2.147  -3.521  0.00  0.00    -0.268 OA
ATOM     10  H   UNL d   1      -0.097  -1.512  -5.338  0.00  0.00     0.169 HD
BRANCH   8  11
ATOM     11  C   UNL d   1       1.839  -3.022  -5.620  0.00  0.00     0.081 C 
ATOM     12  C   UNL d   1       2.967  -3.740  -5.702  0.00  0.00     0.086 C 
BRANCH  12  13
ATOM     13  C   UNL d   1       3.219  -4.535  -6.901  0.00  0.00     0.165 C 
ATOM     14  O   UNL d   1       2.451  -4.718  -7.832  0.00  0.00    -0.647 OA
BRANCH  13  15
ATOM     15  O   UNL d   1       4.467  -5.016  -6.886  0.00  0.00    -0.773 OA
ATOM     16  H   UNL d   1       4.568  -5.474  -7.746  0.00  0.00     0.167 HD
ENDBRANCH  13  15
ENDBRANCH  12  13
ENDBRANCH   8  11
ENDBRANCH   3   7
BRANCH   1  17
ATOM     17  C   UNL d   1       1.004   0.977  -0.200  0.00  0.00     0.176 C 
ATOM     18  O   UNL d   1       0.829   1.982   0.467  0.00  0.00    -0.646 OA
BRANCH  17  19
ATOM     19  O   UNL d   1       1.832  -0.024   0.169  0.00  0.00    -0.773 OA
ATOM     20  H   UNL d   1       1.795  -0.834  -0.373  0.00  0.00     0.167 HD
ENDBRANCH  17  19
ENDBRANCH   1  17
TORSDOF 6
