REMARK  6 active torsions:
REMARK  status: ('A' for Active; 'I' for Inactive)
REMARK    1  A    between atoms: C_10  and  C_3 
REMARK    2  A    between atoms: C_12  and  C_5 
REMARK    3  A    between atoms: C_9  and  C_17 
REMARK       I    between atoms: N_11  and  C_9 
REMARK    4  A    between atoms: C_19  and  N_11 
REMARK    5  A    between atoms: O_16  and  C_18 
REMARK    6  A    between atoms: C_17  and  O_16 
ROOT
ATOM      1  N   UNL d   1      -0.892   1.400  -0.583  0.00  0.00    -0.357 N 
ATOM      2  HN  UNL d   1      -0.790   2.160  -1.255  1.00  0.00     0.166 HD
ATOM      3  C   UNL d   1      -2.051   1.177  -0.043  0.00  0.00     0.021 C 
ATOM      4  N   UNL d   1      -0.867  -1.628  -0.426  0.00  0.00    -0.282 NA
ATOM      5  C   UNL d   1      -2.173  -1.321   0.169  0.00  0.00     0.099 C 
ATOM      6  C   UNL d   1      -2.301   0.018   0.899  0.00  0.00     0.082 C 
ATOM      7  C   UNL d   1       0.231   0.606  -0.254  0.00  0.00     0.053 A 
ATOM      8  C   UNL d   1       0.237  -0.804  -0.163  0.00  0.00     0.035 A 
ATOM      9  C   UNL d   1       1.435   1.301  -0.055  0.00  0.00     0.031 A 
ATOM     10  C   UNL d   1       1.462  -1.464   0.043  0.00  0.00     0.026 A 
ATOM     11  C   UNL d   1       2.648  -0.758   0.242  0.00  0.00     0.002 A 
ATOM     12  C   UNL d   1       2.632   0.630   0.204  0.00  0.00     0.002 A 
ATOM     13  H   UNL d   1      -0.925  -1.779  -1.431  0.00  0.00     0.128 HD
ENDROOT
BRANCH   3  14
ATOM     14  C   UNL d   1      -3.188   2.104  -0.368  0.00  0.00    -0.013 A 
ATOM     15  C   UNL d   1      -3.225   2.730  -1.620  0.00  0.00     0.016 A 
ATOM     16  C   UNL d   1      -4.275   3.600  -1.954  0.00  0.00     0.037 A 
ATOM     17  C   UNL d   1      -5.296   3.859  -1.036  0.00  0.00     0.069 A 
ATOM     18  C   UNL d   1      -5.237   3.269   0.227  0.00  0.00     0.037 A 
ATOM     19  C   UNL d   1      -4.193   2.395   0.560  0.00  0.00     0.016 A 
BRANCH  17  20
ATOM     20  O   UNL d   1      -6.361   4.701  -1.252  0.00  0.00    -0.342 OA
BRANCH  20  21
ATOM     21  C   UNL d   1      -6.840   4.695  -2.592  0.00  0.00     0.278 C 
BRANCH  21  22
ATOM     22  C   UNL d   1      -8.154   5.453  -2.821  0.00  0.00     0.246 C 
ATOM     23  N   UNL d   1      -8.597   6.195  -1.739  0.00  0.00    -0.325 N 
ATOM     24  H   UNL d   1      -7.976   6.219  -0.936  0.00  0.00     0.169 HD
ATOM     25  O   UNL d   1      -8.692   5.398  -3.927  0.00  0.00    -0.271 OA
BRANCH  23  26
ATOM     26  C   UNL d   1      -9.757   7.003  -1.690  0.00  0.00     0.034 A 
ATOM     27  C   UNL d   1     -10.755   6.980  -2.670  0.00  0.00     0.029 A 
ATOM     28  C   UNL d   1     -11.862   7.833  -2.589  0.00  0.00     0.002 A 
ATOM     29  C   UNL d   1     -11.986   8.718  -1.523  0.00  0.00     0.000 A 
ATOM     30  C   UNL d   1     -11.013   8.736  -0.528  0.00  0.00     0.002 A 
ATOM     31  C   UNL d   1      -9.911   7.875  -0.608  0.00  0.00     0.029 A 
ENDBRANCH  23  26
ENDBRANCH  21  22
ENDBRANCH  20  21
ENDBRANCH  17  20
ENDBRANCH   3  14
BRANCH   5  32
ATOM     32  C   UNL d   1      -3.306  -1.552  -0.827  0.00  0.00    -0.040 A 
ATOM     33  C   UNL d   1      -3.247  -1.083  -2.151  0.00  0.00     0.009 A 
ATOM     34  C   UNL d   1      -4.309  -1.298  -3.031  0.00  0.00     0.001 A 
ATOM     35  C   UNL d   1      -5.451  -1.966  -2.598  0.00  0.00     0.000 A 
ATOM     36  C   UNL d   1      -5.534  -2.424  -1.286  0.00  0.00     0.001 A 
ATOM     37  C   UNL d   1      -4.469  -2.219  -0.406  0.00  0.00     0.009 A 
ENDBRANCH   5  32
TORSDOF 6
