REMARK  5 active torsions:
REMARK  status: ('A' for Active; 'I' for Inactive)
REMARK    1  A    between atoms: C_2  and  C_7 
REMARK    2  A    between atoms: C_3  and  C_8 
REMARK    3  A    between atoms: C_14  and  C_4 
REMARK    4  A    between atoms: N_12  and  C_27 
REMARK    5  A    between atoms: C_17  and  C_18 
ROOT
ATOM      1  N   UNL d   1       5.787  -4.182  -0.101  0.00  0.00    -0.365 N 
ATOM      2  HN  UNL d   1       6.420  -4.094   0.694  1.00  0.00     0.165 HD
ATOM      3  C   UNL d   1       6.054  -5.024  -1.046  0.00  0.00     0.099 C 
ENDROOT
BRANCH   3   4
ATOM      4  C   UNL d   1       7.222  -5.926  -0.945  0.00  0.00    -0.019 A 
ATOM      5  C   UNL d   1       7.962  -5.982   0.240  0.00  0.00     0.029 A 
ATOM      6  C   UNL d   1       9.029  -6.882   0.372  0.00  0.00     0.049 A 
ATOM      7  C   UNL d   1       9.356  -7.710  -0.715  0.00  0.00     0.032 A 
ATOM      8  C   UNL d   1       8.623  -7.657  -1.915  0.00  0.00     0.049 A 
ATOM      9  C   UNL d   1       7.548  -6.757  -2.020  0.00  0.00     0.029 A 
BRANCH   6  10
ATOM     10  C   UNL d   1       9.781  -6.959   1.680  0.00  0.00     0.417 C 
ATOM     11  F   UNL d   1      10.758  -7.909   1.685  0.00  0.00    -0.166 F 
ATOM     12  F   UNL d   1      10.395  -5.788   2.000  0.00  0.00    -0.166 F 
ATOM     13  F   UNL d   1       8.966  -7.258   2.728  0.00  0.00    -0.166 F 
ENDBRANCH   6  10
BRANCH   8  14
ATOM     14  C   UNL d   1       8.962  -8.566  -3.075  0.00  0.00     0.417 C 
ATOM     15  F   UNL d   1      10.032  -9.373  -2.839  0.00  0.00    -0.166 F 
ATOM     16  F   UNL d   1       7.931  -9.393  -3.398  0.00  0.00    -0.166 F 
ATOM     17  F   UNL d   1       9.256  -7.872  -4.208  0.00  0.00    -0.166 F 
ENDBRANCH   8  14
ENDBRANCH   3   4
BRANCH   1  18
ATOM     18  C   UNL d   1       4.633  -3.388  -0.167  0.00  0.00     0.031 A 
ATOM     19  C   UNL d   1       3.958  -3.145   1.033  0.00  0.00     0.030 A 
ATOM     20  C   UNL d   1       2.803  -2.356   1.071  0.00  0.00     0.016 A 
ATOM     21  C   UNL d   1       2.299  -1.788  -0.104  0.00  0.00    -0.008 A 
ATOM     22  C   UNL d   1       2.980  -2.017  -1.306  0.00  0.00     0.016 A 
ATOM     23  C   UNL d   1       4.144  -2.797  -1.334  0.00  0.00     0.030 A 
BRANCH  21  24
ATOM     24  C   UNL d   1       1.082  -0.984  -0.104  0.00  0.00     0.063 A 
ATOM     25  N   UNL d   1       0.257  -0.931  -1.224  0.00  0.00    -0.292 N 
ATOM     26  N   UNL d   1      -0.799  -0.161  -1.026  0.00  0.00    -0.061 NA
ATOM     27  HN  UNL d   1       0.445  -1.428  -2.094  1.00  0.00     0.183 HD
ATOM     28  S   UNL d   1      -0.821   0.533   0.494  0.00  0.00    -0.010 SA
ATOM     29  C   UNL d   1       0.651  -0.214   0.963  0.00  0.00     0.096 A 
ENDBRANCH  21  24
ENDBRANCH   1  18
TORSDOF 5
