REMARK  2 active torsions:
REMARK  status: ('A' for Active; 'I' for Inactive)
REMARK    1  A    between atoms: C_8  and  N_1 
REMARK    2  A    between atoms: C_10  and  C_5 
ROOT
ATOM      1  N   UNL d   1       0.991  -0.118  -0.061  0.00  0.00    -0.365 N 
ATOM      2  HN  UNL d   1       0.531   0.775  -0.241  1.00  0.00     0.165 HD
ATOM      3  C   UNL d   1       0.290  -1.187   0.143  0.00  0.00     0.099 C 
ENDROOT
BRANCH   1   4
ATOM      4  C   UNL d   1       2.395  -0.201  -0.033  0.00  0.00     0.034 A 
ATOM      5  C   UNL d   1       3.110  -0.977   0.885  0.00  0.00     0.071 A 
ATOM      6  C   UNL d   1       4.502  -0.987   0.855  0.00  0.00     0.118 A 
ATOM      7  F   UNL d   1       5.170  -1.751   1.729  0.00  0.00    -0.206 F 
ATOM      8  C   UNL d   1       5.211  -0.218  -0.059  0.00  0.00     0.042 A 
ATOM      9  C   UNL d   1       4.513   0.580  -0.961  0.00  0.00     0.005 A 
ATOM     10  C   UNL d   1       3.114   0.586  -0.943  0.00  0.00     0.029 A 
ENDBRANCH   1   4
BRANCH   3  11
ATOM     11  C   UNL d   1      -1.187  -1.169   0.114  0.00  0.00    -0.019 A 
ATOM     12  C   UNL d   1      -1.888  -0.013  -0.244  0.00  0.00     0.038 A 
ATOM     13  C   UNL d   1      -3.287  -0.030  -0.274  0.00  0.00     0.056 A 
ATOM     14 CL   UNL d   1      -4.100   1.423  -0.738  0.00  0.00    -0.083 Cl
ATOM     15  C   UNL d   1      -3.981  -1.200   0.060  0.00  0.00     0.055 A 
ATOM     16  C   UNL d   1      -3.272  -2.352   0.419  0.00  0.00     0.026 A 
ATOM     17 CL   UNL d   1      -5.706  -1.293   0.049  0.00  0.00    -0.083 Cl
ATOM     18  C   UNL d   1      -1.876  -2.339   0.444  0.00  0.00     0.014 A 
ENDBRANCH   3  11
TORSDOF 2
