REMARK  3 active torsions:
REMARK  status: ('A' for Active; 'I' for Inactive)
REMARK    1  A    between atoms: C_2  and  C_1 
REMARK       I    between atoms: N_3  and  C_1 
REMARK    2  A    between atoms: C_4  and  C_10 
REMARK    3  A    between atoms: C_12  and  C_4 
ROOT
ATOM      1  C   UNL d   1       0.701  -0.251  -0.064  0.00  0.00     0.260 C 
ATOM      2  N   UNL d   1       0.123   0.407  -1.150  0.00  0.00    -0.348 N 
ATOM      3  O   UNL d   1       1.577  -1.105  -0.193  0.00  0.00    -0.267 OA
ATOM      4  C   UNL d   1       0.564   0.078  -2.501  0.00  0.00     0.127 C 
ATOM      5  C   UNL d   1      -0.939   1.409  -1.109  0.00  0.00     0.127 C 
ATOM      6  C   UNL d   1      -1.844   0.408  -3.288  0.00  0.00     0.064 C 
ATOM      7  C   UNL d   1      -2.168   0.883  -1.856  0.00  0.00     0.032 C 
ATOM      8  C   UNL d   1      -0.597  -0.491  -3.315  0.00  0.00     0.032 C 
ENDROOT
BRANCH   1   9
ATOM      9  C   UNL d   1       0.287   0.068   1.312  0.00  0.00     0.109 A 
ATOM     10  C   UNL d   1      -1.032  -0.067   1.738  0.00  0.00     0.135 A 
ATOM     11  F   UNL d   1      -1.988  -0.495   0.903  0.00  0.00    -0.205 F 
ATOM     12  C   UNL d   1      -1.401   0.248   3.047  0.00  0.00     0.043 A 
ATOM     13  C   UNL d   1      -0.432   0.645   3.966  0.00  0.00     0.006 A 
ATOM     14  C   UNL d   1       0.902   0.721   3.568  0.00  0.00     0.043 A 
ATOM     15  C   UNL d   1       1.254   0.436   2.247  0.00  0.00     0.135 A 
ATOM     16  F   UNL d   1       2.545   0.543   1.902  0.00  0.00    -0.205 F 
ENDBRANCH   1   9
BRANCH   6  17
ATOM     17  C   UNL d   1      -1.705   1.601  -4.234  0.00  0.00     0.163 C 
ATOM     18  O   UNL d   1      -1.388   2.716  -3.817  0.00  0.00    -0.292 OA
BRANCH  17  19
ATOM     19  C   UNL d   1      -1.963   1.439  -5.701  0.00  0.00     0.010 A 
ATOM     20  C   UNL d   1      -2.264   0.209  -6.298  0.00  0.00     0.015 A 
ATOM     21  C   UNL d   1      -2.499   0.135  -7.674  0.00  0.00     0.001 A 
ATOM     22  C   UNL d   1      -2.440   1.284  -8.463  0.00  0.00     0.000 A 
ATOM     23  C   UNL d   1      -2.141   2.513  -7.876  0.00  0.00     0.001 A 
ATOM     24  C   UNL d   1      -1.907   2.588  -6.505  0.00  0.00     0.015 A 
ENDBRANCH  17  19
ENDBRANCH   6  17
TORSDOF 3
