REMARK  1 active torsions:
REMARK  status: ('A' for Active; 'I' for Inactive)
REMARK    1  A    between atoms: C_2  and  N_1 
REMARK       I    between atoms: C_3  and  N_1 
ROOT
ATOM      1  C   UNL d   1       0.293   0.036   1.258  0.00  0.00     0.040 A 
ATOM      2  C   UNL d   1       0.656   0.569   2.508  0.00  0.00    -0.034 A 
ATOM      3  C   UNL d   1      -0.127   0.258   3.635  0.00  0.00     0.032 A 
ATOM      4  C   UNL d   1      -0.829  -0.800   1.156  0.00  0.00     0.032 A 
ATOM      5  C   UNL d   1      -1.244  -0.568   3.518  0.00  0.00     0.034 A 
ATOM      6  C   UNL d   1      -1.596  -1.101   2.284  0.00  0.00     0.026 A 
ATOM      7 CL   UNL d   1      -2.188  -0.930   4.909  0.00  0.00    -0.084 Cl
ATOM      8  C   UNL d   1       1.821   1.503   2.701  0.00  0.00     0.050 C 
ENDROOT
BRANCH   1   9
ATOM      9  N   UNL d   1       1.102   0.285   0.140  0.00  0.00    -0.327 N 
ATOM     10  C   UNL d   1       0.749   0.517  -1.159  0.00  0.00     0.218 C 
ATOM     11  O   UNL d   1       1.621   0.530  -2.028  0.00  0.00    -0.274 OA
ATOM     12  C   UNL d   1      -0.679   0.861  -1.494  0.00  0.00     0.117 C 
ATOM     13  H   UNL d   1       2.102   0.353   0.289  0.00  0.00     0.169 HD
ENDBRANCH   1   9
TORSDOF 1
