REMARK  5 active torsions:
REMARK  status: ('A' for Active; 'I' for Inactive)
REMARK    1  A    between atoms: C_5  and  C_1 
REMARK    2  A    between atoms: O_16  and  C_4 
REMARK    3  A    between atoms: N_22  and  C_6 
REMARK    4  A    between atoms: C_9  and  C_14 
REMARK    5  A    between atoms: C_24  and  O_16 
ROOT
ATOM      1  C   UNL d   1      -4.527   0.117  -3.689  0.00  0.00    -0.009 A 
ATOM      2  C   UNL d   1      -3.824   1.013  -4.515  0.00  0.00     0.016 A 
ATOM      3  C   UNL d   1      -4.397   0.297  -2.298  0.00  0.00     0.016 A 
ATOM      4  C   UNL d   1      -2.943   2.213  -2.605  0.00  0.00     0.077 A 
ATOM      5  C   UNL d   1      -3.015   2.024  -3.984  0.00  0.00     0.038 A 
ATOM      6  C   UNL d   1      -3.614   1.330  -1.762  0.00  0.00     0.038 A 
ENDROOT
BRANCH   4   7
ATOM      7  O   UNL d   1      -2.207   3.206  -1.995  0.00  0.00    -0.294 OA
BRANCH   7   8
ATOM      8  C   UNL d   1      -2.046   4.414  -2.642  0.00  0.00     0.149 A 
ATOM      9  C   UNL d   1      -3.075   5.032  -3.339  0.00  0.00     0.072 A 
ATOM     10  C   UNL d   1      -2.809   6.218  -4.026  0.00  0.00     0.053 A 
ATOM     11  C   UNL d   1      -1.538   6.789  -3.903  0.00  0.00     0.041 A 
ATOM     12  C   UNL d   1      -0.583   6.149  -3.121  0.00  0.00     0.008 A 
ATOM     13  N   UNL d   1      -0.821   4.968  -2.505  0.00  0.00    -0.341 N 
ATOM     14  C   UNL d   1       0.772   6.766  -2.936  0.00  0.00     0.068 C 
ATOM     15  HN  UNL d   1      -0.097   4.509  -1.953  1.00  0.00     0.167 HD
BRANCH  10  16
ATOM     16  C   UNL d   1      -3.850   6.860  -4.901  0.00  0.00     0.417 C 
ATOM     17  F   UNL d   1      -4.999   6.136  -4.998  0.00  0.00    -0.166 F 
ATOM     18  F   UNL d   1      -3.413   7.033  -6.179  0.00  0.00    -0.166 F 
ATOM     19  F   UNL d   1      -4.217   8.094  -4.459  0.00  0.00    -0.166 F 
ENDBRANCH  10  16
ENDBRANCH   7   8
ENDBRANCH   4   7
BRANCH   1  20
ATOM     20  C   UNL d   1      -5.352  -0.977  -4.252  0.00  0.00     0.046 A 
ATOM     21  N   UNL d   1      -6.367  -1.425  -3.472  0.00  0.00    -0.332 N 
ATOM     22  C   UNL d   1      -7.123  -2.415  -3.952  0.00  0.00     0.155 A 
ATOM     23  HN  UNL d   1      -6.545  -1.020  -2.553  1.00  0.00     0.168 HD
ATOM     24  N   UNL d   1      -6.981  -2.974  -5.155  0.00  0.00    -0.343 N 
ATOM     25  C   UNL d   1      -5.968  -2.520  -5.905  0.00  0.00     0.093 A 
ATOM     26  HN  UNL d   1      -7.609  -3.707  -5.486  1.00  0.00     0.167 HD
ATOM     27  C   UNL d   1      -5.116  -1.524  -5.500  0.00  0.00     0.047 A 
BRANCH  22  28
ATOM     28  N   UNL d   1      -8.167  -2.867  -3.171  0.00  0.00    -0.274 NA
ATOM     29  H   UNL d   1      -8.460  -2.136  -2.540  0.00  0.00     0.127 HD
ATOM     30  H   UNL d   1      -8.873  -3.278  -3.766  0.00  0.00     0.127 HD
ENDBRANCH  22  28
ENDBRANCH   1  20
TORSDOF 5
