REMARK  2 active torsions:
REMARK  status: ('A' for Active; 'I' for Inactive)
REMARK    1  A    between atoms: C_7  and  C_1 
REMARK    2  A    between atoms: O_15  and  C_7 
ROOT
ATOM      1  C   UNL d   1       2.452  -0.704  -0.001  0.00  0.00     0.114 A 
ATOM      2  C   UNL d   1       2.445   0.767  -0.003  0.00  0.00     0.305 A 
ATOM      3  O   UNL d   1       1.216   1.409  -0.004  0.00  0.00    -0.272 OA
ATOM      4  C   UNL d   1       1.298  -1.391  -0.001  0.00  0.00     0.039 A 
ATOM      5  C   UNL d   1       0.018  -0.698  -0.001  0.00  0.00     0.002 A 
ATOM      6  C   UNL d   1       0.000   0.695  -0.002  0.00  0.00     0.107 A 
ATOM      7  C   UNL d   1      -1.206   1.402  -0.002  0.00  0.00     0.047 A 
ATOM      8  C   UNL d   1      -2.413   0.705  -0.000  0.00  0.00     0.046 A 
ATOM      9  C   UNL d   1      -1.193  -1.395   0.000  0.00  0.00     0.038 A 
ATOM     10  O   UNL d   1       3.503   1.394  -0.004  0.00  0.00    -0.259 OA
ATOM     11  C   UNL d   1      -2.400  -0.690   0.001  0.00  0.00     0.036 A 
ATOM     12 BR   UNL d   1      -1.246   3.295  -0.003  0.00  0.00    -0.048 Br
ATOM     13 CL   UNL d   1      -3.888  -1.554   0.003  0.00  0.00    -0.084 Cl
ENDROOT
BRANCH   1  14
ATOM     14  C   UNL d   1       3.711  -1.487   0.000  0.00  0.00     0.182 C 
ATOM     15  O   UNL d   1       3.732  -2.711   0.003  0.00  0.00    -0.646 OA
BRANCH  14  16
ATOM     16  O   UNL d   1       4.849  -0.761  -0.002  0.00  0.00    -0.772 OA
ATOM     17  H   UNL d   1       4.731   0.219  -0.004  0.00  0.00     0.167 HD
ENDBRANCH  14  16
ENDBRANCH   1  14
TORSDOF 2
