REMARK  2 active torsions:
REMARK  status: ('A' for Active; 'I' for Inactive)
REMARK    1  A    between atoms: N_4  and  C_1 
REMARK       I    between atoms: C_7  and  N_4 
REMARK    2  A    between atoms: O_12  and  C_8 
ROOT
ATOM      1  C   UNL d   1      -0.229   0.699   0.063  0.00  0.00     0.078 A 
ATOM      2  C   UNL d   1       1.015   0.039   0.083  0.00  0.00     0.065 A 
ATOM      3  C   UNL d   1      -1.394  -0.087   0.028  0.00  0.00     0.065 A 
ATOM      4  C   UNL d   1       1.096  -1.351   0.018  0.00  0.00     0.063 A 
ATOM      5  C   UNL d   1      -1.308  -1.489  -0.019  0.00  0.00     0.063 A 
ATOM      6  C   UNL d   1      -0.064  -2.119  -0.017  0.00  0.00     0.071 A 
ATOM      7 CL   UNL d   1      -2.982   0.579   0.213  0.00  0.00    -0.082 Cl
ATOM      8 CL   UNL d   1       2.497   0.936   0.152  0.00  0.00    -0.082 Cl
ENDROOT
BRANCH   1   9
ATOM      9  N   UNL d   1      -0.218   2.118   0.132  0.00  0.00    -0.325 N 
ATOM     10  C   UNL d   1      -0.908   2.921  -0.756  0.00  0.00     0.218 C 
ATOM     11  O   UNL d   1      -1.610   2.529  -1.683  0.00  0.00    -0.274 OA
ATOM     12  C   UNL d   1      -0.660   4.392  -0.532  0.00  0.00     0.117 C 
ATOM     13  H   UNL d   1       0.661   2.514   0.452  0.00  0.00     0.169 HD
ENDBRANCH   1   9
BRANCH   6  14
ATOM     14  O   UNL d   1       0.139  -3.470  -0.073  0.00  0.00    -0.356 OA
ATOM     15  C   UNL d   1      -0.867  -4.272   0.538  0.00  0.00     0.210 C 
ENDBRANCH   6  14
TORSDOF 2
