REMARK  7 active torsions:
REMARK  status: ('A' for Active; 'I' for Inactive)
REMARK    1  A    between atoms: C_14  and  C_3 
REMARK    2  A    between atoms: C_6  and  C_8 
REMARK    3  A    between atoms: C_7  and  C_9 
REMARK    4  A    between atoms: C_28  and  C_10 
REMARK    5  A    between atoms: C_13  and  N_15 
REMARK       I    between atoms: N_15  and  C_16 
REMARK    6  A    between atoms: C_16  and  C_29 
REMARK    7  A    between atoms: C_29  and  C_28 
ROOT
ATOM      1  N   UNL d   1       2.483  -4.830   0.457  0.00  0.00    -0.327 N 
ATOM      2  C   UNL d   1       3.169  -3.823  -0.192  0.00  0.00     0.222 C 
ATOM      3  O   UNL d   1       4.136  -4.003  -0.934  0.00  0.00    -0.273 OA
ATOM      4  H   UNL d   1       1.564  -4.623   0.840  0.00  0.00     0.169 HD
ENDROOT
BRANCH   2   5
ATOM      5  C   UNL d   1       2.773  -2.387   0.147  0.00  0.00     0.111 C 
BRANCH   5   6
ATOM      6  C   UNL d   1       1.297  -2.040   0.246  0.00  0.00     0.096 C 
BRANCH   6   7
ATOM      7  C   UNL d   1       0.691  -2.543   1.498  0.00  0.00     0.148 A 
ATOM      8  N   UNL d   1       0.058  -3.677   1.688  0.00  0.00    -0.323 N 
ATOM      9  C   UNL d   1      -0.181  -3.652   3.047  0.00  0.00     0.137 A 
ATOM     10  HN  UNL d   1      -0.194  -4.393   1.007  1.00  0.00     0.169 HD
ATOM     11  N   UNL d   1       0.333  -2.582   3.674  0.00  0.00    -0.242 N 
ATOM     12  O   UNL d   1       0.902  -1.836   2.641  0.00  0.00    -0.223 OA
ATOM     13  HN  UNL d   1       0.313  -2.365   4.670  1.00  0.00     0.196 HD
BRANCH   9  14
ATOM     14  C   UNL d   1      -0.896  -4.732   3.713  0.00  0.00     0.010 A 
ATOM     15  C   UNL d   1      -0.600  -5.096   5.030  0.00  0.00     0.017 A 
ATOM     16  C   UNL d   1      -1.275  -6.155   5.641  0.00  0.00     0.025 A 
ATOM     17  C   UNL d   1      -2.262  -6.848   4.935  0.00  0.00     0.034 A 
ATOM     18  C   UNL d   1      -2.574  -6.487   3.629  0.00  0.00     0.025 A 
ATOM     19 CL   UNL d   1      -3.095  -8.147   5.688  0.00  0.00    -0.084 Cl
ATOM     20  C   UNL d   1      -1.889  -5.437   3.014  0.00  0.00     0.017 A 
ENDBRANCH   9  14
ENDBRANCH   6   7
ENDBRANCH   5   6
ENDBRANCH   2   5
BRANCH   1  21
ATOM     21  C   UNL d   1       2.931  -6.155   0.673  0.00  0.00     0.036 A 
ATOM     22  C   UNL d   1       4.221  -6.593   0.367  0.00  0.00     0.045 A 
ATOM     23  C   UNL d   1       4.657  -7.883   0.718  0.00  0.00     0.050 A 
ATOM     24  C   UNL d   1       3.769  -8.747   1.374  0.00  0.00     0.032 A 
ATOM     25  C   UNL d   1       2.469  -8.330   1.695  0.00  0.00     0.050 A 
ATOM     26  C   UNL d   1       2.056  -7.037   1.323  0.00  0.00     0.045 A 
BRANCH  23  27
ATOM     27  C   UNL d   1       6.082  -8.292   0.426  0.00  0.00     0.417 C 
ATOM     28  F   UNL d   1       6.391  -9.534   0.895  0.00  0.00    -0.166 F 
ATOM     29  F   UNL d   1       6.363  -8.315  -0.904  0.00  0.00    -0.166 F 
ATOM     30  F   UNL d   1       6.989  -7.449   0.993  0.00  0.00    -0.166 F 
ENDBRANCH  23  27
BRANCH  25  31
ATOM     31  C   UNL d   1       1.532  -9.232   2.463  0.00  0.00     0.417 C 
ATOM     32  F   UNL d   1       2.136 -10.355   2.943  0.00  0.00    -0.166 F 
ATOM     33  F   UNL d   1       0.991  -8.611   3.548  0.00  0.00    -0.166 F 
ATOM     34  F   UNL d   1       0.482  -9.661   1.712  0.00  0.00    -0.166 F 
ENDBRANCH  25  31
ENDBRANCH   1  21
TORSDOF 7
