REMARK  4 active torsions:
REMARK  status: ('A' for Active; 'I' for Inactive)
REMARK    1  A    between atoms: N_7  and  C_4 
REMARK    2  A    between atoms: C_20  and  N_13 
REMARK    3  A    between atoms: O_22  and  C_16 
REMARK    4  A    between atoms: O_23  and  C_18 
ROOT
ATOM      1  C   UNL d   1      -1.885   1.667  -0.213  0.00  0.00     0.102 A 
ATOM      2  C   UNL d   1      -0.986   0.618  -0.049  0.00  0.00     0.069 A 
ATOM      3  N   UNL d   1      -1.763  -0.522   0.115  0.00  0.00    -0.346 N 
ATOM      4  C   UNL d   1      -3.207   1.132  -0.115  0.00  0.00     0.093 A 
ATOM      5  C   UNL d   1      -3.109  -0.237   0.073  0.00  0.00     0.038 A 
ATOM      6  C   UNL d   1       0.490   0.489  -0.031  0.00  0.00     0.002 A 
ATOM      7  C   UNL d   1       1.053  -0.785  -0.154  0.00  0.00    -0.041 A 
ATOM      8  C   UNL d   1      -1.567   3.051  -0.443  0.00  0.00     0.104 C 
ATOM      9  C   UNL d   1       1.371   1.562   0.139  0.00  0.00     0.054 A 
ATOM     10  C   UNL d   1      -1.164  -1.828   0.368  0.00  0.00     0.134 C 
ATOM     11  N   UNL d   1      -1.302   4.159  -0.626  0.00  0.00    -0.191 NA
ATOM     12  C   UNL d   1       2.793   1.426   0.163  0.00  0.00     0.102 A 
ATOM     13  C   UNL d   1       2.446  -0.932  -0.148  0.00  0.00     0.047 A 
ATOM     14  C   UNL d   1       3.343   0.149   0.008  0.00  0.00     0.102 A 
ATOM     15  C   UNL d   1       0.167  -1.990  -0.357  0.00  0.00     0.060 C 
ATOM     16  C   UNL d   1      -4.138  -1.304   0.227  0.00  0.00     0.071 C 
ENDROOT
BRANCH   4  17
ATOM     17  N   UNL d   1      -4.366   1.925  -0.239  0.00  0.00    -0.297 N 
ATOM     18  N   UNL d   1      -5.348   1.510   0.412  0.00  0.00    -0.300 N 
ATOM     19  HN  UNL d   1      -5.328   0.658   0.972  1.00  0.00     0.187 HD
ATOM     20  HN  UNL d   1      -4.399   2.767  -0.813  1.00  0.00     0.187 HD
BRANCH  18  21
ATOM     21  C   UNL d   1      -6.490   2.335   0.297  0.00  0.00     0.048 A 
ATOM     22  C   UNL d   1      -6.765   3.144  -0.815  0.00  0.00     0.031 A 
ATOM     23  C   UNL d   1      -7.891   3.977  -0.842  0.00  0.00     0.009 A 
ATOM     24  C   UNL d   1      -8.784   4.004   0.235  0.00  0.00    -0.062 A 
ATOM     25  C   UNL d   1      -8.562   3.143   1.314  0.00  0.00     0.009 A 
ATOM     26  C   UNL d   1      -9.921   4.982   0.241  0.00  0.00     0.048 C 
ATOM     27  C   UNL d   1      -7.425   2.323   1.342  0.00  0.00     0.031 A 
ENDBRANCH  18  21
ENDBRANCH   4  17
BRANCH  12  28
ATOM     28  O   UNL d   1       3.332   2.639   0.480  0.00  0.00    -0.353 OA
ATOM     29  C   UNL d   1       4.540   3.136  -0.041  0.00  0.00     0.210 C 
ENDBRANCH  12  28
BRANCH  14  30
ATOM     30  O   UNL d   1       4.598  -0.373   0.010  0.00  0.00    -0.353 OA
ATOM     31  C   UNL d   1       5.785   0.364   0.149  0.00  0.00     0.210 C 
ENDBRANCH  14  30
TORSDOF 4
