REMARK  4 active torsions:
REMARK  status: ('A' for Active; 'I' for Inactive)
REMARK    1  A    between atoms: C_10  and  N_1 
REMARK    2  A    between atoms: S_9  and  C_5 
REMARK    3  A    between atoms: C_15  and  S_9 
REMARK    4  A    between atoms: C_17  and  C_15 
ROOT
ATOM      1  N   UNL d   1      -0.323  -1.311  -0.070  0.00  0.00    -0.273 N 
ATOM      2  C   UNL d   1       0.912  -0.668  -0.032  0.00  0.00     0.163 A 
ATOM      3  N   UNL d   1       0.741   0.640  -0.045  0.00  0.00    -0.281 N 
ATOM      4  HN  UNL d   1       1.480   1.341   0.007  1.00  0.00     0.188 HD
ATOM      5  C   UNL d   1      -1.228  -0.259  -0.148  0.00  0.00     0.168 A 
ATOM      6  N   UNL d   1      -0.598   0.894  -0.141  0.00  0.00    -0.278 N 
ATOM      7  HN  UNL d   1      -1.032   1.816  -0.196  1.00  0.00     0.189 HD
ATOM      8  C   UNL d   1       2.210  -1.270  -0.078  0.00  0.00     0.120 A 
ATOM      9  O   UNL d   1       2.490  -2.416  -0.779  0.00  0.00    -0.319 OA
ATOM     10  C   UNL d   1       3.379  -0.833   0.527  0.00  0.00     0.043 A 
ATOM     11  C   UNL d   1       3.800  -2.710  -0.595  0.00  0.00     0.142 A 
ATOM     12  C   UNL d   1       4.393  -1.771   0.211  0.00  0.00     0.027 A 
ENDROOT
BRANCH   5  13
ATOM     13  S   UNL d   1      -2.955  -0.395  -0.013  0.00  0.00    -0.087 SA
BRANCH  13  14
ATOM     14  C   UNL d   1      -3.479   1.126  -0.860  0.00  0.00     0.121 C 
BRANCH  14  15
ATOM     15  C   UNL d   1      -4.984   1.270  -0.839  0.00  0.00    -0.048 A 
ATOM     16  C   UNL d   1      -5.609   2.031   0.163  0.00  0.00     0.011 A 
ATOM     17  C   UNL d   1      -7.000   2.150   0.198  0.00  0.00     0.043 A 
ATOM     18  C   UNL d   1      -7.768   1.503  -0.762  0.00  0.00     0.116 A 
ATOM     19  C   UNL d   1      -7.171   0.739  -1.758  0.00  0.00     0.043 A 
ATOM     20  F   UNL d   1      -9.102   1.614  -0.725  0.00  0.00    -0.206 F 
ATOM     21  C   UNL d   1      -5.781   0.621  -1.798  0.00  0.00     0.011 A 
ENDBRANCH  14  15
ENDBRANCH  13  14
ENDBRANCH   5  13
BRANCH   1  22
ATOM     22  C   UNL d   1      -0.579  -2.715  -0.009  0.00  0.00     0.043 A 
ATOM     23  C   UNL d   1       0.222  -3.545   0.789  0.00  0.00     0.030 A 
ATOM     24  C   UNL d   1       0.002  -4.924   0.822  0.00  0.00     0.002 A 
ATOM     25  C   UNL d   1      -1.029  -5.484   0.072  0.00  0.00     0.000 A 
ATOM     26  C   UNL d   1      -1.840  -4.666  -0.711  0.00  0.00     0.002 A 
ATOM     27  C   UNL d   1      -1.616  -3.287  -0.757  0.00  0.00     0.030 A 
ENDBRANCH   1  22
TORSDOF 4
