REMARK  6 active torsions:
REMARK  status: ('A' for Active; 'I' for Inactive)
REMARK    1  A    between atoms: N_9  and  C_1 
REMARK    2  A    between atoms: C_2  and  C_5 
REMARK    3  A    between atoms: N_7  and  N_9 
REMARK    4  A    between atoms: C_11  and  C_12 
REMARK    5  A    between atoms: O_22  and  C_13 
REMARK    6  A    between atoms: O_24  and  C_20 
ROOT
ATOM      1  N   UNL d   1       0.253   2.440   0.199  0.00  0.00    -0.280 N 
ATOM      2  C   UNL d   1       1.682   2.513  -0.133  0.00  0.00     0.179 C 
ENDROOT
BRANCH   1   3
ATOM      3  N   UNL d   1      -0.437   3.559  -0.232  0.00  0.00    -0.308 N 
ATOM      4  C   UNL d   1      -1.670   3.664   0.158  0.00  0.00     0.121 C 
ATOM      5  HN  UNL d   1       0.001   4.265  -0.824  1.00  0.00     0.186 HD
BRANCH   4   6
ATOM      6  C   UNL d   1      -2.465   4.876  -0.122  0.00  0.00     0.014 A 
ATOM      7  C   UNL d   1      -1.887   6.047  -0.628  0.00  0.00     0.080 A 
ATOM      8  C   UNL d   1      -2.647   7.206  -0.756  0.00  0.00     0.074 A 
ATOM      9  C   UNL d   1      -3.989   7.189  -0.386  0.00  0.00     0.068 A 
ATOM     10  C   UNL d   1      -4.587   6.024   0.088  0.00  0.00     0.037 A 
ATOM     11  C   UNL d   1      -3.822   4.862   0.222  0.00  0.00     0.018 A 
BRANCH   7  12
ATOM     12  O   UNL d   1      -0.569   6.129  -0.990  0.00  0.00    -0.360 OA
ATOM     13  H   UNL d   1      -0.180   5.234  -0.866  0.00  0.00     0.217 HD
ENDBRANCH   7  12
BRANCH   9  14
ATOM     14  O   UNL d   1      -4.693   8.352  -0.492  0.00  0.00    -0.361 OA
ATOM     15  H   UNL d   1      -5.586   8.214  -0.137  0.00  0.00     0.217 HD
ENDBRANCH   9  14
ENDBRANCH   4   6
ENDBRANCH   1   3
BRANCH   1  16
ATOM     16  C   UNL d   1      -0.300   1.134  -0.008  0.00  0.00     0.143 A 
ATOM     17  N   UNL d   1      -1.310   0.988  -0.914  0.00  0.00    -0.349 N 
ATOM     18  C   UNL d   1      -1.919  -0.216  -1.047  0.00  0.00     0.106 A 
ATOM     19  HN  UNL d   1      -1.605   1.778  -1.486  1.00  0.00     0.167 HD
ATOM     20  C   UNL d   1      -1.585  -1.335  -0.307  0.00  0.00     0.065 A 
ATOM     21  C   UNL d   1      -0.542  -1.203   0.607  0.00  0.00     0.045 A 
ATOM     22  C   UNL d   1       0.101   0.031   0.774  0.00  0.00     0.080 A 
ATOM     23 CL   UNL d   1       1.276   0.110   2.038  0.00  0.00    -0.080 Cl
BRANCH  20  24
ATOM     24  C   UNL d   1      -2.363  -2.604  -0.471  0.00  0.00     0.418 C 
ATOM     25  F   UNL d   1      -1.916  -3.616   0.322  0.00  0.00    -0.166 F 
ATOM     26  F   UNL d   1      -3.679  -2.444  -0.164  0.00  0.00    -0.166 F 
ATOM     27  F   UNL d   1      -2.329  -3.081  -1.744  0.00  0.00    -0.166 F 
ENDBRANCH  20  24
ENDBRANCH   1  16
TORSDOF 6
