REMARK  9 active torsions:
REMARK  status: ('A' for Active; 'I' for Inactive)
REMARK    1  A    between atoms: C_5  and  C_1 
REMARK       I    between atoms: C_8  and  N_2 
REMARK    2  A    between atoms: C_5  and  O_12 
REMARK    3  A    between atoms: C_5  and  C_10 
REMARK    4  A    between atoms: C_10  and  O_13 
REMARK    5  A    between atoms: C_17  and  C_10 
REMARK    6  A    between atoms: C_14  and  O_12 
REMARK    7  A    between atoms: C_15  and  O_13 
REMARK    8  A    between atoms: C_16  and  O_20 
REMARK    9  A    between atoms: O_20  and  C_17 
ROOT
ATOM      1  C   UNL d   1      -3.654   1.061   0.326  0.00  0.00     0.204 C 
ENDROOT
BRANCH   1   2
ATOM      2  O   UNL d   1      -3.657   2.502   0.086  0.00  0.00    -0.310 OA
BRANCH   2   3
ATOM      3  C   UNL d   1      -3.193   3.070  -1.036  0.00  0.00     0.255 C 
ATOM      4  O   UNL d   1      -2.817   2.468  -2.030  0.00  0.00    -0.266 OA
ATOM      5  C   UNL d   1      -3.195   4.559  -0.858  0.00  0.00     0.126 C 
ENDBRANCH   2   3
ENDBRANCH   1   2
BRANCH   1   6
ATOM      6  C   UNL d   1      -2.206   0.462   0.335  0.00  0.00     0.189 C 
BRANCH   6   7
ATOM      7  O   UNL d   1      -2.339  -1.002   0.393  0.00  0.00    -0.311 OA
BRANCH   7   8
ATOM      8  C   UNL d   1      -1.604  -1.813   1.194  0.00  0.00     0.255 C 
ATOM      9  O   UNL d   1      -0.799  -1.455   2.040  0.00  0.00    -0.266 OA
ATOM     10  C   UNL d   1      -1.986  -3.247   0.987  0.00  0.00     0.126 C 
ENDBRANCH   7   8
ENDBRANCH   6   7
BRANCH   6  11
ATOM     11  C   UNL d   1      -1.195   1.097   1.313  0.00  0.00     0.213 C 
BRANCH  11  12
ATOM     12  O   UNL d   1      -1.035   2.517   1.159  0.00  0.00    -0.319 OA
BRANCH  12  13
ATOM     13  C   UNL d   1       0.084   2.921   0.492  0.00  0.00     0.254 C 
ATOM     14  O   UNL d   1       0.825   2.201  -0.154  0.00  0.00    -0.266 OA
ATOM     15  C   UNL d   1       0.286   4.398   0.665  0.00  0.00     0.126 C 
ENDBRANCH  12  13
ENDBRANCH  11  12
ENDBRANCH   6  11
ENDBRANCH   1   6
BRANCH   1  16
ATOM     16  C   UNL d   1      -4.510   0.858   1.635  0.00  0.00     0.136 C 
ATOM     17  N   UNL d   1      -5.991   0.952   1.490  0.00  0.00    -0.313 N 
ATOM     18  C   UNL d   1      -6.548   1.498   2.727  0.00  0.00     0.206 C 
ATOM     19  C   UNL d   1      -6.719   0.138   0.641  0.00  0.00     0.218 C 
ATOM     20  C   UNL d   1      -5.867   2.864   2.866  0.00  0.00     0.033 C 
ATOM     21  C   UNL d   1      -6.228   0.489   3.869  0.00  0.00     0.283 C 
ATOM     22  S   UNL d   1      -4.125   2.344   2.817  0.00  0.00    -0.121 SA
ATOM     23  C   UNL d   1      -6.211   3.655   4.117  0.00  0.00     0.029 C 
ATOM     24  C   UNL d   1      -6.174   3.751   1.631  0.00  0.00     0.029 C 
ATOM     25  O   UNL d   1      -5.268  -0.460   3.625  0.00  0.00    -0.316 OA
ATOM     26  O   UNL d   1      -6.782   0.551   4.962  0.00  0.00    -0.263 OA
ATOM     27  C   UNL d   1      -4.341  -0.414   2.474  0.00  0.00     0.224 C 
ATOM     28  O   UNL d   1      -6.190  -0.501  -0.266  0.00  0.00    -0.274 OA
ATOM     29  C   UNL d   1      -8.207   0.024   0.902  0.00  0.00     0.117 C 
ENDBRANCH   1  16
TORSDOF 9
