REMARK  4 active torsions:
REMARK  status: ('A' for Active; 'I' for Inactive)
REMARK    1  A    between atoms: N_9  and  C_1 
REMARK    2  A    between atoms: C_2  and  C_5 
REMARK    3  A    between atoms: N_7  and  N_9 
REMARK    4  A    between atoms: C_11  and  C_12 
ROOT
ATOM      1  N   UNL d   1       0.316   2.387   0.150  0.00  0.00    -0.280 N 
ATOM      2  C   UNL d   1       1.753   2.580  -0.027  0.00  0.00     0.179 C 
ENDROOT
BRANCH   1   3
ATOM      3  N   UNL d   1      -0.381   3.531  -0.187  0.00  0.00    -0.308 N 
ATOM      4  C   UNL d   1      -1.501   3.776   0.416  0.00  0.00     0.120 C 
ATOM      5  HN  UNL d   1      -0.021   4.170  -0.896  1.00  0.00     0.186 HD
BRANCH   4   6
ATOM      6  C   UNL d   1      -2.189   5.076   0.209  0.00  0.00     0.003 A 
ATOM      7  C   UNL d   1      -3.503   5.304   0.630  0.00  0.00     0.047 A 
ATOM      8  C   UNL d   1      -4.067   6.581   0.503  0.00  0.00     0.048 A 
ATOM      9 CL   UNL d   1      -4.497   4.064   1.310  0.00  0.00    -0.083 Cl
ATOM     10  C   UNL d   1      -3.318   7.624  -0.039  0.00  0.00     0.035 A 
ATOM     11  C   UNL d   1      -2.015   7.406  -0.473  0.00  0.00     0.025 A 
ATOM     12 CL   UNL d   1      -4.002   9.197  -0.161  0.00  0.00    -0.084 Cl
ATOM     13  C   UNL d   1      -1.453   6.131  -0.355  0.00  0.00     0.016 A 
ENDBRANCH   4   6
ENDBRANCH   1   3
BRANCH   1  14
ATOM     14  C   UNL d   1      -0.261   1.096   0.019  0.00  0.00     0.143 A 
ATOM     15  N   UNL d   1      -1.612   1.045  -0.200  0.00  0.00    -0.349 N 
ATOM     16  C   UNL d   1      -2.268  -0.139  -0.242  0.00  0.00     0.106 A 
ATOM     17  HN  UNL d   1      -2.133   1.913  -0.333  1.00  0.00     0.167 HD
ATOM     18  C   UNL d   1      -1.656  -1.362  -0.094  0.00  0.00     0.065 A 
ATOM     19  C   UNL d   1      -0.278  -1.347   0.099  0.00  0.00     0.045 A 
ATOM     20  C   UNL d   1       0.428  -0.132   0.165  0.00  0.00     0.080 A 
ATOM     21 CL   UNL d   1       2.121  -0.342   0.469  0.00  0.00    -0.080 Cl
BRANCH  18  22
ATOM     22  C   UNL d   1      -2.458  -2.624  -0.118  0.00  0.00     0.418 C 
ATOM     23  F   UNL d   1      -1.703  -3.748   0.005  0.00  0.00    -0.166 F 
ATOM     24  F   UNL d   1      -3.372  -2.676   0.887  0.00  0.00    -0.166 F 
ATOM     25  F   UNL d   1      -3.163  -2.771  -1.274  0.00  0.00    -0.166 F 
ENDBRANCH  18  22
ENDBRANCH   1  14
TORSDOF 4
