REMARK  2 active torsions:
REMARK  status: ('A' for Active; 'I' for Inactive)
REMARK    1  A    between atoms: S_8  and  C_3 
REMARK    2  A    between atoms: C_13  and  S_8 
ROOT
ATOM      1  N   UNL d   1       1.270  -1.299   0.030  0.00  0.00    -0.349 N 
ATOM      2  HN  UNL d   1       1.327  -2.315   0.091  1.00  0.00     0.166 HD
ATOM      3  C   UNL d   1       2.406  -0.559  -0.032  0.00  0.00     0.081 A 
ATOM      4  C   UNL d   1      -0.035   0.709  -0.037  0.00  0.00     0.030 A 
ATOM      5  C   UNL d   1       0.066  -0.694   0.013  0.00  0.00     0.052 A 
ATOM      6  C   UNL d   1       1.147   1.459  -0.113  0.00  0.00     0.026 A 
ATOM      7  C   UNL d   1       2.396   0.829  -0.141  0.00  0.00    -0.027 A 
ATOM      8  C   UNL d   1      -1.299   1.318  -0.028  0.00  0.00     0.129 A 
ATOM      9  C   UNL d   1      -1.120  -1.447   0.050  0.00  0.00    -0.034 A 
ATOM     10  C   UNL d   1      -2.466   0.570   0.020  0.00  0.00     0.044 A 
ATOM     11  C   UNL d   1      -2.376  -0.815   0.052  0.00  0.00     0.012 A 
ATOM     12  F   UNL d   1      -1.398   2.656  -0.069  0.00  0.00    -0.205 F 
ATOM     13  C   UNL d   1       3.629   1.675  -0.236  0.00  0.00     0.051 C 
ATOM     14  C   UNL d   1      -1.090  -2.953   0.064  0.00  0.00     0.050 C 
ENDROOT
BRANCH   3  15
ATOM     15  S   UNL d   1       3.903  -1.527   0.012  0.00  0.00    -0.072 SA
BRANCH  15  16
ATOM     16  C   UNL d   1       4.327  -1.555   1.747  0.00  0.00     0.007 A 
ATOM     17  C   UNL d   1       3.376  -1.526   2.775  0.00  0.00     0.020 A 
ATOM     18  C   UNL d   1       3.774  -1.537   4.116  0.00  0.00     0.025 A 
ATOM     19  C   UNL d   1       5.128  -1.598   4.438  0.00  0.00     0.034 A 
ATOM     20  C   UNL d   1       6.085  -1.663   3.430  0.00  0.00     0.025 A 
ATOM     21 CL   UNL d   1       5.618  -1.593   6.086  0.00  0.00    -0.084 Cl
ATOM     22  C   UNL d   1       5.684  -1.644   2.090  0.00  0.00     0.020 A 
ENDBRANCH  15  16
ENDBRANCH   3  15
TORSDOF 2
