REMARK  4 active torsions:
REMARK  status: ('A' for Active; 'I' for Inactive)
REMARK    1  A    between atoms: C_5  and  C_1 
REMARK    2  A    between atoms: C_7  and  C_5 
REMARK    3  A    between atoms: C_9  and  C_5 
REMARK    4  A    between atoms: N_8  and  C_9 
ROOT
ATOM      1  C   UNL d   1      -2.033  -2.636  -0.027  0.00  0.00     0.081 C 
ENDROOT
BRANCH   1   2
ATOM      2  C   UNL d   1      -1.501  -1.216  -0.047  0.00  0.00    -0.020 A 
ATOM      3  C   UNL d   1      -0.264  -0.793  -0.509  0.00  0.00     0.097 A 
ATOM      4  N   UNL d   1      -0.167   0.560  -0.337  0.00  0.00    -0.365 N 
ATOM      5  C   UNL d   1      -1.304   1.046   0.257  0.00  0.00     0.042 A 
ATOM      6  H   UNL d   1       0.629   1.125  -0.598  0.00  0.00     0.165 HD
ATOM      7  C   UNL d   1      -2.160  -0.037   0.455  0.00  0.00    -0.001 A 
ATOM      8  C   UNL d   1      -1.623   2.357   0.632  0.00  0.00     0.030 A 
ATOM      9  C   UNL d   1      -3.410   0.213   1.064  0.00  0.00     0.014 A 
ATOM     10  C   UNL d   1      -3.747   1.519   1.449  0.00  0.00     0.001 A 
ATOM     11  C   UNL d   1      -2.865   2.574   1.233  0.00  0.00     0.002 A 
ENDBRANCH   1   2
BRANCH   1  12
ATOM     12  C   UNL d   1      -2.808  -2.841  -1.327  0.00  0.00    -0.048 A 
ATOM     13  C   UNL d   1      -2.214  -2.695  -2.592  0.00  0.00     0.008 A 
ATOM     14  C   UNL d   1      -2.915  -3.013  -3.757  0.00  0.00     0.001 A 
ATOM     15  C   UNL d   1      -4.218  -3.494  -3.677  0.00  0.00     0.000 A 
ATOM     16  C   UNL d   1      -4.827  -3.645  -2.434  0.00  0.00     0.001 A 
ATOM     17  C   UNL d   1      -4.130  -3.319  -1.268  0.00  0.00     0.008 A 
ENDBRANCH   1  12
BRANCH   1  18
ATOM     18  C   UNL d   1      -0.925  -3.710   0.153  0.00  0.00     0.280 C 
BRANCH  18  19
ATOM     19  N   UNL d   1      -1.428  -5.092   0.202  0.00  0.00     0.079 N 
ATOM     20  H   UNL d   1      -0.636  -5.733   0.177  0.00  0.00     0.312 HD
ATOM     21  H   UNL d   1      -1.958  -5.275  -0.653  0.00  0.00     0.312 HD
ENDBRANCH  18  19
ENDBRANCH   1  18
TORSDOF 4
