REMARK  7 active torsions:
REMARK  status: ('A' for Active; 'I' for Inactive)
REMARK    1  A    between atoms: N_2  and  C_1 
REMARK       I    between atoms: C_4  and  N_6 
REMARK    2  A    between atoms: C_11  and  C_4 
REMARK    3  A    between atoms: N_6  and  C_10 
REMARK    4  A    between atoms: C_7  and  C_11 
REMARK    5  A    between atoms: C_13  and  C_7 
REMARK    6  A    between atoms: C_9  and  C_13 
REMARK    7  A    between atoms: O_18  and  C_9 
ROOT
ATOM      1  C   UNL d   1       3.705  -2.482   0.496  0.00  0.00     0.222 C 
ATOM      2  N   UNL d   1       2.513  -2.345  -0.191  0.00  0.00    -0.327 N 
ATOM      3  O   UNL d   1       3.977  -3.430   1.233  0.00  0.00    -0.273 OA
ATOM      4  H   UNL d   1       2.218  -1.403  -0.433  0.00  0.00     0.169 HD
ENDROOT
BRANCH   2   5
ATOM      5  C   UNL d   1       1.546  -3.379  -0.284  0.00  0.00     0.036 A 
ATOM      6  C   UNL d   1       1.914  -4.720  -0.239  0.00  0.00     0.032 A 
ATOM      7  C   UNL d   1       0.950  -5.726  -0.317  0.00  0.00     0.033 A 
ATOM      8  C   UNL d   1      -0.423  -5.452  -0.431  0.00  0.00     0.052 A 
ATOM      9  C   UNL d   1      -0.781  -4.088  -0.496  0.00  0.00     0.062 A 
ATOM     10  C   UNL d   1       0.196  -3.066  -0.443  0.00  0.00     0.055 A 
ATOM     11 CL   UNL d   1      -2.429  -3.551  -0.538  0.00  0.00    -0.082 Cl
BRANCH   8  12
ATOM     12  N   UNL d   1      -1.260  -6.561  -0.490  0.00  0.00    -0.375 N 
ATOM     13  C   UNL d   1      -2.493  -6.605  -1.286  0.00  0.00     0.149 C 
ATOM     14  C   UNL d   1      -2.791  -8.079  -1.630  0.00  0.00     0.187 C 
ATOM     15  O   UNL d   1      -2.909  -8.889  -0.445  0.00  0.00    -0.388 OA
ATOM     16  C   UNL d   1      -1.695  -8.833   0.325  0.00  0.00     0.187 C 
ATOM     17  C   UNL d   1      -1.345  -7.391   0.730  0.00  0.00     0.149 C 
ENDBRANCH   8  12
ENDBRANCH   2   5
BRANCH   1  18
ATOM     18  C   UNL d   1       4.713  -1.359   0.288  0.00  0.00     0.113 C 
BRANCH  18  19
ATOM     19  C   UNL d   1       5.895  -1.681  -0.697  0.00  0.00    -0.023 C 
ATOM     20  C   UNL d   1       6.708  -2.905  -0.171  0.00  0.00     0.010 C 
ATOM     21  C   UNL d   1       7.913  -2.537   0.677  0.00  0.00     0.001 C 
ATOM     22  C   UNL d   1       8.891  -1.792  -0.204  0.00  0.00     0.000 C 
ATOM     23  C   UNL d   1       8.307  -0.481  -0.694  0.00  0.00     0.001 C 
ATOM     24  C   UNL d   1       6.778  -0.389  -0.807  0.00  0.00     0.010 C 
BRANCH  19  25
ATOM     25  C   UNL d   1       5.361  -2.082  -2.108  0.00  0.00     0.119 C 
BRANCH  25  26
ATOM     26  C   UNL d   1       4.434  -1.102  -2.802  0.00  0.00     0.140 C 
ATOM     27  O   UNL d   1       4.037  -0.043  -2.344  0.00  0.00    -0.650 OA
BRANCH  26  28
ATOM     28  O   UNL d   1       4.049  -1.540  -4.023  0.00  0.00    -0.776 OA
ATOM     29  H   UNL d   1       4.417  -2.410  -4.269  0.00  0.00     0.167 HD
ENDBRANCH  26  28
ENDBRANCH  25  26
ENDBRANCH  19  25
ENDBRANCH  18  19
ENDBRANCH   1  18
TORSDOF 7
