REMARK  6 active torsions:
REMARK  status: ('A' for Active; 'I' for Inactive)
REMARK    1  A    between atoms: C_10  and  N_1 
REMARK    2  A    between atoms: C_11  and  C_2 
REMARK    3  A    between atoms: S_8  and  C_5 
REMARK    4  A    between atoms: C_16  and  S_8 
REMARK    5  A    between atoms: C_9  and  C_16 
REMARK       I    between atoms: N_15  and  C_9 
REMARK    6  A    between atoms: N_17  and  N_15 
ROOT
ATOM      1  N   UNL d   1      -0.316  -1.324  -0.043  0.00  0.00    -0.275 N 
ATOM      2  C   UNL d   1       0.938  -0.690  -0.046  0.00  0.00     0.139 A 
ATOM      3  N   UNL d   1       0.751   0.621  -0.084  0.00  0.00    -0.282 N 
ATOM      4  HN  UNL d   1       1.489   1.324  -0.048  1.00  0.00     0.188 HD
ATOM      5  C   UNL d   1      -1.216  -0.272  -0.164  0.00  0.00     0.168 A 
ATOM      6  N   UNL d   1      -0.585   0.878  -0.179  0.00  0.00    -0.278 N 
ATOM      7  HN  UNL d   1      -1.016   1.800  -0.248  1.00  0.00     0.189 HD
ENDROOT
BRANCH   5   8
ATOM      8  S   UNL d   1      -2.948  -0.401  -0.101  0.00  0.00    -0.083 SA
BRANCH   8   9
ATOM      9  C   UNL d   1      -3.457   1.101  -0.985  0.00  0.00     0.186 C 
BRANCH   9  10
ATOM     10  C   UNL d   1      -3.006   1.059  -2.433  0.00  0.00     0.241 C 
ATOM     11  O   UNL d   1      -3.526   0.325  -3.279  0.00  0.00    -0.271 OA
ATOM     12  N   UNL d   1      -1.953   1.916  -2.726  0.00  0.00    -0.293 N 
ATOM     13  H   UNL d   1      -1.421   2.350  -1.967  0.00  0.00     0.183 HD
BRANCH  12  14
ATOM     14  N   UNL d   1      -1.429   1.956  -4.037  0.00  0.00    -0.247 NA
ATOM     15  H   UNL d   1      -2.108   1.481  -4.648  0.00  0.00     0.143 HD
ATOM     16  H   UNL d   1      -0.599   1.359  -4.066  0.00  0.00     0.143 HD
ENDBRANCH  12  14
ENDBRANCH   9  10
ENDBRANCH   8   9
ENDBRANCH   5   8
BRANCH   1  17
ATOM     17  C   UNL d   1      -0.580  -2.725   0.043  0.00  0.00     0.043 A 
ATOM     18  C   UNL d   1       0.216  -3.545   0.856  0.00  0.00     0.030 A 
ATOM     19  C   UNL d   1       0.043  -4.931   0.847  0.00  0.00     0.002 A 
ATOM     20  C   UNL d   1      -0.953  -5.505   0.062  0.00  0.00     0.000 A 
ATOM     21  C   UNL d   1      -1.779  -4.695  -0.713  0.00  0.00     0.002 A 
ATOM     22  C   UNL d   1      -1.590  -3.310  -0.733  0.00  0.00     0.030 A 
ENDBRANCH   1  17
BRANCH   2  23
ATOM     23  C   UNL d   1       2.271  -1.313  -0.073  0.00  0.00     0.013 A 
ATOM     24  C   UNL d   1       2.554  -2.454  -0.831  0.00  0.00     0.032 A 
ATOM     25  C   UNL d   1       3.813  -3.024  -0.740  0.00  0.00     0.088 A 
ATOM     26  N   UNL d   1       4.815  -2.508   0.000  0.00  0.00    -0.375 N 
ATOM     27  C   UNL d   1       4.549  -1.367   0.669  0.00  0.00     0.088 A 
ATOM     28  HN  UNL d   1       5.728  -2.959   0.052  1.00  0.00     0.164 HD
ATOM     29  C   UNL d   1       3.312  -0.743   0.665  0.00  0.00     0.032 A 
ENDBRANCH   2  23
TORSDOF 6
