REMARK  3 active torsions:
REMARK  status: ('A' for Active; 'I' for Inactive)
REMARK    1  A    between atoms: C_8  and  C_3 
REMARK    2  A    between atoms: O_15  and  C_10 
REMARK    3  A    between atoms: O_17  and  C_12 
ROOT
ATOM      1  N   UNL d   1       2.134  -0.388  -0.861  0.00  0.00    -0.302 N 
ATOM      2  HN  UNL d   1       2.829  -0.638  -1.565  1.00  0.00     0.171 HD
ATOM      3  C   UNL d   1       2.350   0.604  -0.064  0.00  0.00     0.161 A 
ATOM      4  C   UNL d   1       0.974  -1.102  -0.763  0.00  0.00     0.260 A 
ATOM      5  C   UNL d   1      -0.026  -0.678   0.224  0.00  0.00     0.066 A 
ATOM      6  O   UNL d   1       1.502   1.073   0.916  0.00  0.00    -0.292 OA
ATOM      7  C   UNL d   1       0.284   0.405   1.029  0.00  0.00     0.093 A 
ATOM      8  O   UNL d   1       0.738  -2.079  -1.465  0.00  0.00    -0.267 OA
ATOM      9  C   UNL d   1      -1.254  -1.326   0.360  0.00  0.00     0.020 A 
ATOM     10  C   UNL d   1      -0.624   0.865   1.981  0.00  0.00     0.038 A 
ATOM     11  C   UNL d   1      -2.172  -0.870   1.306  0.00  0.00     0.001 A 
ATOM     12  C   UNL d   1      -1.857   0.225   2.116  0.00  0.00     0.003 A 
ENDROOT
BRANCH   3  13
ATOM     13  C   UNL d   1       3.610   1.392  -0.104  0.00  0.00     0.018 A 
ATOM     14  C   UNL d   1       4.515   1.139  -1.145  0.00  0.00     0.055 A 
ATOM     15  C   UNL d   1       5.762   1.772  -1.178  0.00  0.00     0.102 A 
ATOM     16  C   UNL d   1       6.105   2.685  -0.160  0.00  0.00     0.101 A 
ATOM     17  C   UNL d   1       5.181   2.971   0.851  0.00  0.00     0.040 A 
ATOM     18  C   UNL d   1       3.940   2.325   0.883  0.00  0.00     0.018 A 
BRANCH  15  19
ATOM     19  O   UNL d   1       6.714   1.550  -2.142  0.00  0.00    -0.353 OA
ATOM     20  C   UNL d   1       6.401   0.627  -3.178  0.00  0.00     0.210 C 
ENDBRANCH  15  19
BRANCH  16  21
ATOM     21  O   UNL d   1       7.361   3.233  -0.240  0.00  0.00    -0.353 OA
ATOM     22  C   UNL d   1       7.785   4.069   0.827  0.00  0.00     0.210 C 
ENDBRANCH  16  21
ENDBRANCH   3  13
TORSDOF 3
