REMARK  4 active torsions:
REMARK  status: ('A' for Active; 'I' for Inactive)
REMARK       I    between atoms: N_2  and  C_1 
REMARK       I    between atoms: N_9  and  C_1 
REMARK    1  A    between atoms: C_4  and  N_2 
REMARK    2  A    between atoms: O_7  and  C_3 
REMARK    3  A    between atoms: C_6  and  O_7 
REMARK    4  A    between atoms: C_10  and  N_9 
ROOT
ATOM      1  C   UNL d   1      -1.862  -1.181  -1.895  0.00  0.00     0.175 A 
ATOM      2  C   UNL d   1      -1.139  -0.221  -1.174  0.00  0.00     0.088 A 
ATOM      3  N   UNL d   1      -3.217  -1.282  -1.842  0.00  0.00    -0.345 N 
ATOM      4  HN  UNL d   1      -3.710  -2.009  -2.361  1.00  0.00     0.167 HD
ATOM      5  C   UNL d   1      -1.881   0.669  -0.385  0.00  0.00     0.035 A 
ATOM      6  C   UNL d   1      -3.889  -0.395  -1.085  0.00  0.00     0.090 A 
ATOM      7  C   UNL d   1      -3.272   0.596  -0.350  0.00  0.00     0.019 A 
ENDROOT
BRANCH   1   8
ATOM      8  O   UNL d   1      -1.167  -2.161  -2.588  0.00  0.00    -0.291 OA
BRANCH   8   9
ATOM      9  C   UNL d   1      -1.789  -2.811  -3.626  0.00  0.00     0.084 A 
ATOM     10  C   UNL d   1      -1.487  -4.150  -3.825  0.00  0.00    -0.017 A 
ATOM     11  C   UNL d   1      -2.112  -4.888  -4.841  0.00  0.00    -0.043 A 
ATOM     12  C   UNL d   1      -0.575  -5.015  -3.013  0.00  0.00     0.042 C 
ATOM     13  C   UNL d   1      -1.695  -6.326  -4.786  0.00  0.00     0.040 C 
ATOM     14  C   UNL d   1      -3.041  -4.299  -5.695  0.00  0.00    -0.055 A 
ATOM     15  C   UNL d   1      -0.455  -6.272  -3.886  0.00  0.00     0.009 C 
ATOM     16  C   UNL d   1      -3.281  -2.927  -5.546  0.00  0.00     0.010 A 
ATOM     17  C   UNL d   1      -3.762  -5.094  -6.739  0.00  0.00     0.049 C 
ATOM     18  C   UNL d   1      -2.652  -2.188  -4.533  0.00  0.00     0.038 A 
ENDBRANCH   8   9
ENDBRANCH   1   8
BRANCH   2  19
ATOM     19  N   UNL d   1       0.262  -0.094  -1.084  0.00  0.00    -0.305 N 
ATOM     20  C   UNL d   1       1.288  -0.570  -1.846  0.00  0.00     0.325 C 
ATOM     21  N   UNL d   1       1.028  -0.782  -3.170  0.00  0.00    -0.303 N 
ATOM     22  O   UNL d   1       2.396  -0.652  -1.317  0.00  0.00    -0.247 OA
ATOM     23  H   UNL d   1       0.151  -0.468  -3.553  0.00  0.00     0.171 HD
ATOM     24  H   UNL d   1       0.620   0.340  -0.240  0.00  0.00     0.171 HD
BRANCH  21  25
ATOM     25  C   UNL d   1       1.954  -1.267  -4.059  0.00  0.00     0.077 A 
ATOM     26  S   UNL d   1       1.480  -1.156  -5.686  0.00  0.00    -0.084 SA
ATOM     27  C   UNL d   1       2.968  -1.819  -6.217  0.00  0.00     0.052 A 
ATOM     28  C   UNL d   1       3.784  -2.161  -5.160  0.00  0.00     0.010 A 
ATOM     29  C   UNL d   1       3.194  -1.836  -3.902  0.00  0.00     0.038 A 
ENDBRANCH  21  25
ENDBRANCH   2  19
TORSDOF 4
