REMARK  5 active torsions:
REMARK  status: ('A' for Active; 'I' for Inactive)
REMARK    1  A    between atoms: C_5  and  C_1 
REMARK    2  A    between atoms: C_2  and  N_6 
REMARK    3  A    between atoms: N_3  and  C_2 
REMARK    4  A    between atoms: C_4  and  N_3 
REMARK    5  A    between atoms: N_6  and  C_10 
ROOT
ATOM      1  C   UNL d   1      -0.706  -2.541  -4.137  0.00  0.00     0.176 C 
ATOM      2  S   UNL d   1      -1.430  -3.514  -5.291  0.00  0.00    -0.041 SA
ENDROOT
BRANCH   1   3
ATOM      3  N   UNL d   1      -0.269  -1.251  -4.279  0.00  0.00    -0.333 N 
ATOM      4  H   UNL d   1       0.546  -1.058  -3.711  0.00  0.00     0.168 HD
BRANCH   3   5
ATOM      5  C   UNL d   1      -0.618  -0.246  -5.205  0.00  0.00     0.035 A 
ATOM      6  C   UNL d   1      -1.813  -0.223  -5.933  0.00  0.00     0.045 A 
ATOM      7  C   UNL d   1      -2.104   0.834  -6.816  0.00  0.00     0.050 A 
ATOM      8  C   UNL d   1      -1.185   1.884  -6.955  0.00  0.00     0.016 A 
ATOM      9  C   UNL d   1      -0.005   1.885  -6.212  0.00  0.00     0.003 A 
ATOM     10  C   UNL d   1       0.270   0.830  -5.340  0.00  0.00     0.029 A 
BRANCH   7  11
ATOM     11  C   UNL d   1      -3.386   0.855  -7.614  0.00  0.00     0.417 C 
ATOM     12  F   UNL d   1      -4.222  -0.186  -7.344  0.00  0.00    -0.166 F 
ATOM     13  F   UNL d   1      -3.166   0.823  -8.956  0.00  0.00    -0.166 F 
ATOM     14  F   UNL d   1      -4.117   1.984  -7.385  0.00  0.00    -0.166 F 
ENDBRANCH   7  11
ENDBRANCH   3   5
ENDBRANCH   1   3
BRANCH   1  15
ATOM     15  N   UNL d   1      -0.404  -3.154  -2.944  0.00  0.00    -0.333 N 
ATOM     16  H   UNL d   1      -0.535  -4.158  -3.002  0.00  0.00     0.168 HD
BRANCH  15  17
ATOM     17  C   UNL d   1      -0.349  -2.647  -1.621  0.00  0.00     0.040 A 
ATOM     18  C   UNL d   1      -0.110  -3.558  -0.566  0.00  0.00    -0.035 A 
ATOM     19  C   UNL d   1      -0.331  -3.147   0.762  0.00  0.00     0.015 A 
ATOM     20  C   UNL d   1       0.287  -4.993  -0.789  0.00  0.00     0.050 C 
ATOM     21  C   UNL d   1      -0.713  -1.837   1.064  0.00  0.00    -0.061 A 
ATOM     22  C   UNL d   1      -0.833  -0.917   0.023  0.00  0.00     0.009 A 
ATOM     23  C   UNL d   1      -1.115  -1.463   2.459  0.00  0.00     0.048 C 
ATOM     24  C   UNL d   1      -0.658  -1.321  -1.305  0.00  0.00     0.030 A 
ENDBRANCH  15  17
ENDBRANCH   1  15
TORSDOF 5
