REMARK  4 active torsions:
REMARK  status: ('A' for Active; 'I' for Inactive)
REMARK    1  A    between atoms: C_3  and  C_12 
REMARK    2  A    between atoms: C_6  and  C_4 
REMARK    3  A    between atoms: O_13  and  C_7 
REMARK    4  A    between atoms: C_12  and  S_11 
ROOT
ATOM      1  C   UNL d   1       1.050   0.018   0.354  0.00  0.00     0.133 C 
ATOM      2  N   UNL d   1      -0.063   0.042   0.667  0.00  0.00    -0.184 NA
ATOM      3  S   UNL d   1       2.681  -0.039  -0.080  0.00  0.00    -0.046 SA
ENDROOT
BRANCH   3   4
ATOM      4  C   UNL d   1       3.285  -0.863   1.426  0.00  0.00     0.131 C 
BRANCH   4   5
ATOM      5  C   UNL d   1       4.787  -1.012   1.419  0.00  0.00    -0.014 A 
ATOM      6  C   UNL d   1       5.547   0.185   1.496  0.00  0.00     0.026 A 
ATOM      7  C   UNL d   1       6.942   0.171   1.587  0.00  0.00     0.010 A 
ATOM      8  C   UNL d   1       7.604  -1.056   1.626  0.00  0.00     0.018 A 
ATOM      9  C   UNL d   1       6.875  -2.242   1.554  0.00  0.00     0.038 A 
ATOM     10  C   UNL d   1       5.475  -2.237   1.442  0.00  0.00     0.075 A 
BRANCH   7  11
ATOM     11  C   UNL d   1       7.745   1.420   1.699  0.00  0.00     0.155 C 
ATOM     12  O   UNL d   1       8.826   1.391   2.284  0.00  0.00    -0.293 OA
ATOM     13  C   UNL d   1       7.231   2.695   1.081  0.00  0.00     0.096 C 
ENDBRANCH   7  11
BRANCH  10  14
ATOM     14  O   UNL d   1       4.925  -3.487   1.527  0.00  0.00    -0.355 OA
ATOM     15  C   UNL d   1       3.902  -3.837   0.604  0.00  0.00     0.210 C 
ENDBRANCH  10  14
ENDBRANCH   4   5
ENDBRANCH   3   4
TORSDOF 4
