REMARK  3 active torsions:
REMARK  status: ('A' for Active; 'I' for Inactive)
REMARK    1  A    between atoms: O_11  and  C_10 
REMARK    2  A    between atoms: C_15  and  O_11 
REMARK    3  A    between atoms: C_14  and  C_15 
ROOT
ATOM      1  C   UNL d   1      -0.433  -0.784   0.103  0.00  0.00     0.086 A 
ATOM      2  C   UNL d   1      -0.699   0.581   0.084  0.00  0.00     0.043 A 
ATOM      3  C   UNL d   1       0.427   1.516   0.240  0.00  0.00     0.165 C 
ATOM      4  O   UNL d   1       0.810  -1.335   0.218  0.00  0.00    -0.340 OA
ATOM      5  C   UNL d   1       1.910  -0.462  -0.076  0.00  0.00     0.067 C 
ATOM      6  C   UNL d   1       1.751   0.900   0.603  0.00  0.00     0.121 C 
ATOM      7  C   UNL d   1      -1.480  -1.697   0.041  0.00  0.00     0.074 A 
ATOM      8  C   UNL d   1      -2.014   1.042  -0.038  0.00  0.00     0.021 A 
ATOM      9  O   UNL d   1       0.262   2.729   0.152  0.00  0.00    -0.292 OA
ATOM     10  C   UNL d   1      -2.801  -1.250  -0.013  0.00  0.00     0.071 A 
ATOM     11  C   UNL d   1      -3.064   0.119  -0.089  0.00  0.00     0.038 A 
ATOM     12  C   UNL d   1       2.078  -0.352  -1.600  0.00  0.00     0.046 C 
ATOM     13  C   UNL d   1       3.143  -1.172   0.500  0.00  0.00     0.046 C 
ENDROOT
BRANCH  10  14
ATOM     14  O   UNL d   1      -3.894  -2.076   0.018  0.00  0.00    -0.347 OA
BRANCH  14  15
ATOM     15  C   UNL d   1      -3.643  -3.368   0.584  0.00  0.00     0.214 C 
BRANCH  15  16
ATOM     16  C   UNL d   1      -4.919  -4.012   1.064  0.00  0.00    -0.034 A 
ATOM     17  C   UNL d   1      -6.126  -3.859   0.367  0.00  0.00     0.012 A 
ATOM     18  C   UNL d   1      -7.285  -4.485   0.826  0.00  0.00     0.043 A 
ATOM     19  C   UNL d   1      -7.234  -5.272   1.970  0.00  0.00     0.116 A 
ATOM     20  C   UNL d   1      -6.044  -5.454   2.664  0.00  0.00     0.043 A 
ATOM     21  F   UNL d   1      -8.349  -5.869   2.411  0.00  0.00    -0.206 F 
ATOM     22  C   UNL d   1      -4.886  -4.829   2.208  0.00  0.00     0.012 A 
ENDBRANCH  15  16
ENDBRANCH  14  15
ENDBRANCH  10  14
TORSDOF 3
