REMARK  6 active torsions:
REMARK  status: ('A' for Active; 'I' for Inactive)
REMARK    1  A    between atoms: C_6  and  C_1 
REMARK    2  A    between atoms: N_5  and  C_2 
REMARK    3  A    between atoms: C_9  and  C_2 
REMARK    4  A    between atoms: C_3  and  C_4 
REMARK    5  A    between atoms: O_15  and  C_6 
REMARK    6  A    between atoms: C_23  and  O_15 
ROOT
ATOM      1  C   UNL d   1       0.998   0.377   0.219  0.00  0.00     0.119 C 
ATOM      2  C   UNL d   1       0.367   0.508  -0.966  0.00  0.00     0.031 C 
ATOM      3  C   UNL d   1       2.346   0.812   0.435  0.00  0.00     0.105 C 
ATOM      4  N   UNL d   1       3.436   1.196   0.587  0.00  0.00    -0.191 NA
ENDROOT
BRANCH   1   5
ATOM      5  C   UNL d   1       0.194  -0.137   1.363  0.00  0.00     0.303 C 
ATOM      6  O   UNL d   1      -0.965  -0.520   1.296  0.00  0.00    -0.258 OA
BRANCH   5   7
ATOM      7  O   UNL d   1       0.923  -0.030   2.503  0.00  0.00    -0.317 OA
BRANCH   7   8
ATOM      8  C   UNL d   1       0.195  -0.091   3.738  0.00  0.00     0.174 C 
ATOM      9  C   UNL d   1      -0.317   1.304   4.050  0.00  0.00     0.034 C 
ENDBRANCH   7   8
ENDBRANCH   5   7
ENDBRANCH   1   5
BRANCH   2  10
ATOM     10  C   UNL d   1       0.975   1.037  -2.175  0.00  0.00     0.032 C 
ATOM     11  C   UNL d   1       0.284   1.538  -3.215  0.00  0.00     0.040 C 
BRANCH  11  12
ATOM     12  N   UNL d   1      -1.095   1.680  -3.243  0.00  0.00    -0.379 N 
ATOM     13  C   UNL d   1      -1.737   2.930  -2.796  0.00  0.00     0.133 C 
ATOM     14  C   UNL d   1      -2.903   2.635  -1.850  0.00  0.00     0.093 C 
ATOM     15  S   UNL d   1      -4.205   1.629  -2.646  0.00  0.00    -0.166 SA
ATOM     16  C   UNL d   1      -3.136   0.294  -3.294  0.00  0.00     0.093 C 
ATOM     17  C   UNL d   1      -1.945   0.833  -4.095  0.00  0.00     0.133 C 
ENDBRANCH  11  12
BRANCH  11  18
ATOM     18  C   UNL d   1       1.057   2.050  -4.368  0.00  0.00    -0.009 A 
ATOM     19  C   UNL d   1       1.389   1.201  -5.433  0.00  0.00     0.015 A 
ATOM     20  C   UNL d   1       2.166   1.669  -6.497  0.00  0.00     0.024 A 
ATOM     21  C   UNL d   1       2.619   2.987  -6.498  0.00  0.00     0.034 A 
ATOM     22  C   UNL d   1       2.299   3.843  -5.446  0.00  0.00     0.024 A 
ATOM     23 CL   UNL d   1       3.587   3.557  -7.801  0.00  0.00    -0.084 Cl
ATOM     24  C   UNL d   1       1.520   3.374  -4.383  0.00  0.00     0.015 A 
ENDBRANCH  11  18
ENDBRANCH   2  10
TORSDOF 6
