REMARK  3 active torsions:
REMARK  status: ('A' for Active; 'I' for Inactive)
REMARK    1  A    between atoms: S_2  and  C_1 
REMARK    2  A    between atoms: N_8  and  S_2 
REMARK    3  A    between atoms: C_11  and  N_8 
ROOT
ATOM      1  S   UNL d   1       3.398   0.312   0.017  0.00  0.00     0.260 S 
ATOM      2  O   UNL d   1       4.364   1.299  -0.435  0.00  0.00    -0.204 OA
ATOM      3  O   UNL d   1       2.054   0.713   0.385  0.00  0.00    -0.204 OA
ENDROOT
BRANCH   1   4
ATOM      4  C   UNL d   1       3.111  -0.698  -1.381  0.00  0.00     0.161 A 
ATOM      5  N   UNL d   1       3.341  -2.058  -1.418  0.00  0.00    -0.335 N 
ATOM      6  C   UNL d   1       3.047  -2.449  -2.640  0.00  0.00     0.079 A 
ATOM      7  HN  UNL d   1       3.672  -2.643  -0.651  1.00  0.00     0.168 HD
ATOM      8  C   UNL d   1       3.244  -3.820  -3.176  0.00  0.00     0.089 C 
ATOM      9  N   UNL d   1       2.550  -1.399  -3.372  0.00  0.00    -0.348 N 
ATOM     10  C   UNL d   1       2.592  -0.278  -2.591  0.00  0.00     0.135 A 
ATOM     11  C   UNL d   1       2.080  -1.460  -4.734  0.00  0.00     0.156 C 
ENDBRANCH   1   4
BRANCH   1  12
ATOM     12  N   UNL d   1       4.098  -0.583   1.341  0.00  0.00    -0.205 NA
ATOM     13  C   UNL d   1       3.551  -0.074   2.630  0.00  0.00     0.130 C 
BRANCH  12  14
ATOM     14  C   UNL d   1       5.617  -0.690   1.339  0.00  0.00     0.074 C 
ATOM     15  C   UNL d   1       6.188  -1.362   0.076  0.00  0.00     0.021 C 
ATOM     16  C   UNL d   1       5.941  -2.871   0.018  0.00  0.00     0.002 C 
ATOM     17  C   UNL d   1       6.426  -3.592   1.264  0.00  0.00     0.000 C 
ATOM     18  C   UNL d   1       5.842  -2.956   2.517  0.00  0.00     0.002 C 
ATOM     19  C   UNL d   1       6.164  -1.463   2.564  0.00  0.00     0.021 C 
ENDBRANCH  12  14
ENDBRANCH   1  12
TORSDOF 3
