REMARK  4 active torsions:
REMARK  status: ('A' for Active; 'I' for Inactive)
REMARK    1  A    between atoms: C_14  and  C_5 
REMARK    2  A    between atoms: N_15  and  C_6 
REMARK    3  A    between atoms: N_12  and  N_15 
REMARK    4  A    between atoms: C_19  and  C_18 
ROOT
ATOM      1  C   UNL d   1       0.270   1.013  -0.017  0.00  0.00     0.044 A 
ATOM      2  C   UNL d   1       0.004  -0.345  -0.028  0.00  0.00     0.089 A 
ATOM      3  C   UNL d   1      -0.957   1.762  -0.025  0.00  0.00     0.038 A 
ATOM      4  S   UNL d   1      -1.660  -0.692  -0.011  0.00  0.00    -0.071 SA
ATOM      5  C   UNL d   1      -2.094   0.970  -0.020  0.00  0.00     0.018 A 
ATOM      6  C   UNL d   1       1.633   1.382  -0.018  0.00  0.00     0.134 A 
ATOM      7  N   UNL d   1       0.905  -1.341  -0.042  0.00  0.00    -0.346 N 
ATOM      8  HN  UNL d   1       0.659  -2.331  -0.044  1.00  0.00     0.167 HD
ATOM      9  N   UNL d   1       2.561   0.393  -0.045  0.00  0.00    -0.337 N 
ATOM     10  HN  UNL d   1       3.556   0.619  -0.058  1.00  0.00     0.168 HD
ATOM     11  C   UNL d   1       2.158  -0.885  -0.053  0.00  0.00     0.182 A 
ENDROOT
BRANCH   6  12
ATOM     12  N   UNL d   1       2.029   2.735   0.025  0.00  0.00    -0.285 N 
ATOM     13  H   UNL d   1       1.261   3.395  -0.030  0.00  0.00     0.188 HD
BRANCH  12  14
ATOM     14  N   UNL d   1       3.230   3.053  -0.525  0.00  0.00    -0.309 N 
ATOM     15  C   UNL d   1       3.509   4.317  -0.542  0.00  0.00     0.118 C 
ATOM     16  HN  UNL d   1       3.866   2.348  -0.898  1.00  0.00     0.186 HD
BRANCH  15  17
ATOM     17  C   UNL d   1       4.767   4.818  -1.127  0.00  0.00    -0.017 A 
ATOM     18  C   UNL d   1       5.657   3.944  -1.746  0.00  0.00     0.030 A 
ATOM     19  C   UNL d   1       6.820   4.476  -2.267  0.00  0.00     0.088 A 
ATOM     20  N   UNL d   1       7.135   5.790  -2.208  0.00  0.00    -0.375 N 
ATOM     21  C   UNL d   1       6.248   6.609  -1.602  0.00  0.00     0.088 A 
ATOM     22  HN  UNL d   1       8.004   6.146  -2.604  1.00  0.00     0.164 HD
ATOM     23  C   UNL d   1       5.055   6.177  -1.051  0.00  0.00     0.030 A 
ENDBRANCH  15  17
ENDBRANCH  12  14
ENDBRANCH   6  12
BRANCH   5  24
ATOM     24  C   UNL d   1      -3.507   1.386   0.018  0.00  0.00    -0.019 A 
ATOM     25  C   UNL d   1      -4.524   0.635  -0.593  0.00  0.00     0.013 A 
ATOM     26  C   UNL d   1      -5.862   1.034  -0.512  0.00  0.00     0.001 A 
ATOM     27  C   UNL d   1      -6.204   2.198   0.171  0.00  0.00     0.000 A 
ATOM     28  C   UNL d   1      -5.209   2.969   0.765  0.00  0.00     0.001 A 
ATOM     29  C   UNL d   1      -3.872   2.566   0.688  0.00  0.00     0.013 A 
ENDBRANCH   5  24
TORSDOF 4
