REMARK  2 active torsions:
REMARK  status: ('A' for Active; 'I' for Inactive)
REMARK    1  A    between atoms: C_8  and  C_4 
REMARK    2  A    between atoms: N_19  and  C_10 
ROOT
ATOM      1  N   UNL d   1       0.712   0.248  -0.983  0.00  0.00    -0.318 N 
ATOM      2  HN  UNL d   1       1.285   0.466  -1.797  1.00  0.00     0.169 HD
ATOM      3  C   UNL d   1       0.203  -0.916  -0.626  0.00  0.00     0.189 A 
ATOM      4  C   UNL d   1       0.280   1.097   0.011  0.00  0.00     0.138 A 
ATOM      5  N   UNL d   1      -0.462   0.498   0.953  0.00  0.00    -0.242 N 
ATOM      6  HN  UNL d   1      -0.885   0.917   1.782  1.00  0.00     0.196 HD
ATOM      7  O   UNL d   1      -0.518  -0.827   0.536  0.00  0.00    -0.217 OA
ATOM      8  C   UNL d   1       0.391  -2.129  -1.368  0.00  0.00     0.058 A 
ATOM      9  S   UNL d   1      -0.329  -3.604  -0.877  0.00  0.00    -0.098 SA
ATOM     10  C   UNL d   1       1.135  -2.293  -2.522  0.00  0.00     0.024 A 
ATOM     11  C   UNL d   1       0.352  -4.454  -2.194  0.00  0.00     0.050 A 
ATOM     12  C   UNL d   1       1.115  -3.637  -2.997  0.00  0.00     0.009 A 
ENDROOT
BRANCH   4  13
ATOM     13  C   UNL d   1       0.606   2.518   0.014  0.00  0.00     0.013 A 
ATOM     14  C   UNL d   1       1.354   3.072  -1.031  0.00  0.00     0.041 A 
ATOM     15  C   UNL d   1       1.649   4.440  -1.044  0.00  0.00     0.057 A 
ATOM     16 CL   UNL d   1       2.558   5.064  -2.378  0.00  0.00    -0.082 Cl
ATOM     17  C   UNL d   1       1.242   5.287   0.004  0.00  0.00     0.050 A 
ATOM     18  C   UNL d   1       0.465   4.720   1.028  0.00  0.00     0.057 A 
ATOM     19  C   UNL d   1       0.163   3.354   1.046  0.00  0.00     0.041 A 
ATOM     20 CL   UNL d   1      -0.124   5.697   2.331  0.00  0.00    -0.082 Cl
BRANCH  17  21
ATOM     21  N   UNL d   1       1.409   6.686  -0.089  0.00  0.00    -0.300 NA
ATOM     22  H   UNL d   1       1.366   7.159   0.811  0.00  0.00     0.124 HD
ATOM     23  H   UNL d   1       2.206   6.963  -0.658  0.00  0.00     0.124 HD
ENDBRANCH  17  21
ENDBRANCH   4  13
TORSDOF 2
