REMARK  2 active torsions:
REMARK  status: ('A' for Active; 'I' for Inactive)
REMARK    1  A    between atoms: C_13  and  C_3 
REMARK    2  A    between atoms: C_11  and  C_7 
ROOT
ATOM      1  N   UNL d   1      -0.793   0.023   0.008  0.00  0.00    -0.331 N 
ATOM      2  HN  UNL d   1      -1.779  -0.235   0.039  1.00  0.00     0.168 HD
ATOM      3  C   UNL d   1      -0.270   1.205  -0.037  0.00  0.00     0.162 A 
ATOM      4  C   UNL d   1       0.304  -0.794   0.003  0.00  0.00     0.111 A 
ATOM      5  O   UNL d   1       1.081   1.294  -0.083  0.00  0.00    -0.256 OA
ATOM      6  C   UNL d   1       1.552   0.013  -0.054  0.00  0.00     0.316 A 
ATOM      7  C   UNL d   1       0.311  -2.130   0.040  0.00  0.00     0.047 C 
ATOM      8  O   UNL d   1       2.709  -0.351  -0.077  0.00  0.00    -0.257 OA
ENDROOT
BRANCH   7   9
ATOM      9  C   UNL d   1      -0.933  -2.901   0.046  0.00  0.00    -0.031 A 
ATOM     10  C   UNL d   1      -1.557  -3.240   1.253  0.00  0.00     0.051 A 
ATOM     11  C   UNL d   1      -2.764  -3.905   1.185  0.00  0.00     0.105 A 
ATOM     12  O   UNL d   1      -3.520  -4.292   2.248  0.00  0.00    -0.323 OA
ATOM     13  C   UNL d   1      -3.345  -4.237  -0.017  0.00  0.00     0.105 A 
ATOM     14  C   UNL d   1      -4.663  -4.859   1.575  0.00  0.00     0.352 A 
ATOM     15  O   UNL d   1      -4.536  -4.874   0.139  0.00  0.00    -0.323 OA
ATOM     16  C   UNL d   1      -2.753  -3.925  -1.221  0.00  0.00     0.040 A 
ATOM     17  C   UNL d   1      -1.533  -3.245  -1.186  0.00  0.00     0.014 A 
ENDBRANCH   7   9
BRANCH   3  18
ATOM     18  C   UNL d   1      -0.999   2.481  -0.009  0.00  0.00     0.015 A 
ATOM     19  C   UNL d   1      -2.397   2.454   0.080  0.00  0.00     0.016 A 
ATOM     20  C   UNL d   1      -3.114   3.646   0.185  0.00  0.00     0.001 A 
ATOM     21  C   UNL d   1      -2.438   4.865   0.197  0.00  0.00     0.000 A 
ATOM     22  C   UNL d   1      -1.048   4.897   0.085  0.00  0.00     0.001 A 
ATOM     23  C   UNL d   1      -0.326   3.707  -0.021  0.00  0.00     0.016 A 
ENDBRANCH   3  18
TORSDOF 2
