REMARK  4 active torsions:
REMARK  status: ('A' for Active; 'I' for Inactive)
REMARK    1  A    between atoms: C_9  and  N_1 
REMARK       I    between atoms: C_7  and  N_11 
REMARK       I    between atoms: N_10  and  C_7 
REMARK    2  A    between atoms: C_8  and  C_9 
REMARK       I    between atoms: N_12  and  C_8 
REMARK    3  A    between atoms: C_14  and  N_10 
REMARK    4  A    between atoms: N_11  and  N_12 
ROOT
ATOM      1  C   UNL d   1       1.381  -2.648   2.202  0.00  0.00     0.254 C 
ATOM      2  N   UNL d   1       2.309  -1.659   2.466  0.00  0.00    -0.265 N 
ATOM      3  O   UNL d   1       1.536  -3.796   2.646  0.00  0.00    -0.270 OA
ATOM      4  H   UNL d   1       2.323  -0.789   1.931  0.00  0.00     0.190 HD
ENDROOT
BRANCH   1   5
ATOM      5  C   UNL d   1       0.106  -2.278   1.447  0.00  0.00     0.234 C 
BRANCH   5   6
ATOM      6  N   UNL d   1       0.170  -1.063   0.612  0.00  0.00    -0.336 N 
ATOM      7  C   UNL d   1       1.177  -0.911  -0.372  0.00  0.00     0.052 A 
ATOM      8  C   UNL d   1       1.479   0.379  -0.868  0.00  0.00     0.032 A 
ATOM      9  C   UNL d   1       1.867  -2.001  -0.927  0.00  0.00     0.031 A 
ATOM     10  C   UNL d   1       2.458   0.565  -1.851  0.00  0.00     0.021 A 
ATOM     11  S   UNL d   1       0.604   1.822  -0.260  0.00  0.00    -0.086 SA
ATOM     12  C   UNL d   1       3.126  -0.533  -2.384  0.00  0.00     0.002 A 
ATOM     13  C   UNL d   1       2.825  -1.814  -1.929  0.00  0.00     0.002 A 
ATOM     14  C   UNL d   1      -0.973   1.047   0.088  0.00  0.00     0.032 A 
ATOM     15  C   UNL d   1      -1.033  -0.305   0.496  0.00  0.00     0.052 A 
ATOM     16  C   UNL d   1      -2.142   1.801  -0.084  0.00  0.00     0.021 A 
ATOM     17  C   UNL d   1      -2.308  -0.873   0.676  0.00  0.00     0.031 A 
ATOM     18  C   UNL d   1      -3.473  -0.125   0.475  0.00  0.00     0.002 A 
ATOM     19  C   UNL d   1      -3.390   1.213   0.104  0.00  0.00     0.002 A 
ENDBRANCH   5   6
ENDBRANCH   1   5
BRANCH   2  20
ATOM     20  N   UNL d   1       3.539  -2.106   2.985  0.00  0.00    -0.249 N 
ATOM     21  C   UNL d   1       4.682  -1.329   2.885  0.00  0.00     0.339 C 
ATOM     22  N   UNL d   1       5.784  -2.050   3.316  0.00  0.00    -0.308 N 
ATOM     23  O   UNL d   1       4.676  -0.199   2.419  0.00  0.00    -0.245 OA
ATOM     24  H   UNL d   1       5.648  -3.051   3.330  0.00  0.00     0.170 HD
ATOM     25  H   UNL d   1       3.473  -2.853   3.670  0.00  0.00     0.192 HD
BRANCH  22  26
ATOM     26  C   UNL d   1       7.111  -1.594   3.431  0.00  0.00     0.038 A 
ATOM     27  C   UNL d   1       8.122  -2.562   3.502  0.00  0.00     0.053 A 
ATOM     28  C   UNL d   1       9.460  -2.172   3.608  0.00  0.00     0.036 A 
ATOM     29 CL   UNL d   1      10.696  -3.371   3.647  0.00  0.00    -0.084 Cl
ATOM     30  C   UNL d   1       9.801  -0.825   3.679  0.00  0.00     0.024 A 
ATOM     31  C   UNL d   1       8.796   0.140   3.635  0.00  0.00     0.004 A 
ATOM     32  C   UNL d   1       7.455  -0.243   3.506  0.00  0.00     0.029 A 
ENDBRANCH  22  26
ENDBRANCH   2  20
TORSDOF 4
