REMARK  7 active torsions:
REMARK  status: ('A' for Active; 'I' for Inactive)
REMARK    1  A    between atoms: CA_3  and  CB_1 
REMARK    2  A    between atoms: C_2  and  CA_3 
REMARK    3  A    between atoms: OXT_7  and  C_2 
REMARK    4  A    between atoms: N_4  and  CA_3 
REMARK    5  A    between atoms: C5_13  and  N_4 
REMARK    6  A    between atoms: C4_12  and  C5_13 
REMARK    7  A    between atoms: O3_15  and  C7_14 
ROOT
ATOM      1  N   LEU d   1      -1.097  -0.790   0.826  0.00  0.00     0.106 N 
ATOM      2  H   LEU d   1      -1.154  -1.183  -0.119  0.00  0.00     0.317 HD
ENDROOT
BRANCH   1   3
ATOM      3  CA  LEU d   1       0.324  -0.787   1.231  0.00  0.00     0.340 C 
BRANCH   3   4
ATOM      4  C   LEU d   1       1.134   0.085   0.234  0.00  0.00     0.178 C 
ATOM      5  O   LEU d   1       0.849   0.237  -0.947  0.00  0.00    -0.648 OA
BRANCH   4   6
ATOM      6  OXT LEU d   1       2.254   0.629   0.775  0.00  0.00    -0.775 OA
ATOM      7  HXT LEU d   1       2.398   0.384   1.709  0.00  0.00     0.167 HD
ENDBRANCH   4   6
ENDBRANCH   3   4
BRANCH   3   8
ATOM      8  CB  LEU d   1       0.927  -2.170   1.188  0.00  0.00     0.021 C 
ATOM      9  CG  LEU d   1       1.451  -2.884   2.202  0.00  0.00    -0.089 C 
ATOM     10  CD1 LEU d   1       1.989  -4.272   1.958  0.00  0.00     0.042 C 
ATOM     11  CD2 LEU d   1       1.530  -2.433   3.635  0.00  0.00     0.042 C 
ENDBRANCH   3   8
ENDBRANCH   1   3
BRANCH   1  12
ATOM     12  C5  <1> d   1      -1.935  -1.578   1.738  0.00  0.00     0.312 C 
BRANCH  12  13
ATOM     13  C4  <1> d   1      -3.379  -1.632   1.294  0.00  0.00     0.003 A 
ATOM     14  C7  <1> d   1      -4.049  -0.548   0.711  0.00  0.00     0.073 A 
ATOM     15  C11 <1> d   1      -5.392  -0.633   0.352  0.00  0.00     0.037 A 
ATOM     16  C13 <1> d   1      -6.098  -1.812   0.580  0.00  0.00     0.003 A 
ATOM     17  C12 <1> d   1      -5.461  -2.898   1.177  0.00  0.00     0.001 A 
ATOM     18  C8  <1> d   1      -4.115  -2.806   1.537  0.00  0.00     0.012 A 
BRANCH  14  19
ATOM     19  O3  <1> d   1      -3.419   0.639   0.455  0.00  0.00    -0.360 OA
ATOM     20  H7  <1> d   1      -2.458   0.477   0.564  0.00  0.00     0.217 HD
ENDBRANCH  14  19
ENDBRANCH  12  13
ENDBRANCH   1  12
TORSDOF 7
