REMARK  5 active torsions:
REMARK  status: ('A' for Active; 'I' for Inactive)
REMARK    1  A    between atoms: C_11  and  C_1 
REMARK    2  A    between atoms: N_10  and  C_2 
REMARK       I    between atoms: C_9  and  N_10 
REMARK       I    between atoms: N_12  and  C_9 
REMARK    3  A    between atoms: O_17  and  C_11 
REMARK    4  A    between atoms: C_18  and  N_12 
REMARK    5  A    between atoms: C_21  and  O_17 
ROOT
ATOM      1  C   UNL d   1       2.271  -0.108  -0.275  0.00  0.00     0.110 A 
ATOM      2  C   UNL d   1       1.405   0.966  -0.093  0.00  0.00     0.073 A 
ATOM      3  C   UNL d   1       0.017   0.542   0.115  0.00  0.00     0.032 A 
ATOM      4  S   UNL d   1       1.464  -1.601  -0.169  0.00  0.00    -0.063 SA
ATOM      5  C   UNL d   1      -0.034  -0.855   0.085  0.00  0.00     0.088 A 
ATOM      6  N   UNL d   1      -1.109  -1.653   0.206  0.00  0.00    -0.354 N 
ATOM      7  HN  UNL d   1      -1.040  -2.670   0.175  1.00  0.00     0.166 HD
ATOM      8  C   UNL d   1      -1.251   1.189   0.283  0.00  0.00    -0.045 A 
ATOM      9  C   UNL d   1      -2.389   0.357   0.413  0.00  0.00     0.032 A 
ATOM     10  C   UNL d   1      -2.275  -1.020   0.370  0.00  0.00     0.006 A 
ATOM     11  C   UNL d   1      -1.549   2.666   0.270  0.00  0.00     0.049 C 
ATOM     12  C   UNL d   1      -3.502  -1.882   0.453  0.00  0.00     0.068 C 
ENDROOT
BRANCH   2  13
ATOM     13  N   UNL d   1       1.931   2.268  -0.152  0.00  0.00    -0.306 N 
ATOM     14  C   UNL d   1       1.752   3.151   0.894  0.00  0.00     0.325 C 
ATOM     15  N   UNL d   1       2.519   4.303   0.732  0.00  0.00    -0.309 N 
ATOM     16  O   UNL d   1       1.026   2.945   1.861  0.00  0.00    -0.247 OA
ATOM     17  H   UNL d   1       3.493   4.108   0.541  0.00  0.00     0.170 HD
ATOM     18  H   UNL d   1       2.855   2.339  -0.562  0.00  0.00     0.170 HD
BRANCH  15  19
ATOM     19  C   UNL d   1       2.259   5.409   1.562  0.00  0.00     0.036 A 
ATOM     20  C   UNL d   1       3.281   5.959   2.334  0.00  0.00     0.029 A 
ATOM     21  C   UNL d   1       2.977   6.957   3.262  0.00  0.00     0.002 A 
ATOM     22  C   UNL d   1       1.671   7.442   3.374  0.00  0.00     0.000 A 
ATOM     23  C   UNL d   1       0.668   6.944   2.545  0.00  0.00     0.002 A 
ATOM     24  C   UNL d   1       0.961   5.927   1.643  0.00  0.00     0.029 A 
ENDBRANCH  15  19
ENDBRANCH   2  13
BRANCH   1  25
ATOM     25  C   UNL d   1       3.709  -0.045  -0.480  0.00  0.00     0.302 C 
ATOM     26  O   UNL d   1       4.326   0.997  -0.687  0.00  0.00    -0.259 OA
BRANCH  25  27
ATOM     27  O   UNL d   1       4.283  -1.277  -0.398  0.00  0.00    -0.317 OA
BRANCH  27  28
ATOM     28  C   UNL d   1       5.697  -1.348  -0.620  0.00  0.00     0.174 C 
ATOM     29  C   UNL d   1       5.965  -1.488  -2.106  0.00  0.00     0.034 C 
ENDBRANCH  27  28
ENDBRANCH  25  27
ENDBRANCH   1  25
TORSDOF 5
