REMARK  5 active torsions:
REMARK  status: ('A' for Active; 'I' for Inactive)
REMARK    1  A    between atoms: C_6  and  N_1 
REMARK    2  A    between atoms: C_10  and  C_4 
REMARK    3  A    between atoms: N_9  and  C_8 
REMARK    4  A    between atoms: O_17  and  C_10 
REMARK    5  A    between atoms: C_21  and  O_17 
ROOT
ATOM      1  N   UNL d   1      -0.234  -1.048   0.168  0.00  0.00    -0.241 N 
ATOM      2  N   UNL d   1       1.054  -0.634   0.216  0.00  0.00    -0.296 N 
ATOM      3  HN  UNL d   1       1.884  -1.215   0.334  1.00  0.00     0.187 HD
ATOM      4  C   UNL d   1      -0.323   1.171  -0.028  0.00  0.00     0.087 A 
ATOM      5  C   UNL d   1      -1.108   0.018   0.007  0.00  0.00     0.050 A 
ATOM      6  C   UNL d   1       1.011   0.689   0.076  0.00  0.00     0.041 A 
ATOM      7  C   UNL d   1      -2.586  -0.156  -0.050  0.00  0.00     0.071 C 
ATOM      8  C   UNL d   1       2.290   1.448   0.033  0.00  0.00     0.071 C 
ENDROOT
BRANCH   1   9
ATOM      9  C   UNL d   1      -0.518  -2.449   0.164  0.00  0.00     0.160 A 
ATOM     10  C   UNL d   1       0.368  -3.353   0.741  0.00  0.00     0.148 A 
ATOM     11  C   UNL d   1       0.162  -4.729   0.587  0.00  0.00     0.041 A 
ATOM     12  C   UNL d   1      -0.930  -5.166  -0.154  0.00  0.00     0.020 A 
ATOM     13  C   UNL d   1      -1.790  -4.212  -0.677  0.00  0.00     0.090 A 
ATOM     14  N   UNL d   1      -1.620  -2.877  -0.524  0.00  0.00    -0.349 N 
ATOM     15  HN  UNL d   1      -2.291  -2.213  -0.911  1.00  0.00     0.167 HD
BRANCH  10  16
ATOM     16  N   UNL d   1       1.386  -2.932   1.673  0.00  0.00    -0.112 N 
ATOM     17  O   UNL d   1       1.011  -2.325   2.685  0.00  0.00    -0.532 OA
ATOM     18  O   UNL d   1       2.542  -3.321   1.460  0.00  0.00    -0.532 OA
ENDBRANCH  10  16
ENDBRANCH   1   9
BRANCH   4  19
ATOM     19  C   UNL d   1      -0.780   2.547  -0.186  0.00  0.00     0.297 C 
ATOM     20  O   UNL d   1      -1.946   2.866  -0.364  0.00  0.00    -0.259 OA
BRANCH  19  21
ATOM     21  O   UNL d   1       0.259   3.430  -0.183  0.00  0.00    -0.318 OA
BRANCH  21  22
ATOM     22  C   UNL d   1      -0.025   4.738  -0.692  0.00  0.00     0.174 C 
ATOM     23  C   UNL d   1       0.144   4.710  -2.202  0.00  0.00     0.034 C 
ENDBRANCH  21  22
ENDBRANCH  19  21
ENDBRANCH   4  19
TORSDOF 5
