REMARK  3 active torsions:
REMARK  status: ('A' for Active; 'I' for Inactive)
REMARK    1  A    between atoms: N_2  and  S_1 
REMARK    2  A    between atoms: C_7  and  S_1 
REMARK    3  A    between atoms: C_5  and  C_6 
ROOT
ATOM      1  N   UNL d   1       0.480   0.722  -1.528  0.00  0.00    -0.188 N 
ATOM      2  N   UNL d   1       0.478   2.045  -1.850  0.00  0.00    -0.282 N 
ATOM      3  HN  UNL d   1       0.776   2.831  -1.273  1.00  0.00     0.188 HD
ATOM      4  C   UNL d   1      -0.006   2.076  -3.100  0.00  0.00     0.086 A 
ATOM      5  C   UNL d   1      -0.386   0.792  -3.550  0.00  0.00     0.054 A 
ATOM      6  C   UNL d   1      -0.049  -0.063  -2.526  0.00  0.00     0.132 A 
ENDROOT
BRANCH   1   7
ATOM      7  S   UNL d   1       1.037   0.065  -0.019  0.00  0.00     0.283 S 
ATOM      8  O   UNL d   1       2.260   0.794   0.270  0.00  0.00    -0.198 OA
ATOM      9  O   UNL d   1       1.048  -1.380  -0.164  0.00  0.00    -0.198 OA
BRANCH   7  10
ATOM     10  C   UNL d   1      -0.185   0.515   1.179  0.00  0.00     0.103 A 
ATOM     11  C   UNL d   1      -1.484   0.000   1.152  0.00  0.00     0.057 A 
ATOM     12 CL   UNL d   1      -2.080  -1.078  -0.052  0.00  0.00    -0.083 Cl
ATOM     13  C   UNL d   1      -2.386   0.350   2.166  0.00  0.00     0.025 A 
ATOM     14  C   UNL d   1      -1.998   1.197   3.205  0.00  0.00     0.002 A 
ATOM     15  C   UNL d   1      -0.702   1.700   3.239  0.00  0.00     0.002 A 
ATOM     16  C   UNL d   1       0.205   1.360   2.233  0.00  0.00     0.027 A 
ENDBRANCH   7  10
ENDBRANCH   1   7
BRANCH   4  17
ATOM     17  C   UNL d   1      -0.126   3.332  -3.897  0.00  0.00     0.127 A 
ATOM     18  C   UNL d   1       0.358   4.591  -3.583  0.00  0.00     0.043 A 
ATOM     19  N   UNL d   1       0.027   5.485  -4.580  0.00  0.00    -0.342 N 
ATOM     20  C   UNL d   1       1.151   5.036  -2.417  0.00  0.00     0.071 C 
ATOM     21  C   UNL d   1      -0.627   4.756  -5.456  0.00  0.00     0.120 A 
ATOM     22  HN  UNL d   1       0.240   6.481  -4.626  1.00  0.00     0.167 HD
ATOM     23  O   UNL d   1      -0.747   3.435  -5.121  0.00  0.00    -0.294 OA
ATOM     24  C   UNL d   1      -1.238   5.190  -6.728  0.00  0.00     0.098 C 
ENDBRANCH   4  17
TORSDOF 3
