REMARK  5 active torsions:
REMARK  status: ('A' for Active; 'I' for Inactive)
REMARK    1  A    between atoms: C_9  and  C_1 
REMARK    2  A    between atoms: C_4  and  C_14 
REMARK    3  A    between atoms: C_16  and  C_5 
REMARK    4  A    between atoms: C_21  and  C_8 
REMARK       I    between atoms: N_17  and  C_9 
REMARK       I    between atoms: C_14  and  N_18 
REMARK    5  A    between atoms: N_18  and  N_17 
ROOT
ATOM      1  C   UNL d   1      -2.032  -4.453   0.227  0.00  0.00     0.275 C 
ATOM      2  N   UNL d   1      -1.143  -3.401   0.358  0.00  0.00    -0.263 N 
ATOM      3  O   UNL d   1      -3.246  -4.255   0.188  0.00  0.00    -0.266 OA
ATOM      4  H   UNL d   1      -0.151  -3.501   0.152  0.00  0.00     0.190 HD
ENDROOT
BRANCH   2   5
ATOM      5  N   UNL d   1      -1.658  -2.087   0.301  0.00  0.00    -0.260 N 
ATOM      6  C   UNL d   1      -0.879  -1.077  -0.246  0.00  0.00     0.313 C 
ATOM      7  O   UNL d   1       0.281  -1.299  -0.598  0.00  0.00    -0.262 OA
ATOM      8  H   UNL d   1      -2.661  -1.964   0.454  0.00  0.00     0.190 HD
BRANCH   6   9
ATOM      9  C   UNL d   1      -1.545   0.205  -0.346  0.00  0.00     0.241 A 
ATOM     10  N   UNL d   1      -2.764   0.506   0.058  0.00  0.00    -0.314 N 
ATOM     11  C   UNL d   1      -2.848   1.848  -0.251  0.00  0.00     0.145 A 
ATOM     12  HN  UNL d   1      -3.464  -0.098   0.488  1.00  0.00     0.170 HD
ATOM     13  N   UNL d   1      -1.747   2.352  -0.831  0.00  0.00    -0.241 N 
ATOM     14  O   UNL d   1      -0.879   1.261  -0.891  0.00  0.00    -0.212 OA
ATOM     15  HN  UNL d   1      -1.584   3.306  -1.152  1.00  0.00     0.196 HD
BRANCH  11  16
ATOM     16  C   UNL d   1      -4.057   2.684   0.043  0.00  0.00     0.050 A 
ATOM     17  S   UNL d   1      -5.461   2.081   0.807  0.00  0.00    -0.098 SA
ATOM     18  C   UNL d   1      -6.232   3.607   0.738  0.00  0.00     0.050 A 
ATOM     19  C   UNL d   1      -5.436   4.561   0.141  0.00  0.00     0.009 A 
ATOM     20  C   UNL d   1      -4.175   4.026  -0.260  0.00  0.00     0.023 A 
ENDBRANCH  11  16
ENDBRANCH   6   9
ENDBRANCH   2   5
BRANCH   1  21
ATOM     21  C   UNL d   1      -1.445  -5.774   0.111  0.00  0.00     0.094 A 
ATOM     22  C   UNL d   1      -1.937  -6.919  -0.603  0.00  0.00     0.083 A 
ATOM     23  N   UNL d   1      -1.127  -7.973  -0.403  0.00  0.00    -0.259 N 
ATOM     24  O   UNL d   1      -0.119  -7.546   0.422  0.00  0.00    -0.241 OA
ATOM     25  HN  UNL d   1      -1.240  -8.909  -0.790  1.00  0.00     0.195 HD
ATOM     26  C   UNL d   1      -0.302  -6.241   0.737  0.00  0.00     0.090 A 
ATOM     27  C   UNL d   1       0.691  -5.679   1.674  0.00  0.00     0.080 C 
BRANCH  22  28
ATOM     28  C   UNL d   1      -3.113  -7.064  -1.470  0.00  0.00    -0.006 A 
ATOM     29  C   UNL d   1      -3.816  -8.280  -1.505  0.00  0.00     0.014 A 
ATOM     30  C   UNL d   1      -4.936  -8.437  -2.326  0.00  0.00     0.001 A 
ATOM     31  C   UNL d   1      -5.368  -7.380  -3.125  0.00  0.00     0.000 A 
ATOM     32  C   UNL d   1      -4.671  -6.175  -3.114  0.00  0.00     0.001 A 
ATOM     33  C   UNL d   1      -3.544  -6.021  -2.300  0.00  0.00     0.014 A 
ENDBRANCH  22  28
ENDBRANCH   1  21
TORSDOF 5
