REMARK  6 active torsions:
REMARK  status: ('A' for Active; 'I' for Inactive)
REMARK    1  A    between atoms: C_12  and  C_5 
REMARK    2  A    between atoms: C_6  and  C_7 
REMARK    3  A    between atoms: O_19  and  C_6 
REMARK    4  A    between atoms: O_16  and  C_17 
REMARK    5  A    between atoms: C_20  and  O_16 
REMARK    6  A    between atoms: C_24  and  O_19 
ROOT
ATOM      1  C   UNL d   1      -2.068   0.280   0.127  0.00  0.00    -0.006 C 
ATOM      2  C   UNL d   1      -1.062  -0.830   0.099  0.00  0.00     0.189 C 
ATOM      3  C   UNL d   1       0.375  -0.423   0.090  0.00  0.00     0.021 A 
ATOM      4  C   UNL d   1       0.741   0.933   0.033  0.00  0.00    -0.043 A 
ATOM      5  C   UNL d   1      -3.283   0.030  -0.396  0.00  0.00     0.022 C 
ATOM      6  C   UNL d   1       3.089   0.286  -0.049  0.00  0.00     0.040 A 
ATOM      7  C   UNL d   1       2.098   1.277  -0.043  0.00  0.00     0.025 A 
ATOM      8  C   UNL d   1       1.365  -1.415   0.094  0.00  0.00     0.017 A 
ATOM      9  C   UNL d   1      -1.574   1.581   0.694  0.00  0.00     0.047 C 
ATOM     10  O   UNL d   1      -1.386  -2.010   0.060  0.00  0.00    -0.287 OA
ATOM     11  C   UNL d   1       2.717  -1.062   0.031  0.00  0.00     0.018 A 
ATOM     12  C   UNL d   1      -0.302   2.018  -0.020  0.00  0.00     0.044 C 
ENDROOT
BRANCH   5  13
ATOM     13  C   UNL d   1      -4.301   1.063  -0.589  0.00  0.00    -0.033 A 
ATOM     14  C   UNL d   1      -4.322   1.761  -1.802  0.00  0.00     0.048 A 
ATOM     15  C   UNL d   1      -5.172   2.858  -1.969  0.00  0.00     0.076 A 
ATOM     16  C   UNL d   1      -6.083   3.187  -0.966  0.00  0.00     0.037 A 
ATOM     17  C   UNL d   1      -6.097   2.465   0.229  0.00  0.00     0.004 A 
ATOM     18  C   UNL d   1      -5.194   1.416   0.426  0.00  0.00     0.011 A 
BRANCH  15  19
ATOM     19  O   UNL d   1      -5.186   3.642  -3.103  0.00  0.00    -0.311 OA
BRANCH  19  20
ATOM     20  C   UNL d   1      -3.990   3.920  -3.730  0.00  0.00     0.076 A 
ATOM     21  C   UNL d   1      -4.031   4.043  -5.120  0.00  0.00     0.037 A 
ATOM     22  C   UNL d   1      -2.858   4.294  -5.835  0.00  0.00     0.003 A 
ATOM     23  C   UNL d   1      -1.644   4.426  -5.160  0.00  0.00     0.000 A 
ATOM     24  C   UNL d   1      -1.607   4.346  -3.769  0.00  0.00     0.003 A 
ATOM     25  C   UNL d   1      -2.782   4.121  -3.052  0.00  0.00     0.037 A 
ENDBRANCH  19  20
ENDBRANCH  15  19
ENDBRANCH   5  13
BRANCH   6  26
ATOM     26  C   UNL d   1       4.499   0.724  -0.226  0.00  0.00     0.293 C 
ATOM     27  O   UNL d   1       4.825   1.894  -0.352  0.00  0.00    -0.259 OA
BRANCH  26  28
ATOM     28  O   UNL d   1       5.314  -0.352  -0.339  0.00  0.00    -0.318 OA
BRANCH  28  29
ATOM     29  C   UNL d   1       6.594  -0.088  -0.930  0.00  0.00     0.174 C 
ATOM     30  C   UNL d   1       6.452  -0.245  -2.433  0.00  0.00     0.034 C 
ENDBRANCH  28  29
ENDBRANCH  26  28
ENDBRANCH   6  26
TORSDOF 6
