REMARK  3 active torsions:
REMARK  status: ('A' for Active; 'I' for Inactive)
REMARK       I    between atoms: N_2  and  C_1 
REMARK       I    between atoms: N_3  and  C_1 
REMARK    1  A    between atoms: C_13  and  N_3 
REMARK    2  A    between atoms: C_4  and  C_8 
REMARK    3  A    between atoms: C_10  and  C_4 
ROOT
ATOM      1  C   UNL d   1       0.997  -0.027   0.034  0.00  0.00     0.322 C 
ATOM      2  N   UNL d   1       0.233  -0.732  -0.894  0.00  0.00    -0.334 N 
ATOM      3  N   UNL d   1       0.685   1.304   0.180  0.00  0.00    -0.309 N 
ATOM      4  O   UNL d   1       1.878  -0.598   0.678  0.00  0.00    -0.247 OA
ATOM      5  C   UNL d   1      -0.909  -0.246  -1.667  0.00  0.00     0.128 C 
ATOM      6  C   UNL d   1       0.662  -2.088  -1.239  0.00  0.00     0.128 C 
ATOM      7  C   UNL d   1      -1.731  -2.671  -1.868  0.00  0.00     0.064 C 
ATOM      8  C   UNL d   1      -2.094  -1.208  -1.567  0.00  0.00     0.032 C 
ATOM      9  C   UNL d   1      -0.479  -3.091  -1.091  0.00  0.00     0.032 C 
ATOM     10  H   UNL d   1       0.038   1.700  -0.478  0.00  0.00     0.170 HD
ENDROOT
BRANCH   3  11
ATOM     11  C   UNL d   1       1.208   2.214   1.127  0.00  0.00     0.036 A 
ATOM     12  C   UNL d   1       2.217   1.900   2.041  0.00  0.00     0.031 A 
ATOM     13  C   UNL d   1       2.631   2.832   2.999  0.00  0.00     0.026 A 
ATOM     14  C   UNL d   1       2.035   4.087   3.047  0.00  0.00     0.034 A 
ATOM     15  C   UNL d   1       1.052   4.430   2.124  0.00  0.00     0.026 A 
ATOM     16 CL   UNL d   1       2.506   5.211   4.261  0.00  0.00    -0.084 Cl
ATOM     17  C   UNL d   1       0.647   3.499   1.161  0.00  0.00     0.031 A 
ENDBRANCH   3  11
BRANCH   7  18
ATOM     18  C   UNL d   1      -1.562  -2.912  -3.369  0.00  0.00     0.163 C 
ATOM     19  O   UNL d   1      -1.240  -2.002  -4.133  0.00  0.00    -0.292 OA
BRANCH  18  20
ATOM     20  C   UNL d   1      -1.785  -4.281  -3.938  0.00  0.00     0.010 A 
ATOM     21  C   UNL d   1      -2.116  -5.390  -3.152  0.00  0.00     0.015 A 
ATOM     22  C   UNL d   1      -2.319  -6.640  -3.745  0.00  0.00     0.001 A 
ATOM     23  C   UNL d   1      -2.192  -6.791  -5.125  0.00  0.00     0.000 A 
ATOM     24  C   UNL d   1      -1.863  -5.694  -5.917  0.00  0.00     0.001 A 
ATOM     25  C   UNL d   1      -1.659  -4.445  -5.327  0.00  0.00     0.015 A 
ENDBRANCH  18  20
ENDBRANCH   7  18
TORSDOF 3
