REMARK  1 active torsions:
REMARK  status: ('A' for Active; 'I' for Inactive)
REMARK    1  A    between atoms: C_8  and  C_7 
ROOT
ATOM      1  C   UNL d   1      -1.256   0.122  -0.083  0.00  0.00     0.117 C 
ATOM      2  C   UNL d   1      -0.656  -1.180   0.232  0.00  0.00     0.302 C 
ATOM      3  C   UNL d   1      -0.515   1.336   0.283  0.00  0.00     0.302 C 
ATOM      4  O   UNL d   1       0.690  -1.170   0.335  0.00  0.00    -0.280 OA
ATOM      5  O   UNL d   1       0.828   1.212   0.242  0.00  0.00    -0.280 OA
ATOM      6  C   UNL d   1       1.401  -0.032  -0.158  0.00  0.00     0.175 C 
ATOM      7  C   UNL d   1      -2.450   0.102  -0.704  0.00  0.00     0.061 C 
ATOM      8  O   UNL d   1      -1.045   2.366   0.674  0.00  0.00    -0.259 OA
ATOM      9  O   UNL d   1      -1.308  -2.206   0.374  0.00  0.00    -0.259 OA
ATOM     10  C   UNL d   1       1.538  -0.096  -1.682  0.00  0.00     0.080 C 
ATOM     11  C   UNL d   1       2.792  -0.079   0.476  0.00  0.00     0.080 C 
ENDROOT
BRANCH   7  12
ATOM     12  C   UNL d   1      -3.074   1.258  -1.244  0.00  0.00     0.076 A 
ATOM     13  O   UNL d   1      -2.377   2.297  -1.816  0.00  0.00    -0.316 OA
ATOM     14  C   UNL d   1      -3.263   3.232  -2.244  0.00  0.00     0.050 A 
ATOM     15  C   UNL d   1      -2.693   4.450  -2.851  0.00  0.00     0.076 C 
ATOM     16  C   UNL d   1      -4.547   2.807  -2.002  0.00  0.00     0.035 A 
ATOM     17  C   UNL d   1      -4.427   1.542  -1.377  0.00  0.00     0.040 A 
ENDBRANCH   7  12
TORSDOF 1
