REMARK  3 active torsions:
REMARK  status: ('A' for Active; 'I' for Inactive)
REMARK    1  A    between atoms: C_3  and  S_1 
REMARK    2  A    between atoms: N_4  and  S_1 
REMARK    3  A    between atoms: N_2  and  C_7 
ROOT
ATOM      1  C   UNL d   1       0.441   1.749  -0.122  0.00  0.00     0.079 A 
ATOM      2  C   UNL d   1      -0.464   4.370  -0.397  0.00  0.00     0.102 A 
ATOM      3  C   UNL d   1      -0.933   2.002  -0.208  0.00  0.00     0.028 A 
ATOM      4  C   UNL d   1       1.363   2.804  -0.131  0.00  0.00     0.028 A 
ATOM      5  C   UNL d   1       0.911   4.119  -0.275  0.00  0.00     0.037 A 
ATOM      6  C   UNL d   1      -1.389   3.315  -0.357  0.00  0.00     0.037 A 
ENDROOT
BRANCH   1   7
ATOM      7  S   UNL d   1       1.014   0.075   0.128  0.00  0.00     0.260 S 
ATOM      8  O   UNL d   1      -0.070  -0.654   0.750  0.00  0.00    -0.200 OA
ATOM      9  O   UNL d   1       2.316   0.160   0.755  0.00  0.00    -0.200 OA
BRANCH   7  10
ATOM     10  N   UNL d   1       1.222  -0.516  -1.450  0.00  0.00    -0.315 N 
ATOM     11  C   UNL d   1       0.017  -0.747  -2.262  0.00  0.00     0.162 C 
ATOM     12  C   UNL d   1       2.366  -0.006  -2.221  0.00  0.00     0.162 C 
ENDBRANCH   7  10
ENDBRANCH   1   7
BRANCH   2  13
ATOM     13  N   UNL d   1      -0.940   5.750  -0.565  0.00  0.00    -0.116 N 
ATOM     14  O   UNL d   1      -0.093   6.653  -0.582  0.00  0.00    -0.532 OA
ATOM     15  O   UNL d   1      -2.160   5.926  -0.693  0.00  0.00    -0.532 OA
ENDBRANCH   2  13
TORSDOF 3
