REMARK  6 active torsions:
REMARK  status: ('A' for Active; 'I' for Inactive)
REMARK    1  A    between atoms: N_2  and  C_1 
REMARK    2  A    between atoms: N_5  and  C_1 
REMARK    3  A    between atoms: C_3  and  N_2 
REMARK    4  A    between atoms: C_8  and  C_4 
REMARK    5  A    between atoms: C_7  and  N_5 
REMARK    6  A    between atoms: C_16  and  C_9 
ROOT
ATOM      1  C   UNL d   1       1.025  -0.147   0.569  0.00  0.00     0.176 C 
ATOM      2  S   UNL d   1       2.621  -0.368   0.109  0.00  0.00    -0.041 SA
ENDROOT
BRANCH   1   3
ATOM      3  N   UNL d   1       0.437   1.117   0.761  0.00  0.00    -0.333 N 
ATOM      4  H   UNL d   1      -0.454   1.194   0.307  0.00  0.00     0.168 HD
BRANCH   3   5
ATOM      5  C   UNL d   1       1.090   2.338   1.052  0.00  0.00     0.041 A 
ATOM      6  C   UNL d   1       0.672   3.566   0.493  0.00  0.00    -0.028 A 
ATOM      7  C   UNL d   1       1.417   4.723   0.829  0.00  0.00     0.010 A 
ATOM      8  C   UNL d   1       2.498   4.683   1.708  0.00  0.00     0.001 A 
ATOM      9  C   UNL d   1       2.858   3.482   2.295  0.00  0.00     0.002 A 
ATOM     10  C   UNL d   1       2.151   2.324   1.977  0.00  0.00     0.030 A 
BRANCH   6  11
ATOM     11  C   UNL d   1      -0.433   3.783  -0.540  0.00  0.00     0.013 C 
ATOM     12  C   UNL d   1       0.085   3.506  -1.954  0.00  0.00     0.015 C 
ATOM     13  C   UNL d   1      -1.774   3.086  -0.302  0.00  0.00     0.015 C 
ENDBRANCH   6  11
ENDBRANCH   3   5
ENDBRANCH   1   3
BRANCH   1  14
ATOM     14  N   UNL d   1       0.023  -1.115   0.707  0.00  0.00    -0.333 N 
ATOM     15  H   UNL d   1      -0.848  -0.737   1.054  0.00  0.00     0.168 HD
BRANCH  14  16
ATOM     16  C   UNL d   1      -0.030  -2.494   0.392  0.00  0.00     0.034 A 
ATOM     17  C   UNL d   1       1.056  -3.294   0.051  0.00  0.00     0.030 A 
ATOM     18  C   UNL d   1       0.870  -4.603  -0.407  0.00  0.00     0.009 A 
ATOM     19  C   UNL d   1      -0.411  -5.145  -0.517  0.00  0.00    -0.058 A 
ATOM     20  C   UNL d   1      -1.500  -4.381  -0.088  0.00  0.00     0.009 A 
ATOM     21  C   UNL d   1      -1.308  -3.075   0.375  0.00  0.00     0.030 A 
BRANCH  19  22
ATOM     22  C   UNL d   1      -0.615  -6.487  -1.170  0.00  0.00     0.034 C 
ATOM     23  C   UNL d   1      -0.744  -6.334  -2.681  0.00  0.00     0.010 C 
ENDBRANCH  19  22
ENDBRANCH  14  16
ENDBRANCH   1  14
TORSDOF 6
