REMARK  4 active torsions:
REMARK  status: ('A' for Active; 'I' for Inactive)
REMARK    1  A    between atoms: C_11  and  C_1 
REMARK    2  A    between atoms: O_8  and  C_3 
REMARK    3  A    between atoms: C_15  and  O_8 
REMARK    4  A    between atoms: C_17  and  C_15 
ROOT
ATOM      1  C   UNL d   1      -1.377   2.534   0.026  0.00  0.00     0.077 A 
ATOM      2  C   UNL d   1       0.129   2.467   0.064  0.00  0.00     0.262 A 
ATOM      3  C   UNL d   1      -2.103   1.394  -0.079  0.00  0.00     0.098 A 
ATOM      4  N   UNL d   1       0.744   1.227   0.002  0.00  0.00    -0.312 N 
ATOM      5  C   UNL d   1      -1.393   0.081  -0.058  0.00  0.00     0.026 A 
ATOM      6  C   UNL d   1       0.015   0.029  -0.031  0.00  0.00     0.057 A 
ATOM      7  C   UNL d   1       0.674  -1.208  -0.016  0.00  0.00    -0.030 A 
ATOM      8  C   UNL d   1      -2.115  -1.131  -0.061  0.00  0.00     0.023 A 
ATOM      9  O   UNL d   1       0.783   3.507   0.135  0.00  0.00    -0.267 OA
ATOM     10  C   UNL d   1      -0.074  -2.396  -0.024  0.00  0.00     0.016 A 
ATOM     11  C   UNL d   1      -1.467  -2.371  -0.042  0.00  0.00    -0.060 A 
ATOM     12  C   UNL d   1       2.192   1.245   0.025  0.00  0.00     0.133 C 
ATOM     13  C   UNL d   1       2.163  -1.338   0.068  0.00  0.00     0.042 C 
ATOM     14  C   UNL d   1       2.954  -0.059  -0.089  0.00  0.00     0.025 C 
ATOM     15  C   UNL d   1      -2.233  -3.660  -0.033  0.00  0.00     0.048 C 
ENDROOT
BRANCH   3  16
ATOM     16  O   UNL d   1      -3.469   1.237  -0.179  0.00  0.00    -0.345 OA
BRANCH  16  17
ATOM     17  C   UNL d   1      -4.344   2.237  -0.683  0.00  0.00     0.214 C 
BRANCH  17  18
ATOM     18  C   UNL d   1      -5.142   1.703  -1.852  0.00  0.00    -0.034 A 
ATOM     19  C   UNL d   1      -6.098   0.692  -1.673  0.00  0.00     0.012 A 
ATOM     20  C   UNL d   1      -6.860   0.249  -2.754  0.00  0.00     0.043 A 
ATOM     21  C   UNL d   1      -6.666   0.810  -4.013  0.00  0.00     0.116 A 
ATOM     22  C   UNL d   1      -5.713   1.799  -4.215  0.00  0.00     0.043 A 
ATOM     23  F   UNL d   1      -7.410   0.392  -5.046  0.00  0.00    -0.206 F 
ATOM     24  C   UNL d   1      -4.948   2.243  -3.137  0.00  0.00     0.012 A 
ENDBRANCH  17  18
ENDBRANCH  16  17
ENDBRANCH   3  16
BRANCH   1  25
ATOM     25  C   UNL d   1      -1.921   3.908   0.127  0.00  0.00    -0.018 A 
ATOM     26  C   UNL d   1      -2.277   4.449   1.368  0.00  0.00     0.012 A 
ATOM     27  C   UNL d   1      -2.701   5.778   1.457  0.00  0.00     0.001 A 
ATOM     28  C   UNL d   1      -2.791   6.565   0.308  0.00  0.00     0.000 A 
ATOM     29  C   UNL d   1      -2.442   6.033  -0.932  0.00  0.00     0.001 A 
ATOM     30  C   UNL d   1      -1.988   4.718  -1.020  0.00  0.00     0.012 A 
ENDBRANCH   1  25
TORSDOF 4
