REMARK  7 active torsions:
REMARK  status: ('A' for Active; 'I' for Inactive)
REMARK    1  A    between atoms: N_2  and  S_1 
REMARK    2  A    between atoms: C_4  and  S_1 
REMARK    3  A    between atoms: C_11  and  C_5 
REMARK    4  A    between atoms: N_6  and  C_17 
REMARK    5  A    between atoms: C_12  and  C_8 
REMARK    6  A    between atoms: O_20  and  C_13 
REMARK    7  A    between atoms: O_21  and  C_14 
ROOT
ATOM      1  C   UNL d   1       0.370  -0.353  -1.656  0.00  0.00     0.080 A 
ATOM      2  C   UNL d   1       0.396  -1.677  -2.098  0.00  0.00     0.027 A 
ATOM      3  C   UNL d   1      -0.132   0.656  -2.480  0.00  0.00     0.027 A 
ATOM      4  C   UNL d   1      -0.503  -0.981  -4.254  0.00  0.00     0.032 A 
ATOM      5  C   UNL d   1      -0.050  -1.986  -3.389  0.00  0.00     0.031 A 
ATOM      6  C   UNL d   1      -0.561   0.335  -3.773  0.00  0.00     0.031 A 
ENDROOT
BRANCH   1   7
ATOM      7  S   UNL d   1       0.913   0.035  -0.001  0.00  0.00     0.262 S 
ATOM      8  O   UNL d   1       0.234   1.249   0.400  0.00  0.00    -0.200 OA
ATOM      9  O   UNL d   1       0.772  -1.175   0.786  0.00  0.00    -0.200 OA
BRANCH   7  10
ATOM     10  N   UNL d   1       2.505   0.357  -0.187  0.00  0.00    -0.290 N 
ATOM     11  C   UNL d   1       3.134   0.641   0.909  0.00  0.00     0.114 C 
ATOM     12  HN  UNL d   1       2.967   0.335  -1.096  1.00  0.00     0.178 HD
BRANCH  11  13
ATOM     13  C   UNL d   1       4.568   0.997   0.930  0.00  0.00     0.013 A 
ATOM     14  C   UNL d   1       5.352   1.044  -0.228  0.00  0.00     0.077 A 
ATOM     15  C   UNL d   1       6.691   1.425  -0.156  0.00  0.00     0.037 A 
ATOM     16  C   UNL d   1       7.257   1.754   1.076  0.00  0.00     0.003 A 
ATOM     17  C   UNL d   1       6.486   1.696   2.237  0.00  0.00     0.001 A 
ATOM     18  C   UNL d   1       5.142   1.318   2.167  0.00  0.00     0.015 A 
BRANCH  14  19
ATOM     19  O   UNL d   1       4.874   0.730  -1.470  0.00  0.00    -0.360 OA
ATOM     20  H   UNL d   1       3.930   0.489  -1.369  0.00  0.00     0.217 HD
ENDBRANCH  14  19
ENDBRANCH  11  13
ENDBRANCH   7  10
ENDBRANCH   1   7
BRANCH   4  21
ATOM     21  N   UNL d   1      -0.939  -1.210  -5.573  0.00  0.00    -0.365 N 
ATOM     22  C   UNL d   1      -0.343  -2.112  -6.291  0.00  0.00     0.102 C 
ATOM     23  HN  UNL d   1      -1.715  -0.673  -5.960  1.00  0.00     0.165 HD
BRANCH  22  24
ATOM     24  C   UNL d   1      -0.705  -2.338  -7.707  0.00  0.00     0.012 A 
ATOM     25  C   UNL d   1      -1.626  -1.528  -8.380  0.00  0.00     0.077 A 
ATOM     26  C   UNL d   1      -1.888  -1.735  -9.732  0.00  0.00     0.037 A 
ATOM     27  C   UNL d   1      -1.236  -2.761 -10.419  0.00  0.00     0.003 A 
ATOM     28  C   UNL d   1      -0.326  -3.581  -9.751  0.00  0.00     0.001 A 
ATOM     29  C   UNL d   1      -0.057  -3.371  -8.396  0.00  0.00     0.015 A 
BRANCH  25  30
ATOM     30  O   UNL d   1      -2.299  -0.504  -7.771  0.00  0.00    -0.360 OA
ATOM     31  H   UNL d   1      -2.023  -0.503  -6.826  0.00  0.00     0.217 HD
ENDBRANCH  25  30
ENDBRANCH  22  24
ENDBRANCH   4  21
TORSDOF 7
