REMARK  8 active torsions:
REMARK  status: ('A' for Active; 'I' for Inactive)
REMARK    1  A    between atoms: C_3  and  C_1 
REMARK       I    between atoms: N_10  and  C_1 
REMARK    2  A    between atoms: C_2  and  C_4 
REMARK    3  A    between atoms: O_13  and  C_2 
REMARK    4  A    between atoms: O_15  and  C_5 
REMARK    5  A    between atoms: O_16  and  C_6 
REMARK    6  A    between atoms: C_17  and  N_10 
REMARK    7  A    between atoms: C_12  and  C_18 
REMARK    8  A    between atoms: C_18  and  C_17 
ROOT
ATOM      1  C   UNL d   1       3.292   0.212   1.183  0.00  0.00     0.127 C 
ENDROOT
BRANCH   1   2
ATOM      2  N   UNL d   1       2.499  -0.101   0.009  0.00  0.00    -0.357 N 
ATOM      3  C   UNL d   1       2.313   0.805  -1.005  0.00  0.00     0.241 C 
ATOM      4  O   UNL d   1       2.896   1.876  -1.101  0.00  0.00    -0.269 OA
ATOM      5  H   UNL d   1       1.912  -0.923   0.052  0.00  0.00     0.162 HD
BRANCH   3   6
ATOM      6  C   UNL d   1       1.298   0.366  -1.988  0.00  0.00     0.080 C 
ATOM      7  C   UNL d   1       1.037   1.135  -3.054  0.00  0.00     0.086 C 
BRANCH   7   8
ATOM      8  C   UNL d   1       0.007   0.688  -4.005  0.00  0.00     0.165 C 
ATOM      9  O   UNL d   1      -0.642  -0.337  -3.882  0.00  0.00    -0.647 OA
BRANCH   8  10
ATOM     10  O   UNL d   1      -0.144   1.542  -5.035  0.00  0.00    -0.773 OA
ATOM     11  H   UNL d   1       0.433   2.328  -5.019  0.00  0.00     0.167 HD
ENDBRANCH   8  10
ENDBRANCH   7   8
ENDBRANCH   3   6
ENDBRANCH   1   2
BRANCH   1  12
ATOM     12  C   UNL d   1       4.801   0.272   0.924  0.00  0.00     0.058 C 
BRANCH  12  13
ATOM     13  C   UNL d   1       5.551   0.475   2.222  0.00  0.00    -0.054 A 
ATOM     14  C   UNL d   1       6.013  -0.627   2.962  0.00  0.00     0.046 A 
ATOM     15  C   UNL d   1       6.629  -0.462   4.213  0.00  0.00     0.102 A 
ATOM     16  C   UNL d   1       6.806   0.841   4.713  0.00  0.00     0.101 A 
ATOM     17  C   UNL d   1       6.338   1.937   3.978  0.00  0.00     0.040 A 
ATOM     18  C   UNL d   1       5.720   1.760   2.741  0.00  0.00     0.010 A 
BRANCH  15  19
ATOM     19  O   UNL d   1       7.033  -1.507   5.000  0.00  0.00    -0.353 OA
ATOM     20  C   UNL d   1       6.806  -2.829   4.532  0.00  0.00     0.210 C 
ENDBRANCH  15  19
BRANCH  16  21
ATOM     21  O   UNL d   1       7.352   1.196   5.921  0.00  0.00    -0.353 OA
ATOM     22  C   UNL d   1       8.408   0.378   6.408  0.00  0.00     0.210 C 
ENDBRANCH  16  21
ENDBRANCH  12  13
ENDBRANCH   1  12
TORSDOF 8
