REMARK  7 active torsions:
REMARK  status: ('A' for Active; 'I' for Inactive)
REMARK    1  A    between atoms: C_6  and  C_1 
REMARK    2  A    between atoms: N_15  and  C_2 
REMARK       I    between atoms: N_14  and  C_6 
REMARK    3  A    between atoms: N_10  and  N_14 
REMARK    4  A    between atoms: C_20  and  C_17 
REMARK    5  A    between atoms: O_18  and  C_19 
REMARK    6  A    between atoms: C_21  and  O_18 
REMARK    7  A    between atoms: C_27  and  C_21 
ROOT
ATOM      1  C   UNL d   1       3.947  -0.061  -0.216  0.00  0.00     0.279 C 
ATOM      2  N   UNL d   1       4.699  -1.247  -0.059  0.00  0.00    -0.266 N 
ATOM      3  O   UNL d   1       2.739  -0.103  -0.439  0.00  0.00    -0.265 OA
ATOM      4  H   UNL d   1       5.694  -1.221   0.129  0.00  0.00     0.190 HD
ENDROOT
BRANCH   2   5
ATOM      5  N   UNL d   1       4.034  -2.435  -0.125  0.00  0.00    -0.308 N 
ATOM      6  C   UNL d   1       4.674  -3.544   0.006  0.00  0.00     0.118 C 
ATOM      7  HN  UNL d   1       3.025  -2.446  -0.279  1.00  0.00     0.186 HD
BRANCH   6   8
ATOM      8  C   UNL d   1       3.914  -4.820  -0.049  0.00  0.00    -0.019 A 
ATOM      9  C   UNL d   1       2.526  -4.763  -0.209  0.00  0.00     0.015 A 
ATOM     10  C   UNL d   1       1.770  -5.932  -0.259  0.00  0.00     0.037 A 
ATOM     11  C   UNL d   1       2.398  -7.174  -0.185  0.00  0.00     0.069 A 
ATOM     12  C   UNL d   1       3.782  -7.236   0.004  0.00  0.00     0.037 A 
ATOM     13  C   UNL d   1       4.549  -6.060   0.067  0.00  0.00     0.015 A 
BRANCH  11  14
ATOM     14  O   UNL d   1       1.734  -8.367  -0.292  0.00  0.00    -0.347 OA
BRANCH  14  15
ATOM     15  C   UNL d   1       0.477  -8.289  -0.982  0.00  0.00     0.214 C 
BRANCH  15  16
ATOM     16  C   UNL d   1       0.098  -9.647  -1.505  0.00  0.00    -0.034 A 
ATOM     17  C   UNL d   1      -1.143 -10.223  -1.200  0.00  0.00     0.009 A 
ATOM     18  C   UNL d   1      -1.484 -11.472  -1.722  0.00  0.00     0.001 A 
ATOM     19  C   UNL d   1      -0.594 -12.147  -2.557  0.00  0.00     0.000 A 
ATOM     20  C   UNL d   1       0.634 -11.572  -2.881  0.00  0.00     0.001 A 
ATOM     21  C   UNL d   1       0.976 -10.326  -2.361  0.00  0.00     0.009 A 
ENDBRANCH  15  16
ENDBRANCH  14  15
ENDBRANCH  11  14
ENDBRANCH   6   8
ENDBRANCH   2   5
BRANCH   1  22
ATOM     22  C   UNL d   1       4.678   1.210  -0.102  0.00  0.00     0.103 A 
ATOM     23  C   UNL d   1       4.195   2.513  -0.207  0.00  0.00     0.062 A 
ATOM     24  C   UNL d   1       5.223   3.536  -0.038  0.00  0.00     0.032 A 
ATOM     25  C   UNL d   1       5.252   4.966  -0.057  0.00  0.00    -0.045 A 
ATOM     26  C   UNL d   1       6.447   2.911   0.199  0.00  0.00     0.088 A 
ATOM     27  C   UNL d   1       6.498   5.590   0.171  0.00  0.00     0.032 A 
ATOM     28  C   UNL d   1       4.098   5.908  -0.297  0.00  0.00     0.049 C 
ATOM     29  C   UNL d   1       7.638   4.835   0.398  0.00  0.00     0.006 A 
ATOM     30  N   UNL d   1       7.644   3.493   0.415  0.00  0.00    -0.354 N 
ATOM     31  C   UNL d   1       8.952   5.524   0.637  0.00  0.00     0.068 C 
ATOM     32  HN  UNL d   1       8.493   2.952   0.579  1.00  0.00     0.166 HD
ATOM     33  S   UNL d   1       6.363   1.213   0.202  0.00  0.00    -0.064 SA
BRANCH  23  34
ATOM     34  N   UNL d   1       2.893   2.796  -0.441  0.00  0.00    -0.397 N 
ATOM     35  H   UNL d   1       2.194   2.069  -0.580  0.00  0.00     0.156 HD
ATOM     36  H   UNL d   1       2.515   3.720  -0.567  0.00  0.00     0.156 HD
ENDBRANCH  23  34
ENDBRANCH   1  22
TORSDOF 7
