REMARK  5 active torsions:
REMARK  status: ('A' for Active; 'I' for Inactive)
REMARK    1  A    between atoms: N_2  and  C_1 
REMARK    2  A    between atoms: N_3  and  C_1 
REMARK    3  A    between atoms: C_4  and  N_2 
REMARK    4  A    between atoms: C_5  and  N_3 
REMARK    5  A    between atoms: O_10  and  C_9 
ROOT
ATOM      1  C   UNL d   1       1.243   0.350   0.392  0.00  0.00     0.177 C 
ATOM      2  S   UNL d   1       2.858  -0.045   0.571  0.00  0.00    -0.040 SA
ENDROOT
BRANCH   1   3
ATOM      3  N   UNL d   1       0.709   1.509  -0.117  0.00  0.00    -0.319 N 
ATOM      4  H   UNL d   1      -0.190   1.765   0.263  0.00  0.00     0.169 HD
BRANCH   3   5
ATOM      5  C   UNL d   1       1.253   2.379  -1.072  0.00  0.00     0.106 A 
ATOM      6  N   UNL d   1       2.297   2.001  -1.823  0.00  0.00    -0.352 N 
ATOM      7  C   UNL d   1       2.723   2.843  -2.788  0.00  0.00     0.089 A 
ATOM      8  HN  UNL d   1       2.757   1.103  -1.670  1.00  0.00     0.166 HD
ATOM      9  C   UNL d   1       2.138   4.070  -3.048  0.00  0.00     0.017 A 
ATOM     10  C   UNL d   1       1.054   4.454  -2.269  0.00  0.00     0.005 A 
ATOM     11  C   UNL d   1       0.597   3.594  -1.272  0.00  0.00     0.048 A 
ENDBRANCH   3   5
ENDBRANCH   1   3
BRANCH   1  12
ATOM     12  N   UNL d   1       0.325  -0.514   0.944  0.00  0.00    -0.331 N 
ATOM     13  H   UNL d   1       0.725  -1.227   1.547  0.00  0.00     0.168 HD
BRANCH  12  14
ATOM     14  C   UNL d   1      -1.040  -0.694   0.625  0.00  0.00     0.068 A 
ATOM     15  C   UNL d   1      -1.903  -1.322   1.537  0.00  0.00     0.095 A 
ATOM     16  C   UNL d   1      -3.218  -1.618   1.157  0.00  0.00     0.039 A 
ATOM     17  C   UNL d   1      -3.686  -1.285  -0.115  0.00  0.00     0.003 A 
ATOM     18  C   UNL d   1      -2.835  -0.663  -1.022  0.00  0.00     0.002 A 
ATOM     19  C   UNL d   1      -1.520  -0.371  -0.654  0.00  0.00     0.032 A 
BRANCH  15  20
ATOM     20  O   UNL d   1      -1.571  -1.741   2.800  0.00  0.00    -0.354 OA
ATOM     21  C   UNL d   1      -0.841  -0.812   3.599  0.00  0.00     0.210 C 
ENDBRANCH  15  20
ENDBRANCH  12  14
ENDBRANCH   1  12
TORSDOF 5
