REMARK  7 active torsions:
REMARK  status: ('A' for Active; 'I' for Inactive)
REMARK    1  A    between atoms: C_9  and  C_1 
REMARK    2  A    between atoms: C_12  and  C_2 
REMARK    3  A    between atoms: N_6  and  C_5 
REMARK    4  A    between atoms: C_8  and  C_10 
REMARK    5  A    between atoms: N_23  and  C_10 
REMARK    6  A    between atoms: O_18  and  C_12 
REMARK    7  A    between atoms: N_14  and  O_18 
ROOT
ATOM      1  C   UNL d   1      -1.539  -1.161   0.365  0.00  0.00     0.320 C 
ATOM      2  O   UNL d   1      -2.273  -2.097   0.653  0.00  0.00    -0.257 OA
ENDROOT
BRANCH   1   3
ATOM      3  C   UNL d   1      -0.111  -1.318   0.143  0.00  0.00     0.102 A 
ATOM      4  C   UNL d   1       0.623  -2.528  -0.132  0.00  0.00     0.085 A 
ATOM      5  N   UNL d   1       1.927  -2.249  -0.281  0.00  0.00    -0.259 N 
ATOM      6  O   UNL d   1       2.071  -0.903  -0.106  0.00  0.00    -0.241 OA
ATOM      7  HN  UNL d   1       2.670  -2.917  -0.486  1.00  0.00     0.195 HD
ATOM      8  C   UNL d   1       0.863  -0.333   0.115  0.00  0.00     0.091 A 
ATOM      9  C   UNL d   1       0.925   1.135   0.257  0.00  0.00     0.080 C 
BRANCH   4  10
ATOM     10  C   UNL d   1       0.150  -3.897  -0.383  0.00  0.00     0.015 A 
ATOM     11  C   UNL d   1       0.818  -5.043   0.090  0.00  0.00     0.046 A 
ATOM     12 CL   UNL d   1       2.166  -4.982   1.177  0.00  0.00    -0.083 Cl
ATOM     13  C   UNL d   1       0.391  -6.324  -0.292  0.00  0.00     0.025 A 
ATOM     14  C   UNL d   1      -0.715  -6.483  -1.125  0.00  0.00     0.002 A 
ATOM     15  C   UNL d   1      -1.400  -5.363  -1.579  0.00  0.00     0.001 A 
ATOM     16  C   UNL d   1      -0.964  -4.083  -1.223  0.00  0.00     0.015 A 
ENDBRANCH   4  10
ENDBRANCH   1   3
BRANCH   1  17
ATOM     17  O   UNL d   1      -1.964   0.140   0.178  0.00  0.00    -0.193 OA
BRANCH  17  18
ATOM     18  N   UNL d   1      -3.378   0.219   0.196  0.00  0.00    -0.244 N 
ATOM     19  C   UNL d   1      -3.793   1.409  -0.134  0.00  0.00     0.133 C 
ATOM     20  HN  UNL d   1      -3.994  -0.557   0.438  1.00  0.00     0.196 HD
BRANCH  19  21
ATOM     21  C   UNL d   1      -5.231   1.606  -0.220  0.00  0.00     0.117 A 
ATOM     22  O   UNL d   1      -5.677   2.853  -0.584  0.00  0.00    -0.285 OA
ATOM     23  C   UNL d   1      -7.033   2.780  -0.630  0.00  0.00     0.215 A 
ATOM     24  C   UNL d   1      -7.486   1.529  -0.286  0.00  0.00     0.066 A 
ATOM     25  C   UNL d   1      -6.316   0.770  -0.013  0.00  0.00     0.045 A 
BRANCH  23  26
ATOM     26  N   UNL d   1      -7.717   3.970  -1.029  0.00  0.00    -0.090 N 
ATOM     27  O   UNL d   1      -8.938   3.870  -1.203  0.00  0.00    -0.530 OA
ATOM     28  O   UNL d   1      -7.044   4.999  -1.164  0.00  0.00    -0.530 OA
ENDBRANCH  23  26
ENDBRANCH  19  21
BRANCH  19  29
ATOM     29  N   UNL d   1      -2.940   2.459  -0.392  0.00  0.00    -0.285 NA
ATOM     30  H   UNL d   1      -3.372   3.376  -0.324  0.00  0.00     0.125 HD
ATOM     31  H   UNL d   1      -2.055   2.392   0.090  0.00  0.00     0.125 HD
ENDBRANCH  19  29
ENDBRANCH  17  18
ENDBRANCH   1  17
TORSDOF 7
