REMARK  3 active torsions:
REMARK  status: ('A' for Active; 'I' for Inactive)
REMARK    1  A    between atoms: C_12  and  C_1 
REMARK    2  A    between atoms: C_4  and  C_18 
REMARK       I    between atoms: N_16  and  C_12 
REMARK    3  A    between atoms: C_18  and  N_16 
ROOT
ATOM      1  C   UNL d   1      -1.196  -2.901  -0.690  0.00  0.00     0.254 C 
ATOM      2  N   UNL d   1      -0.273  -3.775  -0.155  0.00  0.00    -0.351 N 
ATOM      3  O   UNL d   1      -0.866  -1.811  -1.150  0.00  0.00    -0.268 OA
ATOM      4  H   UNL d   1      -0.599  -4.584   0.370  0.00  0.00     0.163 HD
ENDROOT
BRANCH   1   5
ATOM      5  C   UNL d   1      -2.629  -3.262  -0.722  0.00  0.00     0.061 A 
ATOM      6  C   UNL d   1      -3.203  -4.408  -0.114  0.00  0.00     0.082 A 
ATOM      7  N   UNL d   1      -2.582  -5.362   0.606  0.00  0.00    -0.310 N 
ATOM      8  C   UNL d   1      -4.697  -4.660  -0.237  0.00  0.00     0.068 A 
ATOM      9  S   UNL d   1      -3.749  -6.454   1.064  0.00  0.00     0.068 SA
ATOM     10  HN  UNL d   1      -1.587  -5.406   0.827  1.00  0.00     0.176 HD
ATOM     11  N   UNL d   1      -5.100  -5.779   0.380  0.00  0.00    -0.310 N 
ATOM     12  HN  UNL d   1      -6.052  -6.144   0.422  1.00  0.00     0.176 HD
ATOM     13  C   UNL d   1      -5.542  -3.770  -0.946  0.00  0.00     0.032 A 
ATOM     14  C   UNL d   1      -4.923  -2.647  -1.509  0.00  0.00     0.003 A 
ATOM     15  C   UNL d   1      -3.535  -2.405  -1.399  0.00  0.00     0.019 A 
ENDBRANCH   1   5
BRANCH   2  16
ATOM     16  C   UNL d   1       1.069  -3.285   0.062  0.00  0.00     0.181 C 
BRANCH  16  17
ATOM     17  C   UNL d   1       2.027  -4.391   0.280  0.00  0.00     0.047 A 
ATOM     18  N   UNL d   1       2.670  -5.074  -0.722  0.00  0.00    -0.299 N 
ATOM     19  N   UNL d   1       3.615  -5.923  -0.266  0.00  0.00    -0.303 N 
ATOM     20  C   UNL d   1       2.511  -4.954  -2.152  0.00  0.00     0.177 C 
ATOM     21  C   UNL d   1       3.586  -5.771   1.061  0.00  0.00     0.024 A 
ATOM     22  HN  UNL d   1       4.215  -6.541  -0.811  1.00  0.00     0.186 HD
ATOM     23  C   UNL d   1       2.583  -4.860   1.454  0.00  0.00     0.054 A 
ATOM     24  C   UNL d   1       4.566  -6.483   1.915  0.00  0.00     0.070 C 
ENDBRANCH  16  17
ENDBRANCH   2  16
TORSDOF 3
