REMARK  5 active torsions:
REMARK  status: ('A' for Active; 'I' for Inactive)
REMARK    1  A    between atoms: C_2  and  S_1 
REMARK    2  A    between atoms: N_13  and  S_1 
REMARK    3  A    between atoms: C_3  and  C_7 
REMARK    4  A    between atoms: C_19  and  N_13 
REMARK    5  A    between atoms: C_18  and  C_19 
ROOT
ATOM      1  S   UNL d   1       0.962   0.117   0.059  0.00  0.00     0.248 S 
ATOM      2  O   UNL d   1       0.262  -0.205   1.281  0.00  0.00    -0.205 OA
ATOM      3  O   UNL d   1       2.398   0.263  -0.005  0.00  0.00    -0.205 OA
ENDROOT
BRANCH   1   4
ATOM      4  C   UNL d   1       0.323   1.691  -0.501  0.00  0.00     0.116 A 
ATOM      5  S   UNL d   1      -0.741   2.514   0.557  0.00  0.00    -0.075 SA
ATOM      6  C   UNL d   1      -0.975   3.794  -0.543  0.00  0.00     0.033 A 
ATOM      7  C   UNL d   1      -0.232   3.620  -1.692  0.00  0.00     0.023 A 
ATOM      8  C   UNL d   1       0.531   2.414  -1.663  0.00  0.00     0.034 A 
BRANCH   6   9
ATOM      9  C   UNL d   1      -1.880   4.968  -0.321  0.00  0.00     0.056 A 
ATOM     10  N   UNL d   1      -2.072   5.911  -1.320  0.00  0.00    -0.353 N 
ATOM     11  C   UNL d   1      -2.936   6.819  -0.919  0.00  0.00     0.047 A 
ATOM     12  HN  UNL d   1      -1.613   5.901  -2.230  1.00  0.00     0.166 HD
ATOM     13  C   UNL d   1      -3.416   7.951  -1.757  0.00  0.00     0.076 C 
ATOM     14  S   UNL d   1      -3.525   6.627   0.684  0.00  0.00    -0.087 SA
ATOM     15  C   UNL d   1      -2.588   5.199   0.841  0.00  0.00     0.082 A 
ENDBRANCH   6   9
ENDBRANCH   1   4
BRANCH   1  16
ATOM     16  N   UNL d   1       0.487  -1.034  -1.079  0.00  0.00    -0.211 NA
ATOM     17  H   UNL d   1      -0.510  -0.978  -1.285  0.00  0.00     0.140 HD
BRANCH  16  18
ATOM     18  C   UNL d   1       1.358  -1.194  -2.248  0.00  0.00     0.144 C 
BRANCH  18  19
ATOM     19  C   UNL d   1       0.837  -2.233  -3.203  0.00  0.00    -0.029 A 
ATOM     20  C   UNL d   1       0.572  -1.917  -4.532  0.00  0.00     0.096 A 
ATOM     21  N   UNL d   1       0.149  -2.808  -5.456  0.00  0.00    -0.375 N 
ATOM     22  C   UNL d   1      -0.011  -4.083  -5.042  0.00  0.00     0.087 A 
ATOM     23  HN  UNL d   1      -0.040  -2.530  -6.419  1.00  0.00     0.164 HD
ATOM     24  C   UNL d   1       0.221  -4.504  -3.744  0.00  0.00     0.018 A 
ATOM     25  C   UNL d   1       0.650  -3.562  -2.812  0.00  0.00     0.011 A 
ENDBRANCH  18  19
ENDBRANCH  16  18
ENDBRANCH   1  16
TORSDOF 5
