REMARK  8 active torsions:
REMARK  status: ('A' for Active; 'I' for Inactive)
REMARK       I    between atoms: C_10  and  N_1 
REMARK    1  A    between atoms: C_19  and  C_10 
REMARK    2  A    between atoms: C_22  and  C_19 
REMARK    3  A    between atoms: C_27  and  C_22 
REMARK    4  A    between atoms: C_23  and  C_24 
REMARK    5  A    between atoms: C_24  and  C_26 
REMARK    6  A    between atoms: C_25  and  C_28 
REMARK    7  A    between atoms: C_26  and  C_25 
REMARK    8  A    between atoms: C_28  and  C_27 
ROOT
ATOM      1  N   UNL d   1      -1.338  -1.763  -0.000  0.00  0.00    -0.265 N 
ATOM      2  C   UNL d   1      -0.129  -1.081  -0.001  0.00  0.00     0.143 A 
ATOM      3  C   UNL d   1      -0.386   0.281  -0.003  0.00  0.00     0.090 A 
ATOM      4  C   UNL d   1      -1.789   0.466  -0.004  0.00  0.00     0.025 A 
ATOM      5  C   UNL d   1      -2.371  -0.807  -0.002  0.00  0.00     0.057 A 
ATOM      6  N   UNL d   1       1.111  -1.621   0.000  0.00  0.00    -0.338 N 
ATOM      7  HN  UNL d   1       1.278  -2.627   0.001  1.00  0.00     0.167 HD
ATOM      8  N   UNL d   1       0.617   1.200  -0.003  0.00  0.00    -0.351 N 
ATOM      9  HN  UNL d   1       0.442   2.204  -0.004  1.00  0.00     0.166 HD
ATOM     10  C   UNL d   1      -1.537  -3.160   0.001  0.00  0.00     0.230 C 
ATOM     11  C   UNL d   1       2.100  -0.716   0.000  0.00  0.00     0.060 A 
ATOM     12  C   UNL d   1       1.857   0.681  -0.002  0.00  0.00     0.059 A 
ATOM     13  C   UNL d   1      -3.775  -0.965  -0.003  0.00  0.00     0.034 A 
ATOM     14  C   UNL d   1      -2.623   1.604  -0.007  0.00  0.00     0.058 A 
ATOM     15  O   UNL d   1      -2.681  -3.607   0.003  0.00  0.00    -0.273 OA
ATOM     16  C   UNL d   1      -4.006   1.433  -0.008  0.00  0.00     0.117 A 
ATOM     17  C   UNL d   1      -4.579   0.174  -0.005  0.00  0.00     0.044 A 
ATOM     18  F   UNL d   1      -4.801   2.512  -0.010  0.00  0.00    -0.206 F 
ATOM     19  C   UNL d   1       2.949   1.543  -0.002  0.00  0.00     0.032 A 
ATOM     20  C   UNL d   1       3.409  -1.178   0.002  0.00  0.00     0.032 A 
ATOM     21  C   UNL d   1       4.493  -0.302   0.002  0.00  0.00     0.002 A 
ATOM     22  C   UNL d   1       4.262   1.065  -0.000  0.00  0.00     0.002 A 
ENDROOT
BRANCH  10  23
ATOM     23  C   UNL d   1      -0.309  -4.031   0.001  0.00  0.00     0.103 C 
BRANCH  23  24
ATOM     24  C   UNL d   1      -0.717  -5.502   0.001  0.00  0.00     0.009 C 
BRANCH  24  25
ATOM     25  C   UNL d   1       0.498  -6.418  -0.001  0.00  0.00     0.000 C 
BRANCH  25  26
ATOM     26  C   UNL d   1       0.057  -7.878   0.001  0.00  0.00     0.000 C 
BRANCH  26  27
ATOM     27  C   UNL d   1       1.265  -8.805  -0.001  0.00  0.00     0.000 C 
BRANCH  27  28
ATOM     28  C   UNL d   1       0.830 -10.267  -0.001  0.00  0.00     0.000 C 
BRANCH  28  29
ATOM     29  C   UNL d   1       2.046 -11.188  -0.003  0.00  0.00    -0.000 C 
BRANCH  29  30
ATOM     30  C   UNL d   1       1.626 -12.654  -0.001  0.00  0.00    -0.005 C 
ATOM     31  C   UNL d   1       2.840 -13.567  -0.003  0.00  0.00     0.005 C 
ENDBRANCH  29  30
ENDBRANCH  28  29
ENDBRANCH  27  28
ENDBRANCH  26  27
ENDBRANCH  25  26
ENDBRANCH  24  25
ENDBRANCH  23  24
ENDBRANCH  10  23
TORSDOF 8
