REMARK  7 active torsions:
REMARK  status: ('A' for Active; 'I' for Inactive)
REMARK    1  A    between atoms: C_15  and  C_1 
REMARK    2  A    between atoms: N_21  and  C_4 
REMARK    3  A    between atoms: C_19  and  N_9 
REMARK    4  A    between atoms: C_20  and  C_10 
REMARK    5  A    between atoms: C_18  and  C_15 
REMARK    6  A    between atoms: C_24  and  C_17 
REMARK    7  A    between atoms: C_29  and  C_23 
ROOT
ATOM      1  C   UNL d   1       2.394   0.053   0.025  0.00  0.00     0.155 A 
ATOM      2  C   UNL d   1      -1.105   2.916   0.011  0.00  0.00     0.022 C 
ATOM      3  C   UNL d   1       0.284   0.852   0.071  0.00  0.00     0.056 A 
ATOM      4  C   UNL d   1       1.659   1.217   0.033  0.00  0.00     0.080 A 
ATOM      5  N   UNL d   1      -1.737   5.062  -0.444  0.00  0.00    -0.292 N 
ATOM      6  HN  UNL d   1      -2.238   5.881  -0.789  1.00  0.00     0.187 HD
ATOM      7  C   UNL d   1       0.273  -0.545   0.063  0.00  0.00     0.162 A 
ATOM      8  C   UNL d   1      -0.974   1.479   0.112  0.00  0.00    -0.003 A 
ATOM      9  N   UNL d   1      -0.640   5.043   0.354  0.00  0.00    -0.266 N 
ATOM     10  C   UNL d   1      -2.022   3.767  -0.685  0.00  0.00     0.071 C 
ATOM     11  O   UNL d   1       1.553  -1.024   0.029  0.00  0.00    -0.286 OA
ATOM     12  C   UNL d   1      -0.356   3.774   0.775  0.00  0.00     0.131 C 
ATOM     13  N   UNL d   1      -0.802  -1.359   0.084  0.00  0.00    -0.335 N 
ATOM     14  HN  UNL d   1      -0.724  -2.374   0.036  1.00  0.00     0.168 HD
ATOM     15  C   UNL d   1      -2.104   0.666   0.212  0.00  0.00     0.044 A 
ATOM     16  C   UNL d   1      -1.996  -0.722   0.174  0.00  0.00     0.045 A 
ENDROOT
BRANCH  10  17
ATOM     17  C   UNL d   1      -3.193   3.377  -1.487  0.00  0.00    -0.007 A 
ATOM     18  C   UNL d   1      -3.188   2.223  -2.287  0.00  0.00     0.014 A 
ATOM     19  C   UNL d   1      -4.370   1.742  -2.857  0.00  0.00     0.001 A 
ATOM     20  C   UNL d   1      -5.560   2.446  -2.691  0.00  0.00     0.000 A 
ATOM     21  C   UNL d   1      -5.565   3.637  -1.966  0.00  0.00     0.001 A 
ATOM     22  C   UNL d   1      -4.390   4.096  -1.363  0.00  0.00     0.014 A 
ENDBRANCH  10  17
BRANCH   4  23
ATOM     23  N   UNL d   1       2.226   2.447   0.039  0.00  0.00    -0.396 N 
ATOM     24  H   UNL d   1       1.754   3.224  -0.414  0.00  0.00     0.156 HD
ATOM     25  H   UNL d   1       3.240   2.506  -0.104  0.00  0.00     0.156 HD
ENDBRANCH   4  23
BRANCH  16  26
ATOM     26  C   UNL d   1      -3.212  -1.579   0.213  0.00  0.00    -0.009 A 
ATOM     27  C   UNL d   1      -4.429  -1.118   0.763  0.00  0.00     0.013 A 
ATOM     28  C   UNL d   1      -5.575  -1.917   0.803  0.00  0.00     0.001 A 
ATOM     29  C   UNL d   1      -5.535  -3.208   0.299  0.00  0.00     0.000 A 
ATOM     30  C   UNL d   1      -4.355  -3.695  -0.258  0.00  0.00     0.001 A 
ATOM     31  C   UNL d   1      -3.209  -2.887  -0.304  0.00  0.00     0.013 A 
ENDBRANCH  16  26
BRANCH   9  32
ATOM     32  C   UNL d   1       0.076   6.216   0.711  0.00  0.00     0.056 A 
ATOM     33  C   UNL d   1       1.335   6.120   1.330  0.00  0.00     0.031 A 
ATOM     34  C   UNL d   1       2.000   7.272   1.750  0.00  0.00     0.002 A 
ATOM     35  C   UNL d   1       1.418   8.519   1.552  0.00  0.00     0.000 A 
ATOM     36  C   UNL d   1       0.188   8.620   0.900  0.00  0.00     0.002 A 
ATOM     37  C   UNL d   1      -0.479   7.475   0.463  0.00  0.00     0.031 A 
ENDBRANCH   9  32
BRANCH   1  38
ATOM     38  C   UNL d   1       3.828  -0.097  -0.034  0.00  0.00     0.218 C 
ATOM     39  O   UNL d   1       4.568   0.790  -0.468  0.00  0.00    -0.284 OA
BRANCH  38  40
ATOM     40  C   UNL d   1       4.474  -1.319   0.487  0.00  0.00     0.017 A 
ATOM     41  C   UNL d   1       3.944  -2.029   1.565  0.00  0.00     0.016 A 
ATOM     42  C   UNL d   1       4.610  -3.157   2.045  0.00  0.00     0.013 A 
ATOM     43  C   UNL d   1       5.808  -3.605   1.459  0.00  0.00    -0.026 A 
ATOM     44  C   UNL d   1       6.338  -2.853   0.395  0.00  0.00     0.013 A 
ATOM     45  C   UNL d   1       5.687  -1.715  -0.079  0.00  0.00     0.016 A 
BRANCH  43  46
ATOM     46  C   UNL d   1       6.480  -4.835   1.933  0.00  0.00    -0.026 A 
ATOM     47  C   UNL d   1       7.877  -4.948   1.939  0.00  0.00     0.012 A 
ATOM     48  C   UNL d   1       8.511  -6.130   2.342  0.00  0.00     0.001 A 
ATOM     49  C   UNL d   1       7.748  -7.213   2.771  0.00  0.00     0.000 A 
ATOM     50  C   UNL d   1       6.362  -7.119   2.790  0.00  0.00     0.001 A 
ATOM     51  C   UNL d   1       5.734  -5.943   2.368  0.00  0.00     0.012 A 
ENDBRANCH  43  46
ENDBRANCH  38  40
ENDBRANCH   1  38
TORSDOF 7
