REMARK  3 active torsions:
REMARK  status: ('A' for Active; 'I' for Inactive)
REMARK    1  A    between atoms: C_11  and  N_1 
REMARK    2  A    between atoms: C_8  and  C_2 
REMARK    3  A    between atoms: N_6  and  C_9 
ROOT
ATOM      1  N   UNL d   1       0.941  -0.731   0.010  0.00  0.00    -0.271 N 
ATOM      2  C   UNL d   1       0.898   0.648  -0.002  0.00  0.00     0.139 A 
ATOM      3  N   UNL d   1      -0.308   1.150   0.040  0.00  0.00    -0.282 N 
ATOM      4  HN  UNL d   1      -0.574   2.135   0.061  1.00  0.00     0.188 HD
ATOM      5  C   UNL d   1      -0.394  -1.114   0.043  0.00  0.00     0.199 A 
ATOM      6  N   UNL d   1      -1.128   0.068   0.050  0.00  0.00    -0.274 N 
ATOM      7  S   UNL d   1      -1.153  -2.588   0.162  0.00  0.00    -0.039 SA
ATOM      8  H   UNL d   1      -2.136   0.151   0.118  0.00  0.00     0.189 HD
ENDROOT
BRANCH   2   9
ATOM      9  C   UNL d   1       2.071   1.544  -0.110  0.00  0.00     0.012 A 
ATOM     10  C   UNL d   1       3.159   1.244  -0.937  0.00  0.00     0.051 A 
ATOM     11  C   UNL d   1       4.266   2.102  -0.952  0.00  0.00     0.103 A 
ATOM     12  C   UNL d   1       4.265   3.294  -0.214  0.00  0.00     0.036 A 
ATOM     13  C   UNL d   1       3.145   3.623   0.553  0.00  0.00     0.003 A 
ATOM     14  C   UNL d   1       2.057   2.752   0.607  0.00  0.00     0.015 A 
BRANCH  11  15
ATOM     15  N   UNL d   1       5.459   1.726  -1.723  0.00  0.00    -0.116 N 
ATOM     16  O   UNL d   1       5.450   0.630  -2.296  0.00  0.00    -0.532 OA
ATOM     17  O   UNL d   1       6.407   2.525  -1.743  0.00  0.00    -0.532 OA
ENDBRANCH  11  15
ENDBRANCH   2   9
BRANCH   1  18
ATOM     18  C   UNL d   1       2.072  -1.589   0.101  0.00  0.00     0.043 A 
ATOM     19  C   UNL d   1       3.188  -1.241   0.879  0.00  0.00     0.030 A 
ATOM     20  C   UNL d   1       4.335  -2.042   0.898  0.00  0.00     0.002 A 
ATOM     21  C   UNL d   1       4.370  -3.226   0.170  0.00  0.00     0.000 A 
ATOM     22  C   UNL d   1       3.260  -3.610  -0.574  0.00  0.00     0.002 A 
ATOM     23  C   UNL d   1       2.124  -2.795  -0.612  0.00  0.00     0.030 A 
ENDBRANCH   1  18
TORSDOF 3
