REMARK  3 active torsions:
REMARK  status: ('A' for Active; 'I' for Inactive)
REMARK    1  A    between atoms: C_7  and  N_1 
REMARK    2  A    between atoms: C_3  and  C_2 
REMARK    3  A    between atoms: C_4  and  C_9 
ROOT
ATOM      1  C   UNL d   1      -2.928  -4.969   1.149  0.00  0.00     0.039 C 
ATOM      2  C   UNL d   1      -1.833  -4.553   1.824  0.00  0.00     0.055 C 
ATOM      3  C   UNL d   1      -1.112  -3.384   1.395  0.00  0.00     0.100 C 
ATOM      4  N   UNL d   1      -0.539  -2.431   1.056  0.00  0.00    -0.191 NA
ENDROOT
BRANCH   2   5
ATOM      5  C   UNL d   1      -1.391  -5.287   3.050  0.00  0.00    -0.015 A 
ATOM      6  C   UNL d   1      -1.540  -6.684   3.182  0.00  0.00     0.015 A 
ATOM      7  C   UNL d   1      -1.104  -7.364   4.330  0.00  0.00     0.037 A 
ATOM      8  C   UNL d   1      -0.497  -6.651   5.365  0.00  0.00     0.102 A 
ATOM      9  C   UNL d   1      -0.330  -5.267   5.260  0.00  0.00     0.037 A 
ATOM     10  C   UNL d   1      -0.778  -4.597   4.112  0.00  0.00     0.015 A 
BRANCH   8  11
ATOM     11  N   UNL d   1      -0.028  -7.356   6.565  0.00  0.00    -0.116 N 
ATOM     12  O   UNL d   1       0.509  -6.682   7.455  0.00  0.00    -0.532 OA
ATOM     13  O   UNL d   1      -0.198  -8.583   6.617  0.00  0.00    -0.532 OA
ENDBRANCH   8  11
ENDBRANCH   2   5
BRANCH   1  14
ATOM     14  C   UNL d   1      -3.468  -4.319  -0.058  0.00  0.00     0.026 A 
ATOM     15  C   UNL d   1      -2.957  -4.669  -1.314  0.00  0.00     0.128 A 
ATOM     16  F   UNL d   1      -2.011  -5.616  -1.413  0.00  0.00    -0.205 F 
ATOM     17  C   UNL d   1      -3.406  -4.055  -2.481  0.00  0.00     0.043 A 
ATOM     18  C   UNL d   1      -4.391  -3.073  -2.410  0.00  0.00     0.005 A 
ATOM     19  C   UNL d   1      -4.927  -2.720  -1.171  0.00  0.00     0.025 A 
ATOM     20  C   UNL d   1      -4.472  -3.340  -0.002  0.00  0.00     0.047 A 
ATOM     21 CL   UNL d   1      -5.186  -2.862   1.499  0.00  0.00    -0.083 Cl
ENDBRANCH   1  14
TORSDOF 3
