REMARK  3 active torsions:
REMARK  status: ('A' for Active; 'I' for Inactive)
REMARK    1  A    between atoms: N_8  and  C_1 
REMARK    2  A    between atoms: C_7  and  C_4 
REMARK       I    between atoms: C_11  and  N_8 
REMARK       I    between atoms: N_21  and  C_11 
REMARK    3  A    between atoms: C_22  and  C_14 
ROOT
ATOM      1  C   UNL d   1       3.862   3.478   0.938  0.00  0.00    -0.042 A 
ATOM      2  C   UNL d   1       4.851   3.288  -0.043  0.00  0.00    -0.043 A 
ATOM      3  C   UNL d   1       2.520   1.651  -0.082  0.00  0.00    -0.002 A 
ATOM      4  C   UNL d   1       2.732   2.627   0.915  0.00  0.00     0.022 A 
ATOM      5  C   UNL d   1       4.614   2.342  -1.062  0.00  0.00     0.016 A 
ATOM      6  C   UNL d   1       3.469   1.529  -1.118  0.00  0.00    -0.045 A 
ATOM      7  C   UNL d   1       6.147   4.106  -0.084  0.00  0.00    -0.020 C 
ATOM      8  C   UNL d   1       3.977   4.555   2.024  0.00  0.00    -0.020 C 
ATOM      9  C   UNL d   1       6.381   4.863   1.240  0.00  0.00     0.015 C 
ATOM     10  C   UNL d   1       5.122   5.554   1.733  0.00  0.00     0.015 C 
ATOM     11  C   UNL d   1       6.067   5.100  -1.264  0.00  0.00     0.020 C 
ATOM     12  C   UNL d   1       7.385   3.198  -0.291  0.00  0.00     0.020 C 
ATOM     13  C   UNL d   1       4.214   3.873   3.389  0.00  0.00     0.020 C 
ATOM     14  C   UNL d   1       2.683   5.400   2.117  0.00  0.00     0.020 C 
ENDROOT
BRANCH   3  15
ATOM     15  C   UNL d   1       1.310   0.822  -0.021  0.00  0.00     0.051 A 
ATOM     16  N   UNL d   1       0.656   0.400  -1.165  0.00  0.00    -0.335 N 
ATOM     17  C   UNL d   1      -0.393  -0.337  -0.878  0.00  0.00     0.151 A 
ATOM     18  HN  UNL d   1       0.953   0.633  -2.112  1.00  0.00     0.168 HD
ATOM     19  S   UNL d   1      -0.677  -0.542   0.808  0.00  0.00    -0.063 SA
ATOM     20  C   UNL d   1       0.724   0.385   1.154  0.00  0.00     0.083 A 
BRANCH  17  21
ATOM     21  N   UNL d   1      -1.205  -0.915  -1.790  0.00  0.00    -0.313 N 
ATOM     22  C   UNL d   1      -1.108  -0.843  -3.140  0.00  0.00     0.150 C 
ATOM     23  N   UNL d   1      -0.232  -0.218  -3.843  0.00  0.00    -0.376 N 
ATOM     24  N   UNL d   1      -2.064  -1.538  -3.798  0.00  0.00    -0.274 NA
ATOM     25  H   UNL d   1       0.396   0.252  -3.170  0.00  0.00     0.158 HD
ATOM     26  HN  UNL d   1      -0.169  -0.191  -4.861  1.00  0.00     0.158 HD
ATOM     27  H   UNL d   1      -2.110  -2.514  -3.531  0.00  0.00     0.127 HD
ATOM     28  H   UNL d   1      -1.859  -1.478  -4.794  0.00  0.00     0.127 HD
ATOM     29  H   UNL d   1      -2.048  -1.349  -1.444  0.00  0.00     0.170 HD
ENDBRANCH  17  21
ENDBRANCH   3  15
BRANCH   6  30
ATOM     30  C   UNL d   1       3.268   0.573  -2.281  0.00  0.00     0.035 C 
ATOM     31  C   UNL d   1       4.367   0.476  -3.336  0.00  0.00     0.010 C 
ENDBRANCH   6  30
TORSDOF 3
