REMARK  5 active torsions:
REMARK  status: ('A' for Active; 'I' for Inactive)
REMARK    1  A    between atoms: C_2  and  C_1 
REMARK       I    between atoms: N_4  and  C_2 
REMARK    2  A    between atoms: C_5  and  C_3 
REMARK    3  A    between atoms: C_6  and  N_4 
REMARK    4  A    between atoms: C_22  and  N_4 
REMARK    5  A    between atoms: O_24  and  C_14 
ROOT
ATOM      1  C   UNL d   1       0.620   1.295   0.040  0.00  0.00     0.063 A 
ATOM      2  C   UNL d   1       0.951   0.221   0.880  0.00  0.00     0.069 A 
ATOM      3  C   UNL d   1      -0.251   1.033  -1.020  0.00  0.00     0.108 A 
ATOM      4  N   UNL d   1      -0.902  -0.139  -1.212  0.00  0.00    -0.346 N 
ATOM      5  HN  UNL d   1      -1.574  -0.259  -1.969  1.00  0.00     0.167 HD
ATOM      6  C   UNL d   1       0.304  -1.016   0.662  0.00  0.00     0.073 A 
ATOM      7  C   UNL d   1      -0.621  -1.135  -0.357  0.00  0.00     0.142 A 
ENDROOT
BRANCH   1   8
ATOM      8  C   UNL d   1       1.233   2.643   0.157  0.00  0.00     0.260 C 
ATOM      9  N   UNL d   1       0.438   3.808   0.175  0.00  0.00    -0.312 N 
ATOM     10  O   UNL d   1       2.459   2.656   0.238  0.00  0.00    -0.267 OA
BRANCH   9  11
ATOM     11  C   UNL d   1       1.118   5.042   0.441  0.00  0.00     0.059 A 
ATOM     12  C   UNL d   1       1.329   6.042  -0.526  0.00  0.00     0.062 A 
ATOM     13  C   UNL d   1       1.908   7.263  -0.163  0.00  0.00     0.050 A 
ATOM     14 CL   UNL d   1       0.938   5.808  -2.193  0.00  0.00    -0.082 Cl
ATOM     15  C   UNL d   1       2.280   7.487   1.161  0.00  0.00     0.035 A 
ATOM     16  C   UNL d   1       2.102   6.496   2.124  0.00  0.00     0.026 A 
ATOM     17 CL   UNL d   1       2.962   9.000   1.613  0.00  0.00    -0.084 Cl
ATOM     18  C   UNL d   1       1.532   5.273   1.762  0.00  0.00     0.033 A 
ENDBRANCH   9  11
BRANCH   9  19
ATOM     19  C   UNL d   1      -0.980   3.887  -0.233  0.00  0.00     0.128 C 
ATOM     20  C   UNL d   1      -1.791   5.096   0.235  0.00  0.00     0.027 C 
ENDBRANCH   9  19
ENDBRANCH   1   8
BRANCH   2  21
ATOM     21  C   UNL d   1       1.977   0.250   1.982  0.00  0.00     0.418 C 
ATOM     22  F   UNL d   1       2.413   1.465   2.390  0.00  0.00    -0.166 F 
ATOM     23  F   UNL d   1       1.484  -0.333   3.120  0.00  0.00    -0.166 F 
ATOM     24  F   UNL d   1       3.081  -0.483   1.665  0.00  0.00    -0.166 F 
ENDBRANCH   2  21
BRANCH   7  25
ATOM     25  O   UNL d   1      -1.246  -2.356  -0.483  0.00  0.00    -0.341 OA
ATOM     26  C   UNL d   1      -2.318  -2.334  -1.421  0.00  0.00     0.211 C 
ENDBRANCH   7  25
TORSDOF 5
