REMARK  5 active torsions:
REMARK  status: ('A' for Active; 'I' for Inactive)
REMARK    1  A    between atoms: C_2  and  C_1 
REMARK       I    between atoms: N_5  and  C_1 
REMARK    2  A    between atoms: C_3  and  C_4 
REMARK    3  A    between atoms: O_11  and  C_3 
REMARK    4  A    between atoms: C_6  and  N_5 
REMARK    5  A    between atoms: O_12  and  C_10 
ROOT
ATOM      1  C   UNL d   1      -1.724   1.306   0.019  0.00  0.00     0.245 C 
ATOM      2  N   UNL d   1      -1.897  -0.044  -0.149  0.00  0.00    -0.324 N 
ATOM      3  O   UNL d   1      -1.002   1.897   0.814  0.00  0.00    -0.268 OA
ATOM      4  H   UNL d   1      -2.625  -0.344  -0.786  0.00  0.00     0.169 HD
ENDROOT
BRANCH   2   5
ATOM      5  C   UNL d   1      -1.230  -1.074   0.549  0.00  0.00     0.037 A 
ATOM      6  C   UNL d   1      -0.186  -0.849   1.455  0.00  0.00     0.066 A 
ATOM      7  C   UNL d   1       0.440  -1.918   2.103  0.00  0.00     0.070 A 
ATOM      8  C   UNL d   1       0.013  -3.221   1.845  0.00  0.00     0.037 A 
ATOM      9  C   UNL d   1      -1.028  -3.458   0.950  0.00  0.00     0.005 A 
ATOM     10  C   UNL d   1      -1.646  -2.388   0.303  0.00  0.00     0.029 A 
BRANCH   7  11
ATOM     11  O   UNL d   1       1.471  -1.820   2.998  0.00  0.00    -0.356 OA
ATOM     12  C   UNL d   1       1.938  -0.511   3.302  0.00  0.00     0.210 C 
ENDBRANCH   7  11
ENDBRANCH   2   5
BRANCH   1  13
ATOM     13  C   UNL d   1      -2.613   2.105  -0.843  0.00  0.00     0.081 C 
ATOM     14  C   UNL d   1      -3.484   2.998  -0.352  0.00  0.00     0.086 C 
BRANCH  14  15
ATOM     15  C   UNL d   1      -3.826   3.333   1.044  0.00  0.00     0.165 C 
ATOM     16  O   UNL d   1      -4.923   3.812   1.301  0.00  0.00    -0.647 OA
BRANCH  15  17
ATOM     17  O   UNL d   1      -2.897   3.120   1.985  0.00  0.00    -0.773 OA
ATOM     18  H   UNL d   1      -2.012   2.818   1.673  0.00  0.00     0.167 HD
ENDBRANCH  15  17
ENDBRANCH  14  15
ENDBRANCH   1  13
TORSDOF 5
