REMARK  5 active torsions:
REMARK  status: ('A' for Active; 'I' for Inactive)
REMARK    1  A    between atoms: C_10  and  C_2 
REMARK    2  A    between atoms: S_8  and  C_5 
REMARK    3  A    between atoms: C_12  and  S_8 
REMARK    4  A    between atoms: C_9  and  C_12 
REMARK    5  A    between atoms: C_11  and  C_9 
ROOT
ATOM      1  N   UNL d   1       0.866   0.042   0.098  0.00  0.00    -0.315 N 
ATOM      2  C   UNL d   1       0.025   1.126  -0.083  0.00  0.00     0.134 A 
ATOM      3  N   UNL d   1      -1.218   0.666  -0.110  0.00  0.00    -0.283 N 
ATOM      4  HN  UNL d   1      -2.057   1.236  -0.223  1.00  0.00     0.188 HD
ATOM      5  C   UNL d   1       0.053  -1.062   0.171  0.00  0.00     0.163 A 
ATOM      6  N   UNL d   1      -1.198  -0.701   0.038  0.00  0.00    -0.278 N 
ATOM      7  HN  UNL d   1      -2.009  -1.320   0.043  1.00  0.00     0.189 HD
ATOM      8  C   UNL d   1       2.299   0.033   0.241  0.00  0.00     0.160 C 
ENDROOT
BRANCH   5   9
ATOM      9  S   UNL d   1       0.647  -2.668   0.432  0.00  0.00    -0.085 SA
BRANCH   9  10
ATOM     10  C   UNL d   1      -0.890  -3.638   0.412  0.00  0.00     0.166 C 
BRANCH  10  11
ATOM     11  C   UNL d   1      -0.650  -5.107   0.750  0.00  0.00     0.169 C 
ATOM     12  O   UNL d   1       0.448  -5.569   1.068  0.00  0.00    -0.291 OA
BRANCH  11  13
ATOM     13  C   UNL d   1      -1.818  -6.046   0.686  0.00  0.00     0.011 A 
ATOM     14  C   UNL d   1      -3.118  -5.604   0.403  0.00  0.00     0.017 A 
ATOM     15  C   UNL d   1      -4.172  -6.522   0.312  0.00  0.00     0.025 A 
ATOM     16  C   UNL d   1      -3.935  -7.881   0.507  0.00  0.00     0.034 A 
ATOM     17  C   UNL d   1      -2.654  -8.333   0.811  0.00  0.00     0.025 A 
ATOM     18 CL   UNL d   1      -5.230  -9.004   0.359  0.00  0.00    -0.084 Cl
ATOM     19  C   UNL d   1      -1.599  -7.417   0.903  0.00  0.00     0.017 A 
ENDBRANCH  11  13
ENDBRANCH  10  11
ENDBRANCH   9  10
ENDBRANCH   5   9
BRANCH   2  20
ATOM     20  C   UNL d   1       0.389   2.551  -0.141  0.00  0.00     0.012 A 
ATOM     21  C   UNL d   1       1.560   3.018  -0.742  0.00  0.00     0.032 A 
ATOM     22  C   UNL d   1       1.868   4.368  -0.658  0.00  0.00     0.088 A 
ATOM     23  N   UNL d   1       1.073   5.283  -0.071  0.00  0.00    -0.375 N 
ATOM     24  C   UNL d   1      -0.091   4.831   0.441  0.00  0.00     0.088 A 
ATOM     25  HN  UNL d   1       1.337   6.267  -0.015  1.00  0.00     0.164 HD
ATOM     26  C   UNL d   1      -0.470   3.498   0.429  0.00  0.00     0.032 A 
ENDBRANCH   2  20
TORSDOF 5
