REMARK  12 active torsions:
REMARK  status: ('A' for Active; 'I' for Inactive)
REMARK       I    between atoms: N_2  and  C_1 
REMARK    1  A    between atoms: C_11  and  C_1 
REMARK    2  A    between atoms: C_4  and  N_2 
REMARK    3  A    between atoms: O_10  and  C_5 
REMARK    4  A    between atoms: C_13  and  C_11 
REMARK    5  A    between atoms: C_20  and  C_13 
REMARK    6  A    between atoms: C_14  and  C_15 
REMARK    7  A    between atoms: C_15  and  C_21 
REMARK    8  A    between atoms: C_16  and  C_17 
REMARK    9  A    between atoms: C_21  and  C_16 
REMARK   10  A    between atoms: C_17  and  C_18 
REMARK   11  A    between atoms: C_18  and  C_19 
REMARK   12  A    between atoms: C_19  and  C_20 
ROOT
ATOM      1  C   UNL d   1       0.887   0.322   0.033  0.00  0.00     0.222 C 
ATOM      2  N   UNL d   1       0.311   0.776  -1.138  0.00  0.00    -0.327 N 
ATOM      3  O   UNL d   1       0.266  -0.074   1.022  0.00  0.00    -0.273 OA
ATOM      4  H   UNL d   1       0.909   0.921  -1.941  0.00  0.00     0.169 HD
ENDROOT
BRANCH   1   5
ATOM      5  C   UNL d   1       2.414   0.263   0.074  0.00  0.00     0.103 C 
BRANCH   5   6
ATOM      6  C   UNL d   1       3.145   0.867  -1.113  0.00  0.00     0.009 C 
BRANCH   6   7
ATOM      7  C   UNL d   1       4.668   0.888  -0.961  0.00  0.00     0.000 C 
BRANCH   7   8
ATOM      8  C   UNL d   1       5.247   1.584  -2.193  0.00  0.00     0.000 C 
BRANCH   8   9
ATOM      9  C   UNL d   1       6.768   1.669  -2.210  0.00  0.00     0.000 C 
BRANCH   9  10
ATOM     10  C   UNL d   1       7.216   2.389  -3.486  0.00  0.00     0.000 C 
BRANCH  10  11
ATOM     11  C   UNL d   1       8.732   2.499  -3.570  0.00  0.00     0.000 C 
BRANCH  11  12
ATOM     12  C   UNL d   1       9.175   3.220  -4.845  0.00  0.00     0.000 C 
BRANCH  12  13
ATOM     13  C   UNL d   1      10.700   3.308  -4.893  0.00  0.00    -0.000 C 
BRANCH  13  14
ATOM     14  C   UNL d   1      11.199   4.022  -6.145  0.00  0.00    -0.005 C 
ATOM     15  C   UNL d   1      12.719   4.089  -6.157  0.00  0.00     0.005 C 
ENDBRANCH  13  14
ENDBRANCH  12  13
ENDBRANCH  11  12
ENDBRANCH  10  11
ENDBRANCH   9  10
ENDBRANCH   8   9
ENDBRANCH   7   8
ENDBRANCH   6   7
ENDBRANCH   5   6
ENDBRANCH   1   5
BRANCH   2  16
ATOM     16  C   UNL d   1      -1.073   0.872  -1.412  0.00  0.00     0.034 A 
ATOM     17  C   UNL d   1      -2.052   0.785  -0.421  0.00  0.00     0.032 A 
ATOM     18  C   UNL d   1      -3.407   0.743  -0.759  0.00  0.00     0.039 A 
ATOM     19  C   UNL d   1      -3.795   0.787  -2.094  0.00  0.00     0.068 A 
ATOM     20  C   UNL d   1      -2.831   0.988  -3.084  0.00  0.00     0.039 A 
ATOM     21  C   UNL d   1      -1.474   1.033  -2.743  0.00  0.00     0.032 A 
BRANCH  19  22
ATOM     22  O   UNL d   1      -5.089   0.671  -2.522  0.00  0.00    -0.356 OA
ATOM     23  C   UNL d   1      -5.872  -0.240  -1.751  0.00  0.00     0.210 C 
ENDBRANCH  19  22
ENDBRANCH   2  16
TORSDOF 12
