REMARK  4 active torsions:
REMARK  status: ('A' for Active; 'I' for Inactive)
REMARK    1  A    between atoms: N_2  and  C_1 
REMARK    2  A    between atoms: N_4  and  C_1 
REMARK       I    between atoms: C_3  and  N_2 
REMARK    3  A    between atoms: C_10  and  C_3 
REMARK    4  A    between atoms: C_5  and  N_4 
ROOT
ATOM      1  C   UNL d   1       0.989   0.001   0.075  0.00  0.00     0.180 C 
ATOM      2  S   UNL d   1       2.600   0.136  -0.357  0.00  0.00    -0.040 SA
ENDROOT
BRANCH   1   3
ATOM      3  N   UNL d   1       0.458  -0.097   1.347  0.00  0.00    -0.299 N 
ATOM      4  C   UNL d   1       1.104  -0.072   2.580  0.00  0.00     0.257 C 
ATOM      5  O   UNL d   1       2.310   0.072   2.745  0.00  0.00    -0.267 OA
ATOM      6  H   UNL d   1      -0.556  -0.137   1.345  0.00  0.00     0.171 HD
BRANCH   4   7
ATOM      7  C   UNL d   1       0.250  -0.200   3.799  0.00  0.00     0.032 A 
ATOM      8  C   UNL d   1      -0.987  -0.855   3.813  0.00  0.00     0.017 A 
ATOM      9  C   UNL d   1      -1.699  -0.977   5.013  0.00  0.00     0.001 A 
ATOM     10  C   UNL d   1      -1.182  -0.452   6.199  0.00  0.00     0.000 A 
ATOM     11  C   UNL d   1       0.048   0.200   6.192  0.00  0.00     0.001 A 
ATOM     12  C   UNL d   1       0.760   0.323   4.999  0.00  0.00     0.017 A 
ENDBRANCH   4   7
ENDBRANCH   1   3
BRANCH   1  13
ATOM     13  N   UNL d   1       0.098  -0.021  -0.967  0.00  0.00    -0.319 N 
ATOM     14  H   UNL d   1       0.544   0.053  -1.874  0.00  0.00     0.169 HD
BRANCH  13  15
ATOM     15  C   UNL d   1      -1.297  -0.106  -0.949  0.00  0.00     0.106 A 
ATOM     16  N   UNL d   1      -1.947  -0.200   0.233  0.00  0.00    -0.352 N 
ATOM     17  C   UNL d   1      -3.299  -0.260   0.185  0.00  0.00     0.089 A 
ATOM     18  HN  UNL d   1      -1.443  -0.225   1.120  1.00  0.00     0.166 HD
ATOM     19  C   UNL d   1      -4.035  -0.235  -0.988  0.00  0.00     0.017 A 
ATOM     20  C   UNL d   1      -3.347  -0.145  -2.190  0.00  0.00     0.005 A 
ATOM     21  C   UNL d   1      -1.957  -0.080  -2.173  0.00  0.00     0.048 A 
ENDBRANCH  13  15
ENDBRANCH   1  13
TORSDOF 4
