REMARK  6 active torsions:
REMARK  status: ('A' for Active; 'I' for Inactive)
REMARK    1  A    between atoms: C_7  and  C_1 
REMARK    2  A    between atoms: C_2  and  C_5 
REMARK    3  A    between atoms: C_3  and  C_6 
REMARK    4  A    between atoms: C_9  and  C_4 
REMARK    5  A    between atoms: O_21  and  C_7 
REMARK    6  A    between atoms: C_22  and  O_21 
ROOT
ATOM      1  C   UNL d   1      -0.868   1.282   0.526  0.00  0.00     0.120 C 
ATOM      2  C   UNL d   1       0.349   0.861   0.923  0.00  0.00     0.040 C 
ATOM      3  C   UNL d   1      -1.543   2.373   1.132  0.00  0.00     0.105 C 
ATOM      4  N   UNL d   1      -2.076   3.276   1.637  0.00  0.00    -0.191 NA
ENDROOT
BRANCH   1   5
ATOM      5  C   UNL d   1      -1.452   0.616  -0.666  0.00  0.00     0.303 C 
ATOM      6  O   UNL d   1      -0.923  -0.310  -1.264  0.00  0.00    -0.258 OA
BRANCH   5   7
ATOM      7  O   UNL d   1      -2.583   1.258  -1.049  0.00  0.00    -0.317 OA
BRANCH   7   8
ATOM      8  C   UNL d   1      -2.988   1.050  -2.410  0.00  0.00     0.174 C 
ATOM      9  C   UNL d   1      -2.259   2.067  -3.272  0.00  0.00     0.034 C 
ENDBRANCH   7   8
ENDBRANCH   5   7
ENDBRANCH   1   5
BRANCH   2  10
ATOM     10  C   UNL d   1       1.128   1.443   2.018  0.00  0.00    -0.033 A 
ATOM     11  C   UNL d   1       0.860   1.089   3.344  0.00  0.00     0.027 A 
ATOM     12  C   UNL d   1       1.663   1.573   4.389  0.00  0.00     0.049 A 
ATOM     13  C   UNL d   1       2.734   2.429   4.085  0.00  0.00     0.032 A 
ATOM     14  C   UNL d   1       3.016   2.792   2.758  0.00  0.00     0.049 A 
ATOM     15  C   UNL d   1       2.191   2.307   1.731  0.00  0.00     0.027 A 
BRANCH  12  16
ATOM     16  C   UNL d   1       1.398   1.125   5.807  0.00  0.00     0.417 C 
ATOM     17  F   UNL d   1       2.307   1.599   6.703  0.00  0.00    -0.166 F 
ATOM     18  F   UNL d   1       0.178   1.516   6.262  0.00  0.00    -0.166 F 
ATOM     19  F   UNL d   1       1.429  -0.231   5.928  0.00  0.00    -0.166 F 
ENDBRANCH  12  16
BRANCH  14  20
ATOM     20  C   UNL d   1       4.221   3.641   2.423  0.00  0.00     0.417 C 
ATOM     21  F   UNL d   1       4.993   3.938   3.504  0.00  0.00    -0.166 F 
ATOM     22  F   UNL d   1       5.049   3.022   1.535  0.00  0.00    -0.166 F 
ATOM     23  F   UNL d   1       3.888   4.832   1.857  0.00  0.00    -0.166 F 
ENDBRANCH  14  20
ENDBRANCH   2  10
TORSDOF 6
