REMARK  5 active torsions:
REMARK  status: ('A' for Active; 'I' for Inactive)
REMARK    1  A    between atoms: C_11  and  N_1 
REMARK    2  A    between atoms: C_10  and  C_6 
REMARK    3  A    between atoms: C_9  and  N_15 
REMARK    4  A    between atoms: C_16  and  C_10 
REMARK    5  A    between atoms: N_15  and  N_13 
ROOT
ATOM      1  N   UNL d   1      -0.590  -0.567   0.029  0.00  0.00    -0.227 N 
ATOM      2  N   UNL d   1       1.184  -1.783   0.099  0.00  0.00    -0.226 N 
ATOM      3  HN  UNL d   1       2.163  -2.065   0.136  1.00  0.00     0.210 HD
ATOM      4  N   UNL d   1       0.764  -0.532   0.138  0.00  0.00    -0.220 N 
ATOM      5  HN  UNL d   1       1.345   0.301   0.232  1.00  0.00     0.210 HD
ATOM      6  C   UNL d   1      -0.962  -1.909  -0.027  0.00  0.00     0.125 A 
ATOM      7  N   UNL d   1       0.136  -2.643   0.004  0.00  0.00    -0.271 N 
ATOM      8  HN  UNL d   1       0.188  -3.661  -0.035  1.00  0.00     0.190 HD
ENDROOT
BRANCH   6   9
ATOM      9  C   UNL d   1      -2.317  -2.505  -0.099  0.00  0.00     0.126 C 
BRANCH   9  10
ATOM     10  C   UNL d   1      -3.182  -2.141   1.079  0.00  0.00     0.087 C 
ATOM     11  N   UNL d   1      -4.431  -2.472   1.242  0.00  0.00    -0.313 N 
ATOM     12  HN  UNL d   1      -4.959  -2.146   2.052  1.00  0.00     0.185 HD
BRANCH  11  13
ATOM     13  N   UNL d   1      -5.013  -3.271   0.295  0.00  0.00    -0.277 N 
ATOM     14  H   UNL d   1      -4.472  -3.693  -0.452  0.00  0.00     0.189 HD
BRANCH  13  15
ATOM     15  C   UNL d   1      -6.313  -3.687   0.409  0.00  0.00     0.184 C 
ATOM     16  S   UNL d   1      -6.984  -4.758  -0.659  0.00  0.00    -0.040 SA
ATOM     17  N   UNL d   1      -7.010  -3.154   1.437  0.00  0.00    -0.375 N 
ATOM     18  H   UNL d   1      -6.491  -2.620   2.123  0.00  0.00     0.158 HD
ATOM     19  H   UNL d   1      -7.943  -3.481   1.647  0.00  0.00     0.158 HD
ENDBRANCH  13  15
ENDBRANCH  11  13
ENDBRANCH   9  10
ENDBRANCH   6   9
BRANCH   1  20
ATOM     20  C   UNL d   1      -1.333   0.646   0.054  0.00  0.00     0.059 A 
ATOM     21  C   UNL d   1      -2.690   0.714  -0.276  0.00  0.00     0.031 A 
ATOM     22  C   UNL d   1      -3.390   1.918  -0.138  0.00  0.00     0.002 A 
ATOM     23  C   UNL d   1      -2.740   3.065   0.307  0.00  0.00     0.000 A 
ATOM     24  C   UNL d   1      -1.379   3.024   0.587  0.00  0.00     0.002 A 
ATOM     25  C   UNL d   1      -0.676   1.825   0.454  0.00  0.00     0.031 A 
ENDBRANCH   1  20
TORSDOF 5
