REMARK  3 active torsions:
REMARK  status: ('A' for Active; 'I' for Inactive)
REMARK    1  A    between atoms: N_2  and  C_1 
REMARK    2  A    between atoms: N_6  and  C_1 
REMARK    3  A    between atoms: C_3  and  N_2 
ROOT
ATOM      1  C   UNL d   1       0.881   2.272  -0.845  0.00  0.00     0.040 A 
ATOM      2  C   UNL d   1       1.940   2.231  -1.784  0.00  0.00    -0.029 A 
ATOM      3  C   UNL d   1       2.622   3.431  -2.106  0.00  0.00    -0.054 A 
ATOM      4  C   UNL d   1       0.492   3.495  -0.285  0.00  0.00     0.030 A 
ATOM      5  C   UNL d   1       1.146   4.675  -0.626  0.00  0.00     0.003 A 
ATOM      6  C   UNL d   1       2.329   0.944  -2.470  0.00  0.00     0.051 C 
ATOM      7  C   UNL d   1       2.207   4.641  -1.524  0.00  0.00     0.007 A 
ATOM      8  C   UNL d   1       3.785   3.495  -3.059  0.00  0.00     0.049 C 
ENDROOT
BRANCH   1   9
ATOM      9  N   UNL d   1       0.286   1.058  -0.412  0.00  0.00    -0.333 N 
ATOM     10  H   UNL d   1       0.934   0.285  -0.330  0.00  0.00     0.168 HD
BRANCH   9  11
ATOM     11  C   UNL d   1      -0.864   0.884   0.311  0.00  0.00     0.173 C 
ATOM     12  S   UNL d   1      -0.838  -0.312   1.490  0.00  0.00    -0.041 SA
BRANCH  11  13
ATOM     13  N   UNL d   1      -1.978   1.633  -0.040  0.00  0.00    -0.367 N 
ATOM     14  C   UNL d   1      -2.225   2.010  -1.431  0.00  0.00     0.151 C 
ATOM     15  C   UNL d   1      -3.129   1.789   0.843  0.00  0.00     0.151 C 
ENDBRANCH  11  13
ENDBRANCH   9  11
ENDBRANCH   1   9
TORSDOF 3
