REMARK  3 active torsions:
REMARK  status: ('A' for Active; 'I' for Inactive)
REMARK    1  A    between atoms: C_4  and  C_1 
REMARK    2  A    between atoms: C_2  and  C_5 
REMARK    3  A    between atoms: O_13  and  C_4 
ROOT
ATOM      1  C   UNL d   1       0.192  -1.227  -0.001  0.00  0.00     0.076 A 
ATOM      2  C   UNL d   1      -1.214  -1.224  -0.003  0.00  0.00     0.037 A 
ATOM      3  C   UNL d   1      -1.936  -0.017  -0.003  0.00  0.00     0.049 A 
ATOM      4  C   UNL d   1       0.865  -0.007  -0.002  0.00  0.00     0.133 A 
ATOM      5  C   UNL d   1      -1.227   1.196  -0.004  0.00  0.00     0.019 A 
ATOM      6  C   UNL d   1       0.168   1.200  -0.005  0.00  0.00     0.044 A 
ATOM      7  F   UNL d   1       2.206   0.030  -0.000  0.00  0.00    -0.205 F 
ENDROOT
BRANCH   1   8
ATOM      8  C   UNL d   1       0.894  -2.535   0.008  0.00  0.00     0.179 C 
ATOM      9  O   UNL d   1       0.280  -3.591   0.009  0.00  0.00    -0.646 OA
BRANCH   8  10
ATOM     10  O   UNL d   1       2.241  -2.490   0.018  0.00  0.00    -0.773 OA
ATOM     11  H   UNL d   1       2.642  -1.597   0.016  0.00  0.00     0.167 HD
ENDBRANCH   8  10
ENDBRANCH   1   8
BRANCH   3  12
ATOM     12  C   UNL d   1      -3.449  -0.012   0.005  0.00  0.00     0.417 C 
ATOM     13  F   UNL d   1      -3.998  -1.256   0.001  0.00  0.00    -0.166 F 
ATOM     14  F   UNL d   1      -3.955   0.620   1.099  0.00  0.00    -0.166 F 
ATOM     15  F   UNL d   1      -3.969   0.633  -1.075  0.00  0.00    -0.166 F 
ENDBRANCH   3  12
TORSDOF 3
