REMARK  4 active torsions:
REMARK  status: ('A' for Active; 'I' for Inactive)
REMARK    1  A    between atoms: C_2  and  O_9 
REMARK    2  A    between atoms: C_7  and  C_2 
REMARK    3  A    between atoms: C_10  and  C_3 
REMARK    4  A    between atoms: O_9  and  C_15 
ROOT
ATOM      1  C   UNL d   1       2.367  -1.915   0.495  0.00  0.00    -0.008 A 
ATOM      2  C   UNL d   1       3.089  -1.904  -0.708  0.00  0.00     0.016 A 
ATOM      3  C   UNL d   1       2.737  -2.831   1.492  0.00  0.00     0.016 A 
ATOM      4  C   UNL d   1       4.538  -3.657   0.109  0.00  0.00     0.079 A 
ATOM      5  C   UNL d   1       3.824  -3.693   1.306  0.00  0.00     0.038 A 
ATOM      6  C   UNL d   1       4.178  -2.763  -0.898  0.00  0.00     0.038 A 
ENDROOT
BRANCH   4   7
ATOM      7  O   UNL d   1       5.684  -4.477   0.028  0.00  0.00    -0.275 OA
BRANCH   7   8
ATOM      8  C   UNL d   1       5.979  -5.136  -1.156  0.00  0.00     0.299 C 
ATOM      9  O   UNL d   1       5.333  -5.115  -2.192  0.00  0.00    -0.259 OA
BRANCH   8  10
ATOM     10  C   UNL d   1       7.302  -5.814  -1.051  0.00  0.00     0.045 A 
ATOM     11  C   UNL d   1       7.756  -6.524   0.079  0.00  0.00    -0.046 A 
ATOM     12  C   UNL d   1       6.962  -6.695   1.343  0.00  0.00     0.049 C 
ATOM     13  C   UNL d   1       9.040  -7.104   0.038  0.00  0.00     0.008 A 
ATOM     14  C   UNL d   1       9.836  -7.023  -1.106  0.00  0.00     0.001 A 
ATOM     15  C   UNL d   1       9.367  -6.355  -2.230  0.00  0.00     0.001 A 
ATOM     16  C   UNL d   1       8.108  -5.754  -2.202  0.00  0.00     0.018 A 
ENDBRANCH   8  10
ENDBRANCH   7   8
ENDBRANCH   4   7
BRANCH   1  17
ATOM     17  C   UNL d   1       1.265  -0.988   0.737  0.00  0.00     0.063 A 
ATOM     18  N   UNL d   1       0.242  -1.291   1.633  0.00  0.00    -0.292 N 
ATOM     19  N   UNL d   1      -0.643  -0.315   1.727  0.00  0.00    -0.061 NA
ATOM     20  HN  UNL d   1       0.183  -2.165   2.156  1.00  0.00     0.183 HD
ATOM     21  S   UNL d   1      -0.267   0.999   0.765  0.00  0.00    -0.010 SA
ATOM     22  C   UNL d   1       1.158   0.265   0.153  0.00  0.00     0.096 A 
ENDBRANCH   1  17
TORSDOF 4
