REMARK  2 active torsions:
REMARK  status: ('A' for Active; 'I' for Inactive)
REMARK    1  A    between atoms: C_11  and  C_5 
REMARK    2  A    between atoms: C_7  and  C_14 
ROOT
ATOM      1  N   UNL d   1      -0.890  -0.848  -0.042  0.00  0.00    -0.238 N 
ATOM      2  C   UNL d   1      -0.005   0.242  -0.020  0.00  0.00     0.149 A 
ATOM      3  N   UNL d   1      -0.217  -2.033  -0.039  0.00  0.00    -0.302 N 
ATOM      4  HN  UNL d   1      -0.610  -2.974  -0.051  1.00  0.00     0.186 HD
ATOM      5  C   UNL d   1      -2.278  -0.633  -0.052  0.00  0.00     0.070 A 
ATOM      6  C   UNL d   1       1.260  -0.302  -0.005  0.00  0.00     0.107 A 
ATOM      7  N   UNL d   1      -0.448   1.538  -0.010  0.00  0.00    -0.349 N 
ATOM      8  HN  UNL d   1       0.197   2.329   0.003  1.00  0.00     0.166 HD
ATOM      9  C   UNL d   1       1.071  -1.689  -0.017  0.00  0.00     0.134 A 
ATOM     10  C   UNL d   1       2.493   0.404   0.022  0.00  0.00     0.105 C 
ATOM     11  N   UNL d   1       3.522   0.942   0.044  0.00  0.00    -0.191 NA
ATOM     12  C   UNL d   1      -2.756   0.624  -0.041  0.00  0.00     0.049 A 
ATOM     13  C   UNL d   1      -1.735   1.702  -0.019  0.00  0.00     0.092 A 
ENDROOT
BRANCH   5  14
ATOM     14  C   UNL d   1      -3.237  -1.746  -0.032  0.00  0.00    -0.006 A 
ATOM     15  C   UNL d   1      -3.650  -2.277   1.197  0.00  0.00     0.030 A 
ATOM     16  C   UNL d   1      -4.611  -3.297   1.252  0.00  0.00     0.048 A 
ATOM     17  C   UNL d   1      -5.149  -3.788   0.052  0.00  0.00     0.016 A 
ATOM     18  C   UNL d   1      -4.732  -3.270  -1.176  0.00  0.00     0.002 A 
ATOM     19  C   UNL d   1      -3.780  -2.250  -1.218  0.00  0.00     0.014 A 
BRANCH  16  20
ATOM     20  C   UNL d   1      -5.074  -3.851   2.576  0.00  0.00     0.417 C 
ATOM     21  F   UNL d   1      -4.482  -3.256   3.650  0.00  0.00    -0.166 F 
ATOM     22  F   UNL d   1      -6.414  -3.695   2.761  0.00  0.00    -0.166 F 
ATOM     23  F   UNL d   1      -4.830  -5.184   2.705  0.00  0.00    -0.166 F 
ENDBRANCH  16  20
ENDBRANCH   5  14
TORSDOF 2
