REMARK  8 active torsions:
REMARK  status: ('A' for Active; 'I' for Inactive)
REMARK    1  A    between atoms: N_4  and  C_1 
REMARK    2  A    between atoms: S_6  and  C_2 
REMARK    3  A    between atoms: C_12  and  C_3 
REMARK    4  A    between atoms: N_5  and  C_8 
REMARK    5  A    between atoms: C_11  and  S_6 
REMARK    6  A    between atoms: C_13  and  C_9 
REMARK    7  A    between atoms: O_20  and  C_12 
REMARK    8  A    between atoms: O_21  and  C_13 
ROOT
ATOM      1  C   UNL d   1       1.337  -0.145  -0.225  0.00  0.00     0.123 A 
ATOM      2  C   UNL d   1       0.530  -1.307  -0.214  0.00  0.00     0.055 A 
ATOM      3  C   UNL d   1      -0.859  -1.115  -0.038  0.00  0.00     0.059 A 
ATOM      4  C   UNL d   1       0.817   1.152  -0.070  0.00  0.00     0.073 A 
ATOM      5  C   UNL d   1      -0.558   1.307   0.095  0.00  0.00     0.106 A 
ATOM      6  C   UNL d   1      -1.394   0.185   0.104  0.00  0.00     0.056 A 
ENDROOT
BRANCH   2   7
ATOM      7  S   UNL d   1       1.234  -2.958  -0.329  0.00  0.00    -0.086 SA
BRANCH   7   8
ATOM      8  C   UNL d   1       1.331  -3.314  -2.091  0.00  0.00     0.022 A 
ATOM      9  C   UNL d   1       2.238  -4.263  -2.615  0.00  0.00     0.054 A 
ATOM     10  C   UNL d   1       2.256  -4.532  -3.998  0.00  0.00     0.020 A 
ATOM     11  C   UNL d   1       1.386  -3.878  -4.864  0.00  0.00     0.001 A 
ATOM     12  C   UNL d   1       0.473  -2.962  -4.357  0.00  0.00     0.001 A 
ATOM     13  C   UNL d   1       0.443  -2.688  -2.986  0.00  0.00     0.020 A 
BRANCH   9  14
ATOM     14  C   UNL d   1       3.168  -5.104  -1.807  0.00  0.00     0.177 C 
ATOM     15  O   UNL d   1       3.394  -6.269  -2.084  0.00  0.00    -0.646 OA
BRANCH  14  16
ATOM     16  O   UNL d   1       3.795  -4.459  -0.806  0.00  0.00    -0.773 OA
ATOM     17  H   UNL d   1       3.571  -3.513  -0.730  0.00  0.00     0.167 HD
ENDBRANCH  14  16
ENDBRANCH   9  14
ENDBRANCH   7   8
ENDBRANCH   2   7
BRANCH   1  18
ATOM     18  N   UNL d   1       2.777  -0.238  -0.391  0.00  0.00    -0.114 N 
ATOM     19  O   UNL d   1       3.197  -0.734  -1.443  0.00  0.00    -0.532 OA
ATOM     20  O   UNL d   1       3.472   0.197   0.534  0.00  0.00    -0.532 OA
ENDBRANCH   1  18
BRANCH   3  21
ATOM     21  C   UNL d   1      -1.883  -2.197  -0.078  0.00  0.00     0.177 C 
ATOM     22  O   UNL d   1      -2.971  -2.005  -0.595  0.00  0.00    -0.646 OA
BRANCH  21  23
ATOM     23  O   UNL d   1      -1.564  -3.341   0.547  0.00  0.00    -0.773 OA
ATOM     24  H   UNL d   1      -0.643  -3.434   0.858  0.00  0.00     0.167 HD
ENDBRANCH  21  23
ENDBRANCH   3  21
BRANCH   5  25
ATOM     25  N   UNL d   1      -1.133   2.652   0.259  0.00  0.00    -0.116 N 
ATOM     26  O   UNL d   1      -0.351   3.610   0.224  0.00  0.00    -0.532 OA
ATOM     27  O   UNL d   1      -2.353   2.736   0.422  0.00  0.00    -0.532 OA
ENDBRANCH   5  25
TORSDOF 8
