REMARK  5 active torsions:
REMARK  status: ('A' for Active; 'I' for Inactive)
REMARK    1  A    between atoms: C_2  and  C_1 
REMARK       I    between atoms: N_3  and  C_2 
REMARK       I    between atoms: C_4  and  N_3 
REMARK    2  A    between atoms: O_15  and  C_4 
REMARK    3  A    between atoms: C_12  and  C_5 
REMARK    4  A    between atoms: N_10  and  C_8 
REMARK    5  A    between atoms: C_20  and  O_15 
ROOT
ATOM      1  C   UNL d   1       0.902  -0.026   0.159  0.00  0.00     0.113 C 
ATOM      2  C   UNL d   1       0.173  -0.869  -0.605  0.00  0.00     0.039 C 
ATOM      3  C   UNL d   1       0.256   0.901   1.030  0.00  0.00     0.105 C 
ATOM      4  N   UNL d   1      -0.314   1.596   1.762  0.00  0.00    -0.191 NA
ENDROOT
BRANCH   1   5
ATOM      5  C   UNL d   1       2.395  -0.190   0.114  0.00  0.00     0.270 C 
ATOM      6  N   UNL d   1       3.222   0.563   0.911  0.00  0.00    -0.268 N 
ATOM      7  C   UNL d   1       3.200   1.921   1.105  0.00  0.00     0.367 C 
ATOM      8  H   UNL d   1       4.176   0.227   0.913  0.00  0.00     0.174 HD
ATOM      9  O   UNL d   1       2.355   2.695   0.690  0.00  0.00    -0.238 OA
ATOM     10  O   UNL d   1       2.920  -1.046  -0.613  0.00  0.00    -0.266 OA
BRANCH   7  11
ATOM     11  O   UNL d   1       4.296   2.280   1.824  0.00  0.00    -0.304 OA
BRANCH  11  12
ATOM     12  C   UNL d   1       4.452   3.686   2.088  0.00  0.00     0.176 C 
ATOM     13  C   UNL d   1       3.611   4.137   3.271  0.00  0.00     0.034 C 
ENDBRANCH  11  12
ENDBRANCH   7  11
ENDBRANCH   1   5
BRANCH   2  14
ATOM     14  C   UNL d   1      -1.289  -0.798  -0.733  0.00  0.00    -0.035 A 
ATOM     15  C   UNL d   1      -1.827  -0.217  -1.879  0.00  0.00     0.013 A 
ATOM     16  C   UNL d   1      -3.213  -0.060  -2.016  0.00  0.00     0.030 A 
ATOM     17  C   UNL d   1      -4.126  -0.480  -1.037  0.00  0.00     0.029 A 
ATOM     18  C   UNL d   1      -3.553  -1.065   0.108  0.00  0.00     0.030 A 
ATOM     19  C   UNL d   1      -2.162  -1.225   0.265  0.00  0.00     0.013 A 
BRANCH  17  20
ATOM     20  N   UNL d   1      -5.505  -0.397  -1.211  0.00  0.00    -0.390 N 
ATOM     21  C   UNL d   1      -6.390  -0.140  -0.074  0.00  0.00     0.149 C 
ATOM     22  C   UNL d   1      -6.080  -0.010  -2.499  0.00  0.00     0.149 C 
ENDBRANCH  17  20
ENDBRANCH   2  14
TORSDOF 5
