REMARK  1 active torsions:
REMARK  status: ('A' for Active; 'I' for Inactive)
REMARK    1  A    between atoms: C_10  and  C_5 
ROOT
ATOM      1  N   UNL d   1      -7.152  -3.635   0.091  0.00  0.00    -0.191 NA
ATOM      2  C   UNL d   1      -3.854  -0.058   0.069  0.00  0.00    -0.007 A 
ATOM      3  C   UNL d   1      -6.589  -2.616   0.073  0.00  0.00     0.099 C 
ATOM      4  C   UNL d   1      -4.519  -1.292   0.138  0.00  0.00     0.036 A 
ATOM      5  C   UNL d   1      -5.915  -1.352   0.045  0.00  0.00     0.045 A 
ATOM      6  C   UNL d   1      -4.611   1.115  -0.056  0.00  0.00     0.014 A 
ATOM      7  C   UNL d   1      -6.002   1.062  -0.129  0.00  0.00     0.002 A 
ATOM      8  C   UNL d   1      -6.652  -0.171  -0.091  0.00  0.00     0.023 A 
ENDROOT
BRANCH   2   9
ATOM      9  C   UNL d   1      -2.402  -0.014   0.082  0.00  0.00     0.060 A 
ATOM     10  C   UNL d   1      -1.626   1.126   0.027  0.00  0.00     0.128 A 
ATOM     11  N   UNL d   1      -0.327   0.689   0.028  0.00  0.00    -0.316 N 
ATOM     12  C   UNL d   1      -0.373  -0.699   0.064  0.00  0.00     0.111 A 
ATOM     13  C   UNL d   1       0.855   1.424   0.006  0.00  0.00     0.104 A 
ATOM     14  N   UNL d   1      -1.612  -1.140   0.117  0.00  0.00    -0.340 N 
ATOM     15  C   UNL d   1       0.872  -1.386   0.037  0.00  0.00     0.050 A 
ATOM     16  HN  UNL d   1      -1.921  -2.110   0.172  1.00  0.00     0.167 HD
ATOM     17  C   UNL d   1       2.024  -0.686   0.011  0.00  0.00     0.012 A 
ATOM     18  C   UNL d   1       2.039   0.778   0.008  0.00  0.00    -0.046 A 
ATOM     19  C   UNL d   1       3.368   1.467   0.009  0.00  0.00     0.049 C 
ENDBRANCH   2   9
TORSDOF 1
