REMARK  3 active torsions:
REMARK  status: ('A' for Active; 'I' for Inactive)
REMARK    1  A    between atoms: N_6  and  N_2 
REMARK    2  A    between atoms: C_9  and  N_6 
REMARK    3  A    between atoms: O_13  and  C_12 
ROOT
ATOM      1  C   UNL d   1      -1.025   0.818   0.247  0.00  0.00     0.109 C 
ATOM      2  N   UNL d   1      -1.310   2.043   0.588  0.00  0.00    -0.296 N 
ATOM      3  HN  UNL d   1      -0.573   2.713   0.809  1.00  0.00     0.187 HD
ATOM      4  C   UNL d   1       0.399   0.399   0.187  0.00  0.00     0.006 A 
ATOM      5  C   UNL d   1      -2.069  -0.253  -0.072  0.00  0.00     0.200 C 
ATOM      6  C   UNL d   1      -1.640  -1.664   0.031  0.00  0.00     0.058 C 
ATOM      7  C   UNL d   1      -0.341  -1.985   0.105  0.00  0.00     0.016 C 
ATOM      8  C   UNL d   1       0.709  -0.966   0.101  0.00  0.00    -0.023 A 
ATOM      9  O   UNL d   1      -3.201   0.024  -0.440  0.00  0.00    -0.286 OA
ATOM     10  C   UNL d   1       1.421   1.358   0.222  0.00  0.00     0.015 A 
ATOM     11  C   UNL d   1       2.055  -1.353   0.030  0.00  0.00     0.012 A 
ATOM     12  C   UNL d   1       2.754   0.959   0.146  0.00  0.00     0.001 A 
ATOM     13  C   UNL d   1       3.071  -0.394   0.044  0.00  0.00     0.001 A 
ENDROOT
BRANCH   2  14
ATOM     14  N   UNL d   1      -2.622   2.401   0.640  0.00  0.00    -0.297 N 
ATOM     15  H   UNL d   1      -3.142   2.290  -0.225  0.00  0.00     0.187 HD
BRANCH  14  16
ATOM     16  C   UNL d   1      -2.982   3.536   1.406  0.00  0.00     0.081 A 
ATOM     17  C   UNL d   1      -4.259   4.135   1.390  0.00  0.00     0.096 A 
ATOM     18  C   UNL d   1      -4.530   5.210   2.264  0.00  0.00     0.039 A 
ATOM     19  C   UNL d   1      -3.581   5.681   3.169  0.00  0.00     0.003 A 
ATOM     20  C   UNL d   1      -2.334   5.084   3.216  0.00  0.00     0.002 A 
ATOM     21  C   UNL d   1      -2.050   4.023   2.354  0.00  0.00     0.034 A 
BRANCH  17  22
ATOM     22  O   UNL d   1      -5.356   3.871   0.614  0.00  0.00    -0.354 OA
ATOM     23  C   UNL d   1      -5.470   2.662  -0.111  0.00  0.00     0.210 C 
ENDBRANCH  17  22
ENDBRANCH  14  16
ENDBRANCH   2  14
TORSDOF 3
