REMARK  5 active torsions:
REMARK  status: ('A' for Active; 'I' for Inactive)
REMARK    1  A    between atoms: C_9  and  N_1 
REMARK    2  A    between atoms: C_8  and  C_2 
REMARK    3  A    between atoms: C_13  and  N_6 
REMARK    4  A    between atoms: C_14  and  C_13 
REMARK    5  A    between atoms: O_18  and  C_15 
ROOT
ATOM      1  N   UNL d   1      -0.333   1.059  -0.041  0.00  0.00    -0.291 N 
ATOM      2  C   UNL d   1      -1.224  -0.034  -0.007  0.00  0.00     0.058 A 
ATOM      3  C   UNL d   1       1.016   0.653  -0.049  0.00  0.00     0.152 A 
ATOM      4  S   UNL d   1       1.083  -1.143  -0.071  0.00  0.00    -0.063 SA
ATOM      5  C   UNL d   1      -0.648  -1.249  -0.026  0.00  0.00     0.084 A 
ATOM      6  N   UNL d   1       2.064   1.393  -0.012  0.00  0.00    -0.366 N 
ATOM      7  HN  UNL d   1       1.950   2.407   0.010  1.00  0.00     0.162 HD
ENDROOT
BRANCH   1   8
ATOM      8  C   UNL d   1      -0.681   2.450   0.019  0.00  0.00     0.042 A 
ATOM      9  C   UNL d   1      -1.755   2.927   0.787  0.00  0.00     0.030 A 
ATOM     10  C   UNL d   1      -2.068   4.289   0.869  0.00  0.00     0.002 A 
ATOM     11  C   UNL d   1      -1.286   5.224   0.208  0.00  0.00     0.000 A 
ATOM     12  C   UNL d   1      -0.204   4.793  -0.550  0.00  0.00     0.002 A 
ATOM     13  C   UNL d   1       0.080   3.425  -0.656  0.00  0.00     0.030 A 
ENDBRANCH   1   8
BRANCH   6  14
ATOM     14  C   UNL d   1       3.408   0.838   0.000  0.00  0.00     0.161 C 
BRANCH  14  15
ATOM     15  C   UNL d   1       4.449   1.929  -0.007  0.00  0.00    -0.025 A 
ATOM     16  C   UNL d   1       5.705   1.701  -0.559  0.00  0.00     0.096 A 
ATOM     17  N   UNL d   1       6.709   2.609  -0.584  0.00  0.00    -0.375 N 
ATOM     18  C   UNL d   1       6.448   3.810  -0.021  0.00  0.00     0.087 A 
ATOM     19  HN  UNL d   1       7.614   2.399  -1.005  1.00  0.00     0.164 HD
ATOM     20  C   UNL d   1       5.239   4.140   0.564  0.00  0.00     0.018 A 
ATOM     21  C   UNL d   1       4.229   3.182   0.578  0.00  0.00     0.011 A 
ENDBRANCH  14  15
ENDBRANCH   6  14
BRANCH   2  22
ATOM     22  C   UNL d   1      -2.685   0.064  -0.052  0.00  0.00    -0.006 A 
ATOM     23  C   UNL d   1      -3.348   0.152  -1.286  0.00  0.00     0.050 A 
ATOM     24  C   UNL d   1      -4.741   0.244  -1.329  0.00  0.00     0.069 A 
ATOM     25  C   UNL d   1      -5.465   0.274  -0.135  0.00  0.00     0.037 A 
ATOM     26  C   UNL d   1      -4.816   0.172   1.095  0.00  0.00     0.004 A 
ATOM     27  C   UNL d   1      -3.432   0.033   1.134  0.00  0.00     0.014 A 
BRANCH  24  28
ATOM     28  O   UNL d   1      -5.503   0.314  -2.463  0.00  0.00    -0.356 OA
ATOM     29  C   UNL d   1      -4.812   0.241  -3.704  0.00  0.00     0.210 C 
ENDBRANCH  24  28
ENDBRANCH   2  22
TORSDOF 5
