REMARK  5 active torsions:
REMARK  status: ('A' for Active; 'I' for Inactive)
REMARK    1  A    between atoms: S_16  and  C_6 
REMARK    2  A    between atoms: C_11  and  C_24 
REMARK       I    between atoms: N_19  and  C_11 
REMARK    3  A    between atoms: C_12  and  C_18 
REMARK    4  A    between atoms: N_13  and  N_19 
REMARK    5  A    between atoms: C_24  and  S_16 
ROOT
ATOM      1  C   UNL d   1       1.145   0.669   0.000  0.00  0.00     0.089 A 
ATOM      2  C   UNL d   1       0.611  -0.619  -0.006  0.00  0.00     0.039 A 
ATOM      3  S   UNL d   1      -0.015   1.909   0.008  0.00  0.00    -0.075 SA
ATOM      4  C   UNL d   1      -0.852  -0.529   0.000  0.00  0.00    -0.029 A 
ATOM      5  C   UNL d   1      -1.284   0.792   0.026  0.00  0.00    -0.008 A 
ATOM      6  C   UNL d   1       1.595  -1.638  -0.008  0.00  0.00     0.084 A 
ATOM      7  N   UNL d   1       2.442   1.020   0.004  0.00  0.00    -0.346 N 
ATOM      8  HN  UNL d   1       2.764   1.987   0.005  1.00  0.00     0.167 HD
ATOM      9  N   UNL d   1       2.912  -1.312  -0.003  0.00  0.00    -0.346 N 
ATOM     10  HN  UNL d   1       3.626  -2.041  -0.005  1.00  0.00     0.167 HD
ATOM     11  C   UNL d   1       3.257  -0.024   0.006  0.00  0.00     0.182 A 
ATOM     12  C   UNL d   1      -1.863  -1.649   0.024  0.00  0.00     0.040 C 
ATOM     13  C   UNL d   1      -2.706   1.268   0.041  0.00  0.00     0.047 C 
ATOM     14  C   UNL d   1      -3.303  -1.162  -0.259  0.00  0.00     0.005 C 
ATOM     15  C   UNL d   1      -3.640   0.139   0.479  0.00  0.00     0.005 C 
ENDROOT
BRANCH   6  16
ATOM     16  S   UNL d   1       1.224  -3.374  -0.012  0.00  0.00    -0.102 SA
BRANCH  16  17
ATOM     17  C   UNL d   1       2.936  -4.070  -0.042  0.00  0.00     0.185 C 
BRANCH  17  18
ATOM     18  C   UNL d   1       2.973  -5.593  -0.017  0.00  0.00     0.245 C 
ATOM     19  N   UNL d   1       4.284  -6.110  -0.029  0.00  0.00    -0.270 N 
ATOM     20  H   UNL d   1       5.095  -5.506  -0.053  0.00  0.00     0.190 HD
ATOM     21  O   UNL d   1       1.966  -6.299   0.019  0.00  0.00    -0.271 OA
BRANCH  19  22
ATOM     22  N   UNL d   1       4.436  -7.462   0.118  0.00  0.00    -0.308 N 
ATOM     23  C   UNL d   1       5.630  -7.969   0.091  0.00  0.00     0.126 C 
ATOM     24  HN  UNL d   1       3.622  -8.064   0.246  1.00  0.00     0.186 HD
BRANCH  23  25
ATOM     25  C   UNL d   1       5.782  -9.391   0.310  0.00  0.00     0.021 A 
ATOM     26  S   UNL d   1       7.329 -10.118   0.282  0.00  0.00    -0.101 SA
ATOM     27  C   UNL d   1       6.682 -11.662   0.660  0.00  0.00     0.050 A 
ATOM     28  C   UNL d   1       5.312 -11.627   0.791  0.00  0.00     0.008 A 
ATOM     29  C   UNL d   1       4.794 -10.319   0.577  0.00  0.00     0.021 A 
ENDBRANCH  23  25
ENDBRANCH  19  22
ENDBRANCH  17  18
ENDBRANCH  16  17
ENDBRANCH   6  16
TORSDOF 5
