REMARK  8 active torsions:
REMARK  status: ('A' for Active; 'I' for Inactive)
REMARK    1  A    between atoms: C_12  and  N_1 
REMARK    2  A    between atoms: N_2  and  C_11 
REMARK    3  A    between atoms: C_11  and  N_14 
REMARK    4  A    between atoms: N_13  and  C_12 
REMARK    5  A    between atoms: C_31  and  C_35 
REMARK    6  A    between atoms: C_34  and  C_32 
REMARK    7  A    between atoms: C_33  and  C_34 
REMARK    8  A    between atoms: C_35  and  C_33 
ROOT
ATOM      1  C   UNL d   1       1.911   5.141  -1.564  0.00  0.00     0.001 C 
ENDROOT
BRANCH   1   2
ATOM      2  C   UNL d   1       2.469   4.776  -0.180  0.00  0.00     0.005 C 
BRANCH   2   3
ATOM      3  C   UNL d   1       2.491   5.932   0.850  0.00  0.00    -0.011 C 
ATOM      4  C   UNL d   1       3.121   5.498   2.179  0.00  0.00     0.035 C 
ATOM      5  C   UNL d   1       4.644   5.350   2.098  0.00  0.00     0.275 C 
ATOM      6  N   UNL d   1       5.329   6.531   1.543  0.00  0.00     0.106 N 
ATOM      7  C   UNL d   1       4.742   6.959   0.264  0.00  0.00     0.275 C 
ATOM      8  C   UNL d   1       3.233   7.185   0.372  0.00  0.00     0.035 C 
BRANCH   6   9
ATOM      9  C   UNL d   1       6.766   6.223   1.401  0.00  0.00     0.408 C 
BRANCH   9  10
ATOM     10  N   UNL d   1       7.535   7.414   1.134  0.00  0.00    -0.252 N 
ATOM     11  C   UNL d   1       8.116   8.182   2.108  0.00  0.00     0.263 A 
ATOM     12  C   UNL d   1       8.877   9.223   1.411  0.00  0.00     0.048 A 
ATOM     13  O   UNL d   1       8.109   8.052   3.315  0.00  0.00    -0.267 OA
ATOM     14  C   UNL d   1       9.631  10.270   1.906  0.00  0.00     0.018 A 
ATOM     15  C   UNL d   1       8.763   8.986   0.055  0.00  0.00     0.048 A 
ATOM     16  C   UNL d   1      10.264  11.101   0.974  0.00  0.00     0.001 A 
ATOM     17  C   UNL d   1      10.137  10.864  -0.411  0.00  0.00     0.001 A 
ATOM     18  C   UNL d   1       9.382   9.787  -0.885  0.00  0.00     0.018 A 
ATOM     19  C   UNL d   1       7.941   7.791  -0.115  0.00  0.00     0.263 A 
ATOM     20  O   UNL d   1       7.733   7.261  -1.192  0.00  0.00    -0.267 OA
ENDBRANCH   9  10
ENDBRANCH   6   9
ENDBRANCH   2   3
ENDBRANCH   1   2
BRANCH   1  21
ATOM     21  C   UNL d   1       0.466   5.647  -1.512  0.00  0.00     0.005 C 
BRANCH  21  22
ATOM     22  C   UNL d   1      -0.122   6.036  -2.886  0.00  0.00    -0.011 C 
ATOM     23  C   UNL d   1       0.650   7.143  -3.610  0.00  0.00     0.035 C 
ATOM     24  C   UNL d   1       0.534   8.492  -2.900  0.00  0.00     0.275 C 
ATOM     25  N   UNL d   1      -0.858   8.927  -2.706  0.00  0.00     0.106 N 
ATOM     26  C   UNL d   1      -1.674   7.886  -2.054  0.00  0.00     0.275 C 
ATOM     27  C   UNL d   1      -1.575   6.516  -2.739  0.00  0.00     0.035 C 
BRANCH  25  28
ATOM     28  C   UNL d   1      -0.930  10.163  -1.897  0.00  0.00     0.408 C 
BRANCH  28  29
ATOM     29  N   UNL d   1      -0.227  11.244  -2.543  0.00  0.00    -0.252 N 
ATOM     30  C   UNL d   1      -0.781  12.070  -3.481  0.00  0.00     0.263 A 
ATOM     31  C   UNL d   1       0.291  12.963  -3.923  0.00  0.00     0.048 A 
ATOM     32  O   UNL d   1      -1.925  12.147  -3.877  0.00  0.00    -0.267 OA
ATOM     33  C   UNL d   1       0.304  13.921  -4.917  0.00  0.00     0.018 A 
ATOM     34  C   UNL d   1       1.407  12.691  -3.154  0.00  0.00     0.048 A 
ATOM     35  C   UNL d   1       1.500  14.621  -5.113  0.00  0.00     0.001 A 
ATOM     36  C   UNL d   1       2.634  14.354  -4.317  0.00  0.00     0.001 A 
ATOM     37  C   UNL d   1       2.596  13.374  -3.321  0.00  0.00     0.018 A 
ATOM     38  C   UNL d   1       1.057  11.606  -2.243  0.00  0.00     0.263 A 
ATOM     39  O   UNL d   1       1.817  11.149  -1.409  0.00  0.00    -0.267 OA
ENDBRANCH  28  29
ENDBRANCH  25  28
ENDBRANCH  21  22
ENDBRANCH   1  21
TORSDOF 8
