REMARK  2 active torsions:
REMARK  status: ('A' for Active; 'I' for Inactive)
REMARK    1  A    between atoms: C_11  and  C_15 
REMARK    2  A    between atoms: C_16  and  C_12 
ROOT
ATOM      1  N   UNL d   1       1.267   0.609  -0.424  0.00  0.00    -0.197 NA
ATOM      2  C   UNL d   1       2.375   0.341  -0.206  0.00  0.00     0.063 C 
ATOM      3  C   UNL d   1       3.780  -0.004   0.070  0.00  0.00     0.162 C 
ENDROOT
BRANCH   3   4
ATOM      4  C   UNL d   1       4.257  -1.119  -0.830  0.00  0.00    -0.044 A 
ATOM      5  C   UNL d   1       4.843  -0.830  -2.072  0.00  0.00     0.020 A 
ATOM      6  C   UNL d   1       5.141  -1.852  -2.989  0.00  0.00    -0.025 A 
ATOM      7  C   UNL d   1       5.686  -1.567  -4.251  0.00  0.00     0.013 A 
ATOM      8  C   UNL d   1       4.861  -3.192  -2.646  0.00  0.00    -0.025 A 
ATOM      9  C   UNL d   1       5.927  -2.588  -5.173  0.00  0.00     0.009 A 
ATOM     10  C   UNL d   1       5.631  -3.918  -4.852  0.00  0.00    -0.044 A 
ATOM     11  C   UNL d   1       5.110  -4.210  -3.582  0.00  0.00     0.020 A 
ATOM     12  C   UNL d   1       4.322  -3.480  -1.383  0.00  0.00     0.013 A 
ATOM     13  C   UNL d   1       4.020  -2.455  -0.485  0.00  0.00     0.009 A 
BRANCH  10  14
ATOM     14  C   UNL d   1       5.898  -5.026  -5.842  0.00  0.00     0.162 C 
ATOM     15  C   UNL d   1       7.248  -5.593  -5.703  0.00  0.00     0.063 C 
ATOM     16  N   UNL d   1       8.308  -6.053  -5.608  0.00  0.00    -0.197 NA
ENDBRANCH  10  14
ENDBRANCH   3   4
TORSDOF 2
