REMARK  4 active torsions:
REMARK  status: ('A' for Active; 'I' for Inactive)
REMARK    1  A    between atoms: C_8  and  N_1 
REMARK    2  A    between atoms: S_9  and  C_2 
REMARK    3  A    between atoms: C_17  and  S_9 
REMARK    4  A    between atoms: C_24  and  C_17 
ROOT
ATOM      1  N   UNL d   1       2.379  -0.740  -0.077  0.00  0.00    -0.258 N 
ATOM      2  C   UNL d   1       2.337   0.655  -0.026  0.00  0.00     0.154 A 
ATOM      3  C   UNL d   1       1.189  -1.483  -0.021  0.00  0.00     0.270 A 
ATOM      4  N   UNL d   1       1.238   1.341   0.023  0.00  0.00    -0.335 N 
ATOM      5  HN  UNL d   1       1.264   2.359   0.068  1.00  0.00     0.168 HD
ATOM      6  C   UNL d   1      -0.067  -0.726  -0.005  0.00  0.00     0.098 A 
ATOM      7  C   UNL d   1       0.016   0.660   0.012  0.00  0.00     0.053 A 
ATOM      8  O   UNL d   1       1.128  -2.710   0.055  0.00  0.00    -0.266 OA
ATOM      9  C   UNL d   1      -1.310  -1.364  -0.015  0.00  0.00     0.134 A 
ATOM     10  F   UNL d   1      -1.424  -2.697  -0.027  0.00  0.00    -0.205 F 
ATOM     11  C   UNL d   1      -1.169   1.405  -0.004  0.00  0.00     0.031 A 
ATOM     12  C   UNL d   1      -2.414   0.771  -0.027  0.00  0.00     0.005 A 
ATOM     13  C   UNL d   1      -2.485  -0.617  -0.025  0.00  0.00     0.043 A 
ENDROOT
BRANCH   1  14
ATOM     14  C   UNL d   1       3.583  -1.516  -0.106  0.00  0.00     0.045 A 
ATOM     15  C   UNL d   1       3.731  -2.516  -1.080  0.00  0.00     0.037 A 
ATOM     16  C   UNL d   1       4.786  -3.440  -1.037  0.00  0.00    -0.054 A 
ATOM     17  C   UNL d   1       4.858  -4.515  -2.087  0.00  0.00     0.049 C 
ATOM     18  C   UNL d   1       5.729  -3.350   0.001  0.00  0.00    -0.056 A 
ATOM     19  C   UNL d   1       5.607  -2.324   0.953  0.00  0.00     0.009 A 
ATOM     20  C   UNL d   1       6.828  -4.367   0.147  0.00  0.00     0.049 C 
ATOM     21  C   UNL d   1       4.544  -1.416   0.904  0.00  0.00     0.031 A 
ENDBRANCH   1  14
BRANCH   2  22
ATOM     22  S   UNL d   1       3.844   1.562  -0.163  0.00  0.00    -0.093 SA
BRANCH  22  23
ATOM     23  C   UNL d   1       3.405   3.193   0.519  0.00  0.00     0.086 C 
BRANCH  23  24
ATOM     24  C   UNL d   1       3.180   3.244   2.043  0.00  0.00    -0.013 C 
ATOM     25  C   UNL d   1       4.366   2.711   2.852  0.00  0.00     0.010 C 
ATOM     26  C   UNL d   1       2.898   4.690   2.470  0.00  0.00     0.010 C 
ENDBRANCH  23  24
ENDBRANCH  22  23
ENDBRANCH   2  22
TORSDOF 4
