REMARK  5 active torsions:
REMARK  status: ('A' for Active; 'I' for Inactive)
REMARK    1  A    between atoms: N_13  and  C_1 
REMARK    2  A    between atoms: C_20  and  C_4 
REMARK    3  A    between atoms: C_9  and  S_16 
REMARK       I    between atoms: C_17  and  N_13 
REMARK    4  A    between atoms: S_16  and  C_24 
REMARK    5  A    between atoms: C_24  and  C_17 
ROOT
ATOM      1  C   UNL d   1       2.440  -0.997  -0.051  0.00  0.00     0.098 A 
ATOM      2  C   UNL d   1       1.993   0.298  -0.280  0.00  0.00     0.085 A 
ATOM      3  C   UNL d   1       0.553   0.384  -0.306  0.00  0.00    -0.021 A 
ATOM      4  C   UNL d   1      -0.011  -0.854  -0.062  0.00  0.00    -0.007 A 
ATOM      5  S   UNL d   1       1.139  -2.049   0.257  0.00  0.00    -0.075 SA
ATOM      6  C   UNL d   1       2.877   1.399  -0.518  0.00  0.00     0.103 C 
ATOM      7  N   UNL d   1       3.623   2.275  -0.702  0.00  0.00    -0.191 NA
ATOM      8  C   UNL d   1      -0.298   1.584  -0.623  0.00  0.00     0.042 C 
ATOM      9  C   UNL d   1      -1.472  -1.170  -0.059  0.00  0.00     0.051 C 
ATOM     10  C   UNL d   1      -1.800   1.317  -0.382  0.00  0.00     0.009 C 
ATOM     11  C   UNL d   1      -2.261  -0.090  -0.823  0.00  0.00    -0.014 C 
ATOM     12  C   UNL d   1      -2.154  -0.283  -2.340  0.00  0.00     0.010 C 
ENDROOT
BRANCH   1  13
ATOM     13  N   UNL d   1       3.749  -1.473  -0.001  0.00  0.00    -0.319 N 
ATOM     14  C   UNL d   1       4.128  -2.811   0.041  0.00  0.00     0.232 C 
ATOM     15  O   UNL d   1       3.387  -3.779  -0.124  0.00  0.00    -0.272 OA
ATOM     16  H   UNL d   1       4.497  -0.789  -0.038  0.00  0.00     0.169 HD
BRANCH  14  17
ATOM     17  C   UNL d   1       5.624  -3.058   0.197  0.00  0.00     0.185 C 
BRANCH  17  18
ATOM     18  S   UNL d   1       6.431  -1.793   1.215  0.00  0.00    -0.083 SA
BRANCH  18  19
ATOM     19  C   UNL d   1       8.038  -2.420   1.322  0.00  0.00     0.163 A 
ATOM     20  N   UNL d   1       9.064  -1.765   1.947  0.00  0.00    -0.315 N 
ATOM     21  C   UNL d   1      10.158  -2.611   1.877  0.00  0.00     0.134 A 
ATOM     22  C   UNL d   1       9.032  -0.432   2.493  0.00  0.00     0.160 C 
ATOM     23  N   UNL d   1       9.795  -3.675   1.177  0.00  0.00    -0.283 N 
ATOM     24  N   UNL d   1       8.467  -3.561   0.842  0.00  0.00    -0.278 N 
ATOM     25  HN  UNL d   1      10.403  -4.455   0.927  1.00  0.00     0.188 HD
ATOM     26  HN  UNL d   1       7.917  -4.239   0.315  1.00  0.00     0.189 HD
BRANCH  21  27
ATOM     27  C   UNL d   1      11.507  -2.383   2.414  0.00  0.00     0.012 A 
ATOM     28  C   UNL d   1      11.750  -1.669   3.590  0.00  0.00     0.032 A 
ATOM     29  C   UNL d   1      13.059  -1.482   4.006  0.00  0.00     0.088 A 
ATOM     30  N   UNL d   1      14.130  -1.974   3.354  0.00  0.00    -0.375 N 
ATOM     31  C   UNL d   1      13.880  -2.701   2.246  0.00  0.00     0.088 A 
ATOM     32  HN  UNL d   1      15.081  -1.804   3.682  1.00  0.00     0.164 HD
ATOM     33  C   UNL d   1      12.608  -2.929   1.746  0.00  0.00     0.032 A 
ENDBRANCH  21  27
ENDBRANCH  18  19
ENDBRANCH  17  18
ENDBRANCH  14  17
ENDBRANCH   1  13
TORSDOF 5
