REMARK  4 active torsions:
REMARK  status: ('A' for Active; 'I' for Inactive)
REMARK    1  A    between atoms: C_4  and  C_1 
REMARK    2  A    between atoms: C_2  and  C_4 
REMARK    3  A    between atoms: N_13  and  C_3 
REMARK    4  A    between atoms: C_15  and  N_13 
ROOT
ATOM      1  C   UNL d   1      -0.102  -1.150   0.102  0.00  0.00     0.082 A 
ATOM      2  C   UNL d   1       0.660   1.180   0.073  0.00  0.00     0.150 A 
ATOM      3  N   UNL d   1      -0.650   1.121   0.087  0.00  0.00    -0.339 N 
ATOM      4  HN  UNL d   1      -1.260   1.938   0.109  1.00  0.00     0.168 HD
ATOM      5  S   UNL d   1       1.423  -0.362   0.048  0.00  0.00    -0.048 SA
ATOM      6  C   UNL d   1      -1.099  -0.185   0.070  0.00  0.00     0.028 A 
ATOM      7  C   UNL d   1      -2.571  -0.402   0.020  0.00  0.00     0.070 C 
ENDROOT
BRANCH   1   8
ATOM      8  C   UNL d   1      -0.288  -2.596   0.041  0.00  0.00     0.208 C 
ATOM      9  O   UNL d   1      -1.288  -3.074  -0.493  0.00  0.00    -0.285 OA
BRANCH   8  10
ATOM     10  C   UNL d   1       0.729  -3.485   0.603  0.00  0.00     0.058 A 
ATOM     11  S   UNL d   1       1.690  -3.107   1.965  0.00  0.00    -0.086 SA
ATOM     12  C   UNL d   1       2.533  -4.603   1.910  0.00  0.00     0.016 A 
ATOM     13  C   UNL d   1       3.607  -5.004   2.728  0.00  0.00     0.019 A 
ATOM     14  C   UNL d   1       2.003  -5.446   0.934  0.00  0.00    -0.018 A 
ATOM     15  C   UNL d   1       4.132  -6.288   2.568  0.00  0.00     0.001 A 
ATOM     16  C   UNL d   1       3.600  -7.156   1.624  0.00  0.00     0.001 A 
ATOM     17  C   UNL d   1       2.542  -6.747   0.806  0.00  0.00     0.013 A 
ATOM     18  C   UNL d   1       0.957  -4.792   0.206  0.00  0.00     0.035 A 
ENDBRANCH   8  10
ENDBRANCH   1   8
BRANCH   2  19
ATOM     19  N   UNL d   1       1.417   2.304   0.073  0.00  0.00    -0.337 N 
ATOM     20  H   UNL d   1       2.414   2.180   0.199  0.00  0.00     0.168 HD
BRANCH  19  21
ATOM     21  C   UNL d   1       1.085   3.538  -0.528  0.00  0.00     0.034 A 
ATOM     22  C   UNL d   1      -0.119   3.771  -1.206  0.00  0.00     0.029 A 
ATOM     23  C   UNL d   1      -0.401   5.013  -1.781  0.00  0.00     0.002 A 
ATOM     24  C   UNL d   1       0.511   6.056  -1.668  0.00  0.00     0.000 A 
ATOM     25  C   UNL d   1       1.698   5.859  -0.969  0.00  0.00     0.002 A 
ATOM     26  C   UNL d   1       1.977   4.614  -0.396  0.00  0.00     0.029 A 
ENDBRANCH  19  21
ENDBRANCH   2  19
TORSDOF 4
