REMARK  5 active torsions:
REMARK  status: ('A' for Active; 'I' for Inactive)
REMARK    1  A    between atoms: C_2  and  C_6 
REMARK    2  A    between atoms: C_12  and  C_3 
REMARK    3  A    between atoms: C_7  and  C_8 
REMARK       I    between atoms: C_8  and  N_11 
REMARK    4  A    between atoms: N_11  and  C_19 
REMARK    5  A    between atoms: C_19  and  C_20 
ROOT
ATOM      1  C   UNL d   1       6.070  -6.327  -0.897  0.00  0.00     0.252 C 
ATOM      2  N   UNL d   1       6.021  -5.024  -1.343  0.00  0.00    -0.353 N 
ATOM      3  O   UNL d   1       6.173  -6.664   0.273  0.00  0.00    -0.268 OA
ATOM      4  H   UNL d   1       5.929  -4.829  -2.330  0.00  0.00     0.163 HD
ENDROOT
BRANCH   2   5
ATOM      5  C   UNL d   1       6.113  -3.890  -0.451  0.00  0.00     0.161 C 
BRANCH   5   6
ATOM      6  C   UNL d   1       4.785  -3.198  -0.277  0.00  0.00    -0.040 A 
ATOM      7  C   UNL d   1       3.915  -3.594   0.749  0.00  0.00     0.010 A 
ATOM      8  C   UNL d   1       2.709  -2.918   0.966  0.00  0.00     0.014 A 
ATOM      9  C   UNL d   1       2.335  -1.838   0.157  0.00  0.00    -0.008 A 
ATOM     10  C   UNL d   1       3.183  -1.474  -0.900  0.00  0.00     0.014 A 
ATOM     11  C   UNL d   1       4.393  -2.147  -1.115  0.00  0.00     0.010 A 
BRANCH   9  12
ATOM     12  C   UNL d   1       1.106  -1.087   0.395  0.00  0.00     0.063 A 
ATOM     13  N   UNL d   1       0.462  -0.407  -0.636  0.00  0.00    -0.292 N 
ATOM     14  N   UNL d   1      -0.618   0.225  -0.215  0.00  0.00    -0.061 NA
ATOM     15  HN  UNL d   1       0.787  -0.399  -1.603  1.00  0.00     0.183 HD
ATOM     16  S   UNL d   1      -0.883   0.040   1.424  0.00  0.00    -0.010 SA
ATOM     17  C   UNL d   1       0.504  -0.947   1.635  0.00  0.00     0.096 A 
ENDBRANCH   9  12
ENDBRANCH   5   6
ENDBRANCH   2   5
BRANCH   1  18
ATOM     18  C   UNL d   1       5.956  -7.362  -1.959  0.00  0.00     0.047 A 
ATOM     19  C   UNL d   1       6.798  -8.485  -2.017  0.00  0.00     0.063 A 
ATOM     20  C   UNL d   1       6.569  -9.435  -3.039  0.00  0.00     0.017 A 
ATOM     21  C   UNL d   1       5.549  -9.265  -3.976  0.00  0.00     0.001 A 
ATOM     22  C   UNL d   1       4.726  -8.149  -3.908  0.00  0.00     0.001 A 
ATOM     23  C   UNL d   1       4.922  -7.205  -2.901  0.00  0.00     0.018 A 
BRANCH  19  24
ATOM     24  C   UNL d   1       7.934  -8.760  -1.063  0.00  0.00     0.418 C 
ATOM     25  F   UNL d   1       8.398  -7.703  -0.352  0.00  0.00    -0.166 F 
ATOM     26  F   UNL d   1       7.634  -9.743  -0.169  0.00  0.00    -0.166 F 
ATOM     27  F   UNL d   1       9.035  -9.222  -1.737  0.00  0.00    -0.166 F 
ENDBRANCH  19  24
ENDBRANCH   1  18
TORSDOF 5
