REMARK  3 active torsions:
REMARK  status: ('A' for Active; 'I' for Inactive)
REMARK    1  A    between atoms: C_2  and  N_1 
REMARK    2  A    between atoms: C_8  and  C_5 
REMARK    3  A    between atoms: O_15  and  C_8 
ROOT
ATOM      1  N   UNL d   1       1.942  -0.002  -0.120  0.00  0.00    -0.236 N 
ATOM      2  C   UNL d   1       1.190   1.142  -0.043  0.00  0.00     0.267 A 
ATOM      3  C   UNL d   1       1.181  -1.144  -0.122  0.00  0.00     0.267 A 
ATOM      4  C   UNL d   1      -0.204   0.697  -0.041  0.00  0.00     0.048 A 
ATOM      5  C   UNL d   1      -0.208  -0.688  -0.072  0.00  0.00     0.048 A 
ATOM      6  O   UNL d   1       1.526   2.314  -0.032  0.00  0.00    -0.267 OA
ATOM      7  O   UNL d   1       1.498  -2.318  -0.109  0.00  0.00    -0.267 OA
ATOM      8  C   UNL d   1      -1.376   1.428  -0.013  0.00  0.00     0.018 A 
ATOM      9  C   UNL d   1      -1.381  -1.417  -0.039  0.00  0.00     0.018 A 
ATOM     10  C   UNL d   1      -2.580  -0.698   0.003  0.00  0.00     0.001 A 
ATOM     11  C   UNL d   1      -2.578   0.712   0.007  0.00  0.00     0.001 A 
ENDROOT
BRANCH   1  12
ATOM     12  C   UNL d   1       3.316  -0.004  -0.041  0.00  0.00     0.103 A 
ATOM     13  C   UNL d   1       4.165   0.516   0.921  0.00  0.00     0.074 A 
ATOM     14  C   UNL d   1       5.535   0.383   0.491  0.00  0.00     0.028 A 
ATOM     15  C   UNL d   1       5.658  -0.233  -0.734  0.00  0.00     0.053 A 
ATOM     16  S   UNL d   1       4.141  -0.696  -1.365  0.00  0.00    -0.083 SA
BRANCH  13  17
ATOM     17  C   UNL d   1       3.719   1.045   2.209  0.00  0.00     0.295 C 
ATOM     18  O   UNL d   1       2.558   1.003   2.600  0.00  0.00    -0.259 OA
BRANCH  17  19
ATOM     19  O   UNL d   1       4.760   1.523   2.954  0.00  0.00    -0.322 OA
ATOM     20  C   UNL d   1       4.392   2.006   4.246  0.00  0.00     0.213 C 
ENDBRANCH  17  19
ENDBRANCH  13  17
ENDBRANCH   1  12
TORSDOF 3
