REMARK  5 active torsions:
REMARK  status: ('A' for Active; 'I' for Inactive)
REMARK    1  A    between atoms: C_2  and  C_1 
REMARK    2  A    between atoms: C_3  and  C_2 
REMARK    3  A    between atoms: N_9  and  C_4 
REMARK    4  A    between atoms: C_17  and  N_9 
REMARK    5  A    between atoms: C_11  and  C_12 
ROOT
ATOM      1  C   UNL d   1       0.290  -0.715   0.670  0.00  0.00     0.110 C 
ATOM      2  C   UNL d   1      -0.399  -1.043  -0.445  0.00  0.00     0.115 C 
ATOM      3  C   UNL d   1       0.152   0.581   1.251  0.00  0.00     0.105 C 
ATOM      4  N   UNL d   1       0.025   1.655   1.673  0.00  0.00    -0.191 NA
ENDROOT
BRANCH   1   5
ATOM      5  C   UNL d   1       1.146  -1.759   1.306  0.00  0.00     0.204 C 
ATOM      6  O   UNL d   1       0.921  -2.959   1.167  0.00  0.00    -0.286 OA
BRANCH   5   7
ATOM      7  C   UNL d   1       2.252  -1.277   2.145  0.00  0.00     0.022 A 
ATOM      8  C   UNL d   1       3.047  -0.173   1.878  0.00  0.00     0.065 A 
ATOM      9  S   UNL d   1       4.234   0.107   3.078  0.00  0.00    -0.113 SA
ATOM     10  C   UNL d   1       3.753  -1.278   3.952  0.00  0.00     0.050 A 
ATOM     11  C   UNL d   1       2.706  -1.934   3.343  0.00  0.00     0.023 A 
ENDBRANCH   5   7
ENDBRANCH   1   5
BRANCH   2  12
ATOM     12  N   UNL d   1      -1.270  -0.236  -1.145  0.00  0.00    -0.364 N 
ATOM     13  H   UNL d   1      -1.441   0.693  -0.765  0.00  0.00     0.165 HD
BRANCH  12  14
ATOM     14  C   UNL d   1      -1.939  -0.470  -2.356  0.00  0.00     0.031 A 
ATOM     15  C   UNL d   1      -3.078   0.294  -2.644  0.00  0.00     0.030 A 
ATOM     16  C   UNL d   1      -3.821   0.084  -3.811  0.00  0.00     0.010 A 
ATOM     17  C   UNL d   1      -3.453  -0.901  -4.742  0.00  0.00    -0.051 A 
ATOM     18  C   UNL d   1      -2.318  -1.670  -4.439  0.00  0.00     0.010 A 
ATOM     19  C   UNL d   1      -1.582  -1.466  -3.263  0.00  0.00     0.030 A 
BRANCH  17  20
ATOM     20  C   UNL d   1      -4.282  -1.111  -6.019  0.00  0.00    -0.024 C 
ATOM     21  C   UNL d   1      -3.705  -2.198  -6.952  0.00  0.00     0.019 C 
ATOM     22  C   UNL d   1      -5.716  -1.540  -5.642  0.00  0.00     0.019 C 
ATOM     23  C   UNL d   1      -4.343   0.201  -6.831  0.00  0.00     0.019 C 
ENDBRANCH  17  20
ENDBRANCH  12  14
ENDBRANCH   2  12
TORSDOF 5
