REMARK  5 active torsions:
REMARK  status: ('A' for Active; 'I' for Inactive)
REMARK    1  A    between atoms: C_6  and  N_1 
REMARK    2  A    between atoms: C_11  and  C_2 
REMARK    3  A    between atoms: C_8  and  C_6 
REMARK    4  A    between atoms: O_13  and  C_11 
REMARK    5  A    between atoms: C_12  and  O_13 
ROOT
ATOM      1  N   UNL d   1       1.592  -0.952  -0.043  0.00  0.00    -0.329 N 
ATOM      2  C   UNL d   1       2.296   0.237  -0.070  0.00  0.00     0.109 A 
ATOM      3  N   UNL d   1       1.465   1.263  -0.101  0.00  0.00    -0.342 N 
ATOM      4  HN  UNL d   1       1.713   2.252  -0.131  1.00  0.00     0.167 HD
ATOM      5  C   UNL d   1       0.245  -0.656  -0.046  0.00  0.00     0.063 A 
ATOM      6  C   UNL d   1       0.202   0.733  -0.085  0.00  0.00     0.060 A 
ATOM      7  C   UNL d   1      -0.914  -1.442   0.004  0.00  0.00     0.032 A 
ATOM      8  C   UNL d   1      -1.036   1.391  -0.077  0.00  0.00     0.032 A 
ATOM      9  C   UNL d   1      -2.142  -0.769   0.015  0.00  0.00     0.002 A 
ATOM     10  C   UNL d   1      -2.206   0.625  -0.023  0.00  0.00     0.002 A 
ENDROOT
BRANCH   2  11
ATOM     11  C   UNL d   1       3.778   0.357   0.087  0.00  0.00     0.252 C 
BRANCH  11  12
ATOM     12  O   UNL d   1       4.360   0.534  -1.207  0.00  0.00    -0.342 OA
BRANCH  12  13
ATOM     13  C   UNL d   1       5.564   1.200  -1.221  0.00  0.00     0.091 A 
ATOM     14  C   UNL d   1       5.941   1.854  -2.407  0.00  0.00     0.069 A 
ATOM     15  C   UNL d   1       7.131   2.585  -2.474  0.00  0.00     0.050 A 
ATOM     16 CL   UNL d   1       4.948   1.794  -3.820  0.00  0.00    -0.081 Cl
ATOM     17  C   UNL d   1       7.959   2.655  -1.357  0.00  0.00     0.035 A 
ATOM     18  C   UNL d   1       7.620   1.981  -0.187  0.00  0.00     0.026 A 
ATOM     19 CL   UNL d   1       9.411   3.574  -1.420  0.00  0.00    -0.084 Cl
ATOM     20  C   UNL d   1       6.434   1.244  -0.125  0.00  0.00     0.040 A 
ENDBRANCH  12  13
ENDBRANCH  11  12
ENDBRANCH   2  11
BRANCH   1  21
ATOM     21  C   UNL d   1       2.154  -2.297   0.012  0.00  0.00     0.171 C 
BRANCH  21  22
ATOM     22  C   UNL d   1       2.451  -2.809   1.410  0.00  0.00    -0.018 A 
ATOM     23  C   UNL d   1       2.890  -4.136   1.589  0.00  0.00     0.042 A 
ATOM     24 CL   UNL d   1       3.034  -5.229   0.256  0.00  0.00    -0.084 Cl
ATOM     25  C   UNL d   1       3.232  -4.622   2.856  0.00  0.00     0.024 A 
ATOM     26  C   UNL d   1       3.144  -3.794   3.971  0.00  0.00     0.002 A 
ATOM     27  C   UNL d   1       2.697  -2.486   3.823  0.00  0.00     0.001 A 
ATOM     28  C   UNL d   1       2.349  -2.000   2.559  0.00  0.00     0.010 A 
ENDBRANCH  21  22
ENDBRANCH   1  21
TORSDOF 5
