REMARK  7 active torsions:
REMARK  status: ('A' for Active; 'I' for Inactive)
REMARK    1  A    between atoms: C_8  and  N_1 
REMARK    2  A    between atoms: C_7  and  C_2 
REMARK    3  A    between atoms: O_19  and  C_2 
REMARK    4  A    between atoms: N_6  and  C_10 
REMARK    5  A    between atoms: C_9  and  C_7 
REMARK    6  A    between atoms: N_11  and  C_8 
REMARK    7  A    between atoms: C_13  and  C_9 
ROOT
ATOM      1  N   UNL d   1      -1.609   0.476   0.352  0.00  0.00    -0.287 N 
ATOM      2  C   UNL d   1      -1.020  -1.793  -0.116  0.00  0.00     0.175 C 
ATOM      3  C   UNL d   1      -2.177  -0.789   0.151  0.00  0.00     0.266 C 
ATOM      4  C   UNL d   1       0.182  -0.952   0.244  0.00  0.00     0.014 A 
ATOM      5  C   UNL d   1      -0.216   0.362   0.512  0.00  0.00     0.049 A 
ATOM      6  C   UNL d   1       0.716   1.326   0.851  0.00  0.00     0.032 A 
ATOM      7  C   UNL d   1       1.521  -1.323   0.266  0.00  0.00     0.032 A 
ATOM      8  O   UNL d   1      -3.356  -1.102   0.250  0.00  0.00    -0.269 OA
ATOM      9  C   UNL d   1       2.465  -0.341   0.553  0.00  0.00     0.011 A 
ATOM     10  C   UNL d   1       2.069   0.970   0.856  0.00  0.00     0.021 A 
ATOM     11 BR   UNL d   1       4.304  -0.773   0.493  0.00  0.00    -0.051 Br
ENDROOT
BRANCH   2  12
ATOM     12  C   UNL d   1      -0.909  -2.190  -1.590  0.00  0.00     0.137 C 
BRANCH  12  13
ATOM     13  C   UNL d   1      -2.150  -2.797  -2.209  0.00  0.00     0.163 C 
ATOM     14  O   UNL d   1      -2.887  -2.110  -2.914  0.00  0.00    -0.292 OA
BRANCH  13  15
ATOM     15  C   UNL d   1      -2.466  -4.254  -2.037  0.00  0.00     0.012 A 
ATOM     16  C   UNL d   1      -3.562  -4.789  -2.733  0.00  0.00     0.051 A 
ATOM     17  C   UNL d   1      -3.918  -6.134  -2.556  0.00  0.00     0.103 A 
ATOM     18  C   UNL d   1      -3.199  -6.949  -1.679  0.00  0.00     0.036 A 
ATOM     19  C   UNL d   1      -2.091  -6.431  -1.010  0.00  0.00     0.003 A 
ATOM     20  C   UNL d   1      -1.712  -5.100  -1.211  0.00  0.00     0.015 A 
BRANCH  17  21
ATOM     21  N   UNL d   1      -5.048  -6.704  -3.299  0.00  0.00    -0.116 N 
ATOM     22  O   UNL d   1      -5.650  -5.964  -4.091  0.00  0.00    -0.532 OA
ATOM     23  O   UNL d   1      -5.329  -7.894  -3.100  0.00  0.00    -0.532 OA
ENDBRANCH  17  21
ENDBRANCH  13  15
ENDBRANCH  12  13
ENDBRANCH   2  12
BRANCH   2  24
ATOM     24  O   UNL d   1      -1.042  -2.914   0.752  0.00  0.00    -0.375 OA
ATOM     25  H   UNL d   1      -1.974  -3.050   1.012  0.00  0.00     0.211 HD
ENDBRANCH   2  24
BRANCH   1  26
ATOM     26  C   UNL d   1      -2.436   1.620   0.639  0.00  0.00     0.405 C 
BRANCH  26  27
ATOM     27  N   UNL d   1      -1.879   2.894   0.170  0.00  0.00     0.110 N 
ATOM     28  C   UNL d   1      -1.633   2.947  -1.288  0.00  0.00     0.300 C 
ATOM     29  C   UNL d   1      -2.906   3.009  -2.144  0.00  0.00     0.198 C 
ATOM     30  O   UNL d   1      -3.728   4.119  -1.765  0.00  0.00    -0.388 OA
ATOM     31  C   UNL d   1      -4.061   4.069  -0.373  0.00  0.00     0.198 C 
ATOM     32  C   UNL d   1      -2.797   4.010   0.507  0.00  0.00     0.300 C 
ENDBRANCH  26  27
ENDBRANCH   1  26
TORSDOF 7
