REMARK  2 active torsions:
REMARK  status: ('A' for Active; 'I' for Inactive)
REMARK    1  A    between atoms: N_7  and  C_2 
REMARK       I    between atoms: C_4  and  N_6 
REMARK       I    between atoms: N_12  and  C_4 
REMARK    2  A    between atoms: C_21  and  N_12 
ROOT
ATOM      1  C   UNL d   1       2.490  -6.786  -0.677  0.00  0.00     0.319 C 
ATOM      2  N   UNL d   1       2.037  -5.553  -0.245  0.00  0.00    -0.332 N 
ATOM      3  N   UNL d   1       1.435  -2.769  -0.028  0.00  0.00    -0.265 NA
ATOM      4  N   UNL d   1       3.548  -7.310   0.014  0.00  0.00    -0.335 N 
ATOM      5  O   UNL d   1       1.980  -7.369  -1.633  0.00  0.00    -0.247 OA
ATOM      6  C   UNL d   1       2.506  -4.759   0.909  0.00  0.00     0.142 C 
ATOM      7  C   UNL d   1       0.846  -4.987  -0.902  0.00  0.00     0.142 C 
ATOM      8  C   UNL d   1       2.702  -3.274   0.527  0.00  0.00     0.117 C 
ATOM      9  C   UNL d   1       1.041  -3.496  -1.252  0.00  0.00     0.117 C 
ATOM     10  H   UNL d   1       4.092  -6.649   0.536  0.00  0.00     0.165 HD
ENDROOT
BRANCH   3  11
ATOM     11  C   UNL d   1       1.319  -1.384  -0.113  0.00  0.00     0.103 A 
ATOM     12  C   UNL d   1       0.071  -0.733  -0.086  0.00  0.00     0.070 A 
ATOM     13  S   UNL d   1      -1.515  -1.401   0.021  0.00  0.00    -0.096 SA
ATOM     14  C   UNL d   1       0.014   0.658  -0.102  0.00  0.00     0.060 A 
ATOM     15  C   UNL d   1      -2.249   0.131  -0.003  0.00  0.00     0.059 A 
ATOM     16  C   UNL d   1      -1.333   1.162  -0.061  0.00  0.00    -0.027 A 
ATOM     17  C   UNL d   1      -1.711   2.603  -0.069  0.00  0.00     0.051 C 
ATOM     18  N   UNL d   1       1.130   1.428  -0.138  0.00  0.00    -0.351 N 
ATOM     19  C   UNL d   1       2.271   0.735  -0.127  0.00  0.00     0.182 A 
ATOM     20  HN  UNL d   1       1.100   2.447  -0.170  1.00  0.00     0.166 HD
ATOM     21  N   UNL d   1       2.424  -0.598  -0.109  0.00  0.00    -0.342 N 
ATOM     22  HN  UNL d   1       3.356  -1.013  -0.094  1.00  0.00     0.167 HD
ENDBRANCH   3  11
BRANCH   4  23
ATOM     23  C   UNL d   1       4.296  -8.511  -0.402  0.00  0.00     0.023 C 
ATOM     24  C   UNL d   1       4.929  -8.295  -1.787  0.00  0.00     0.037 C 
ATOM     25  C   UNL d   1       5.417  -8.743   0.631  0.00  0.00     0.037 C 
ATOM     26  C   UNL d   1       3.408  -9.766  -0.422  0.00  0.00     0.037 C 
ENDBRANCH   4  23
TORSDOF 2
