REMARK  4 active torsions:
REMARK  status: ('A' for Active; 'I' for Inactive)
REMARK    1  A    between atoms: C_2  and  S_1 
REMARK    2  A    between atoms: N_3  and  S_1 
REMARK    3  A    between atoms: C_14  and  N_3 
REMARK    4  A    between atoms: N_7  and  C_4 
ROOT
ATOM      1  C   UNL d   1       0.359  -0.362  -1.908  0.00  0.00     0.095 A 
ATOM      2  C   UNL d   1      -0.584  -0.714  -4.475  0.00  0.00     0.103 A 
ATOM      3  N   UNL d   1      -0.557   0.529  -3.944  0.00  0.00    -0.351 N 
ATOM      4  HN  UNL d   1      -0.879   1.333  -4.483  1.00  0.00     0.166 HD
ATOM      5  C   UNL d   1      -0.094   0.683  -2.682  0.00  0.00     0.115 A 
ATOM      6  C   UNL d   1       0.353  -1.641  -2.440  0.00  0.00     0.030 A 
ATOM      7  C   UNL d   1      -0.114  -1.811  -3.743  0.00  0.00     0.050 A 
ENDROOT
BRANCH   1   8
ATOM      8  S   UNL d   1       0.905  -0.009  -0.279  0.00  0.00     0.260 S 
ATOM      9  O   UNL d   1       1.338  -1.234   0.350  0.00  0.00    -0.200 OA
ATOM     10  O   UNL d   1      -0.084   0.856   0.326  0.00  0.00    -0.200 OA
BRANCH   8  11
ATOM     11  N   UNL d   1       2.249   0.961  -0.578  0.00  0.00    -0.311 N 
ATOM     12  H   UNL d   1       2.123   1.879  -0.150  0.00  0.00     0.172 HD
BRANCH  11  13
ATOM     13  C   UNL d   1       3.606   0.378  -0.500  0.00  0.00     0.093 C 
ATOM     14  C   UNL d   1       4.629   1.526  -0.556  0.00  0.00     0.026 C 
ATOM     15  C   UNL d   1       4.787   2.136  -1.951  0.00  0.00     0.002 C 
ATOM     16  C   UNL d   1       5.048   1.071  -3.011  0.00  0.00     0.000 C 
ATOM     17  C   UNL d   1       3.955   0.009  -2.995  0.00  0.00     0.002 C 
ATOM     18  C   UNL d   1       3.860  -0.640  -1.617  0.00  0.00     0.026 C 
ENDBRANCH  11  13
ENDBRANCH   8  11
ENDBRANCH   1   8
BRANCH   2  19
ATOM     19  N   UNL d   1      -1.193  -0.905  -5.702  0.00  0.00    -0.363 N 
ATOM     20  C   UNL d   1      -2.102   0.148  -6.184  0.00  0.00     0.150 C 
ATOM     21  C   UNL d   1      -1.457   1.001  -7.279  0.00  0.00     0.187 C 
ATOM     22  O   UNL d   1      -0.970   0.178  -8.352  0.00  0.00    -0.388 OA
ATOM     23  C   UNL d   1       0.041  -0.714  -7.857  0.00  0.00     0.187 C 
ATOM     24  C   UNL d   1      -0.497  -1.651  -6.760  0.00  0.00     0.150 C 
ENDBRANCH   2  19
TORSDOF 4
