REMARK  5 active torsions:
REMARK  status: ('A' for Active; 'I' for Inactive)
REMARK    1  A    between atoms: C_2  and  C_1 
REMARK       I    between atoms: N_5  and  C_2 
REMARK    2  A    between atoms: C_4  and  C_3 
REMARK    3  A    between atoms: C_10  and  N_5 
REMARK    4  A    between atoms: S_14  and  C_9 
REMARK    5  A    between atoms: C_22  and  S_14 
ROOT
ATOM      1  C   UNL d   1       0.777   1.215  -0.244  0.00  0.00     0.062 A 
ATOM      2  C   UNL d   1       1.543   0.046  -0.104  0.00  0.00     0.067 A 
ATOM      3  C   UNL d   1      -0.590   1.020  -0.492  0.00  0.00     0.106 A 
ATOM      4  N   UNL d   1      -1.235  -0.175  -0.516  0.00  0.00    -0.359 N 
ATOM      5  HN  UNL d   1      -2.235  -0.235  -0.707  1.00  0.00     0.166 HD
ATOM      6  C   UNL d   1      -0.503  -1.272  -0.277  0.00  0.00     0.075 A 
ATOM      7  C   UNL d   1       0.869  -1.205  -0.099  0.00  0.00     0.054 A 
ENDROOT
BRANCH   1   8
ATOM      8  C   UNL d   1       1.151   2.663  -0.059  0.00  0.00     0.258 C 
ATOM      9  N   UNL d   1       2.421   3.007   0.367  0.00  0.00    -0.321 N 
ATOM     10  H   UNL d   1       3.206   2.415   0.114  0.00  0.00     0.169 HD
ATOM     11  O   UNL d   1       0.280   3.501  -0.266  0.00  0.00    -0.267 OA
BRANCH   9  12
ATOM     12  C   UNL d   1       2.797   4.294   0.839  0.00  0.00     0.057 A 
ATOM     13  C   UNL d   1       4.141   4.701   0.744  0.00  0.00     0.062 A 
ATOM     14  C   UNL d   1       4.555   5.942   1.229  0.00  0.00     0.050 A 
ATOM     15 CL   UNL d   1       5.327   3.700  -0.021  0.00  0.00    -0.082 Cl
ATOM     16  C   UNL d   1       3.633   6.779   1.844  0.00  0.00     0.035 A 
ATOM     17  C   UNL d   1       2.297   6.394   1.960  0.00  0.00     0.026 A 
ATOM     18 CL   UNL d   1       4.140   8.300   2.472  0.00  0.00    -0.084 Cl
ATOM     19  C   UNL d   1       1.882   5.157   1.455  0.00  0.00     0.033 A 
ENDBRANCH   9  12
ENDBRANCH   1   8
BRANCH   2  20
ATOM     20  C   UNL d   1       3.026  -0.038   0.087  0.00  0.00     0.418 C 
ATOM     21  F   UNL d   1       3.714   1.053  -0.326  0.00  0.00    -0.166 F 
ATOM     22  F   UNL d   1       3.368  -0.236   1.388  0.00  0.00    -0.166 F 
ATOM     23  F   UNL d   1       3.577  -1.079  -0.603  0.00  0.00    -0.166 F 
ENDBRANCH   2  20
BRANCH   6  24
ATOM     24  S   UNL d   1      -1.371  -2.798  -0.014  0.00  0.00    -0.073 SA
BRANCH  24  25
ATOM     25  C   UNL d   1      -1.416  -3.504  -1.645  0.00  0.00     0.007 A 
ATOM     26  C   UNL d   1      -0.897  -4.790  -1.840  0.00  0.00     0.019 A 
ATOM     27  C   UNL d   1      -0.980  -5.404  -3.091  0.00  0.00     0.001 A 
ATOM     28  C   UNL d   1      -1.589  -4.739  -4.154  0.00  0.00     0.000 A 
ATOM     29  C   UNL d   1      -2.114  -3.462  -3.966  0.00  0.00     0.001 A 
ATOM     30  C   UNL d   1      -2.030  -2.846  -2.715  0.00  0.00     0.019 A 
ENDBRANCH  24  25
ENDBRANCH   6  24
TORSDOF 5
