REMARK  4 active torsions:
REMARK  status: ('A' for Active; 'I' for Inactive)
REMARK    1  A    between atoms: C_8  and  C_1 
REMARK    2  A    between atoms: C_12  and  C_2 
REMARK    3  A    between atoms: N_5  and  C_9 
REMARK    4  A    between atoms: O_16  and  C_8 
ROOT
ATOM      1  C   UNL d   1      -2.466  -0.169  -0.105  0.00  0.00     0.120 A 
ATOM      2  C   UNL d   1      -1.631  -1.283  -0.041  0.00  0.00     0.020 A 
ATOM      3  N   UNL d   1      -1.653   0.945  -0.025  0.00  0.00    -0.350 N 
ATOM      4  C   UNL d   1      -0.275  -0.797   0.008  0.00  0.00     0.006 A 
ATOM      5  C   UNL d   1      -0.325   0.596  -0.012  0.00  0.00     0.044 A 
ATOM      6  C   UNL d   1       0.992  -1.419   0.071  0.00  0.00     0.050 A 
ATOM      7  C   UNL d   1       2.149  -0.625   0.048  0.00  0.00     0.103 A 
ATOM      8  C   UNL d   1       0.821   1.405  -0.008  0.00  0.00     0.033 A 
ATOM      9  C   UNL d   1       2.068   0.770   0.008  0.00  0.00     0.038 A 
ATOM     10  H   UNL d   1      -2.001   1.894  -0.027  0.00  0.00     0.166 HD
ENDROOT
BRANCH   2  11
ATOM     11  C   UNL d   1      -2.088  -2.677  -0.019  0.00  0.00    -0.023 A 
ATOM     12  C   UNL d   1      -1.382  -3.665  -0.720  0.00  0.00     0.012 A 
ATOM     13  C   UNL d   1      -1.766  -5.007  -0.654  0.00  0.00     0.001 A 
ATOM     14  C   UNL d   1      -2.888  -5.376   0.083  0.00  0.00     0.000 A 
ATOM     15  C   UNL d   1      -3.614  -4.406   0.766  0.00  0.00     0.001 A 
ATOM     16  C   UNL d   1      -3.203  -3.070   0.735  0.00  0.00     0.012 A 
ENDBRANCH   2  11
BRANCH   1  17
ATOM     17  C   UNL d   1      -3.902  -0.078  -0.241  0.00  0.00     0.310 C 
ATOM     18  O   UNL d   1      -4.635  -0.889  -0.786  0.00  0.00    -0.258 OA
BRANCH  17  19
ATOM     19  O   UNL d   1      -4.343   1.059   0.377  0.00  0.00    -0.321 OA
ATOM     20  C   UNL d   1      -5.770   1.131   0.460  0.00  0.00     0.213 C 
ENDBRANCH  17  19
ENDBRANCH   1  17
BRANCH   7  21
ATOM     21  N   UNL d   1       3.462  -1.280   0.055  0.00  0.00    -0.116 N 
ATOM     22  O   UNL d   1       3.493  -2.520   0.025  0.00  0.00    -0.532 OA
ATOM     23  O   UNL d   1       4.468  -0.556   0.070  0.00  0.00    -0.532 OA
ENDBRANCH   7  21
TORSDOF 4
