REMARK  1 active torsions:
REMARK  status: ('A' for Active; 'I' for Inactive)
REMARK    1  A    between atoms: C_9  and  C_5 
ROOT
ATOM      1  N   UNL d   1       4.967  -0.577   2.298  0.00  0.00    -0.197 NA
ATOM      2  C   UNL d   1       4.443  -0.485   1.266  0.00  0.00     0.063 C 
ATOM      3  C   UNL d   1       3.830  -0.373  -0.066  0.00  0.00     0.163 C 
ENDROOT
BRANCH   3   4
ATOM      4  C   UNL d   1       2.359   0.001  -0.025  0.00  0.00    -0.038 A 
ATOM      5  C   UNL d   1       1.312  -0.962  -0.003  0.00  0.00    -0.044 A 
ATOM      6  C   UNL d   1      -0.057  -0.531  -0.002  0.00  0.00    -0.019 A 
ATOM      7  C   UNL d   1       1.683  -2.429   0.007  0.00  0.00     0.049 C 
ATOM      8  C   UNL d   1      -0.333   0.861   0.003  0.00  0.00    -0.025 A 
ATOM      9  C   UNL d   1      -1.181  -1.397  -0.009  0.00  0.00     0.013 A 
ATOM     10  C   UNL d   1      -1.659   1.329  -0.001  0.00  0.00     0.012 A 
ATOM     11  C   UNL d   1       0.713   1.786   0.011  0.00  0.00     0.013 A 
ATOM     12  C   UNL d   1      -2.735   0.448  -0.013  0.00  0.00     0.001 A 
ATOM     13  C   UNL d   1      -2.495  -0.917  -0.017  0.00  0.00     0.001 A 
ATOM     14  C   UNL d   1       2.038   1.365  -0.001  0.00  0.00     0.009 A 
ENDBRANCH   3   4
TORSDOF 1
