REMARK  1 active torsions:
REMARK  status: ('A' for Active; 'I' for Inactive)
REMARK    1  A    between atoms: C_13  and  C_7 
ROOT
ATOM      1  C   UNL d   1       0.390  -1.379  -0.007  0.00  0.00     0.101 C 
ATOM      2  N   UNL d   1       1.043   0.935   0.011  0.00  0.00    -0.270 N 
ATOM      3  N   UNL d   1      -1.257   0.387   0.043  0.00  0.00    -0.270 N 
ATOM      4  C   UNL d   1      -0.270   1.363   0.092  0.00  0.00     0.333 C 
ATOM      5  C   UNL d   1      -1.035  -0.977  -0.007  0.00  0.00     0.267 C 
ATOM      6  C   UNL d   1       1.436  -0.365  -0.240  0.00  0.00     0.267 C 
ATOM      7  C   UNL d   1       0.678  -2.669   0.255  0.00  0.00     0.034 C 
ATOM      8  O   UNL d   1      -0.553   2.562   0.179  0.00  0.00    -0.246 OA
ATOM      9  O   UNL d   1      -1.935  -1.817  -0.037  0.00  0.00    -0.267 OA
ATOM     10  O   UNL d   1       2.551  -0.657  -0.657  0.00  0.00    -0.267 OA
ATOM     11  C   UNL d   1      -2.630   0.865   0.086  0.00  0.00     0.164 C 
ATOM     12  C   UNL d   1       2.068   1.964  -0.030  0.00  0.00     0.164 C 
ENDROOT
BRANCH   7  13
ATOM     13  C   UNL d   1       2.016  -3.245   0.430  0.00  0.00    -0.035 A 
ATOM     14  C   UNL d   1       2.611  -3.256   1.699  0.00  0.00     0.013 A 
ATOM     15  C   UNL d   1       3.840  -3.893   1.890  0.00  0.00     0.024 A 
ATOM     16  C   UNL d   1       4.473  -4.511   0.812  0.00  0.00     0.034 A 
ATOM     17  C   UNL d   1       3.909  -4.464  -0.461  0.00  0.00     0.024 A 
ATOM     18 CL   UNL d   1       5.943  -5.369   1.063  0.00  0.00    -0.084 Cl
ATOM     19  C   UNL d   1       2.682  -3.823  -0.654  0.00  0.00     0.013 A 
ENDBRANCH   7  13
TORSDOF 1
