REMARK  4 active torsions:
REMARK  status: ('A' for Active; 'I' for Inactive)
REMARK    1  A    between atoms: C_13  and  N_2 
REMARK    2  A    between atoms: C_11  and  C_3 
REMARK    3  A    between atoms: C_12  and  C_6 
REMARK    4  A    between atoms: C_17  and  C_11 
ROOT
ATOM      1  C   UNL d   1      -2.495  -0.004   0.848  0.00  0.00     0.180 C 
ATOM      2  N   UNL d   1      -3.011   1.177   1.669  0.00  0.00    -0.170 NA
ATOM      3  C   UNL d   1      -4.754  -0.116   1.406  0.00  0.00     0.083 C 
ATOM      4  N   UNL d   1      -4.405   1.075   1.766  0.00  0.00    -0.312 N 
ATOM      5  HN  UNL d   1      -5.037   1.815   2.069  1.00  0.00     0.181 HD
ATOM      6  C   UNL d   1      -3.618  -1.024   1.123  0.00  0.00     0.115 C 
ATOM      7  C   UNL d   1      -1.920   0.482  -0.496  0.00  0.00     0.194 C 
ATOM      8  C   UNL d   1      -1.231  -0.669   1.426  0.00  0.00     0.194 C 
ATOM      9  C   UNL d   1      -0.065  -0.260   0.667  0.00  0.00     0.026 C 
ATOM     10  C   UNL d   1      -0.456   0.617  -0.326  0.00  0.00     0.026 C 
ATOM     11  O   UNL d   1      -1.132  -1.476   2.349  0.00  0.00    -0.289 OA
ATOM     12  O   UNL d   1      -2.508   0.712  -1.552  0.00  0.00    -0.289 OA
ATOM     13  C   UNL d   1       1.258  -0.585   0.915  0.00  0.00     0.016 C 
ATOM     14  C   UNL d   1       0.499   1.432  -0.920  0.00  0.00     0.016 C 
ATOM     15  C   UNL d   1       1.851   1.222  -0.584  0.00  0.00     0.001 C 
ATOM     16  C   UNL d   1       2.231   0.168   0.268  0.00  0.00     0.001 C 
ENDROOT
BRANCH   2  17
ATOM     17  C   UNL d   1      -2.709   2.532   1.441  0.00  0.00     0.032 A 
ATOM     18  C   UNL d   1      -3.051   3.202   0.253  0.00  0.00     0.025 A 
ATOM     19  C   UNL d   1      -2.983   4.595   0.147  0.00  0.00     0.002 A 
ATOM     20  C   UNL d   1      -2.613   5.356   1.249  0.00  0.00     0.000 A 
ATOM     21  C   UNL d   1      -2.299   4.722   2.448  0.00  0.00     0.002 A 
ATOM     22  C   UNL d   1      -2.340   3.325   2.539  0.00  0.00     0.025 A 
ENDBRANCH   2  17
BRANCH   6  23
ATOM     23  C   UNL d   1      -3.780  -2.397   0.530  0.00  0.00    -0.045 A 
ATOM     24  C   UNL d   1      -4.027  -2.673  -0.814  0.00  0.00     0.010 A 
ATOM     25  C   UNL d   1      -4.156  -4.009  -1.239  0.00  0.00     0.024 A 
ATOM     26  C   UNL d   1      -4.042  -5.064  -0.333  0.00  0.00     0.034 A 
ATOM     27  C   UNL d   1      -3.815  -4.811   1.009  0.00  0.00     0.024 A 
ATOM     28 CL   UNL d   1      -4.177  -6.696  -0.867  0.00  0.00    -0.084 Cl
ATOM     29  C   UNL d   1      -3.690  -3.491   1.431  0.00  0.00     0.010 A 
ENDBRANCH   6  23
BRANCH   3  30
ATOM     30  C   UNL d   1      -6.169  -0.579   1.450  0.00  0.00     0.206 C 
ATOM     31  O   UNL d   1      -6.626  -1.066   0.424  0.00  0.00    -0.285 OA
BRANCH  30  32
ATOM     32  C   UNL d   1      -6.995  -0.471   2.697  0.00  0.00     0.016 A 
ATOM     33  C   UNL d   1      -6.625   0.292   3.810  0.00  0.00     0.015 A 
ATOM     34  C   UNL d   1      -7.475   0.378   4.922  0.00  0.00     0.001 A 
ATOM     35  C   UNL d   1      -8.690  -0.306   4.934  0.00  0.00     0.000 A 
ATOM     36  C   UNL d   1      -9.058  -1.081   3.836  0.00  0.00     0.001 A 
ATOM     37  C   UNL d   1      -8.218  -1.161   2.723  0.00  0.00     0.015 A 
ENDBRANCH  30  32
ENDBRANCH   3  30
TORSDOF 4
