REMARK  7 active torsions:
REMARK  status: ('A' for Active; 'I' for Inactive)
REMARK    1  A    between atoms: C_7  and  C_1 
REMARK    2  A    between atoms: C_12  and  C_2 
REMARK    3  A    between atoms: N_6  and  C_5 
REMARK    4  A    between atoms: C_9  and  C_10 
REMARK    5  A    between atoms: N_24  and  C_10 
REMARK    6  A    between atoms: O_19  and  C_12 
REMARK    7  A    between atoms: N_15  and  O_19 
ROOT
ATOM      1  C   UNL d   1      -1.511  -1.148   0.327  0.00  0.00     0.320 C 
ATOM      2  O   UNL d   1      -2.260  -2.083   0.590  0.00  0.00    -0.257 OA
ENDROOT
BRANCH   1   3
ATOM      3  C   UNL d   1      -0.082  -1.327   0.113  0.00  0.00     0.102 A 
ATOM      4  C   UNL d   1       0.642  -2.546  -0.169  0.00  0.00     0.085 A 
ATOM      5  N   UNL d   1       1.949  -2.275  -0.311  0.00  0.00    -0.259 N 
ATOM      6  O   UNL d   1       2.105  -0.934  -0.122  0.00  0.00    -0.241 OA
ATOM      7  HN  UNL d   1       2.687  -2.946  -0.521  1.00  0.00     0.195 HD
ATOM      8  C   UNL d   1       0.901  -0.351   0.093  0.00  0.00     0.091 A 
ATOM      9  C   UNL d   1       0.980   1.114   0.228  0.00  0.00     0.080 C 
BRANCH   4  10
ATOM     10  C   UNL d   1       0.169  -3.913  -0.449  0.00  0.00     0.017 A 
ATOM     11  C   UNL d   1       0.865  -5.076  -0.042  0.00  0.00     0.068 A 
ATOM     12  C   UNL d   1       0.440  -6.340  -0.497  0.00  0.00     0.056 A 
ATOM     13 CL   UNL d   1       2.222  -4.989   1.048  0.00  0.00    -0.082 Cl
ATOM     14 CL   UNL d   1       1.280  -7.808  -0.115  0.00  0.00    -0.083 Cl
ATOM     15  C   UNL d   1      -0.689  -6.461  -1.310  0.00  0.00     0.026 A 
ATOM     16  C   UNL d   1      -1.401  -5.328  -1.683  0.00  0.00     0.003 A 
ATOM     17  C   UNL d   1      -0.964  -4.068  -1.272  0.00  0.00     0.015 A 
ENDBRANCH   4  10
ENDBRANCH   1   3
BRANCH   1  18
ATOM     18  O   UNL d   1      -1.915   0.162   0.161  0.00  0.00    -0.193 OA
BRANCH  18  19
ATOM     19  N   UNL d   1      -3.328   0.269   0.169  0.00  0.00    -0.244 N 
ATOM     20  C   UNL d   1      -3.711   1.481  -0.123  0.00  0.00     0.133 C 
ATOM     21  HN  UNL d   1      -3.964  -0.501   0.375  1.00  0.00     0.196 HD
BRANCH  20  22
ATOM     22  C   UNL d   1      -5.139   1.725  -0.216  0.00  0.00     0.117 A 
ATOM     23  O   UNL d   1      -5.540   2.998  -0.549  0.00  0.00    -0.285 OA
ATOM     24  C   UNL d   1      -6.897   2.974  -0.615  0.00  0.00     0.215 A 
ATOM     25  C   UNL d   1      -7.396   1.730  -0.317  0.00  0.00     0.066 A 
ATOM     26  C   UNL d   1      -6.259   0.923  -0.050  0.00  0.00     0.045 A 
BRANCH  24  27
ATOM     27  N   UNL d   1      -7.532   4.198  -0.991  0.00  0.00    -0.090 N 
ATOM     28  O   UNL d   1      -8.752   4.145  -1.197  0.00  0.00    -0.530 OA
ATOM     29  O   UNL d   1      -6.824   5.211  -1.075  0.00  0.00    -0.530 OA
ENDBRANCH  24  27
ENDBRANCH  20  22
BRANCH  20  30
ATOM     30  N   UNL d   1      -2.826   2.517  -0.332  0.00  0.00    -0.285 NA
ATOM     31  H   UNL d   1      -3.236   3.443  -0.239  0.00  0.00     0.125 HD
ATOM     32  H   UNL d   1      -1.953   2.412   0.162  0.00  0.00     0.125 HD
ENDBRANCH  20  30
ENDBRANCH  18  19
ENDBRANCH   1  18
TORSDOF 7
