REMARK  4 active torsions:
REMARK  status: ('A' for Active; 'I' for Inactive)
REMARK    1  A    between atoms: N_9  and  N_1 
REMARK    2  A    between atoms: C_12  and  N_2 
REMARK    3  A    between atoms: N_5  and  C_11 
REMARK       I    between atoms: C_8  and  N_9 
REMARK    4  A    between atoms: C_11  and  C_8 
ROOT
ATOM      1  N   UNL d   1       0.372   1.309   1.112  0.00  0.00    -0.248 N 
ATOM      2  N   UNL d   1      -1.482  -0.659   1.607  0.00  0.00    -0.308 N 
ATOM      3  C   UNL d   1      -0.438  -0.974   0.710  0.00  0.00     0.244 C 
ATOM      4  C   UNL d   1      -0.525   1.562   2.143  0.00  0.00     0.257 C 
ATOM      5  C   UNL d   1       0.785  -0.056   0.819  0.00  0.00     0.255 C 
ATOM      6  C   UNL d   1      -1.178   0.299   2.685  0.00  0.00     0.236 C 
ATOM      7  O   UNL d   1      -0.684   2.675   2.641  0.00  0.00    -0.270 OA
ATOM      8  O   UNL d   1      -0.418  -1.920  -0.071  0.00  0.00    -0.271 OA
ENDROOT
BRANCH   1   9
ATOM      9  N   UNL d   1       1.278   2.368   0.793  0.00  0.00    -0.263 N 
ATOM     10  C   UNL d   1       2.660   2.199   0.850  0.00  0.00     0.254 C 
ATOM     11  O   UNL d   1       3.241   1.117   0.911  0.00  0.00    -0.270 OA
ATOM     12  H   UNL d   1       0.957   3.276   1.143  0.00  0.00     0.190 HD
BRANCH  10  13
ATOM     13  C   UNL d   1       3.418   3.531   0.787  0.00  0.00     0.227 C 
BRANCH  13  14
ATOM     14  N   UNL d   1       3.097   4.358   1.935  0.00  0.00    -0.371 N 
ATOM     15  C   UNL d   1       3.478   4.118   3.240  0.00  0.00     0.037 A 
ATOM     16  C   UNL d   1       3.163   5.191   4.076  0.00  0.00    -0.030 A 
ATOM     17  C   UNL d   1       4.068   2.986   3.776  0.00  0.00     0.030 A 
ATOM     18  C   UNL d   1       3.369   5.143   5.447  0.00  0.00     0.009 A 
ATOM     19  C   UNL d   1       2.615   6.322   3.268  0.00  0.00     0.060 A 
ATOM     20  C   UNL d   1       3.928   3.987   5.989  0.00  0.00     0.001 A 
ATOM     21  C   UNL d   1       4.290   2.921   5.157  0.00  0.00     0.002 A 
ATOM     22  C   UNL d   1       2.614   5.732   1.840  0.00  0.00     0.128 A 
ENDBRANCH  13  14
ENDBRANCH  10  13
ENDBRANCH   1   9
BRANCH   2  23
ATOM     23  C   UNL d   1      -2.690  -1.434   1.700  0.00  0.00     0.037 A 
ATOM     24  C   UNL d   1      -2.758  -2.769   1.270  0.00  0.00     0.031 A 
ATOM     25  C   UNL d   1      -3.941  -3.514   1.372  0.00  0.00     0.026 A 
ATOM     26  C   UNL d   1      -5.084  -2.930   1.903  0.00  0.00     0.034 A 
ATOM     27  C   UNL d   1      -5.052  -1.607   2.325  0.00  0.00     0.026 A 
ATOM     28 CL   UNL d   1      -6.537  -3.839   2.029  0.00  0.00    -0.084 Cl
ATOM     29  C   UNL d   1      -3.865  -0.868   2.221  0.00  0.00     0.031 A 
ENDBRANCH   2  23
TORSDOF 4
