REMARK  3 active torsions:
REMARK  status: ('A' for Active; 'I' for Inactive)
REMARK    1  A    between atoms: O_12  and  C_10 
REMARK    2  A    between atoms: C_13  and  O_12 
REMARK    3  A    between atoms: C_15  and  C_13 
ROOT
ATOM      1  C   UNL d   1      -0.027  -0.843  -0.045  0.00  0.00     0.049 A 
ATOM      2  C   UNL d   1      -1.327  -1.562  -0.083  0.00  0.00     0.165 C 
ATOM      3  C   UNL d   1      -0.089   0.559  -0.030  0.00  0.00     0.086 A 
ATOM      4  O   UNL d   1      -1.241   1.300  -0.091  0.00  0.00    -0.340 OA
ATOM      5  C   UNL d   1       1.227  -1.486  -0.001  0.00  0.00    -0.043 A 
ATOM      6  C   UNL d   1      -2.432   0.602  -0.480  0.00  0.00     0.067 C 
ATOM      7  C   UNL d   1      -2.539  -0.734   0.244  0.00  0.00     0.121 C 
ATOM      8  C   UNL d   1       1.075   1.325   0.064  0.00  0.00     0.074 A 
ATOM      9  C   UNL d   1       2.387  -0.687   0.063  0.00  0.00     0.044 A 
ATOM     10  C   UNL d   1       2.316   0.705   0.130  0.00  0.00     0.072 A 
ATOM     11  O   UNL d   1      -1.428  -2.755  -0.339  0.00  0.00    -0.292 OA
ATOM     12  C   UNL d   1       1.437  -2.975  -0.051  0.00  0.00     0.049 C 
ATOM     13  C   UNL d   1      -2.477   0.457  -2.010  0.00  0.00     0.046 C 
ATOM     14  C   UNL d   1      -3.599   1.502  -0.045  0.00  0.00     0.046 C 
ENDROOT
BRANCH  10  15
ATOM     15  O   UNL d   1       3.517   1.349   0.248  0.00  0.00    -0.347 OA
BRANCH  15  16
ATOM     16  C   UNL d   1       3.459   2.670   0.793  0.00  0.00     0.214 C 
BRANCH  16  17
ATOM     17  C   UNL d   1       4.812   3.114   1.304  0.00  0.00    -0.034 A 
ATOM     18  C   UNL d   1       5.083   4.486   1.423  0.00  0.00     0.009 A 
ATOM     19  C   UNL d   1       6.297   4.928   1.956  0.00  0.00     0.001 A 
ATOM     20  C   UNL d   1       7.248   4.005   2.380  0.00  0.00     0.000 A 
ATOM     21  C   UNL d   1       6.988   2.640   2.277  0.00  0.00     0.001 A 
ATOM     22  C   UNL d   1       5.772   2.196   1.748  0.00  0.00     0.009 A 
ENDBRANCH  16  17
ENDBRANCH  15  16
ENDBRANCH  10  15
TORSDOF 3
