REMARK  6 active torsions:
REMARK  status: ('A' for Active; 'I' for Inactive)
REMARK    1  A    between atoms: C_5  and  C_1 
REMARK    2  A    between atoms: O_9  and  C_1 
REMARK    3  A    between atoms: C_3  and  C_2 
REMARK    4  A    between atoms: C_6  and  C_3 
REMARK    5  A    between atoms: C_4  and  O_9 
REMARK    6  A    between atoms: O_21  and  C_15 
ROOT
ATOM      1  C   UNL d   1       4.447  -0.254   1.122  0.00  0.00     0.080 C 
ATOM      2  C   UNL d   1       3.110  -0.243   1.020  0.00  0.00     0.150 C 
ENDROOT
BRANCH   1   3
ATOM      3  C   UNL d   1       5.130  -0.681   2.371  0.00  0.00     0.183 C 
ATOM      4  O   UNL d   1       4.538  -1.287   3.258  0.00  0.00    -0.288 OA
BRANCH   3   5
ATOM      5  C   UNL d   1       6.590  -0.387   2.483  0.00  0.00     0.014 A 
ATOM      6  C   UNL d   1       7.177   0.724   1.860  0.00  0.00     0.018 A 
ATOM      7  C   UNL d   1       8.555   0.954   1.966  0.00  0.00     0.037 A 
ATOM      8  C   UNL d   1       9.356   0.082   2.702  0.00  0.00     0.068 A 
ATOM      9  C   UNL d   1       8.766  -1.000   3.361  0.00  0.00     0.037 A 
ATOM     10  C   UNL d   1       7.391  -1.238   3.252  0.00  0.00     0.018 A 
BRANCH   8  11
ATOM     11  O   UNL d   1      10.704   0.221   2.888  0.00  0.00    -0.356 OA
ATOM     12  C   UNL d   1      11.413   0.841   1.820  0.00  0.00     0.210 C 
ENDBRANCH   8  11
ENDBRANCH   3   5
ENDBRANCH   1   3
BRANCH   2  13
ATOM     13  O   UNL d   1       2.328   0.144  -0.094  0.00  0.00    -0.287 OA
BRANCH  13  14
ATOM     14  C   UNL d   1       2.882   0.728  -1.197  0.00  0.00     0.297 C 
ATOM     15  O   UNL d   1       4.059   1.021  -1.368  0.00  0.00    -0.259 OA
BRANCH  14  16
ATOM     16  C   UNL d   1       1.872   0.993  -2.257  0.00  0.00     0.040 A 
ATOM     17  C   UNL d   1       2.356   1.421  -3.506  0.00  0.00     0.019 A 
ATOM     18  C   UNL d   1       1.480   1.694  -4.557  0.00  0.00     0.025 A 
ATOM     19  C   UNL d   1       0.110   1.542  -4.365  0.00  0.00     0.034 A 
ATOM     20  C   UNL d   1      -0.387   1.129  -3.128  0.00  0.00     0.025 A 
ATOM     21 CL   UNL d   1      -0.971   1.868  -5.662  0.00  0.00    -0.084 Cl
ATOM     22  C   UNL d   1       0.491   0.852  -2.070  0.00  0.00     0.019 A 
ENDBRANCH  14  16
ENDBRANCH  13  14
ENDBRANCH   2  13
TORSDOF 6
