REMARK  4 active torsions:
REMARK  status: ('A' for Active; 'I' for Inactive)
REMARK    1  A    between atoms: C_12  and  N_4 
REMARK    2  A    between atoms: C_11  and  C_12 
REMARK       I    between atoms: N_21  and  C_11 
REMARK    3  A    between atoms: N_14  and  N_21 
REMARK    4  A    between atoms: C_16  and  C_19 
ROOT
ATOM      1  C   UNL d   1       0.703   0.384   0.013  0.00  0.00     0.073 C 
ATOM      2  C   UNL d   1       1.156  -0.845   0.448  0.00  0.00     0.091 C 
ATOM      3  C   UNL d   1       1.690   1.430  -0.203  0.00  0.00     0.262 C 
ATOM      4  N   UNL d   1       3.000   1.037   0.092  0.00  0.00    -0.301 N 
ATOM      5  C   UNL d   1      -0.729   0.426  -0.082  0.00  0.00    -0.026 C 
ATOM      6  N   UNL d   1       2.426  -1.158   0.809  0.00  0.00    -0.346 N 
ATOM      7  HN  UNL d   1       2.690  -2.076   1.166  1.00  0.00     0.167 HD
ATOM      8  C   UNL d   1      -1.268  -0.830   0.126  0.00  0.00    -0.008 C 
ATOM      9  S   UNL d   1      -0.099  -1.997   0.526  0.00  0.00    -0.075 SA
ATOM     10  C   UNL d   1       3.273  -0.194   0.663  0.00  0.00     0.187 C 
ATOM     11  C   UNL d   1      -1.591   1.640  -0.283  0.00  0.00     0.041 C 
ATOM     12  C   UNL d   1      -2.727  -1.158   0.061  0.00  0.00     0.051 C 
ATOM     13  O   UNL d   1       1.389   2.547  -0.605  0.00  0.00    -0.267 OA
ATOM     14  C   UNL d   1      -3.087   1.301  -0.439  0.00  0.00     0.009 C 
ATOM     15  C   UNL d   1      -3.566   0.092   0.396  0.00  0.00    -0.014 C 
ATOM     16  C   UNL d   1      -3.557   0.382   1.901  0.00  0.00     0.010 C 
ENDROOT
BRANCH   4  17
ATOM     17  C   UNL d   1       4.079   2.011  -0.029  0.00  0.00     0.237 C 
BRANCH  17  18
ATOM     18  C   UNL d   1       5.179   1.692  -1.050  0.00  0.00     0.254 C 
ATOM     19  N   UNL d   1       5.026   0.520  -1.779  0.00  0.00    -0.269 N 
ATOM     20  H   UNL d   1       4.171  -0.025  -1.741  0.00  0.00     0.190 HD
ATOM     21  O   UNL d   1       6.154   2.440  -1.147  0.00  0.00    -0.270 OA
BRANCH  19  22
ATOM     22  N   UNL d   1       6.054   0.104  -2.581  0.00  0.00    -0.307 N 
ATOM     23  C   UNL d   1       5.907  -1.034  -3.182  0.00  0.00     0.144 C 
ATOM     24  HN  UNL d   1       6.898   0.665  -2.700  1.00  0.00     0.186 HD
BRANCH  23  25
ATOM     25  C   UNL d   1       6.939  -1.543  -4.042  0.00  0.00     0.091 A 
ATOM     26  O   UNL d   1       6.737  -2.750  -4.651  0.00  0.00    -0.321 OA
ATOM     27  C   UNL d   1       7.839  -3.007  -5.405  0.00  0.00     0.142 A 
ATOM     28  C   UNL d   1       8.751  -1.985  -5.291  0.00  0.00     0.027 A 
ATOM     29  C   UNL d   1       8.173  -1.040  -4.410  0.00  0.00     0.040 A 
ENDBRANCH  23  25
ENDBRANCH  19  22
ENDBRANCH  17  18
ENDBRANCH   4  17
TORSDOF 4
