REMARK  16 active torsions:
REMARK  status: ('A' for Active; 'I' for Inactive)
REMARK    1  A    between atoms: N_3  and  C_1 
REMARK    2  A    between atoms: N_5  and  C_2 
REMARK    3  A    between atoms: N_4  and  C_8 
REMARK    4  A    between atoms: C_10  and  N_13 
REMARK    5  A    between atoms: N_19  and  C_11 
REMARK    6  A    between atoms: N_25  and  C_12 
REMARK    7  A    between atoms: O_32  and  C_17 
REMARK       I    between atoms: C_21  and  N_19 
REMARK    8  A    between atoms: C_37  and  N_25 
REMARK    9  A    between atoms: C_38  and  N_25 
REMARK   10  A    between atoms: C_26  and  O_33 
REMARK   11  A    between atoms: C_27  and  O_34 
REMARK   12  A    between atoms: C_42  and  O_32 
REMARK   13  A    between atoms: O_33  and  C_35 
REMARK   14  A    between atoms: O_34  and  C_36 
REMARK   15  A    between atoms: C_35  and  C_37 
REMARK   16  A    between atoms: C_36  and  C_38 
ROOT
ATOM      1  C   UNL d   1      -2.048  -5.998   0.863  0.00  0.00     0.064 A 
ATOM      2  C   UNL d   1      -1.355  -3.809   0.029  0.00  0.00     0.077 A 
ATOM      3  C   UNL d   1      -1.234  -4.855   0.962  0.00  0.00     0.065 A 
ATOM      4  C   UNL d   1      -2.962  -6.189  -0.188  0.00  0.00     0.066 A 
ATOM      5  C   UNL d   1      -3.053  -5.144  -1.141  0.00  0.00     0.097 A 
ATOM      6  C   UNL d   1      -2.261  -3.988  -1.025  0.00  0.00     0.072 A 
ENDROOT
BRANCH   2   7
ATOM      7  N   UNL d   1      -0.526  -2.651   0.173  0.00  0.00    -0.298 N 
ATOM      8  N   UNL d   1      -0.836  -1.736  -0.617  0.00  0.00    -0.297 N 
ATOM      9  HN  UNL d   1      -1.550  -1.837  -1.338  1.00  0.00     0.187 HD
ATOM     10  HN  UNL d   1       0.236  -2.582   0.848  1.00  0.00     0.187 HD
BRANCH   8  11
ATOM     11  C   UNL d   1      -0.101  -0.545  -0.416  0.00  0.00     0.098 A 
ATOM     12  C   UNL d   1       0.754  -0.041  -1.414  0.00  0.00     0.134 A 
ATOM     13  C   UNL d   1       1.379   1.218  -1.331  0.00  0.00     0.074 A 
ATOM     14  C   UNL d   1       1.142   2.007  -0.206  0.00  0.00     0.106 A 
ATOM     15  C   UNL d   1       0.321   1.536   0.824  0.00  0.00     0.057 A 
ATOM     16  C   UNL d   1      -0.296   0.277   0.713  0.00  0.00     0.043 A 
ATOM     17 BR   UNL d   1      -1.450  -0.227   2.140  0.00  0.00    -0.049 Br
BRANCH  12  18
ATOM     18  N   UNL d   1       1.009  -0.821  -2.608  0.00  0.00    -0.113 N 
ATOM     19  O   UNL d   1       0.032  -1.139  -3.302  0.00  0.00    -0.532 OA
ATOM     20  O   UNL d   1       2.192  -1.048  -2.877  0.00  0.00    -0.532 OA
ENDBRANCH  12  18
BRANCH  14  21
ATOM     21  N   UNL d   1       1.723   3.356  -0.119  0.00  0.00    -0.116 N 
ATOM     22  O   UNL d   1       2.393   3.751  -1.080  0.00  0.00    -0.532 OA
ATOM     23  O   UNL d   1       1.493   4.013   0.904  0.00  0.00    -0.532 OA
ENDBRANCH  14  21
ENDBRANCH   8  11
ENDBRANCH   2   7
BRANCH   3  24
ATOM     24  N   UNL d   1      -0.248  -4.712   1.968  0.00  0.00    -0.325 N 
ATOM     25  C   UNL d   1       0.365  -5.735   2.663  0.00  0.00     0.218 C 
ATOM     26  O   UNL d   1       0.125  -6.934   2.567  0.00  0.00    -0.274 OA
ATOM     27  C   UNL d   1       1.466  -5.248   3.571  0.00  0.00     0.117 C 
ATOM     28  H   UNL d   1       0.187  -3.797   2.002  0.00  0.00     0.169 HD
ENDBRANCH   3  24
BRANCH   5  29
ATOM     29  O   UNL d   1      -3.975  -5.314  -2.144  0.00  0.00    -0.349 OA
BRANCH  29  30
ATOM     30  C   UNL d   1      -4.319  -4.224  -2.996  0.00  0.00     0.171 C 
ATOM     31  C   UNL d   1      -5.207  -3.230  -2.267  0.00  0.00     0.034 C 
ENDBRANCH  29  30
ENDBRANCH   5  29
BRANCH   4  32
ATOM     32  N   UNL d   1      -3.730  -7.359  -0.275  0.00  0.00    -0.374 N 
BRANCH  32  33
ATOM     33  C   UNL d   1      -4.286  -8.014   0.928  0.00  0.00     0.150 C 
BRANCH  33  34
ATOM     34  C   UNL d   1      -3.442  -9.168   1.500  0.00  0.00     0.198 C 
BRANCH  34  35
ATOM     35  O   UNL d   1      -3.318 -10.284   0.600  0.00  0.00    -0.320 OA
BRANCH  35  36
ATOM     36  C   UNL d   1      -4.371 -11.137   0.540  0.00  0.00     0.254 C 
ATOM     37  O   UNL d   1      -5.405 -11.035   1.184  0.00  0.00    -0.266 OA
ATOM     38  C   UNL d   1      -4.117 -12.191  -0.496  0.00  0.00     0.126 C 
ENDBRANCH  35  36
ENDBRANCH  34  35
ENDBRANCH  33  34
ENDBRANCH  32  33
BRANCH  32  39
ATOM     39  C   UNL d   1      -3.738  -8.083  -1.558  0.00  0.00     0.150 C 
BRANCH  39  40
ATOM     40  C   UNL d   1      -5.136  -8.239  -2.171  0.00  0.00     0.198 C 
BRANCH  40  41
ATOM     41  O   UNL d   1      -5.070  -9.044  -3.369  0.00  0.00    -0.320 OA
BRANCH  41  42
ATOM     42  C   UNL d   1      -4.707  -8.386  -4.502  0.00  0.00     0.254 C 
ATOM     43  O   UNL d   1      -4.461  -7.192  -4.590  0.00  0.00    -0.266 OA
ATOM     44  C   UNL d   1      -4.612  -9.329  -5.663  0.00  0.00     0.126 C 
ENDBRANCH  41  42
ENDBRANCH  40  41
ENDBRANCH  39  40
ENDBRANCH  32  39
ENDBRANCH   4  32
TORSDOF 16
