REMARK  2 active torsions:
REMARK  status: ('A' for Active; 'I' for Inactive)
REMARK    1  A    between atoms: C_11  and  N_2 
REMARK    2  A    between atoms: C_13  and  C_9 
ROOT
ATOM      1  C   UNL d   1      -0.214   0.663   0.027  0.00  0.00     0.068 A 
ATOM      2  N   UNL d   1       2.200   0.681   0.025  0.00  0.00    -0.254 N 
ATOM      3  C   UNL d   1      -0.127  -0.689  -0.029  0.00  0.00     0.092 A 
ATOM      4  C   UNL d   1       2.238  -0.740  -0.005  0.00  0.00     0.186 A 
ATOM      5  C   UNL d   1       1.002   1.448   0.061  0.00  0.00     0.267 A 
ATOM      6  N   UNL d   1       1.029  -1.395  -0.052  0.00  0.00    -0.326 N 
ATOM      7  C   UNL d   1      -1.585   1.068   0.033  0.00  0.00     0.039 A 
ATOM      8  S   UNL d   1      -1.586  -1.502  -0.064  0.00  0.00    -0.071 SA
ATOM      9  C   UNL d   1      -2.463  -0.011   0.010  0.00  0.00     0.018 A 
ATOM     10  S   UNL d   1       3.589  -1.744   0.077  0.00  0.00    -0.040 SA
ATOM     11  O   UNL d   1       0.941   2.676   0.092  0.00  0.00    -0.267 OA
ATOM     12  H   UNL d   1       1.008  -2.409  -0.058  0.00  0.00     0.169 HD
ENDROOT
BRANCH   2  13
ATOM     13  C   UNL d   1       3.418   1.436   0.016  0.00  0.00     0.045 A 
ATOM     14  C   UNL d   1       3.703   2.323   1.064  0.00  0.00     0.030 A 
ATOM     15  C   UNL d   1       4.886   3.064   1.058  0.00  0.00     0.002 A 
ATOM     16  C   UNL d   1       5.782   2.940  -0.002  0.00  0.00     0.000 A 
ATOM     17  C   UNL d   1       5.499   2.075  -1.057  0.00  0.00     0.002 A 
ATOM     18  C   UNL d   1       4.322   1.324  -1.049  0.00  0.00     0.030 A 
ENDBRANCH   2  13
BRANCH   9  19
ATOM     19  C   UNL d   1      -3.937  -0.016   0.011  0.00  0.00    -0.019 A 
ATOM     20  C   UNL d   1      -4.650   1.024  -0.605  0.00  0.00     0.013 A 
ATOM     21  C   UNL d   1      -6.048   1.027  -0.615  0.00  0.00     0.001 A 
ATOM     22  C   UNL d   1      -6.755  -0.009  -0.010  0.00  0.00     0.000 A 
ATOM     23  C   UNL d   1      -6.065  -1.046   0.613  0.00  0.00     0.001 A 
ATOM     24  C   UNL d   1      -4.668  -1.045   0.627  0.00  0.00     0.013 A 
ENDBRANCH   9  19
TORSDOF 2
