REMARK  3 active torsions:
REMARK  status: ('A' for Active; 'I' for Inactive)
REMARK    1  A    between atoms: C_10  and  C_2 
REMARK    2  A    between atoms: N_8  and  C_7 
REMARK    3  A    between atoms: N_15  and  C_11 
ROOT
ATOM      1  N   UNL d   1      -0.972   0.977   0.080  0.00  0.00    -0.293 N 
ATOM      2  C   UNL d   1      -1.292  -0.349  -0.064  0.00  0.00     0.089 C 
ATOM      3  C   UNL d   1       0.349   1.357   0.066  0.00  0.00     0.326 C 
ATOM      4  N   UNL d   1      -0.446  -1.309  -0.134  0.00  0.00    -0.341 N 
ATOM      5  HN  UNL d   1      -0.753  -2.265  -0.311  1.00  0.00     0.164 HD
ATOM      6  N   UNL d   1       1.254   0.371  -0.104  0.00  0.00    -0.304 N 
ATOM      7  C   UNL d   1       0.949  -1.000   0.043  0.00  0.00     0.294 C 
ATOM      8  O   UNL d   1       0.727   2.525   0.144  0.00  0.00    -0.247 OA
ATOM      9  C   UNL d   1      -1.952   2.047   0.139  0.00  0.00     0.162 C 
ATOM     10  H   UNL d   1       2.212   0.644   0.036  0.00  0.00     0.168 HD
ENDROOT
BRANCH   7  11
ATOM     11  N   UNL d   1       1.417  -1.419   1.355  0.00  0.00    -0.349 N 
ATOM     12  C   UNL d   1       1.297  -2.684   1.559  0.00  0.00     0.176 C 
ATOM     13  HN  UNL d   1       1.801  -0.774   2.045  1.00  0.00     0.164 HD
BRANCH  12  14
ATOM     14  N   UNL d   1       1.681  -3.367   2.689  0.00  0.00    -0.386 N 
ATOM     15  C   UNL d   1       2.280  -2.687   3.826  0.00  0.00     0.149 C 
ATOM     16  C   UNL d   1       1.426  -4.787   2.858  0.00  0.00     0.149 C 
ENDBRANCH  12  14
ENDBRANCH   7  11
BRANCH   2  17
ATOM     17  C   UNL d   1      -2.725  -0.744  -0.159  0.00  0.00     0.053 A 
ATOM     18  C   UNL d   1      -3.517  -0.990   1.108  0.00  0.00     0.013 A 
ATOM     19  C   UNL d   1      -3.179  -2.141   0.211  0.00  0.00     0.013 A 
ENDBRANCH   2  17
TORSDOF 3
