REMARK  10 active torsions:
REMARK  status: ('A' for Active; 'I' for Inactive)
REMARK    1  A    between atoms: C_18  and  N_1 
REMARK    2  A    between atoms: C_19  and  N_2 
REMARK    3  A    between atoms: C_3  and  C_14 
REMARK    4  A    between atoms: C_12  and  C_3 
REMARK    5  A    between atoms: C_13  and  C_3 
REMARK    6  A    between atoms: C_15  and  C_3 
REMARK    7  A    between atoms: C_34  and  C_18 
REMARK    8  A    between atoms: C_35  and  C_19 
REMARK    9  A    between atoms: C_36  and  C_34 
REMARK   10  A    between atoms: C_37  and  C_35 
ROOT
ATOM      1  C   UNL d   1      -4.070   1.397   0.005  0.00  0.00     0.209 C 
ENDROOT
BRANCH   1   2
ATOM      2  C   UNL d   1      -2.673   0.650   0.037  0.00  0.00    -0.026 A 
ATOM      3  C   UNL d   1      -2.032   0.237  -1.150  0.00  0.00     0.027 A 
ATOM      4  C   UNL d   1      -0.840  -0.459  -1.046  0.00  0.00     0.048 A 
ATOM      5  C   UNL d   1      -0.050  -1.098  -2.081  0.00  0.00     0.261 A 
ATOM      6  C   UNL d   1      -0.222  -0.714   0.160  0.00  0.00     0.048 A 
ATOM      7  N   UNL d   1       1.059  -1.634  -1.481  0.00  0.00    -0.280 N 
ATOM      8  O   UNL d   1      -0.414  -1.135  -3.247  0.00  0.00    -0.267 OA
ATOM      9  C   UNL d   1       0.987  -1.505  -0.112  0.00  0.00     0.261 A 
ATOM     10  O   UNL d   1       1.710  -1.954   0.746  0.00  0.00    -0.267 OA
ATOM     11  C   UNL d   1      -0.767  -0.268   1.342  0.00  0.00     0.018 A 
ATOM     12  C   UNL d   1      -1.989   0.422   1.274  0.00  0.00     0.010 A 
BRANCH   7  13
ATOM     13  C   UNL d   1       2.023  -2.506  -2.149  0.00  0.00     0.140 C 
BRANCH  13  14
ATOM     14  C   UNL d   1       2.402  -2.047  -3.560  0.00  0.00     0.059 C 
BRANCH  14  15
ATOM     15  C   UNL d   1       3.439  -2.918  -4.221  0.00  0.00    -0.057 A 
ATOM     16  C   UNL d   1       3.050  -4.058  -4.940  0.00  0.00     0.007 A 
ATOM     17  C   UNL d   1       3.999  -4.826  -5.615  0.00  0.00     0.001 A 
ATOM     18  C   UNL d   1       5.345  -4.468  -5.570  0.00  0.00     0.000 A 
ATOM     19  C   UNL d   1       5.744  -3.350  -4.840  0.00  0.00     0.001 A 
ATOM     20  C   UNL d   1       4.796  -2.579  -4.163  0.00  0.00     0.007 A 
ENDBRANCH  14  15
ENDBRANCH  13  14
ENDBRANCH   7  13
ENDBRANCH   1   2
BRANCH   1  21
ATOM     21  C   UNL d   1      -4.897   0.985  -1.246  0.00  0.00     0.412 C 
ATOM     22  F   UNL d   1      -6.236   1.035  -1.098  0.00  0.00    -0.169 F 
ATOM     23  F   UNL d   1      -4.625   1.815  -2.293  0.00  0.00    -0.169 F 
ATOM     24  F   UNL d   1      -4.616  -0.266  -1.681  0.00  0.00    -0.169 F 
ENDBRANCH   1  21
BRANCH   1  25
ATOM     25  C   UNL d   1      -4.916   0.974   1.240  0.00  0.00     0.412 C 
ATOM     26  F   UNL d   1      -6.248   0.923   1.048  0.00  0.00    -0.169 F 
ATOM     27  F   UNL d   1      -4.566  -0.240   1.731  0.00  0.00    -0.169 F 
ATOM     28  F   UNL d   1      -4.734   1.852   2.266  0.00  0.00    -0.169 F 
ENDBRANCH   1  25
BRANCH   1  29
ATOM     29  C   UNL d   1      -3.834   2.949   0.007  0.00  0.00    -0.026 A 
ATOM     30  C   UNL d   1      -2.529   3.495   0.033  0.00  0.00     0.027 A 
ATOM     31  C   UNL d   1      -2.376   4.867   0.072  0.00  0.00     0.048 A 
ATOM     32  C   UNL d   1      -1.156   5.657   0.173  0.00  0.00     0.261 A 
ATOM     33  C   UNL d   1      -3.449   5.727   0.065  0.00  0.00     0.048 A 
ATOM     34  N   UNL d   1      -1.533   6.970   0.133  0.00  0.00    -0.280 N 
ATOM     35  O   UNL d   1      -0.055   5.153   0.314  0.00  0.00    -0.267 OA
ATOM     36  C   UNL d   1      -2.905   7.085   0.136  0.00  0.00     0.261 A 
ATOM     37  O   UNL d   1      -3.591   8.085   0.215  0.00  0.00    -0.267 OA
ATOM     38  C   UNL d   1      -4.743   5.249   0.024  0.00  0.00     0.018 A 
ATOM     39  C   UNL d   1      -4.933   3.853  -0.001  0.00  0.00     0.010 A 
BRANCH  34  40
ATOM     40  C   UNL d   1      -0.640   8.101   0.352  0.00  0.00     0.140 C 
BRANCH  40  41
ATOM     41  C   UNL d   1       0.716   7.972  -0.351  0.00  0.00     0.059 C 
BRANCH  41  42
ATOM     42  C   UNL d   1       1.563   9.212  -0.205  0.00  0.00    -0.057 A 
ATOM     43  C   UNL d   1       2.459   9.337   0.866  0.00  0.00     0.007 A 
ATOM     44  C   UNL d   1       3.264  10.471   0.984  0.00  0.00     0.001 A 
ATOM     45  C   UNL d   1       3.175  11.491   0.039  0.00  0.00     0.000 A 
ATOM     46  C   UNL d   1       2.276  11.382  -1.021  0.00  0.00     0.001 A 
ATOM     47  C   UNL d   1       1.471  10.249  -1.142  0.00  0.00     0.007 A 
ENDBRANCH  41  42
ENDBRANCH  40  41
ENDBRANCH  34  40
ENDBRANCH   1  29
TORSDOF 10
