REMARK  3 active torsions:
REMARK  status: ('A' for Active; 'I' for Inactive)
REMARK    1  A    between atoms: C_4  and  C_1 
REMARK       I    between atoms: N_10  and  C_4 
REMARK       I    between atoms: C_9  and  N_11 
REMARK    2  A    between atoms: C_12  and  C_9 
REMARK    3  A    between atoms: N_11  and  N_10 
ROOT
ATOM      1  C   UNL d   1      -0.191  -2.559   0.011  0.00  0.00     0.280 C 
ATOM      2  N   UNL d   1       0.822  -3.492   0.176  0.00  0.00    -0.262 N 
ATOM      3  O   UNL d   1       0.090  -1.419  -0.363  0.00  0.00    -0.265 OA
ATOM      4  H   UNL d   1       0.671  -4.463   0.443  0.00  0.00     0.190 HD
ENDROOT
BRANCH   2   5
ATOM      5  N   UNL d   1       2.138  -3.127  -0.145  0.00  0.00    -0.263 N 
ATOM      6  C   UNL d   1       3.136  -4.060   0.045  0.00  0.00     0.270 C 
ATOM      7  O   UNL d   1       2.913  -5.189   0.476  0.00  0.00    -0.266 OA
ATOM      8  H   UNL d   1       2.305  -2.138  -0.325  0.00  0.00     0.190 HD
BRANCH   6   9
ATOM      9  C   UNL d   1       4.523  -3.631  -0.286  0.00  0.00     0.033 A 
ATOM     10  C   UNL d   1       5.587  -4.220   0.414  0.00  0.00     0.020 A 
ATOM     11  C   UNL d   1       6.907  -3.880   0.104  0.00  0.00     0.043 A 
ATOM     12  C   UNL d   1       7.157  -2.964  -0.911  0.00  0.00     0.116 A 
ATOM     13  C   UNL d   1       6.113  -2.377  -1.619  0.00  0.00     0.043 A 
ATOM     14  F   UNL d   1       8.422  -2.652  -1.222  0.00  0.00    -0.206 F 
ATOM     15  C   UNL d   1       4.790  -2.707  -1.308  0.00  0.00     0.020 A 
ENDBRANCH   6   9
ENDBRANCH   2   5
BRANCH   1  16
ATOM     16  C   UNL d   1      -1.540  -2.995   0.294  0.00  0.00     0.115 A 
ATOM     17  C   UNL d   1      -2.750  -2.314   0.181  0.00  0.00     0.046 A 
ATOM     18  N   UNL d   1      -3.869  -3.057   0.553  0.00  0.00    -0.298 N 
ATOM     19  C   UNL d   1      -3.001  -0.924  -0.280  0.00  0.00     0.071 C 
ATOM     20  N   UNL d   1      -3.550  -4.276   0.943  0.00  0.00    -0.269 N 
ATOM     21  HN  UNL d   1      -4.824  -2.699   0.527  1.00  0.00     0.187 HD
ATOM     22  S   UNL d   1      -1.912  -4.567   0.874  0.00  0.00     0.009 SA
ATOM     23  HN  UNL d   1      -4.234  -4.967   1.254  1.00  0.00     0.195 HD
ENDBRANCH   1  16
TORSDOF 3
