REMARK  5 active torsions:
REMARK  status: ('A' for Active; 'I' for Inactive)
REMARK       I    between atoms: N_7  and  C_1 
REMARK    1  A    between atoms: O_12  and  C_1 
REMARK    2  A    between atoms: S_8  and  C_6 
REMARK    3  A    between atoms: C_10  and  N_7 
REMARK    4  A    between atoms: C_14  and  S_8 
REMARK    5  A    between atoms: C_16  and  O_12 
ROOT
ATOM      1  C   UNL d   1      -1.967  -1.592  -3.476  0.00  0.00    -0.091 C 
ATOM      2  C   UNL d   1      -1.742  -1.693  -4.650  0.00  0.00     0.014 C 
ATOM      3  C   UNL d   1      -2.322  -1.440  -2.058  0.00  0.00     0.273 C 
ENDROOT
BRANCH   3   4
ATOM      4  O   UNL d   1      -1.216  -1.797  -1.214  0.00  0.00    -0.292 OA
BRANCH   4   5
ATOM      5  C   UNL d   1      -0.785  -0.833  -0.370  0.00  0.00     0.366 C 
ATOM      6  N   UNL d   1       0.153  -1.219   0.550  0.00  0.00    -0.301 N 
ATOM      7  H   UNL d   1       0.424  -0.437   1.133  0.00  0.00     0.171 HD
ATOM      8  O   UNL d   1      -1.188   0.327  -0.367  0.00  0.00    -0.238 OA
BRANCH   6   9
ATOM      9  C   UNL d   1       0.776  -2.452   0.806  0.00  0.00     0.052 A 
ATOM     10  C   UNL d   1       0.543  -3.648   0.139  0.00  0.00     0.118 A 
ATOM     11  N   UNL d   1       1.206  -4.808   0.393  0.00  0.00    -0.358 N 
ATOM     12  C   UNL d   1       2.150  -4.791   1.359  0.00  0.00     0.074 A 
ATOM     13  HN  UNL d   1       0.998  -5.660  -0.128  1.00  0.00     0.166 HD
ATOM     14  C   UNL d   1       2.425  -3.656   2.109  0.00  0.00     0.039 A 
ATOM     15  C   UNL d   1       1.730  -2.479   1.826  0.00  0.00     0.034 A 
BRANCH  12  16
ATOM     16  S   UNL d   1       3.050  -6.289   1.685  0.00  0.00    -0.073 SA
BRANCH  16  17
ATOM     17  C   UNL d   1       3.797  -6.703   0.115  0.00  0.00     0.007 A 
ATOM     18  C   UNL d   1       4.181  -5.751  -0.837  0.00  0.00     0.019 A 
ATOM     19  C   UNL d   1       4.807  -6.145  -2.024  0.00  0.00     0.001 A 
ATOM     20  C   UNL d   1       5.067  -7.492  -2.267  0.00  0.00     0.000 A 
ATOM     21  C   UNL d   1       4.700  -8.448  -1.324  0.00  0.00     0.001 A 
ATOM     22  C   UNL d   1       4.070  -8.054  -0.140  0.00  0.00     0.019 A 
ENDBRANCH  16  17
ENDBRANCH  12  16
ENDBRANCH   6   9
ENDBRANCH   4   5
ENDBRANCH   3   4
TORSDOF 5
