REMARK  6 active torsions:
REMARK  status: ('A' for Active; 'I' for Inactive)
REMARK    1  A    between atoms: S_13  and  C_1 
REMARK    2  A    between atoms: C_22  and  N_2 
REMARK    3  A    between atoms: C_14  and  N_3 
REMARK    4  A    between atoms: C_7  and  C_17 
REMARK    5  A    between atoms: C_15  and  C_8 
REMARK    6  A    between atoms: C_17  and  S_13 
ROOT
ATOM      1  C   UNL d   1       1.043  -0.618   0.013  0.00  0.00     0.152 A 
ATOM      2  N   UNL d   1      -0.259  -1.116   0.049  0.00  0.00    -0.301 N 
ATOM      3  N   UNL d   1       1.073   0.700  -0.037  0.00  0.00    -0.335 N 
ATOM      4  HN  UNL d   1       1.900   1.295  -0.082  1.00  0.00     0.168 HD
ATOM      5  C   UNL d   1      -0.238   1.104  -0.017  0.00  0.00     0.060 A 
ATOM      6  C   UNL d   1      -1.066   0.010   0.040  0.00  0.00     0.130 A 
ENDROOT
BRANCH   1   7
ATOM      7  S   UNL d   1       2.473  -1.583   0.217  0.00  0.00    -0.086 SA
BRANCH   7   8
ATOM      8  C   UNL d   1       3.804  -0.357   0.084  0.00  0.00     0.160 C 
BRANCH   8   9
ATOM      9  C   UNL d   1       5.171  -1.010   0.039  0.00  0.00     0.110 A 
ATOM     10  N   UNL d   1       6.315  -0.272   0.052  0.00  0.00    -0.311 N 
ATOM     11  C   UNL d   1       7.339  -1.190  -0.011  0.00  0.00     0.194 A 
ATOM     12  S   UNL d   1       8.980  -0.967  -0.029  0.00  0.00    -0.039 SA
ATOM     13  N   UNL d   1       6.732  -2.431  -0.066  0.00  0.00    -0.275 N 
ATOM     14  N   UNL d   1       5.379  -2.298  -0.038  0.00  0.00    -0.286 N 
ATOM     15  H   UNL d   1       7.190  -3.334  -0.122  0.00  0.00     0.189 HD
ATOM     16  HN  UNL d   1       4.680  -3.040  -0.071  1.00  0.00     0.188 HD
BRANCH  10  17
ATOM     17  C   UNL d   1       6.454   1.179   0.135  0.00  0.00     0.128 C 
ATOM     18  C   UNL d   1       6.654   1.653   1.566  0.00  0.00     0.027 C 
ENDBRANCH  10  17
ENDBRANCH   8   9
ENDBRANCH   7   8
ENDBRANCH   1   7
BRANCH   2  19
ATOM     19  C   UNL d   1      -0.774  -2.451   0.090  0.00  0.00     0.041 A 
ATOM     20  C   UNL d   1      -2.040  -2.678   0.659  0.00  0.00     0.030 A 
ATOM     21  C   UNL d   1      -2.585  -3.964   0.706  0.00  0.00     0.009 A 
ATOM     22  C   UNL d   1      -1.884  -5.050   0.179  0.00  0.00    -0.062 A 
ATOM     23  C   UNL d   1      -0.630  -4.827  -0.396  0.00  0.00     0.009 A 
ATOM     24  C   UNL d   1      -2.473  -6.426   0.258  0.00  0.00     0.048 C 
ATOM     25  C   UNL d   1      -0.079  -3.538  -0.446  0.00  0.00     0.030 A 
ENDBRANCH   2  19
BRANCH   5  26
ATOM     26  C   UNL d   1      -0.671   2.496  -0.035  0.00  0.00    -0.008 A 
ATOM     27  C   UNL d   1       0.285   3.522   0.000  0.00  0.00     0.015 A 
ATOM     28  C   UNL d   1      -0.107   4.866   0.004  0.00  0.00     0.024 A 
ATOM     29  C   UNL d   1      -1.460   5.194  -0.030  0.00  0.00     0.034 A 
ATOM     30  C   UNL d   1      -2.424   4.193  -0.070  0.00  0.00     0.024 A 
ATOM     31 CL   UNL d   1      -1.944   6.845  -0.020  0.00  0.00    -0.084 Cl
ATOM     32  C   UNL d   1      -2.029   2.850  -0.073  0.00  0.00     0.015 A 
ENDBRANCH   5  26
TORSDOF 6
