REMARK  3 active torsions:
REMARK  status: ('A' for Active; 'I' for Inactive)
REMARK    1  A    between atoms: C_2  and  C_1 
REMARK    2  A    between atoms: C_4  and  C_2 
REMARK    3  A    between atoms: C_5  and  N_3 
ROOT
ATOM      1  C   UNL d   1       1.038  -0.662  -0.049  0.00  0.00     0.094 A 
ATOM      2  N   UNL d   1      -0.276  -1.161  -0.039  0.00  0.00    -0.319 N 
ATOM      3  C   UNL d   1      -1.141  -0.080  -0.071  0.00  0.00     0.097 A 
ATOM      4  C   UNL d   1       0.931   0.723   0.069  0.00  0.00     0.035 A 
ATOM      5  C   UNL d   1      -0.428   1.084   0.033  0.00  0.00     0.020 A 
ENDROOT
BRANCH   2   6
ATOM      6  C   UNL d   1      -0.737  -2.513   0.011  0.00  0.00     0.039 A 
ATOM      7  C   UNL d   1      -0.052  -3.486   0.751  0.00  0.00     0.033 A 
ATOM      8  C   UNL d   1      -0.520  -4.804   0.777  0.00  0.00     0.044 A 
ATOM      9  C   UNL d   1      -1.673  -5.142   0.079  0.00  0.00     0.116 A 
ATOM     10  C   UNL d   1      -2.382  -4.184  -0.632  0.00  0.00     0.044 A 
ATOM     11  F   UNL d   1      -2.109  -6.409   0.095  0.00  0.00    -0.206 F 
ATOM     12  C   UNL d   1      -1.922  -2.865  -0.660  0.00  0.00     0.033 A 
ENDBRANCH   2   6
BRANCH   1  13
ATOM     13  C   UNL d   1       2.258  -1.451  -0.275  0.00  0.00     0.282 C 
ATOM     14  O   UNL d   1       2.205  -2.614  -0.696  0.00  0.00    -0.281 OA
BRANCH  13  15
ATOM     15  C   UNL d   1       3.640  -0.831   0.001  0.00  0.00     0.457 C 
ATOM     16  F   UNL d   1       3.660   0.518   0.174  0.00  0.00    -0.163 F 
ATOM     17  F   UNL d   1       4.208  -1.356   1.125  0.00  0.00    -0.163 F 
ATOM     18  F   UNL d   1       4.520  -1.079  -1.014  0.00  0.00    -0.163 F 
ENDBRANCH  13  15
ENDBRANCH   1  13
TORSDOF 3
