REMARK  5 active torsions:
REMARK  status: ('A' for Active; 'I' for Inactive)
REMARK    1  A    between atoms: C_2  and  C_1 
REMARK       I    between atoms: N_3  and  C_2 
REMARK    2  A    between atoms: C_5  and  N_3 
REMARK    3  A    between atoms: N_12  and  C_4 
REMARK    4  A    between atoms: N_14  and  C_6 
REMARK    5  A    between atoms: O_18  and  C_13 
ROOT
ATOM      1  C   UNL d   1      -2.402   1.789  -0.287  0.00  0.00     0.258 C 
ATOM      2  N   UNL d   1      -3.605   1.314   0.202  0.00  0.00    -0.321 N 
ATOM      3  O   UNL d   1      -1.296   1.312  -0.042  0.00  0.00    -0.267 OA
ATOM      4  H   UNL d   1      -4.437   1.629  -0.281  0.00  0.00     0.169 HD
ENDROOT
BRANCH   2   5
ATOM      5  C   UNL d   1      -3.788   0.211   1.083  0.00  0.00     0.056 A 
ATOM      6  C   UNL d   1      -2.817  -0.301   1.976  0.00  0.00     0.035 A 
ATOM      7  C   UNL d   1      -3.126  -1.431   2.757  0.00  0.00     0.062 A 
ATOM      8  C   UNL d   1      -4.349  -2.087   2.635  0.00  0.00     0.070 A 
ATOM      9  C   UNL d   1      -5.314  -1.558   1.784  0.00  0.00     0.039 A 
ATOM     10  C   UNL d   1      -5.046  -0.413   1.028  0.00  0.00     0.034 A 
BRANCH   6  11
ATOM     11  N   UNL d   1      -1.654   0.418   2.342  0.00  0.00    -0.301 NA
ATOM     12  H   UNL d   1      -1.319   0.976   1.550  0.00  0.00     0.124 HD
ATOM     13  H   UNL d   1      -0.902  -0.185   2.657  0.00  0.00     0.124 HD
ENDBRANCH   6  11
BRANCH   8  14
ATOM     14  O   UNL d   1      -4.721  -3.217   3.309  0.00  0.00    -0.356 OA
ATOM     15  C   UNL d   1      -3.701  -3.878   4.051  0.00  0.00     0.210 C 
ENDBRANCH   8  14
ENDBRANCH   2   5
BRANCH   1  16
ATOM     16  C   UNL d   1      -2.459   2.953  -1.215  0.00  0.00     0.053 A 
ATOM     17  C   UNL d   1      -1.463   3.102  -2.205  0.00  0.00     0.022 A 
ATOM     18  C   UNL d   1      -1.498   4.234  -3.030  0.00  0.00     0.031 A 
ATOM     19  C   UNL d   1      -2.439   5.252  -2.831  0.00  0.00    -0.060 A 
ATOM     20  C   UNL d   1      -3.395   5.109  -1.822  0.00  0.00     0.008 A 
ATOM     21  C   UNL d   1      -2.375   6.493  -3.671  0.00  0.00     0.048 C 
ATOM     22  C   UNL d   1      -3.413   3.966  -1.018  0.00  0.00     0.019 A 
BRANCH  17  23
ATOM     23  N   UNL d   1      -0.576   2.057  -2.545  0.00  0.00    -0.302 NA
ATOM     24  H   UNL d   1      -0.422   1.436  -1.740  0.00  0.00     0.124 HD
ATOM     25  H   UNL d   1       0.305   2.384  -2.929  0.00  0.00     0.124 HD
ENDBRANCH  17  23
ENDBRANCH   1  16
TORSDOF 5
