REMARK  4 active torsions:
REMARK  status: ('A' for Active; 'I' for Inactive)
REMARK    1  A    between atoms: C_2  and  S_1 
REMARK    2  A    between atoms: N_5  and  S_1 
REMARK    3  A    between atoms: C_9  and  C_4 
REMARK    4  A    between atoms: C_6  and  C_10 
ROOT
ATOM      1  C   UNL d   1       0.602  -0.225  -1.757  0.00  0.00     0.116 A 
ATOM      2  S   UNL d   1      -0.019   1.151  -2.556  0.00  0.00    -0.075 SA
ATOM      3  C   UNL d   1      -0.324   0.279  -4.004  0.00  0.00     0.033 A 
ATOM      4  C   UNL d   1       0.661  -1.316  -2.599  0.00  0.00     0.034 A 
ATOM      5  C   UNL d   1       0.141  -1.022  -3.889  0.00  0.00     0.023 A 
ENDROOT
BRANCH   3   6
ATOM      6  C   UNL d   1      -1.000   0.886  -5.162  0.00  0.00     0.050 A 
ATOM      7  C   UNL d   1      -1.832   1.999  -5.085  0.00  0.00     0.047 A 
ATOM      8  C   UNL d   1      -2.531   2.411  -6.229  0.00  0.00     0.051 A 
ATOM      9  C   UNL d   1      -2.347   1.702  -7.419  0.00  0.00     0.033 A 
ATOM     10  C   UNL d   1      -1.486   0.622  -7.415  0.00  0.00     0.089 A 
ATOM     11  N   UNL d   1      -0.821   0.201  -6.319  0.00  0.00    -0.365 N 
ATOM     12  HN  UNL d   1      -0.202  -0.608  -6.360  1.00  0.00     0.165 HD
BRANCH   8  13
ATOM     13  C   UNL d   1      -3.498   3.563  -6.182  0.00  0.00     0.417 C 
ATOM     14  F   UNL d   1      -3.558   4.177  -4.968  0.00  0.00    -0.166 F 
ATOM     15  F   UNL d   1      -3.192   4.537  -7.081  0.00  0.00    -0.166 F 
ATOM     16  F   UNL d   1      -4.772   3.176  -6.469  0.00  0.00    -0.166 F 
ENDBRANCH   8  13
ENDBRANCH   3   6
BRANCH   1  17
ATOM     17  S   UNL d   1       1.034  -0.021  -0.044  0.00  0.00     0.250 S 
ATOM     18  O   UNL d   1       1.504  -1.327   0.376  0.00  0.00    -0.205 OA
ATOM     19  O   UNL d   1      -0.118   0.592   0.576  0.00  0.00    -0.205 OA
BRANCH  17  20
ATOM     20  N   UNL d   1       2.344   1.065   0.053  0.00  0.00    -0.206 NA
ATOM     21  C   UNL d   1       3.631   0.593  -0.509  0.00  0.00     0.107 C 
ATOM     22  C   UNL d   1       4.382   0.024   0.679  0.00  0.00     0.017 C 
ATOM     23  C   UNL d   1       3.954   0.897   1.847  0.00  0.00     0.017 C 
ATOM     24  C   UNL d   1       2.639   1.548   1.429  0.00  0.00     0.107 C 
ENDBRANCH  17  20
ENDBRANCH   1  17
TORSDOF 4
