REMARK  7 active torsions:
REMARK  status: ('A' for Active; 'I' for Inactive)
REMARK    1  A    between atoms: N_2  and  S_1 
REMARK    2  A    between atoms: C_12  and  S_1 
REMARK    3  A    between atoms: C_3  and  N_2 
REMARK    4  A    between atoms: C_8  and  C_6 
REMARK    5  A    between atoms: C_13  and  C_8 
REMARK    6  A    between atoms: O_15  and  C_13 
REMARK    7  A    between atoms: C_18  and  O_15 
ROOT
ATOM      1  C   UNL d   1       0.853  -0.418  -2.844  0.00  0.00     0.137 C 
ATOM      2  N   UNL d   1       1.983   0.190  -3.109  0.00  0.00    -0.343 N 
ATOM      3  HN  UNL d   1       2.693   0.446  -2.423  1.00  0.00     0.167 HD
ATOM      4  C   UNL d   1       2.058   0.430  -4.475  0.00  0.00     0.026 C 
ATOM      5  S   UNL d   1      -0.268  -0.541  -4.120  0.00  0.00    -0.069 SA
ATOM      6  C   UNL d   1       0.892   0.157  -5.171  0.00  0.00     0.078 C 
ENDROOT
BRANCH   1   7
ATOM      7  N   UNL d   1       0.637  -0.853  -1.521  0.00  0.00    -0.160 NA
ATOM      8  H   UNL d   1       1.308  -0.391  -0.911  0.00  0.00     0.148 HD
BRANCH   7   9
ATOM      9  S   UNL d   1       0.852  -2.527  -1.354  0.00  0.00     0.247 S 
ATOM     10  O   UNL d   1       0.018  -3.238  -2.297  0.00  0.00    -0.205 OA
ATOM     11  O   UNL d   1       0.766  -2.806   0.067  0.00  0.00    -0.205 OA
BRANCH   9  12
ATOM     12  C   UNL d   1       2.559  -2.771  -1.817  0.00  0.00     0.074 A 
ATOM     13  C   UNL d   1       3.562  -2.604  -0.855  0.00  0.00     0.025 A 
ATOM     14  C   UNL d   1       4.896  -2.813  -1.210  0.00  0.00     0.002 A 
ATOM     15  C   UNL d   1       5.221  -3.198  -2.511  0.00  0.00     0.000 A 
ATOM     16  C   UNL d   1       4.214  -3.375  -3.463  0.00  0.00     0.002 A 
ATOM     17  C   UNL d   1       2.879  -3.169  -3.118  0.00  0.00     0.025 A 
ENDBRANCH   9  12
ENDBRANCH   7   9
ENDBRANCH   1   7
BRANCH   4  18
ATOM     18  C   UNL d   1       3.350   0.915  -5.044  0.00  0.00     0.168 C 
BRANCH  18  19
ATOM     19  C   UNL d   1       4.010  -0.146  -5.898  0.00  0.00     0.264 C 
ATOM     20  O   UNL d   1       3.538  -1.237  -6.188  0.00  0.00    -0.265 OA
BRANCH  19  21
ATOM     21  O   UNL d   1       5.242   0.294  -6.292  0.00  0.00    -0.322 OA
BRANCH  21  22
ATOM     22  C   UNL d   1       6.074  -0.695  -6.914  0.00  0.00     0.174 C 
ATOM     23  C   UNL d   1       6.886  -1.388  -5.836  0.00  0.00     0.034 C 
ENDBRANCH  21  22
ENDBRANCH  19  21
ENDBRANCH  18  19
ENDBRANCH   4  18
TORSDOF 7
