REMARK  3 active torsions:
REMARK  status: ('A' for Active; 'I' for Inactive)
REMARK    1  A    between atoms: C_4  and  C_1 
REMARK    2  A    between atoms: O_18  and  C_3 
REMARK    3  A    between atoms: C_9  and  N_5 
ROOT
ATOM      1  C   UNL d   1      -0.242   3.504   0.321  0.00  0.00     0.104 C 
ATOM      2  N   UNL d   1       0.720   4.303  -0.015  0.00  0.00    -0.351 N 
ATOM      3  HN  UNL d   1       1.634   3.935  -0.281  1.00  0.00     0.166 HD
ENDROOT
BRANCH   2   4
ATOM      4  C   UNL d   1       0.480   5.681  -0.006  0.00  0.00     0.105 A 
ATOM      5  N   UNL d   1      -0.438   6.171   0.852  0.00  0.00    -0.351 N 
ATOM      6  C   UNL d   1      -0.610   7.515   0.860  0.00  0.00     0.102 A 
ATOM      7  HN  UNL d   1      -0.977   5.560   1.465  1.00  0.00     0.166 HD
ATOM      8  C   UNL d   1       0.091   8.414   0.052  0.00  0.00    -0.010 A 
ATOM      9  C   UNL d   1       1.045   7.873  -0.830  0.00  0.00    -0.021 A 
ATOM     10  C   UNL d   1      -0.112   9.806   0.087  0.00  0.00     0.013 A 
ATOM     11  C   UNL d   1       1.238   6.487  -0.845  0.00  0.00     0.060 A 
ATOM     12  C   UNL d   1       1.777   8.734  -1.664  0.00  0.00     0.012 A 
ATOM     13  C   UNL d   1       1.565  10.114  -1.624  0.00  0.00     0.001 A 
ATOM     14  C   UNL d   1       0.623  10.649  -0.749  0.00  0.00     0.001 A 
ENDBRANCH   2   4
BRANCH   1  15
ATOM     15  C   UNL d   1      -0.037   2.037   0.333  0.00  0.00     0.016 A 
ATOM     16  C   UNL d   1      -1.080   1.174   0.681  0.00  0.00     0.099 A 
ATOM     17  C   UNL d   1      -0.862  -0.210   0.686  0.00  0.00     0.069 A 
ATOM     18 CL   UNL d   1      -2.138  -1.290   1.115  0.00  0.00    -0.081 Cl
ATOM     19  C   UNL d   1       0.383  -0.735   0.344  0.00  0.00     0.050 A 
ATOM     20  C   UNL d   1       1.415   0.132  -0.005  0.00  0.00     0.036 A 
ATOM     21  C   UNL d   1       1.216   1.511  -0.011  0.00  0.00     0.039 A 
ATOM     22 CL   UNL d   1       2.953  -0.509  -0.436  0.00  0.00    -0.084 Cl
BRANCH  16  23
ATOM     23  O   UNL d   1      -2.308   1.685   1.010  0.00  0.00    -0.358 OA
ATOM     24  H   UNL d   1      -2.897   0.936   1.225  0.00  0.00     0.217 HD
ENDBRANCH  16  23
ENDBRANCH   1  15
TORSDOF 3
