REMARK  1 active torsions:
REMARK  status: ('A' for Active; 'I' for Inactive)
REMARK    1  A    between atoms: C_2  and  N_1 
REMARK       I    between atoms: C_4  and  N_1 
ROOT
ATOM      1  C   UNL d   1       0.274   0.331  -1.353  0.00  0.00     0.056 A 
ATOM      2  C   UNL d   1       0.756   0.486  -2.668  0.00  0.00     0.062 A 
ATOM      3  C   UNL d   1       0.030   1.199  -3.625  0.00  0.00     0.045 A 
ATOM      4  C   UNL d   1      -0.919   0.970  -1.003  0.00  0.00     0.032 A 
ATOM      5  C   UNL d   1      -1.173   1.796  -3.262  0.00  0.00     0.012 A 
ATOM      6 CL   UNL d   1       2.249  -0.240  -3.162  0.00  0.00    -0.082 Cl
ATOM      7  C   UNL d   1      -1.643   1.697  -1.955  0.00  0.00     0.021 A 
ATOM      8 BR   UNL d   1      -2.169   2.760  -4.546  0.00  0.00    -0.051 Br
ENDROOT
BRANCH   1   9
ATOM      9  N   UNL d   1       1.046  -0.409  -0.435  0.00  0.00    -0.326 N 
ATOM     10  C   UNL d   1       0.720  -1.063   0.717  0.00  0.00     0.218 C 
ATOM     11  O   UNL d   1       1.629  -1.500   1.428  0.00  0.00    -0.274 OA
ATOM     12  C   UNL d   1      -0.717  -1.317   1.075  0.00  0.00     0.117 C 
ATOM     13  H   UNL d   1       2.022  -0.542  -0.684  0.00  0.00     0.169 HD
ENDBRANCH   1   9
TORSDOF 1
