REMARK  3 active torsions:
REMARK  status: ('A' for Active; 'I' for Inactive)
REMARK    1  A    between atoms: C_8  and  C_1 
REMARK    2  A    between atoms: N_10  and  C_3 
REMARK    3  A    between atoms: C_14  and  N_10 
ROOT
ATOM      1  C   UNL d   1      -0.302  -1.046  -0.021  0.00  0.00     0.177 A 
ATOM      2  O   UNL d   1      -0.070  -0.431  -1.230  0.00  0.00    -0.259 OA
ATOM      3  C   UNL d   1       0.307   0.827  -0.839  0.00  0.00     0.245 A 
ATOM      4  N   UNL d   1      -0.106  -0.235   0.998  0.00  0.00    -0.276 N 
ATOM      5  HN  UNL d   1      -0.231  -0.456   1.986  1.00  0.00     0.189 HD
ATOM      6  N   UNL d   1       0.297   0.964   0.472  0.00  0.00    -0.263 N 
ATOM      7  HN  UNL d   1       0.544   1.803   0.996  1.00  0.00     0.190 HD
ENDROOT
BRANCH   1   8
ATOM      8  C   UNL d   1      -0.708  -2.450  -0.033  0.00  0.00     0.028 A 
ATOM      9  C   UNL d   1      -0.339  -3.345   1.021  0.00  0.00    -0.011 A 
ATOM     10  C   UNL d   1      -0.812  -4.683   0.972  0.00  0.00    -0.025 A 
ATOM     11  C   UNL d   1       0.485  -2.999   2.124  0.00  0.00     0.013 A 
ATOM     12  C   UNL d   1      -0.469  -5.594   1.987  0.00  0.00     0.012 A 
ATOM     13  C   UNL d   1      -1.624  -5.102  -0.091  0.00  0.00     0.012 A 
ATOM     14  C   UNL d   1       0.340  -5.213   3.056  0.00  0.00     0.001 A 
ATOM     15  C   UNL d   1       0.818  -3.915   3.125  0.00  0.00     0.001 A 
ATOM     16  C   UNL d   1      -1.970  -4.228  -1.117  0.00  0.00     0.002 A 
ATOM     17  C   UNL d   1      -1.513  -2.914  -1.090  0.00  0.00     0.017 A 
ENDBRANCH   1   8
BRANCH   3  18
ATOM     18  N   UNL d   1       0.646   1.689  -1.813  0.00  0.00    -0.320 N 
ATOM     19  H   UNL d   1       0.690   1.339  -2.760  0.00  0.00     0.169 HD
BRANCH  18  20
ATOM     20  C   UNL d   1       1.007   3.035  -1.633  0.00  0.00     0.050 A 
ATOM     21  C   UNL d   1       1.837   3.681  -2.554  0.00  0.00     0.117 A 
ATOM     22  N   UNL d   1       2.293   4.954  -2.439  0.00  0.00    -0.373 N 
ATOM     23  C   UNL d   1       1.919   5.630  -1.333  0.00  0.00     0.088 A 
ATOM     24  HN  UNL d   1       2.888   5.377  -3.151  1.00  0.00     0.164 HD
ATOM     25  C   UNL d   1       1.111   5.094  -0.348  0.00  0.00     0.019 A 
ATOM     26  C   UNL d   1       0.660   3.784  -0.504  0.00  0.00     0.032 A 
ENDBRANCH  18  20
ENDBRANCH   3  18
TORSDOF 3
