REMARK  5 active torsions:
REMARK  status: ('A' for Active; 'I' for Inactive)
REMARK    1  A    between atoms: N_3  and  C_1 
REMARK    2  A    between atoms: C_4  and  C_2 
REMARK       I    between atoms: C_6  and  N_3 
REMARK    3  A    between atoms: O_11  and  C_4 
REMARK    4  A    between atoms: C_12  and  C_6 
REMARK    5  A    between atoms: O_13  and  C_12 
ROOT
ATOM      1  C   UNL d   1       0.290   1.414   0.131  0.00  0.00     0.092 C 
ATOM      2  C   UNL d   1       1.508   0.792  -0.069  0.00  0.00     0.073 C 
ATOM      3  S   UNL d   1      -0.972   0.325   0.493  0.00  0.00    -0.083 SA
ATOM      4  C   UNL d   1       1.316  -0.640  -0.110  0.00  0.00     0.028 C 
ATOM      5  C   UNL d   1       0.021  -1.022   0.154  0.00  0.00     0.053 C 
ENDROOT
BRANCH   1   6
ATOM      6  N   UNL d   1      -0.142   2.719   0.123  0.00  0.00    -0.319 N 
ATOM      7  C   UNL d   1       0.334   3.651  -0.777  0.00  0.00     0.246 C 
ATOM      8  O   UNL d   1       1.102   3.427  -1.713  0.00  0.00    -0.271 OA
ATOM      9  H   UNL d   1      -1.025   2.927   0.574  0.00  0.00     0.169 HD
BRANCH   7  10
ATOM     10  C   UNL d   1      -0.304   5.029  -0.583  0.00  0.00     0.270 C 
BRANCH  10  11
ATOM     11  O   UNL d   1      -0.535   5.295   0.798  0.00  0.00    -0.387 OA
ATOM     12  C   UNL d   1      -1.000   6.620   1.012  0.00  0.00     0.202 C 
ENDBRANCH  10  11
ENDBRANCH   7  10
ENDBRANCH   1   6
BRANCH   2  13
ATOM     13  C   UNL d   1       2.830   1.414  -0.177  0.00  0.00     0.295 C 
ATOM     14  O   UNL d   1       3.811   0.790  -0.569  0.00  0.00    -0.259 OA
BRANCH  13  15
ATOM     15  O   UNL d   1       2.879   2.683   0.318  0.00  0.00    -0.322 OA
ATOM     16  C   UNL d   1       4.138   3.355   0.241  0.00  0.00     0.213 C 
ENDBRANCH  13  15
ENDBRANCH   2  13
TORSDOF 5
