REMARK  4 active torsions:
REMARK  status: ('A' for Active; 'I' for Inactive)
REMARK    1  A    between atoms: C_6  and  C_1 
REMARK    2  A    between atoms: N_13  and  C_2 
REMARK    3  A    between atoms: C_10  and  C_6 
REMARK    4  A    between atoms: C_20  and  C_15 
ROOT
ATOM      1  C   UNL d   1       2.452   0.083   0.057  0.00  0.00     0.085 A 
ATOM      2  C   UNL d   1       1.601   1.045  -0.461  0.00  0.00     0.060 A 
ATOM      3  C   UNL d   1       0.198   0.730  -0.284  0.00  0.00     0.031 A 
ATOM      4  S   UNL d   1       1.582  -1.139   0.870  0.00  0.00    -0.065 SA
ATOM      5  C   UNL d   1       0.091  -0.491   0.384  0.00  0.00     0.088 A 
ATOM      6  N   UNL d   1      -1.031  -1.171   0.691  0.00  0.00    -0.354 N 
ATOM      7  HN  UNL d   1      -1.013  -2.067   1.177  1.00  0.00     0.166 HD
ATOM      8  C   UNL d   1      -1.036   1.352  -0.637  0.00  0.00    -0.045 A 
ATOM      9  C   UNL d   1      -2.221   0.653  -0.324  0.00  0.00     0.032 A 
ATOM     10  C   UNL d   1      -2.172  -0.581   0.308  0.00  0.00     0.006 A 
ATOM     11  C   UNL d   1      -1.214   2.689  -1.304  0.00  0.00     0.049 C 
ATOM     12  C   UNL d   1      -3.445  -1.316   0.612  0.00  0.00     0.068 C 
ENDROOT
BRANCH   1  13
ATOM     13  C   UNL d   1       3.911   0.086   0.035  0.00  0.00     0.201 C 
ATOM     14  O   UNL d   1       4.572   1.127   0.049  0.00  0.00    -0.286 OA
BRANCH  13  15
ATOM     15  C   UNL d   1       4.674  -1.194  -0.062  0.00  0.00     0.015 A 
ATOM     16  C   UNL d   1       5.928  -1.287   0.543  0.00  0.00     0.016 A 
ATOM     17  C   UNL d   1       6.668  -2.473   0.450  0.00  0.00     0.013 A 
ATOM     18  C   UNL d   1       6.176  -3.597  -0.239  0.00  0.00    -0.026 A 
ATOM     19  C   UNL d   1       4.913  -3.473  -0.846  0.00  0.00     0.013 A 
ATOM     20  C   UNL d   1       4.184  -2.284  -0.787  0.00  0.00     0.016 A 
BRANCH  18  21
ATOM     21  C   UNL d   1       6.953  -4.856  -0.344  0.00  0.00    -0.026 A 
ATOM     22  C   UNL d   1       6.852  -5.685  -1.478  0.00  0.00     0.012 A 
ATOM     23  C   UNL d   1       7.570  -6.877  -1.586  0.00  0.00     0.001 A 
ATOM     24  C   UNL d   1       8.430  -7.262  -0.566  0.00  0.00     0.000 A 
ATOM     25  C   UNL d   1       8.559  -6.462   0.566  0.00  0.00     0.001 A 
ATOM     26  C   UNL d   1       7.825  -5.278   0.676  0.00  0.00     0.012 A 
ENDBRANCH  18  21
ENDBRANCH  13  15
ENDBRANCH   1  13
BRANCH   2  27
ATOM     27  N   UNL d   1       2.097   2.134  -1.100  0.00  0.00    -0.397 N 
ATOM     28  H   UNL d   1       3.095   2.344  -0.996  0.00  0.00     0.156 HD
ATOM     29  H   UNL d   1       1.562   2.985  -1.210  0.00  0.00     0.156 HD
ENDBRANCH   2  27
TORSDOF 4
