REMARK  5 active torsions:
REMARK  status: ('A' for Active; 'I' for Inactive)
REMARK    1  A    between atoms: C_4  and  C_1 
REMARK    2  A    between atoms: N_6  and  C_2 
REMARK       I    between atoms: C_3  and  N_5 
REMARK       I    between atoms: N_8  and  C_3 
REMARK    3  A    between atoms: C_7  and  O_16 
REMARK    4  A    between atoms: C_20  and  N_8 
REMARK    5  A    between atoms: O_16  and  C_24 
ROOT
ATOM      1  C   UNL d   1      -3.184   6.193  -0.373  0.00  0.00     0.323 C 
ATOM      2  N   UNL d   1      -2.601   4.939  -0.217  0.00  0.00    -0.332 N 
ATOM      3  N   UNL d   1      -1.112   2.496  -0.039  0.00  0.00    -0.266 NA
ATOM      4  N   UNL d   1      -4.225   6.494   0.478  0.00  0.00    -0.309 N 
ATOM      5  O   UNL d   1      -2.777   6.955  -1.248  0.00  0.00    -0.247 OA
ATOM      6  C   UNL d   1      -1.379   4.712  -1.007  0.00  0.00     0.142 C 
ATOM      7  C   UNL d   1      -2.762   4.032   0.947  0.00  0.00     0.142 C 
ATOM      8  C   UNL d   1      -2.428   2.554   0.619  0.00  0.00     0.117 C 
ATOM      9  C   UNL d   1      -1.137   3.230  -1.318  0.00  0.00     0.117 C 
ATOM     10  H   UNL d   1      -4.472   5.811   1.169  0.00  0.00     0.170 HD
ENDROOT
BRANCH   4  11
ATOM     11  C   UNL d   1      -5.011   7.664   0.475  0.00  0.00     0.036 A 
ATOM     12  C   UNL d   1      -4.846   8.729  -0.416  0.00  0.00     0.032 A 
ATOM     13  C   UNL d   1      -5.689   9.848  -0.377  0.00  0.00     0.039 A 
ATOM     14  C   UNL d   1      -6.731   9.908   0.541  0.00  0.00     0.078 A 
ATOM     15  C   UNL d   1      -6.883   8.864   1.455  0.00  0.00     0.039 A 
ATOM     16  C   UNL d   1      -6.035   7.752   1.425  0.00  0.00     0.032 A 
BRANCH  14  17
ATOM     17  O   UNL d   1      -7.665  10.895   0.652  0.00  0.00    -0.255 OA
BRANCH  17  18
ATOM     18  C   UNL d   1      -7.721  11.893  -0.354  0.00  0.00     0.530 C 
ATOM     19  F   UNL d   1      -7.631  11.376  -1.598  0.00  0.00    -0.144 F 
ATOM     20  F   UNL d   1      -8.911  12.527  -0.259  0.00  0.00    -0.144 F 
ATOM     21  F   UNL d   1      -6.742  12.803  -0.171  0.00  0.00    -0.144 F 
ENDBRANCH  17  18
ENDBRANCH  14  17
ENDBRANCH   4  11
BRANCH   3  22
ATOM     22  C   UNL d   1      -0.487   1.256  -0.076  0.00  0.00     0.097 A 
ATOM     23  C   UNL d   1       0.902   1.147  -0.187  0.00  0.00     0.086 A 
ATOM     24  C   UNL d   1       1.476  -0.139  -0.202  0.00  0.00     0.021 A 
ATOM     25  C   UNL d   1       0.678  -1.263  -0.070  0.00  0.00     0.018 A 
ATOM     26  C   UNL d   1      -0.678  -1.065   0.066  0.00  0.00     0.089 A 
ATOM     27  N   UNL d   1      -1.264   0.153   0.064  0.00  0.00    -0.356 N 
ATOM     28  HN  UNL d   1      -2.275   0.242   0.167  1.00  0.00     0.166 HD
BRANCH  23  29
ATOM     29  C   UNL d   1       1.829   2.325  -0.273  0.00  0.00     0.420 C 
ATOM     30  F   UNL d   1       1.329   3.534   0.101  0.00  0.00    -0.166 F 
ATOM     31  F   UNL d   1       2.947   2.157   0.496  0.00  0.00    -0.166 F 
ATOM     32  F   UNL d   1       2.298   2.503  -1.544  0.00  0.00    -0.166 F 
ENDBRANCH  23  29
ENDBRANCH   3  22
TORSDOF 5
