REMARK  3 active torsions:
REMARK  status: ('A' for Active; 'I' for Inactive)
REMARK    1  A    between atoms: C_2  and  C_1 
REMARK    2  A    between atoms: C_5  and  C_2 
REMARK    3  A    between atoms: C_6  and  C_7 
ROOT
ATOM      1  C   UNL d   1      -3.505   1.404  -0.151  0.00  0.00     0.192 C 
ATOM      2  O   UNL d   1      -2.522   0.863  -0.650  0.00  0.00    -0.287 OA
ENDROOT
BRANCH   1   3
ATOM      3  C   UNL d   1      -4.595   0.563   0.414  0.00  0.00     0.015 A 
ATOM      4  C   UNL d   1      -5.934   0.973   0.363  0.00  0.00     0.023 A 
ATOM      5  C   UNL d   1      -6.894   0.162   0.946  0.00  0.00    -0.051 A 
ATOM      6  C   UNL d   1      -8.370   0.396   1.020  0.00  0.00     0.039 C 
ATOM      7  C   UNL d   1      -6.551  -1.063   1.526  0.00  0.00    -0.052 A 
ATOM      8  C   UNL d   1      -8.779  -0.619   2.098  0.00  0.00     0.009 C 
ATOM      9  C   UNL d   1      -7.772  -1.775   2.018  0.00  0.00     0.039 C 
ATOM     10  C   UNL d   1      -5.239  -1.504   1.542  0.00  0.00     0.009 A 
ATOM     11  C   UNL d   1      -4.254  -0.680   0.986  0.00  0.00     0.016 A 
ENDBRANCH   1   3
BRANCH   1  12
ATOM     12  C   UNL d   1      -3.579   2.892  -0.118  0.00  0.00     0.015 A 
ATOM     13  C   UNL d   1      -2.953   3.624  -1.127  0.00  0.00     0.016 A 
ATOM     14  C   UNL d   1      -3.000   5.024  -1.115  0.00  0.00     0.009 A 
ATOM     15  C   UNL d   1      -3.665   5.729  -0.091  0.00  0.00    -0.051 A 
ATOM     16  C   UNL d   1      -4.280   4.969   0.917  0.00  0.00     0.009 A 
ATOM     17  C   UNL d   1      -4.225   3.571   0.917  0.00  0.00     0.016 A 
BRANCH  15  18
ATOM     18  C   UNL d   1      -3.664   7.268  -0.073  0.00  0.00    -0.024 C 
ATOM     19  C   UNL d   1      -4.453   7.872   1.111  0.00  0.00     0.019 C 
ATOM     20  C   UNL d   1      -2.210   7.773   0.042  0.00  0.00     0.019 C 
ATOM     21  C   UNL d   1      -4.293   7.824  -1.368  0.00  0.00     0.019 C 
ENDBRANCH  15  18
ENDBRANCH   1  12
TORSDOF 3
