REMARK  5 active torsions:
REMARK  status: ('A' for Active; 'I' for Inactive)
REMARK    1  A    between atoms: C_3  and  C_4 
REMARK    2  A    between atoms: O_12  and  C_3 
REMARK    3  A    between atoms: O_7  and  C_5 
REMARK    4  A    between atoms: C_6  and  C_9 
REMARK    5  A    between atoms: C_13  and  O_7 
ROOT
ATOM      1  N   UNL d   1      -1.278   0.001   0.096  0.00  0.00    -0.346 N 
ATOM      2  HN  UNL d   1      -2.294  -0.005   0.183  1.00  0.00     0.167 HD
ATOM      3  C   UNL d   1      -0.576  -1.143  -0.060  0.00  0.00     0.147 A 
ATOM      4  C   UNL d   1       0.817   1.227   0.058  0.00  0.00    -0.020 A 
ATOM      5  C   UNL d   1      -0.573   1.153   0.130  0.00  0.00     0.101 A 
ATOM      6  C   UNL d   1       0.807  -1.186  -0.118  0.00  0.00     0.057 A 
ATOM      7  C   UNL d   1       1.510   0.019  -0.069  0.00  0.00     0.017 A 
ENDROOT
BRANCH   3   8
ATOM      8  O   UNL d   1      -1.243  -2.358  -0.162  0.00  0.00    -0.294 OA
BRANCH   8   9
ATOM      9  C   UNL d   1      -2.515  -2.353  -0.690  0.00  0.00     0.077 A 
ATOM     10  C   UNL d   1      -2.904  -1.544  -1.763  0.00  0.00     0.037 A 
ATOM     11  C   UNL d   1      -4.214  -1.592  -2.238  0.00  0.00     0.003 A 
ATOM     12  C   UNL d   1      -5.128  -2.478  -1.671  0.00  0.00     0.000 A 
ATOM     13  C   UNL d   1      -4.729  -3.324  -0.636  0.00  0.00     0.003 A 
ATOM     14  C   UNL d   1      -3.422  -3.265  -0.148  0.00  0.00     0.037 A 
ENDBRANCH   8   9
ENDBRANCH   3   8
BRANCH   4  15
ATOM     15  C   UNL d   1       1.472   2.539   0.053  0.00  0.00     0.019 C 
ATOM     16  C   UNL d   1       2.672   2.783   0.598  0.00  0.00     0.082 C 
BRANCH  16  17
ATOM     17  C   UNL d   1       3.221   4.155   0.547  0.00  0.00     0.165 C 
ATOM     18  O   UNL d   1       2.657   5.106   0.038  0.00  0.00    -0.647 OA
BRANCH  17  19
ATOM     19  O   UNL d   1       4.431   4.235   1.133  0.00  0.00    -0.773 OA
ATOM     20  H   UNL d   1       4.776   3.407   1.512  0.00  0.00     0.167 HD
ENDBRANCH  17  19
ENDBRANCH  16  17
ENDBRANCH   4  15
TORSDOF 5
