REMARK  2 active torsions:
REMARK  status: ('A' for Active; 'I' for Inactive)
REMARK    1  A    between atoms: N_5  and  C_2 
REMARK       I    between atoms: C_10  and  N_5 
REMARK    2  A    between atoms: C_12  and  C_10 
ROOT
ATOM      1  C   UNL d   1       1.627  -0.438   0.539  0.00  0.00     0.085 C 
ATOM      2  C   UNL d   1       2.931  -0.359   0.088  0.00  0.00     0.094 C 
ATOM      3  C   UNL d   1       0.892   0.748   0.231  0.00  0.00     0.003 C 
ATOM      4  C   UNL d   1       0.977  -1.604   1.095  0.00  0.00     0.302 C 
ATOM      5  O   UNL d   1      -0.429  -1.607   1.014  0.00  0.00    -0.274 OA
ATOM      6  S   UNL d   1       3.321   1.228  -0.393  0.00  0.00    -0.082 SA
ATOM      7  C   UNL d   1       1.702   1.758  -0.233  0.00  0.00     0.065 C 
ATOM      8  C   UNL d   1      -0.556   0.748   0.271  0.00  0.00     0.010 A 
ATOM      9  C   UNL d   1      -1.171  -0.480   0.558  0.00  0.00     0.090 A 
ATOM     10  O   UNL d   1       1.598  -2.546   1.592  0.00  0.00    -0.259 OA
ATOM     11  C   UNL d   1      -1.355   1.837  -0.083  0.00  0.00     0.015 A 
ATOM     12  C   UNL d   1      -2.545  -0.658   0.412  0.00  0.00     0.038 A 
ATOM     13  C   UNL d   1      -2.740   1.675  -0.199  0.00  0.00     0.001 A 
ATOM     14  C   UNL d   1      -3.329   0.427   0.022  0.00  0.00     0.003 A 
ENDROOT
BRANCH   2  15
ATOM     15  N   UNL d   1       3.860  -1.391   0.013  0.00  0.00    -0.316 N 
ATOM     16  C   UNL d   1       4.973  -1.390  -0.827  0.00  0.00     0.256 C 
ATOM     17  O   UNL d   1       5.331  -0.500  -1.584  0.00  0.00    -0.267 OA
ATOM     18  H   UNL d   1       3.616  -2.244   0.504  0.00  0.00     0.169 HD
BRANCH  16  19
ATOM     19  C   UNL d   1       5.812  -2.620  -0.785  0.00  0.00     0.032 A 
ATOM     20  C   UNL d   1       5.269  -3.907  -0.672  0.00  0.00     0.020 A 
ATOM     21  C   UNL d   1       6.124  -5.011  -0.591  0.00  0.00     0.043 A 
ATOM     22  C   UNL d   1       7.503  -4.826  -0.636  0.00  0.00     0.116 A 
ATOM     23  C   UNL d   1       8.050  -3.559  -0.802  0.00  0.00     0.043 A 
ATOM     24  F   UNL d   1       8.316  -5.883  -0.519  0.00  0.00    -0.206 F 
ATOM     25  C   UNL d   1       7.202  -2.455  -0.889  0.00  0.00     0.020 A 
ENDBRANCH  16  19
ENDBRANCH   2  15
TORSDOF 2
