REMARK  2 active torsions:
REMARK  status: ('A' for Active; 'I' for Inactive)
REMARK    1  A    between atoms: C_4  and  C_1 
REMARK       I    between atoms: N_2  and  C_4 
REMARK       I    between atoms: C_3  and  N_2 
REMARK       I    between atoms: N_8  and  C_3 
REMARK    2  A    between atoms: C_9  and  N_8 
ROOT
ATOM      1  N   UNL d   1       3.809  -0.768   0.505  0.00  0.00    -0.173 NA
ATOM      2  C   UNL d   1       4.350   0.424   0.103  0.00  0.00     0.319 C 
ATOM      3  C   UNL d   1       2.902  -1.404  -0.314  0.00  0.00     0.257 C 
ATOM      4  N   UNL d   1       3.447   1.415  -0.118  0.00  0.00    -0.145 N 
ATOM      5  O   UNL d   1       5.572   0.484   0.004  0.00  0.00    -0.253 OA
ATOM      6  O   UNL d   1       1.946  -0.847  -0.843  0.00  0.00    -0.272 OA
ATOM      7  H   UNL d   1       4.567  -1.385   0.781  0.00  0.00     0.141 HD
ATOM      8  H   UNL d   1       2.462   1.221  -0.027  0.00  0.00     0.188 HD
ENDROOT
BRANCH   4   9
ATOM      9  C   UNL d   1       3.740   2.728  -0.452  0.00  0.00     0.685 A 
ATOM     10  N   UNL d   1       4.997   3.127  -0.676  0.00  0.00    -0.202 N 
ATOM     11  C   UNL d   1       5.186   4.426  -0.967  0.00  0.00     0.107 A 
ATOM     12  HN  UNL d   1       5.779   2.474  -0.629  1.00  0.00     0.183 HD
ATOM     13  C   UNL d   1       4.166   5.341  -1.029  0.00  0.00     0.035 A 
ATOM     14  C   UNL d   1       2.912   4.836  -0.785  0.00  0.00     0.107 A 
ATOM     15  N   UNL d   1       2.672   3.541  -0.505  0.00  0.00    -0.202 N 
ATOM     16  HN  UNL d   1       1.726   3.194  -0.340  1.00  0.00     0.183 HD
ENDBRANCH   4   9
BRANCH   3  17
ATOM     17  C   UNL d   1       3.139  -2.838  -0.430  0.00  0.00     0.115 A 
ATOM     18  N   UNL d   1       3.993  -3.494   0.458  0.00  0.00    -0.288 N 
ATOM     19  N   UNL d   1       4.082  -4.785   0.193  0.00  0.00    -0.061 NA
ATOM     20  HN  UNL d   1       4.488  -3.031   1.221  1.00  0.00     0.183 HD
ATOM     21  S   UNL d   1       3.179  -5.240  -1.139  0.00  0.00    -0.010 SA
ATOM     22  C   UNL d   1       2.589  -3.653  -1.405  0.00  0.00     0.101 A 
ENDBRANCH   3  17
TORSDOF 2
