REMARK  2 active torsions:
REMARK  status: ('A' for Active; 'I' for Inactive)
REMARK    1  A    between atoms: C_2  and  C_1 
REMARK    2  A    between atoms: N_6  and  C_3 
ROOT
ATOM      1  C   UNL d   1       0.149  -0.963   1.266  0.00  0.00     0.063 A 
ATOM      2  C   UNL d   1      -0.224  -1.553   3.968  0.00  0.00     0.103 A 
ATOM      3  N   UNL d   1       0.553  -2.358   3.213  0.00  0.00    -0.352 N 
ATOM      4  HN  UNL d   1       1.008  -3.175   3.622  1.00  0.00     0.166 HD
ATOM      5  C   UNL d   1       0.718  -2.060   1.897  0.00  0.00     0.106 A 
ATOM      6  C   UNL d   1      -0.628  -0.121   2.054  0.00  0.00     0.021 A 
ATOM      7  C   UNL d   1      -0.812  -0.417   3.402  0.00  0.00     0.049 A 
ENDROOT
BRANCH   2   8
ATOM      8  N   UNL d   1      -0.388  -1.798   5.321  0.00  0.00    -0.364 N 
ATOM      9  C   UNL d   1       0.585  -2.655   6.017  0.00  0.00     0.154 C 
ATOM     10  C   UNL d   1       0.029  -4.059   6.327  0.00  0.00     0.289 C 
ATOM     11  N   UNL d   1      -1.286  -4.035   7.000  0.00  0.00     0.086 N 
ATOM     12  C   UNL d   1      -2.227  -3.277   6.157  0.00  0.00     0.289 C 
ATOM     13  H   UNL d   1      -1.623  -4.990   7.106  0.00  0.00     0.316 HD
ATOM     14  C   UNL d   1      -1.756  -1.834   5.865  0.00  0.00     0.154 C 
ENDBRANCH   2   8
BRANCH   1  15
ATOM     15  C   UNL d   1       0.362  -0.699  -0.189  0.00  0.00     0.418 C 
ATOM     16  F   UNL d   1       1.123  -1.633  -0.817  0.00  0.00    -0.166 F 
ATOM     17  F   UNL d   1       0.976   0.498  -0.416  0.00  0.00    -0.166 F 
ATOM     18  F   UNL d   1      -0.811  -0.645  -0.883  0.00  0.00    -0.166 F 
ENDBRANCH   1  15
TORSDOF 2
