REMARK  4 active torsions:
REMARK  status: ('A' for Active; 'I' for Inactive)
REMARK    1  A    between atoms: C_2  and  S_1 
REMARK    2  A    between atoms: N_3  and  S_1 
REMARK    3  A    between atoms: C_14  and  N_9 
REMARK    4  A    between atoms: C_18  and  C_17 
ROOT
ATOM      1  N   UNL d   1       0.309  -1.240  -0.150  0.00  0.00    -0.303 N 
ATOM      2  N   UNL d   1      -0.453  -1.859   2.564  0.00  0.00    -0.378 N 
ATOM      3  C   UNL d   1      -0.932  -0.664   0.459  0.00  0.00     0.155 C 
ATOM      4  C   UNL d   1       0.681  -2.544   0.480  0.00  0.00     0.155 C 
ATOM      5  C   UNL d   1      -0.800  -0.547   1.991  0.00  0.00     0.143 C 
ATOM      6  C   UNL d   1       0.775  -2.461   2.018  0.00  0.00     0.143 C 
ENDROOT
BRANCH   1   7
ATOM      7  S   UNL d   1       1.557  -0.143  -0.467  0.00  0.00     0.265 S 
ATOM      8  O   UNL d   1       1.487   0.946   0.481  0.00  0.00    -0.200 OA
ATOM      9  O   UNL d   1       2.781  -0.876  -0.703  0.00  0.00    -0.200 OA
BRANCH   7  10
ATOM     10  C   UNL d   1       1.199   0.546  -1.987  0.00  0.00     0.134 A 
ATOM     11  C   UNL d   1       1.174  -0.129  -3.186  0.00  0.00     0.098 A 
ATOM     12  O   UNL d   1       0.822   0.738  -4.169  0.00  0.00    -0.241 OA
ATOM     13  C   UNL d   1       1.426  -1.520  -3.603  0.00  0.00     0.081 C 
ATOM     14  N   UNL d   1       0.588   1.986  -3.624  0.00  0.00    -0.264 N 
ATOM     15  C   UNL d   1       0.812   1.865  -2.307  0.00  0.00     0.054 A 
ATOM     16  HN  UNL d   1       0.301   2.829  -4.122  1.00  0.00     0.194 HD
ATOM     17  C   UNL d   1       0.601   3.040  -1.429  0.00  0.00     0.072 C 
ENDBRANCH   7  10
ENDBRANCH   1   7
BRANCH   2  18
ATOM     18  C   UNL d   1      -1.224  -2.462   3.537  0.00  0.00     0.030 A 
ATOM     19  C   UNL d   1      -0.668  -3.296   4.518  0.00  0.00     0.030 A 
ATOM     20  C   UNL d   1      -1.451  -3.897   5.518  0.00  0.00     0.017 A 
ATOM     21  C   UNL d   1      -2.827  -3.671   5.556  0.00  0.00     0.009 A 
ATOM     22  C   UNL d   1      -3.407  -2.866   4.577  0.00  0.00     0.017 A 
ATOM     23  C   UNL d   1      -2.613  -2.272   3.589  0.00  0.00     0.030 A 
BRANCH  21  24
ATOM     24  C   UNL d   1      -3.717  -4.263   6.591  0.00  0.00     0.155 C 
ATOM     25  O   UNL d   1      -4.910  -4.427   6.340  0.00  0.00    -0.293 OA
ATOM     26  C   UNL d   1      -3.154  -4.631   7.939  0.00  0.00     0.096 C 
ENDBRANCH  21  24
ENDBRANCH   2  18
TORSDOF 4
