REMARK  9 active torsions:
REMARK  status: ('A' for Active; 'I' for Inactive)
REMARK    1  A    between atoms: C1*_3  and  N_1 
REMARK    2  A    between atoms: N_17  and  C_2 
REMARK    3  A    between atoms: C2*_8  and  O2*_23 
REMARK    4  A    between atoms: C3*_10  and  O3*_27 
REMARK    5  A    between atoms: C4*_11  and  C5*_28 
REMARK    6  A    between atoms: N_26  and  C_14 
REMARK    7  A    between atoms: N_18  and  N_17 
REMARK    8  A    between atoms: C_25  and  C_24 
REMARK    9  A    between atoms: O5*_30  and  C5*_28 
ROOT
ATOM      1  N   UNL d   1       1.600   1.152  -0.091  0.00  0.00    -0.134 N 
ATOM      2  C   UNL d   1       2.428   0.058   0.065  0.00  0.00     0.703 C 
ATOM      3  C   UNL d   1       0.312   0.707   0.057  0.00  0.00     0.158 A 
ATOM      4  N   UNL d   1       1.729  -1.060   0.084  0.00  0.00    -0.182 N 
ATOM      5  HN  UNL d   1       2.091  -2.014   0.100  1.00  0.00     0.184 HD
ATOM      6  C   UNL d   1       0.412  -0.671   0.076  0.00  0.00     0.137 A 
ATOM      7  N   UNL d   1      -0.811   1.441   0.103  0.00  0.00    -0.336 N 
ATOM      8  HN  UNL d   1      -0.836   2.461   0.099  1.00  0.00     0.168 HD
ATOM      9  C   UNL d   1      -0.793  -1.389   0.079  0.00  0.00     0.131 A 
ATOM     10  N   UNL d   1      -1.955  -0.699   0.142  0.00  0.00    -0.337 N 
ATOM     11  HN  UNL d   1      -2.851  -1.186   0.177  1.00  0.00     0.168 HD
ATOM     12  C   UNL d   1      -1.900   0.648   0.157  0.00  0.00     0.183 A 
ENDROOT
BRANCH   1  13
ATOM     13  C1* UNL d   1       1.956   2.528  -0.390  0.00  0.00     0.279 C 
ATOM     14  C2* UNL d   1       1.203   3.173  -1.563  0.00  0.00     0.199 C 
ATOM     15  C3* UNL d   1       2.077   2.840  -2.759  0.00  0.00     0.182 C 
ATOM     16  C4* UNL d   1       3.481   2.865  -2.167  0.00  0.00     0.179 C 
ATOM     17  O4* UNL d   1       3.368   2.611  -0.742  0.00  0.00    -0.353 OA
BRANCH  14  18
ATOM     18  O2* UNL d   1       1.130   4.609  -1.433  0.00  0.00    -0.388 OA
ATOM     19  H2* UNL d   1       1.972   4.933  -1.062  0.00  0.00     0.210 HD
ENDBRANCH  14  18
BRANCH  15  20
ATOM     20  O3* UNL d   1       1.937   3.803  -3.802  0.00  0.00    -0.390 OA
ATOM     21  H3* UNL d   1       1.379   4.524  -3.443  0.00  0.00     0.210 HD
ENDBRANCH  15  20
BRANCH  16  22
ATOM     22  C5* UNL d   1       4.430   1.860  -2.832  0.00  0.00     0.198 C 
BRANCH  22  23
ATOM     23  O5* UNL d   1       3.888   0.544  -2.859  0.00  0.00    -0.398 OA
ATOM     24  H5* UNL d   1       4.012   0.120  -1.981  0.00  0.00     0.209 HD
ENDBRANCH  22  23
ENDBRANCH  16  22
ENDBRANCH   1  13
BRANCH   2  25
ATOM     25  N   UNL d   1       3.779   0.199   0.126  0.00  0.00    -0.132 N 
ATOM     26  H   UNL d   1       4.151   1.154   0.130  0.00  0.00     0.205 HD
BRANCH  25  27
ATOM     27  N   UNL d   1       4.599  -0.812  -0.259  0.00  0.00    -0.297 N 
ATOM     28  C   UNL d   1       5.870  -0.604  -0.126  0.00  0.00     0.120 C 
ATOM     29  HN  UNL d   1       4.235  -1.689  -0.632  1.00  0.00     0.186 HD
BRANCH  28  30
ATOM     30  C   UNL d   1       6.843  -1.618  -0.555  0.00  0.00    -0.004 A 
ATOM     31  C   UNL d   1       8.202  -1.361  -0.456  0.00  0.00     0.100 A 
ATOM     32  N   UNL d   1       9.160  -2.232  -0.853  0.00  0.00    -0.374 N 
ATOM     33  C   UNL d   1       8.734  -3.408  -1.370  0.00  0.00     0.087 A 
ATOM     34  HN  UNL d   1      10.152  -2.012  -0.768  1.00  0.00     0.164 HD
ATOM     35  C   UNL d   1       7.399  -3.754  -1.504  0.00  0.00     0.018 A 
ATOM     36  C   UNL d   1       6.435  -2.840  -1.089  0.00  0.00     0.015 A 
ENDBRANCH  28  30
ENDBRANCH  25  27
ENDBRANCH   2  25
BRANCH   9  37
ATOM     37  N   UNL d   1      -0.852  -2.774   0.012  0.00  0.00    -0.383 N 
ATOM     38  H   UNL d   1       0.009  -3.238   0.276  0.00  0.00     0.157 HD
ATOM     39  H   UNL d   1      -1.729  -3.152   0.339  0.00  0.00     0.157 HD
ENDBRANCH   9  37
TORSDOF 9
