REMARK  4 active torsions:
REMARK  status: ('A' for Active; 'I' for Inactive)
REMARK       I    between atoms: N_2  and  C_1 
REMARK    1  A    between atoms: C_4  and  C_1 
REMARK    2  A    between atoms: C_5  and  N_3 
REMARK    3  A    between atoms: O_14  and  C_12 
REMARK    4  A    between atoms: O_16  and  C_13 
ROOT
ATOM      1  C   UNL d   1       1.014  -0.024  -0.133  0.00  0.00     0.254 C 
ATOM      2  N   UNL d   1       0.610  -0.807   0.957  0.00  0.00    -0.345 N 
ATOM      3  N   UNL d   1      -0.387  -1.973   3.390  0.00  0.00    -0.376 N 
ATOM      4  C   UNL d   1       1.186  -0.445   2.267  0.00  0.00     0.146 C 
ATOM      5  C   UNL d   1      -0.653  -1.551   0.996  0.00  0.00     0.146 C 
ATOM      6  C   UNL d   1       1.010  -1.504   3.385  0.00  0.00     0.143 C 
ATOM      7  C   UNL d   1      -0.747  -2.597   2.109  0.00  0.00     0.143 C 
ATOM      8  O   UNL d   1       1.964   0.761  -0.051  0.00  0.00    -0.267 OA
ENDROOT
BRANCH   1   9
ATOM      9  C   UNL d   1       0.361  -0.142  -1.465  0.00  0.00     0.034 A 
ATOM     10  C   UNL d   1       1.211  -0.204  -2.582  0.00  0.00     0.053 A 
ATOM     11  C   UNL d   1       0.682  -0.297  -3.870  0.00  0.00     0.069 A 
ATOM     12  C   UNL d   1      -0.701  -0.354  -4.041  0.00  0.00     0.037 A 
ATOM     13  C   UNL d   1      -1.555  -0.258  -2.943  0.00  0.00     0.004 A 
ATOM     14  C   UNL d   1      -1.024  -0.114  -1.661  0.00  0.00     0.017 A 
BRANCH  11  15
ATOM     15  O   UNL d   1       1.407  -0.346  -5.031  0.00  0.00    -0.356 OA
ATOM     16  C   UNL d   1       2.800  -0.078  -4.922  0.00  0.00     0.210 C 
ENDBRANCH  11  15
ENDBRANCH   1   9
BRANCH   3  17
ATOM     17  C   UNL d   1      -0.982  -2.434   4.565  0.00  0.00     0.064 A 
ATOM     18  C   UNL d   1      -1.107  -1.658   5.742  0.00  0.00     0.094 A 
ATOM     19  C   UNL d   1      -1.857  -2.120   6.838  0.00  0.00     0.039 A 
ATOM     20  C   UNL d   1      -2.492  -3.358   6.804  0.00  0.00     0.003 A 
ATOM     21  C   UNL d   1      -2.335  -4.167   5.692  0.00  0.00     0.002 A 
ATOM     22  C   UNL d   1      -1.588  -3.710   4.601  0.00  0.00     0.032 A 
BRANCH  18  23
ATOM     23  O   UNL d   1      -0.485  -0.458   5.977  0.00  0.00    -0.354 OA
ATOM     24  C   UNL d   1      -0.817   0.588   5.074  0.00  0.00     0.210 C 
ENDBRANCH  18  23
ENDBRANCH   3  17
TORSDOF 4
