REMARK  4 active torsions:
REMARK  status: ('A' for Active; 'I' for Inactive)
REMARK    1  A    between atoms: C_2  and  C_1 
REMARK       I    between atoms: N_7  and  C_2 
REMARK    2  A    between atoms: C_11  and  N_7 
REMARK    3  A    between atoms: O_17  and  C_10 
REMARK    4  A    between atoms: O_19  and  C_12 
ROOT
ATOM      1  C   UNL d   1       2.339  -0.908  -0.118  0.00  0.00     0.035 C 
ATOM      2  C   UNL d   1       1.211  -1.546   0.232  0.00  0.00     0.029 C 
ATOM      3  O   UNL d   1       1.228   1.246  -0.089  0.00  0.00    -0.343 OA
ATOM      4  C   UNL d   1       0.007   0.615  -0.031  0.00  0.00     0.112 A 
ATOM      5  C   UNL d   1      -0.041  -0.795   0.073  0.00  0.00     0.001 A 
ATOM      6  C   UNL d   1       2.236   0.455  -0.741  0.00  0.00     0.220 C 
ATOM      7  C   UNL d   1      -1.173   1.368  -0.044  0.00  0.00     0.102 A 
ATOM      8  C   UNL d   1      -1.274  -1.450   0.078  0.00  0.00     0.014 A 
ATOM      9  C   UNL d   1      -2.451  -0.708   0.002  0.00  0.00     0.004 A 
ATOM     10  C   UNL d   1      -2.397   0.687  -0.041  0.00  0.00     0.040 A 
ENDROOT
BRANCH   1  11
ATOM     11  C   UNL d   1       3.723  -1.452   0.003  0.00  0.00     0.254 C 
ATOM     12  N   UNL d   1       3.902  -2.342   1.043  0.00  0.00    -0.323 N 
ATOM     13  H   UNL d   1       3.097  -2.570   1.609  0.00  0.00     0.169 HD
ATOM     14  O   UNL d   1       4.580  -1.052  -0.774  0.00  0.00    -0.268 OA
BRANCH  12  15
ATOM     15  C   UNL d   1       5.092  -3.023   1.378  0.00  0.00     0.035 A 
ATOM     16  C   UNL d   1       6.333  -2.760   0.790  0.00  0.00     0.032 A 
ATOM     17  C   UNL d   1       7.456  -3.531   1.111  0.00  0.00     0.039 A 
ATOM     18  C   UNL d   1       7.355  -4.583   2.015  0.00  0.00     0.068 A 
ATOM     19  C   UNL d   1       6.131  -4.811   2.652  0.00  0.00     0.039 A 
ATOM     20  C   UNL d   1       5.013  -4.034   2.340  0.00  0.00     0.032 A 
BRANCH  18  21
ATOM     21  O   UNL d   1       8.358  -5.444   2.362  0.00  0.00    -0.356 OA
ATOM     22  C   UNL d   1       9.556  -5.363   1.595  0.00  0.00     0.210 C 
ENDBRANCH  18  21
ENDBRANCH  12  15
ENDBRANCH   1  11
BRANCH   7  23
ATOM     23  O   UNL d   1      -1.316   2.729  -0.080  0.00  0.00    -0.353 OA
ATOM     24  C   UNL d   1      -0.151   3.537   0.013  0.00  0.00     0.210 C 
ENDBRANCH   7  23
TORSDOF 4
