REMARK  9 active torsions:
REMARK  status: ('A' for Active; 'I' for Inactive)
REMARK    1  A    between atoms: C_10  and  N_1 
REMARK    2  A    between atoms: C_14  and  C_2 
REMARK    3  A    between atoms: S_11  and  C_5 
REMARK    4  A    between atoms: C_8  and  C_16 
REMARK    5  A    between atoms: C_9  and  C_19 
REMARK    6  A    between atoms: C_15  and  C_10 
REMARK    7  A    between atoms: C_19  and  S_11 
REMARK    8  A    between atoms: C_18  and  C_12 
REMARK    9  A    between atoms: O_34  and  C_20 
ROOT
ATOM      1  N   UNL d   1      -0.207  -1.426   0.184  0.00  0.00    -0.305 N 
ATOM      2  C   UNL d   1       0.954  -0.688  -0.003  0.00  0.00     0.135 C 
ATOM      3  N   UNL d   1       0.630   0.595   0.035  0.00  0.00    -0.283 N 
ATOM      4  HN  UNL d   1       1.263   1.373  -0.150  1.00  0.00     0.188 HD
ATOM      5  C   UNL d   1      -1.175  -0.506   0.492  0.00  0.00     0.163 C 
ATOM      6  N   UNL d   1      -0.696   0.705   0.364  0.00  0.00    -0.278 N 
ATOM      7  HN  UNL d   1      -1.216   1.574   0.487  1.00  0.00     0.189 HD
ENDROOT
BRANCH   5   8
ATOM      8  S   UNL d   1      -2.783  -0.912   0.990  0.00  0.00    -0.088 SA
BRANCH   8   9
ATOM      9  C   UNL d   1      -3.504   0.745   1.135  0.00  0.00     0.123 C 
BRANCH   9  10
ATOM     10  C   UNL d   1      -4.902   0.745   1.712  0.00  0.00    -0.014 A 
ATOM     11  C   UNL d   1      -5.975   1.120   0.871  0.00  0.00     0.026 A 
ATOM     12  C   UNL d   1      -7.296   1.145   1.345  0.00  0.00     0.010 A 
ATOM     13  C   UNL d   1      -7.559   0.768   2.663  0.00  0.00     0.018 A 
ATOM     14  C   UNL d   1      -6.513   0.387   3.502  0.00  0.00     0.038 A 
ATOM     15  C   UNL d   1      -5.193   0.393   3.042  0.00  0.00     0.075 A 
BRANCH  12  16
ATOM     16  C   UNL d   1      -8.443   1.541   0.481  0.00  0.00     0.155 C 
ATOM     17  O   UNL d   1      -9.575   1.147   0.756  0.00  0.00    -0.293 OA
ATOM     18  C   UNL d   1      -8.203   2.424  -0.717  0.00  0.00     0.096 C 
ENDBRANCH  12  16
BRANCH  15  19
ATOM     19  O   UNL d   1      -4.267  -0.085   3.928  0.00  0.00    -0.355 OA
ATOM     20  C   UNL d   1      -3.268   0.860   4.304  0.00  0.00     0.210 C 
ENDBRANCH  15  19
ENDBRANCH   9  10
ENDBRANCH   8   9
ENDBRANCH   5   8
BRANCH   1  21
ATOM     21  C   UNL d   1      -0.355  -2.867   0.104  0.00  0.00     0.198 C 
BRANCH  21  22
ATOM     22  C   UNL d   1      -1.367  -3.311  -0.888  0.00  0.00     0.070 A 
ATOM     23  O   UNL d   1      -2.052  -4.444  -0.554  0.00  0.00    -0.325 OA
ATOM     24  C   UNL d   1      -2.923  -4.698  -1.561  0.00  0.00     0.142 A 
ATOM     25  C   UNL d   1      -2.799  -3.751  -2.551  0.00  0.00     0.027 A 
ATOM     26  C   UNL d   1      -1.788  -2.858  -2.123  0.00  0.00     0.036 A 
ENDBRANCH  21  22
ENDBRANCH   1  21
BRANCH   2  27
ATOM     27  C   UNL d   1       2.310  -1.193  -0.240  0.00  0.00     0.009 A 
ATOM     28  C   UNL d   1       3.131  -0.551  -1.176  0.00  0.00     0.016 A 
ATOM     29  C   UNL d   1       4.418  -1.029  -1.449  0.00  0.00     0.017 A 
ATOM     30  C   UNL d   1       4.914  -2.161  -0.787  0.00  0.00     0.048 A 
ATOM     31  C   UNL d   1       4.118  -2.767   0.194  0.00  0.00     0.017 A 
ATOM     32  C   UNL d   1       2.840  -2.274   0.477  0.00  0.00     0.016 A 
BRANCH  30  33
ATOM     33  C   UNL d   1       6.284  -2.700  -1.122  0.00  0.00     0.417 C 
ATOM     34  F   UNL d   1       6.561  -3.888  -0.514  0.00  0.00    -0.166 F 
ATOM     35  F   UNL d   1       6.442  -2.923  -2.457  0.00  0.00    -0.166 F 
ATOM     36  F   UNL d   1       7.285  -1.852  -0.762  0.00  0.00    -0.166 F 
ENDBRANCH  30  33
ENDBRANCH   2  27
TORSDOF 9
