REMARK  6 active torsions:
REMARK  status: ('A' for Active; 'I' for Inactive)
REMARK    1  A    between atoms: N_2  and  C_1 
REMARK    2  A    between atoms: N_4  and  C_1 
REMARK    3  A    between atoms: C_3  and  N_2 
REMARK    4  A    between atoms: C_8  and  N_4 
REMARK    5  A    between atoms: O_14  and  C_9 
REMARK    6  A    between atoms: C_17  and  O_14 
ROOT
ATOM      1  C   UNL d   1       1.088  -0.039   0.081  0.00  0.00     0.177 C 
ATOM      2  S   UNL d   1       0.752   0.787  -1.342  0.00  0.00    -0.040 SA
ENDROOT
BRANCH   1   3
ATOM      3  N   UNL d   1       2.406  -0.360   0.275  0.00  0.00    -0.319 N 
ATOM      4  H   UNL d   1       2.992  -0.155  -0.521  0.00  0.00     0.169 HD
BRANCH   3   5
ATOM      5  C   UNL d   1       3.021  -0.938   1.391  0.00  0.00     0.106 A 
ATOM      6  N   UNL d   1       2.342  -1.046   2.555  0.00  0.00    -0.352 N 
ATOM      7  C   UNL d   1       3.005  -1.581   3.606  0.00  0.00     0.089 A 
ATOM      8  HN  UNL d   1       1.373  -0.739   2.638  1.00  0.00     0.166 HD
ATOM      9  C   UNL d   1       4.312  -2.033   3.546  0.00  0.00     0.017 A 
ATOM     10  C   UNL d   1       4.988  -1.923   2.340  0.00  0.00     0.005 A 
ATOM     11  C   UNL d   1       4.338  -1.356   1.246  0.00  0.00     0.048 A 
ENDBRANCH   3   5
ENDBRANCH   1   3
BRANCH   1  12
ATOM     12  N   UNL d   1       0.213  -0.432   1.061  0.00  0.00    -0.333 N 
ATOM     13  H   UNL d   1       0.665  -0.573   1.965  0.00  0.00     0.168 HD
BRANCH  12  14
ATOM     14  C   UNL d   1      -1.185  -0.603   1.030  0.00  0.00     0.034 A 
ATOM     15  C   UNL d   1      -1.897  -0.852  -0.143  0.00  0.00     0.032 A 
ATOM     16  C   UNL d   1      -3.286  -1.016  -0.121  0.00  0.00     0.039 A 
ATOM     17  C   UNL d   1      -3.983  -0.937   1.080  0.00  0.00     0.068 A 
ATOM     18  C   UNL d   1      -3.270  -0.757   2.267  0.00  0.00     0.039 A 
ATOM     19  C   UNL d   1      -1.878  -0.599   2.243  0.00  0.00     0.032 A 
BRANCH  17  20
ATOM     20  O   UNL d   1      -5.340  -1.065   1.207  0.00  0.00    -0.352 OA
BRANCH  20  21
ATOM     21  C   UNL d   1      -6.096  -0.669   0.059  0.00  0.00     0.171 C 
ATOM     22  C   UNL d   1      -7.572  -0.742   0.407  0.00  0.00     0.034 C 
ENDBRANCH  20  21
ENDBRANCH  17  20
ENDBRANCH  12  14
ENDBRANCH   1  12
TORSDOF 6
