REMARK  4 active torsions:
REMARK  status: ('A' for Active; 'I' for Inactive)
REMARK    1  A    between atoms: C_17  and  N_1 
REMARK       I    between atoms: N_3  and  C_13 
REMARK    2  A    between atoms: S_16  and  C_6 
REMARK    3  A    between atoms: C_13  and  C_19 
REMARK    4  A    between atoms: C_19  and  S_16 
ROOT
ATOM      1  N   UNL d   1      -0.131   0.659   0.271  0.00  0.00    -0.273 N 
ATOM      2  C   UNL d   1       0.968   0.082  -0.372  0.00  0.00     0.163 A 
ATOM      3  N   UNL d   1       0.611  -1.047  -0.952  0.00  0.00    -0.281 N 
ATOM      4  HN  UNL d   1       1.216  -1.652  -1.508  1.00  0.00     0.188 HD
ATOM      5  C   UNL d   1      -1.155  -0.256   0.031  0.00  0.00     0.168 A 
ATOM      6  N   UNL d   1      -0.707  -1.267  -0.681  0.00  0.00    -0.278 N 
ATOM      7  HN  UNL d   1      -1.252  -2.077  -0.980  1.00  0.00     0.189 HD
ATOM      8  C   UNL d   1       2.323   0.553  -0.395  0.00  0.00     0.120 A 
ATOM      9  O   UNL d   1       2.928   1.198   0.656  0.00  0.00    -0.319 OA
ATOM     10  C   UNL d   1       3.239   0.465  -1.432  0.00  0.00     0.043 A 
ATOM     11  C   UNL d   1       4.173   1.565   0.263  0.00  0.00     0.142 A 
ATOM     12  C   UNL d   1       4.413   1.141  -1.020  0.00  0.00     0.027 A 
ENDROOT
BRANCH   5  13
ATOM     13  S   UNL d   1      -2.854  -0.045   0.379  0.00  0.00    -0.083 SA
BRANCH  13  14
ATOM     14  C   UNL d   1      -3.521  -1.626  -0.276  0.00  0.00     0.186 C 
BRANCH  14  15
ATOM     15  C   UNL d   1      -5.026  -1.736  -0.004  0.00  0.00     0.238 C 
ATOM     16  N   UNL d   1      -5.938  -1.569  -1.074  0.00  0.00    -0.279 N 
ATOM     17  C   UNL d   1      -5.623  -1.756  -2.469  0.00  0.00     0.059 A 
ATOM     18  C   UNL d   1      -7.344  -1.302  -0.809  0.00  0.00     0.059 A 
ATOM     19  C   UNL d   1      -6.245  -0.999  -3.481  0.00  0.00     0.033 A 
ATOM     20  C   UNL d   1      -4.776  -2.805  -2.872  0.00  0.00     0.031 A 
ATOM     21  C   UNL d   1      -5.993  -1.255  -4.837  0.00  0.00     0.021 A 
ATOM     22  S   UNL d   1      -7.387   0.303  -3.085  0.00  0.00    -0.086 SA
ATOM     23  C   UNL d   1      -5.129  -2.281  -5.209  0.00  0.00     0.002 A 
ATOM     24  C   UNL d   1      -4.524  -3.056  -4.229  0.00  0.00     0.002 A 
ATOM     25  C   UNL d   1      -8.108  -0.473  -1.656  0.00  0.00     0.033 A 
ATOM     26  C   UNL d   1      -9.460  -0.209  -1.386  0.00  0.00     0.021 A 
ATOM     27  C   UNL d   1     -10.088  -0.786  -0.286  0.00  0.00     0.002 A 
ATOM     28  C   UNL d   1      -9.361  -1.631   0.544  0.00  0.00     0.002 A 
ATOM     29  C   UNL d   1      -8.007  -1.884   0.286  0.00  0.00     0.031 A 
ATOM     30  O   UNL d   1      -5.371  -1.873   1.174  0.00  0.00    -0.272 OA
ENDBRANCH  14  15
ENDBRANCH  13  14
ENDBRANCH   5  13
BRANCH   1  31
ATOM     31  C   UNL d   1      -0.157   1.902   0.979  0.00  0.00     0.043 A 
ATOM     32  C   UNL d   1       0.636   2.977   0.546  0.00  0.00     0.030 A 
ATOM     33  C   UNL d   1       0.718   4.155   1.292  0.00  0.00     0.002 A 
ATOM     34  C   UNL d   1      -0.021   4.286   2.463  0.00  0.00     0.000 A 
ATOM     35  C   UNL d   1      -0.841   3.242   2.883  0.00  0.00     0.002 A 
ATOM     36  C   UNL d   1      -0.914   2.053   2.146  0.00  0.00     0.030 A 
ENDBRANCH   1  31
TORSDOF 4
