REMARK  4 active torsions:
REMARK  status: ('A' for Active; 'I' for Inactive)
REMARK    1  A    between atoms: C_2  and  S_1 
REMARK    2  A    between atoms: N_7  and  S_1 
REMARK    3  A    between atoms: C_4  and  C_15 
REMARK    4  A    between atoms: C_16  and  N_7 
ROOT
ATOM      1  N   UNL d   1       0.496  -0.774   1.288  0.00  0.00    -0.281 N 
ATOM      2  H   UNL d   1       0.317  -0.693   0.288  0.00  0.00     0.179 HD
ENDROOT
BRANCH   1   3
ATOM      3  S   UNL d   1       0.305   0.608   2.204  0.00  0.00     0.266 S 
ATOM      4  O   UNL d   1      -0.092   1.664   1.299  0.00  0.00    -0.200 OA
ATOM      5  O   UNL d   1      -0.507   0.278   3.360  0.00  0.00    -0.200 OA
BRANCH   3   6
ATOM      6  C   UNL d   1       1.929   0.996   2.774  0.00  0.00     0.118 A 
ATOM      7  C   UNL d   1       2.951   1.180   1.849  0.00  0.00     0.142 A 
ATOM      8  C   UNL d   1       4.234   1.512   2.274  0.00  0.00     0.086 A 
ATOM      9  F   UNL d   1       2.735   1.017   0.536  0.00  0.00    -0.204 F 
ATOM     10  C   UNL d   1       4.478   1.667   3.634  0.00  0.00     0.119 A 
ATOM     11  C   UNL d   1       3.463   1.491   4.571  0.00  0.00     0.044 A 
ATOM     12  F   UNL d   1       5.709   1.989   4.050  0.00  0.00    -0.206 F 
ATOM     13  C   UNL d   1       2.178   1.153   4.143  0.00  0.00     0.031 A 
ENDBRANCH   3   6
ENDBRANCH   1   3
BRANCH   1  14
ATOM     14  C   UNL d   1       0.853  -2.017   1.854  0.00  0.00     0.042 A 
ATOM     15  C   UNL d   1      -0.129  -2.860   2.367  0.00  0.00     0.031 A 
ATOM     16  C   UNL d   1       0.213  -4.145   2.805  0.00  0.00     0.016 A 
ATOM     17  C   UNL d   1       1.539  -4.596   2.733  0.00  0.00    -0.008 A 
ATOM     18  C   UNL d   1       2.519  -3.724   2.236  0.00  0.00     0.016 A 
ATOM     19  C   UNL d   1       2.175  -2.445   1.785  0.00  0.00     0.031 A 
BRANCH  17  20
ATOM     20  C   UNL d   1       1.916  -5.945   3.143  0.00  0.00     0.063 A 
ATOM     21  N   UNL d   1       3.199  -6.230   3.599  0.00  0.00    -0.292 N 
ATOM     22  N   UNL d   1       3.344  -7.506   3.910  0.00  0.00    -0.061 NA
ATOM     23  HN  UNL d   1       3.941  -5.535   3.685  1.00  0.00     0.183 HD
ATOM     24  S   UNL d   1       1.957  -8.401   3.647  0.00  0.00    -0.010 SA
ATOM     25  C   UNL d   1       1.073  -7.043   3.081  0.00  0.00     0.096 A 
ENDBRANCH  17  20
ENDBRANCH   1  14
TORSDOF 4
