REMARK  3 active torsions:
REMARK  status: ('A' for Active; 'I' for Inactive)
REMARK       I    between atoms: C_2  and  N_1 
REMARK    1  A    between atoms: C_10  and  C_2 
REMARK    2  A    between atoms: C_14  and  N_8 
REMARK    3  A    between atoms: N_9  and  C_10 
ROOT
ATOM      1  N   UNL d   1       1.438  -2.683   3.353  0.00  0.00    -0.279 N 
ATOM      2  C   UNL d   1       0.057  -2.396   3.196  0.00  0.00     0.257 C 
ATOM      3  S   UNL d   1       4.246  -3.396   2.148  0.00  0.00    -0.086 SA
ATOM      4  C   UNL d   1       2.426  -1.615   3.287  0.00  0.00     0.059 A 
ATOM      5  C   UNL d   1       1.965  -4.000   3.631  0.00  0.00     0.059 A 
ATOM      6  C   UNL d   1       3.736  -1.831   2.816  0.00  0.00     0.033 A 
ATOM      7  C   UNL d   1       3.200  -4.440   3.127  0.00  0.00     0.033 A 
ATOM      8  O   UNL d   1      -0.395  -1.245   3.148  0.00  0.00    -0.271 OA
ATOM      9  C   UNL d   1       2.119  -0.307   3.719  0.00  0.00     0.031 A 
ATOM     10  C   UNL d   1       1.268  -4.880   4.478  0.00  0.00     0.031 A 
ATOM     11  C   UNL d   1       3.659  -5.747   3.379  0.00  0.00     0.021 A 
ATOM     12  C   UNL d   1       4.681  -0.787   2.787  0.00  0.00     0.021 A 
ATOM     13  C   UNL d   1       1.723  -6.181   4.726  0.00  0.00     0.002 A 
ATOM     14  C   UNL d   1       3.055   0.731   3.675  0.00  0.00     0.002 A 
ATOM     15  C   UNL d   1       4.341   0.491   3.214  0.00  0.00     0.002 A 
ATOM     16  C   UNL d   1       2.912  -6.620   4.162  0.00  0.00     0.002 A 
ENDROOT
BRANCH   2  17
ATOM     17  C   UNL d   1      -0.938  -3.580   2.968  0.00  0.00     0.375 C 
BRANCH  17  18
ATOM     18  N   UNL d   1      -2.009  -3.182   2.031  0.00  0.00     0.100 N 
ATOM     19  C   UNL d   1      -1.541  -3.125   0.633  0.00  0.00     0.292 C 
ATOM     20  C   UNL d   1      -1.423  -4.500  -0.055  0.00  0.00     0.153 C 
ATOM     21  N   UNL d   1      -2.727  -5.179  -0.040  0.00  0.00    -0.378 N 
ATOM     22  C   UNL d   1      -3.312  -5.320   1.310  0.00  0.00     0.153 C 
ATOM     23  C   UNL d   1      -3.237  -3.994   2.119  0.00  0.00     0.292 C 
BRANCH  21  24
ATOM     24  C   UNL d   1      -2.963  -6.202  -0.963  0.00  0.00     0.030 A 
ATOM     25  C   UNL d   1      -4.276  -6.612  -1.252  0.00  0.00     0.029 A 
ATOM     26  C   UNL d   1      -4.554  -7.551  -2.255  0.00  0.00     0.002 A 
ATOM     27  C   UNL d   1      -3.519  -8.111  -2.994  0.00  0.00     0.000 A 
ATOM     28  C   UNL d   1      -2.209  -7.743  -2.718  0.00  0.00     0.002 A 
ATOM     29  C   UNL d   1      -1.940  -6.803  -1.715  0.00  0.00     0.029 A 
ENDBRANCH  21  24
ENDBRANCH  17  18
ENDBRANCH   2  17
TORSDOF 3
