REMARK  4 active torsions:
REMARK  status: ('A' for Active; 'I' for Inactive)
REMARK    1  A    between atoms: N_2  and  C_1 
REMARK       I    between atoms: C_3  and  N_2 
REMARK    2  A    between atoms: C_8  and  C_3 
REMARK    3  A    between atoms: N_7  and  C_8 
REMARK    4  A    between atoms: C_14  and  N_7 
ROOT
ATOM      1  N   UNL d   1       0.285   2.464   0.086  0.00  0.00    -0.325 N 
ATOM      2  C   UNL d   1      -0.329   3.333   0.978  0.00  0.00     0.250 C 
ATOM      3  O   UNL d   1      -1.062   3.010   1.910  0.00  0.00    -0.271 OA
ATOM      4  H   UNL d   1       1.167   2.795  -0.280  0.00  0.00     0.169 HD
ENDROOT
BRANCH   1   5
ATOM      5  C   UNL d   1       0.111   1.063   0.111  0.00  0.00     0.046 A 
ATOM      6  C   UNL d   1      -1.169   0.464   0.059  0.00  0.00    -0.035 A 
ATOM      7  C   UNL d   1      -1.264  -0.940   0.027  0.00  0.00     0.009 A 
ATOM      8  C   UNL d   1      -2.468   1.219  -0.025  0.00  0.00     0.050 C 
ATOM      9  C   UNL d   1      -0.127  -1.741   0.013  0.00  0.00     0.001 A 
ATOM     10  C   UNL d   1       1.130  -1.150   0.047  0.00  0.00     0.009 A 
ATOM     11  C   UNL d   1       1.267   0.247   0.114  0.00  0.00    -0.035 A 
ATOM     12  C   UNL d   1       2.666   0.797   0.206  0.00  0.00     0.050 C 
ENDBRANCH   1   5
BRANCH   2  13
ATOM     13  C   UNL d   1       0.070   4.797   0.746  0.00  0.00     0.372 C 
BRANCH  13  14
ATOM     14  N   UNL d   1       0.800   5.346   1.901  0.00  0.00     0.091 N 
ATOM     15  H   UNL d   1       0.222   5.193   2.733  0.00  0.00     0.316 HD
BRANCH  14  16
ATOM     16  C   UNL d   1       2.100   4.706   2.098  0.00  0.00     0.265 C 
ATOM     17  C   UNL d   1       2.810   5.334   3.287  0.00  0.00     0.037 C 
ENDBRANCH  14  16
ENDBRANCH  13  14
ENDBRANCH   2  13
TORSDOF 4
