REMARK  5 active torsions:
REMARK  status: ('A' for Active; 'I' for Inactive)
REMARK    1  A    between atoms: C_4  and  C_10 
REMARK    2  A    between atoms: S_13  and  C_5 
REMARK    3  A    between atoms: C_10  and  C_15 
REMARK    4  A    between atoms: O_19  and  C_10 
REMARK    5  A    between atoms: C_15  and  S_13 
ROOT
ATOM      1  C   UNL d   1       0.174  -0.685  -0.082  0.00  0.00     0.065 A 
ATOM      2  S   UNL d   1      -1.392  -1.403  -0.098  0.00  0.00    -0.096 SA
ATOM      3  C   UNL d   1       0.078   0.702  -0.049  0.00  0.00     0.059 A 
ATOM      4  C   UNL d   1       1.443  -1.260  -0.090  0.00  0.00     0.090 A 
ATOM      5  C   UNL d   1      -1.281   1.169  -0.049  0.00  0.00    -0.027 A 
ATOM      6  C   UNL d   1      -2.171   0.113  -0.067  0.00  0.00     0.059 A 
ATOM      7  N   UNL d   1       2.531  -0.462  -0.053  0.00  0.00    -0.346 N 
ATOM      8  HN  UNL d   1       3.472  -0.856  -0.047  1.00  0.00     0.167 HD
ATOM      9  N   UNL d   1       1.173   1.510  -0.024  0.00  0.00    -0.351 N 
ATOM     10  HN  UNL d   1       1.109   2.528  -0.006  1.00  0.00     0.166 HD
ATOM     11  C   UNL d   1       2.337   0.857  -0.026  0.00  0.00     0.181 A 
ATOM     12  C   UNL d   1      -1.694   2.602  -0.035  0.00  0.00     0.051 C 
ENDROOT
BRANCH   4  13
ATOM     13  S   UNL d   1       1.656  -3.015  -0.184  0.00  0.00    -0.108 SA
BRANCH  13  14
ATOM     14  C   UNL d   1       3.305  -3.217   0.565  0.00  0.00     0.121 C 
BRANCH  14  15
ATOM     15  C   UNL d   1       3.413  -2.937   2.067  0.00  0.00     0.235 C 
BRANCH  15  16
ATOM     16  C   UNL d   1       2.448  -3.775   2.923  0.00  0.00     0.413 C 
ATOM     17  F   UNL d   1       1.976  -4.865   2.284  0.00  0.00    -0.168 F 
ATOM     18  F   UNL d   1       3.097  -4.230   4.027  0.00  0.00    -0.168 F 
ATOM     19  F   UNL d   1       1.397  -3.044   3.352  0.00  0.00    -0.168 F 
ENDBRANCH  15  16
BRANCH  15  20
ATOM     20  O   UNL d   1       4.805  -3.133   2.434  0.00  0.00    -0.386 OA
ATOM     21  H   UNL d   1       4.862  -3.951   2.965  0.00  0.00     0.210 HD
ENDBRANCH  15  20
ENDBRANCH  14  15
ENDBRANCH  13  14
ENDBRANCH   4  13
TORSDOF 5
