REMARK  2 active torsions:
REMARK  status: ('A' for Active; 'I' for Inactive)
REMARK    1  A    between atoms: C_12  and  C_4 
REMARK    2  A    between atoms: C_14  and  C_10 
ROOT
ATOM      1  N   UNL d   1      -0.533  -0.798   0.042  0.00  0.00    -0.214 N 
ATOM      2  N   UNL d   1       0.436  -1.746   0.272  0.00  0.00    -0.293 N 
ATOM      3  HN  UNL d   1       0.199  -2.682   0.598  1.00  0.00     0.187 HD
ATOM      4  C   UNL d   1      -1.901  -1.014  -0.059  0.00  0.00     0.154 A 
ATOM      5  C   UNL d   1      -0.396   0.566  -0.043  0.00  0.00     0.182 A 
ATOM      6  N   UNL d   1      -2.511   0.159  -0.154  0.00  0.00    -0.281 N 
ATOM      7  HN  UNL d   1      -3.519   0.300  -0.220  1.00  0.00     0.188 HD
ATOM      8  N   UNL d   1      -1.560   1.154  -0.151  0.00  0.00    -0.277 N 
ATOM      9  HN  UNL d   1      -1.730   2.157  -0.220  1.00  0.00     0.189 HD
ATOM     10  C   UNL d   1       1.673  -1.394   0.056  0.00  0.00     0.046 C 
ATOM     11  S   UNL d   1       1.152   1.310   0.043  0.00  0.00    -0.085 SA
ATOM     12  C   UNL d   1       2.108  -0.083  -0.593  0.00  0.00     0.142 C 
ENDROOT
BRANCH   4  13
ATOM     13  C   UNL d   1      -2.567  -2.320  -0.057  0.00  0.00     0.011 A 
ATOM     14  C   UNL d   1      -3.874  -2.425   0.442  0.00  0.00     0.017 A 
ATOM     15  C   UNL d   1      -4.544  -3.652   0.446  0.00  0.00     0.025 A 
ATOM     16  C   UNL d   1      -3.913  -4.785  -0.060  0.00  0.00     0.034 A 
ATOM     17  C   UNL d   1      -2.623  -4.700  -0.573  0.00  0.00     0.025 A 
ATOM     18 CL   UNL d   1      -4.733  -6.297  -0.061  0.00  0.00    -0.084 Cl
ATOM     19  C   UNL d   1      -1.956  -3.472  -0.575  0.00  0.00     0.017 A 
ENDBRANCH   4  13
BRANCH  10  20
ATOM     20  C   UNL d   1       2.747  -2.375   0.404  0.00  0.00    -0.011 A 
ATOM     21  C   UNL d   1       3.951  -2.429  -0.308  0.00  0.00     0.013 A 
ATOM     22  C   UNL d   1       4.955  -3.317   0.082  0.00  0.00     0.001 A 
ATOM     23  C   UNL d   1       4.757  -4.163   1.172  0.00  0.00     0.000 A 
ATOM     24  C   UNL d   1       3.548  -4.138   1.865  0.00  0.00     0.001 A 
ATOM     25  C   UNL d   1       2.542  -3.250   1.479  0.00  0.00     0.013 A 
ENDBRANCH  10  20
TORSDOF 2
