REMARK  4 active torsions:
REMARK  status: ('A' for Active; 'I' for Inactive)
REMARK    1  A    between atoms: C_7  and  C_1 
REMARK    2  A    between atoms: C_12  and  C_3 
REMARK    3  A    between atoms: C_4  and  C_9 
REMARK    4  A    between atoms: C_5  and  C_8 
ROOT
ATOM      1  C   UNL d   1       5.833  -1.730   0.160  0.00  0.00     0.086 A 
ATOM      2  O   UNL d   1       5.223  -0.604   0.618  0.00  0.00    -0.310 OA
ATOM      3  C   UNL d   1       3.224   0.747   0.050  0.00  0.00     0.048 C 
ATOM      4  C   UNL d   1       4.107  -0.350  -0.152  0.00  0.00     0.076 A 
ATOM      5  C   UNL d   1       5.126  -2.233  -0.908  0.00  0.00     0.041 A 
ATOM      6  C   UNL d   1       4.044  -1.345  -1.120  0.00  0.00     0.040 A 
ENDROOT
BRANCH   1   7
ATOM      7  C   UNL d   1       7.059  -2.127   0.838  0.00  0.00    -0.001 A 
ATOM      8  C   UNL d   1       7.414  -3.480   0.919  0.00  0.00     0.030 A 
ATOM      9  C   UNL d   1       8.654  -3.879   1.449  0.00  0.00     0.049 A 
ATOM     10  C   UNL d   1       9.537  -2.897   1.922  0.00  0.00     0.032 A 
ATOM     11  C   UNL d   1       9.200  -1.535   1.865  0.00  0.00     0.049 A 
ATOM     12  C   UNL d   1       7.950  -1.166   1.336  0.00  0.00     0.030 A 
BRANCH   9  13
ATOM     13  C   UNL d   1       9.028  -5.342   1.454  0.00  0.00     0.417 C 
ATOM     14  F   UNL d   1      10.304  -5.574   1.867  0.00  0.00    -0.166 F 
ATOM     15  F   UNL d   1       8.227  -6.085   2.265  0.00  0.00    -0.166 F 
ATOM     16  F   UNL d   1       8.930  -5.900   0.215  0.00  0.00    -0.166 F 
ENDBRANCH   9  13
BRANCH  11  17
ATOM     17  C   UNL d   1      10.175  -0.467   2.300  0.00  0.00     0.417 C 
ATOM     18  F   UNL d   1      11.369  -0.966   2.725  0.00  0.00    -0.166 F 
ATOM     19  F   UNL d   1      10.471   0.400   1.296  0.00  0.00    -0.166 F 
ATOM     20  F   UNL d   1       9.699   0.293   3.325  0.00  0.00    -0.166 F 
ENDBRANCH  11  17
ENDBRANCH   1   7
BRANCH   3  21
ATOM     21  C   UNL d   1       3.411   1.634   1.037  0.00  0.00    -0.000 A 
ATOM     22  C   UNL d   1       2.483   2.789   1.245  0.00  0.00     0.189 A 
ATOM     23  C   UNL d   1       3.031   3.576   2.357  0.00  0.00     0.021 A 
ATOM     24  O   UNL d   1       1.475   3.037   0.615  0.00  0.00    -0.287 OA
ATOM     25  C   UNL d   1       2.542   4.748   2.904  0.00  0.00     0.016 A 
ATOM     26  C   UNL d   1       4.199   2.971   2.819  0.00  0.00    -0.040 A 
ATOM     27  C   UNL d   1       3.271   5.329   3.944  0.00  0.00     0.001 A 
ATOM     28  C   UNL d   1       4.455   4.731   4.412  0.00  0.00     0.001 A 
ATOM     29  C   UNL d   1       4.927   3.541   3.852  0.00  0.00     0.008 A 
ATOM     30  C   UNL d   1       4.505   1.712   2.074  0.00  0.00     0.082 A 
ENDBRANCH   3  21
TORSDOF 4
