REMARK  7 active torsions:
REMARK  status: ('A' for Active; 'I' for Inactive)
REMARK    1  A    between atoms: C_7  and  C_1 
REMARK    2  A    between atoms: C_5  and  C_9 
REMARK    3  A    between atoms: C_6  and  C_10 
REMARK    4  A    between atoms: S_13  and  C_7 
REMARK    5  A    between atoms: C_12  and  N_15 
REMARK    6  A    between atoms: C_27  and  S_13 
REMARK    7  A    between atoms: C_14  and  C_27 
REMARK       I    between atoms: N_15  and  C_14 
ROOT
ATOM      1  C   UNL d   1       4.754  -4.275  -0.215  0.00  0.00     0.231 C 
ATOM      2  N   UNL d   1       6.009  -4.182   0.374  0.00  0.00    -0.326 N 
ATOM      3  O   UNL d   1       4.290  -5.312  -0.681  0.00  0.00    -0.272 OA
ATOM      4  H   UNL d   1       6.159  -3.415   1.020  0.00  0.00     0.169 HD
ENDROOT
BRANCH   1   5
ATOM      5  C   UNL d   1       3.975  -2.965  -0.150  0.00  0.00     0.185 C 
BRANCH   5   6
ATOM      6  S   UNL d   1       2.643  -2.908  -1.384  0.00  0.00    -0.077 SA
BRANCH   6   7
ATOM      7  C   UNL d   1       1.666  -4.214  -0.711  0.00  0.00     0.228 C 
ATOM      8  O   UNL d   1       1.357  -4.128   0.475  0.00  0.00    -0.279 OA
BRANCH   7   9
ATOM      9  C   UNL d   1       1.231  -5.272  -1.615  0.00  0.00     0.085 A 
ATOM     10  S   UNL d   1       0.018  -6.329  -0.993  0.00  0.00    -0.083 SA
ATOM     11  C   UNL d   1      -0.079  -7.247  -2.432  0.00  0.00     0.017 A 
ATOM     12  C   UNL d   1      -0.927  -8.347  -2.675  0.00  0.00     0.020 A 
ATOM     13  C   UNL d   1       0.810  -6.776  -3.396  0.00  0.00     0.004 A 
ATOM     14  C   UNL d   1      -0.900  -8.960  -3.929  0.00  0.00     0.001 A 
ATOM     15  C   UNL d   1      -0.044  -8.501  -4.917  0.00  0.00     0.001 A 
ATOM     16  C   UNL d   1       0.814  -7.429  -4.658  0.00  0.00     0.014 A 
ATOM     17  C   UNL d   1       1.597  -5.671  -2.891  0.00  0.00     0.067 A 
ATOM     18 CL   UNL d   1       2.849  -5.011  -3.879  0.00  0.00    -0.082 Cl
ENDBRANCH   7   9
ENDBRANCH   6   7
ENDBRANCH   5   6
ENDBRANCH   1   5
BRANCH   2  19
ATOM     19  C   UNL d   1       6.939  -5.236   0.410  0.00  0.00     0.036 A 
ATOM     20  C   UNL d   1       7.067  -6.166  -0.629  0.00  0.00     0.045 A 
ATOM     21  C   UNL d   1       8.019  -7.193  -0.562  0.00  0.00     0.050 A 
ATOM     22  C   UNL d   1       8.821  -7.304   0.584  0.00  0.00     0.032 A 
ATOM     23  C   UNL d   1       8.701  -6.383   1.638  0.00  0.00     0.050 A 
ATOM     24  C   UNL d   1       7.777  -5.334   1.524  0.00  0.00     0.045 A 
BRANCH  21  25
ATOM     25  C   UNL d   1       8.182  -8.149  -1.723  0.00  0.00     0.417 C 
ATOM     26  F   UNL d   1       9.159  -9.078  -1.522  0.00  0.00    -0.166 F 
ATOM     27  F   UNL d   1       7.050  -8.853  -1.993  0.00  0.00    -0.166 F 
ATOM     28  F   UNL d   1       8.515  -7.508  -2.877  0.00  0.00    -0.166 F 
ENDBRANCH  21  25
BRANCH  23  29
ATOM     29  C   UNL d   1       9.525  -6.521   2.895  0.00  0.00     0.417 C 
ATOM     30  F   UNL d   1      10.441  -7.527   2.840  0.00  0.00    -0.166 F 
ATOM     31  F   UNL d   1      10.227  -5.389   3.179  0.00  0.00    -0.166 F 
ATOM     32  F   UNL d   1       8.758  -6.770   3.990  0.00  0.00    -0.166 F 
ENDBRANCH  23  29
ENDBRANCH   2  19
TORSDOF 7
