REMARK  5 active torsions:
REMARK  status: ('A' for Active; 'I' for Inactive)
REMARK    1  A    between atoms: C_15  and  N_1 
REMARK    2  A    between atoms: S_11  and  C_5 
REMARK       I    between atoms: C_8  and  N_10 
REMARK       I    between atoms: N_14  and  C_8 
REMARK       I    between atoms: N_10  and  C_12 
REMARK    3  A    between atoms: C_21  and  S_11 
REMARK    4  A    between atoms: C_12  and  C_21 
REMARK    5  A    between atoms: C_22  and  N_14 
ROOT
ATOM      1  N   UNL d   1       0.022  -0.807   0.030  0.00  0.00    -0.305 N 
ATOM      2  C   UNL d   1       1.310  -0.279  -0.016  0.00  0.00     0.142 C 
ATOM      3  N   UNL d   1       1.241   1.038  -0.051  0.00  0.00    -0.282 N 
ATOM      4  HN  UNL d   1       2.033   1.672  -0.155  1.00  0.00     0.188 HD
ATOM      5  C   UNL d   1      -0.774   0.321   0.182  0.00  0.00     0.163 C 
ATOM      6  N   UNL d   1      -0.054   1.408   0.076  0.00  0.00    -0.278 N 
ATOM      7  HN  UNL d   1      -0.406   2.365   0.087  1.00  0.00     0.189 HD
ATOM      8  C   UNL d   1       2.586  -0.932  -0.063  0.00  0.00     0.050 A 
ATOM      9  S   UNL d   1       3.755  -0.413  -1.220  0.00  0.00    -0.098 SA
ATOM     10  C   UNL d   1       3.122  -1.889   0.776  0.00  0.00     0.023 A 
ATOM     11  C   UNL d   1       4.951  -1.452  -0.587  0.00  0.00     0.050 A 
ATOM     12  C   UNL d   1       4.477  -2.206   0.460  0.00  0.00     0.009 A 
ENDROOT
BRANCH   5  13
ATOM     13  S   UNL d   1      -2.469   0.393   0.502  0.00  0.00    -0.083 SA
BRANCH  13  14
ATOM     14  C   UNL d   1      -2.600   2.060   1.296  0.00  0.00     0.185 C 
BRANCH  14  15
ATOM     15  C   UNL d   1      -2.540   3.277   0.368  0.00  0.00     0.235 C 
ATOM     16  N   UNL d   1      -3.215   3.288  -0.826  0.00  0.00    -0.278 N 
ATOM     17  C   UNL d   1      -4.421   2.659  -1.012  0.00  0.00     0.327 C 
ATOM     18  H   UNL d   1      -3.090   4.147  -1.332  0.00  0.00     0.173 HD
ATOM     19  N   UNL d   1      -4.665   2.426  -2.354  0.00  0.00    -0.309 N 
ATOM     20  O   UNL d   1      -5.142   2.292  -0.085  0.00  0.00    -0.247 OA
ATOM     21  H   UNL d   1      -4.214   3.042  -3.015  0.00  0.00     0.170 HD
ATOM     22  O   UNL d   1      -1.995   4.329   0.720  0.00  0.00    -0.272 OA
BRANCH  19  23
ATOM     23  C   UNL d   1      -5.212   1.236  -2.866  0.00  0.00     0.036 A 
ATOM     24  C   UNL d   1      -5.601   0.168  -2.049  0.00  0.00     0.029 A 
ATOM     25  C   UNL d   1      -5.941  -1.060  -2.610  0.00  0.00     0.002 A 
ATOM     26  C   UNL d   1      -5.913  -1.229  -3.992  0.00  0.00     0.000 A 
ATOM     27  C   UNL d   1      -5.577  -0.153  -4.814  0.00  0.00     0.002 A 
ATOM     28  C   UNL d   1      -5.231   1.077  -4.252  0.00  0.00     0.029 A 
ENDBRANCH  19  23
ENDBRANCH  14  15
ENDBRANCH  13  14
ENDBRANCH   5  13
BRANCH   1  29
ATOM     29  C   UNL d   1      -0.395  -2.189  -0.285  0.00  0.00     0.093 C 
ATOM     30  C   UNL d   1       0.216  -2.659  -1.627  0.00  0.00     0.026 C 
ATOM     31  C   UNL d   1       0.015  -4.138  -1.935  0.00  0.00     0.002 C 
ATOM     32  C   UNL d   1       0.539  -4.996  -0.795  0.00  0.00     0.000 C 
ATOM     33  C   UNL d   1      -0.233  -4.685   0.480  0.00  0.00     0.002 C 
ATOM     34  C   UNL d   1      -0.193  -3.200   0.872  0.00  0.00     0.026 C 
ENDBRANCH   1  29
TORSDOF 5
