REMARK  5 active torsions:
REMARK  status: ('A' for Active; 'I' for Inactive)
REMARK    1  A    between atoms: C_9  and  N_1 
REMARK    2  A    between atoms: N_7  and  C_5 
REMARK       I    between atoms: C_8  and  N_7 
REMARK       I    between atoms: N_10  and  C_8 
REMARK    3  A    between atoms: C_18  and  N_10 
REMARK    4  A    between atoms: C_16  and  C_18 
REMARK    5  A    between atoms: O_22  and  C_19 
ROOT
ATOM      1  N   UNL d   1       1.289  -0.526  -0.127  0.00  0.00    -0.259 N 
ATOM      2  C   UNL d   1       1.128   0.859  -0.037  0.00  0.00     0.059 C 
ATOM      3  N   UNL d   1       0.097  -1.152  -0.301  0.00  0.00    -0.302 N 
ATOM      4  HN  UNL d   1      -0.068  -2.133  -0.527  1.00  0.00     0.186 HD
ATOM      5  C   UNL d   1      -0.236   1.086   0.052  0.00  0.00     0.077 C 
ATOM      6  C   UNL d   1      -0.807  -0.196  -0.110  0.00  0.00     0.139 C 
ATOM      7  C   UNL d   1       2.268   1.812  -0.138  0.00  0.00     0.073 C 
ENDROOT
BRANCH   5   8
ATOM      8  N   UNL d   1      -0.984   2.251   0.189  0.00  0.00    -0.306 N 
ATOM      9  C   UNL d   1      -0.537   3.525   0.387  0.00  0.00     0.321 C 
ATOM     10  N   UNL d   1      -1.486   4.506   0.371  0.00  0.00    -0.337 N 
ATOM     11  O   UNL d   1       0.617   3.894   0.569  0.00  0.00    -0.247 OA
ATOM     12  H   UNL d   1      -1.075   5.425   0.453  0.00  0.00     0.164 HD
ATOM     13  H   UNL d   1      -1.986   2.108   0.268  0.00  0.00     0.171 HD
BRANCH  10  14
ATOM     14  C   UNL d   1      -2.884   4.417   0.001  0.00  0.00     0.181 C 
BRANCH  14  15
ATOM     15  C   UNL d   1      -3.724   3.747   1.061  0.00  0.00     0.026 A 
ATOM     16  N   UNL d   1      -3.943   2.413   0.915  0.00  0.00    -0.368 N 
ATOM     17  C   UNL d   1      -4.710   1.811   1.854  0.00  0.00     0.088 A 
ATOM     18  HN  UNL d   1      -3.547   1.889   0.134  1.00  0.00     0.165 HD
ATOM     19  C   UNL d   1      -5.250   2.466   2.948  0.00  0.00     0.017 A 
ATOM     20  C   UNL d   1      -4.982   3.821   3.102  0.00  0.00     0.003 A 
ATOM     21  C   UNL d   1      -4.204   4.474   2.150  0.00  0.00     0.027 A 
ENDBRANCH  14  15
ENDBRANCH  10  14
ENDBRANCH   5   8
BRANCH   1  22
ATOM     22  C   UNL d   1       2.483  -1.301  -0.088  0.00  0.00     0.056 A 
ATOM     23  C   UNL d   1       3.586  -0.899   0.671  0.00  0.00     0.034 A 
ATOM     24  C   UNL d   1       4.774  -1.642   0.644  0.00  0.00     0.039 A 
ATOM     25  C   UNL d   1       4.867  -2.793  -0.138  0.00  0.00     0.068 A 
ATOM     26  C   UNL d   1       3.748  -3.220  -0.858  0.00  0.00     0.039 A 
ATOM     27  C   UNL d   1       2.553  -2.493  -0.820  0.00  0.00     0.034 A 
BRANCH  25  28
ATOM     28  O   UNL d   1       5.977  -3.581  -0.277  0.00  0.00    -0.356 OA
ATOM     29  C   UNL d   1       7.145  -3.172   0.425  0.00  0.00     0.210 C 
ENDBRANCH  25  28
ENDBRANCH   1  22
TORSDOF 5
