REMARK  3 active torsions:
REMARK  status: ('A' for Active; 'I' for Inactive)
REMARK    1  A    between atoms: C_6  and  C_1 
REMARK    2  A    between atoms: N_10  and  C_2 
REMARK    3  A    between atoms: C_12  and  C_6 
REMARK       I    between atoms: C_11  and  N_10 
ROOT
ATOM      1  C   UNL d   1       2.367   0.062   0.074  0.00  0.00     0.085 A 
ATOM      2  C   UNL d   1       1.482   1.135   0.073  0.00  0.00     0.069 A 
ATOM      3  C   UNL d   1       0.089   0.707   0.075  0.00  0.00     0.032 A 
ATOM      4  S   UNL d   1       1.558  -1.432   0.153  0.00  0.00    -0.065 SA
ATOM      5  C   UNL d   1       0.038  -0.688   0.058  0.00  0.00     0.088 A 
ATOM      6  N   UNL d   1      -1.051  -1.479   0.021  0.00  0.00    -0.354 N 
ATOM      7  HN  UNL d   1      -0.989  -2.497   0.005  1.00  0.00     0.166 HD
ATOM      8  C   UNL d   1      -1.177   1.361   0.145  0.00  0.00    -0.045 A 
ATOM      9  C   UNL d   1      -2.331   0.552   0.069  0.00  0.00     0.032 A 
ATOM     10  C   UNL d   1      -2.223  -0.829   0.005  0.00  0.00     0.006 A 
ATOM     11  C   UNL d   1      -1.400   2.842   0.292  0.00  0.00     0.049 C 
ATOM     12  C   UNL d   1      -3.461  -1.676  -0.049  0.00  0.00     0.068 C 
ENDROOT
BRANCH   1  13
ATOM     13  C   UNL d   1       3.823   0.140   0.040  0.00  0.00     0.201 C 
ATOM     14  O   UNL d   1       4.430   1.125   0.467  0.00  0.00    -0.286 OA
BRANCH  13  15
ATOM     15  C   UNL d   1       4.644  -0.941  -0.579  0.00  0.00     0.015 A 
ATOM     16  C   UNL d   1       5.869  -1.276   0.013  0.00  0.00     0.017 A 
ATOM     17  C   UNL d   1       6.662  -2.285  -0.541  0.00  0.00     0.025 A 
ATOM     18  C   UNL d   1       6.236  -2.951  -1.690  0.00  0.00     0.034 A 
ATOM     19  C   UNL d   1       5.034  -2.603  -2.304  0.00  0.00     0.025 A 
ATOM     20 CL   UNL d   1       7.203  -4.206  -2.360  0.00  0.00    -0.084 Cl
ATOM     21  C   UNL d   1       4.245  -1.586  -1.760  0.00  0.00     0.017 A 
ENDBRANCH  13  15
ENDBRANCH   1  13
BRANCH   2  22
ATOM     22  N   UNL d   1       2.006   2.436   0.084  0.00  0.00    -0.325 N 
ATOM     23  C   UNL d   1       1.615   3.418  -0.803  0.00  0.00     0.218 C 
ATOM     24  O   UNL d   1       0.756   3.307  -1.672  0.00  0.00    -0.274 OA
ATOM     25  C   UNL d   1       2.380   4.706  -0.620  0.00  0.00     0.117 C 
ATOM     26  H   UNL d   1       2.984   2.490   0.375  0.00  0.00     0.169 HD
ENDBRANCH   2  22
TORSDOF 3
