REMARK  5 active torsions:
REMARK  status: ('A' for Active; 'I' for Inactive)
REMARK    1  A    between atoms: N_2  and  S_1 
REMARK    2  A    between atoms: C_3  and  S_1 
REMARK    3  A    between atoms: C_7  and  N_2 
REMARK    4  A    between atoms: C_11  and  N_2 
REMARK    5  A    between atoms: C_12  and  C_7 
ROOT
ATOM      1  N   UNL d   1       0.456  -0.475   1.283  0.00  0.00    -0.298 N 
ENDROOT
BRANCH   1   2
ATOM      2  S   UNL d   1       1.126   0.031  -0.235  0.00  0.00     0.268 S 
ATOM      3  O   UNL d   1       2.516   0.381  -0.003  0.00  0.00    -0.200 OA
ATOM      4  O   UNL d   1       0.263   0.944  -0.943  0.00  0.00    -0.200 OA
BRANCH   2   5
ATOM      5  C   UNL d   1       1.243  -1.387  -1.323  0.00  0.00     0.120 A 
ATOM      6  S   UNL d   1      -0.202  -2.234  -1.667  0.00  0.00    -0.088 SA
ATOM      7  C   UNL d   1       0.634  -3.410  -2.588  0.00  0.00     0.051 A 
ATOM      8  C   UNL d   1       1.978  -3.129  -2.688  0.00  0.00     0.009 A 
ATOM      9  C   UNL d   1       2.327  -1.951  -1.970  0.00  0.00     0.033 A 
ENDBRANCH   2   5
ENDBRANCH   1   2
BRANCH   1  10
ATOM     10  C   UNL d   1      -1.031  -0.350   1.412  0.00  0.00     0.174 C 
BRANCH  10  11
ATOM     11  C   UNL d   1      -1.637   1.008   1.134  0.00  0.00    -0.040 A 
ATOM     12  C   UNL d   1      -2.579   1.159   0.103  0.00  0.00     0.009 A 
ATOM     13  C   UNL d   1      -3.106   2.414  -0.200  0.00  0.00     0.001 A 
ATOM     14  C   UNL d   1      -2.717   3.530   0.538  0.00  0.00     0.000 A 
ATOM     15  C   UNL d   1      -1.806   3.389   1.584  0.00  0.00     0.001 A 
ATOM     16  C   UNL d   1      -1.268   2.135   1.883  0.00  0.00     0.009 A 
ENDBRANCH  10  11
ENDBRANCH   1  10
BRANCH   1  17
ATOM     17  C   UNL d   1       1.010  -1.779   1.845  0.00  0.00     0.088 C 
ATOM     18  C   UNL d   1       2.540  -1.799   1.919  0.00  0.00     0.032 C 
ATOM     19  C   UNL d   1       0.490  -2.082   3.255  0.00  0.00     0.032 C 
ENDBRANCH   1  17
TORSDOF 5
