REMARK  3 active torsions:
REMARK  status: ('A' for Active; 'I' for Inactive)
REMARK    1  A    between atoms: C_13  and  N_2 
REMARK    2  A    between atoms: N_8  and  C_7 
REMARK    3  A    between atoms: C_14  and  C_13 
ROOT
ATOM      1  C   UNL d   1       0.285  -0.738  -0.005  0.00  0.00     0.135 A 
ATOM      2  N   UNL d   1       1.460   1.089  -0.018  0.00  0.00    -0.254 N 
ATOM      3  C   UNL d   1       0.171   0.643  -0.064  0.00  0.00     0.154 A 
ATOM      4  N   UNL d   1       2.331   0.057   0.076  0.00  0.00    -0.018 NA
ATOM      5  N   UNL d   1       1.619  -1.067   0.079  0.00  0.00    -0.277 N 
ATOM      6  HN  UNL d   1       1.998  -2.012   0.133  1.00  0.00     0.184 HD
ATOM      7  C   UNL d   1      -0.914  -1.489  -0.048  0.00  0.00     0.136 A 
ATOM      8  N   UNL d   1      -0.951   1.368  -0.138  0.00  0.00    -0.336 N 
ATOM      9  HN  UNL d   1      -0.980   2.388  -0.149  1.00  0.00     0.168 HD
ATOM     10  N   UNL d   1      -2.073  -0.766  -0.162  0.00  0.00    -0.337 N 
ATOM     11  HN  UNL d   1      -2.969  -1.249  -0.220  1.00  0.00     0.168 HD
ATOM     12  C   UNL d   1      -2.033   0.580  -0.196  0.00  0.00     0.183 A 
ENDROOT
BRANCH   2  13
ATOM     13  C   UNL d   1       1.923   2.462   0.059  0.00  0.00     0.189 C 
BRANCH  13  14
ATOM     14  C   UNL d   1       2.201   3.049  -1.306  0.00  0.00    -0.017 A 
ATOM     15  C   UNL d   1       1.264   3.817  -2.018  0.00  0.00     0.042 A 
ATOM     16 CL   UNL d   1      -0.261   4.274  -1.351  0.00  0.00    -0.084 Cl
ATOM     17  C   UNL d   1       1.554   4.282  -3.305  0.00  0.00     0.024 A 
ATOM     18  C   UNL d   1       2.790   4.015  -3.889  0.00  0.00     0.002 A 
ATOM     19  C   UNL d   1       3.743   3.286  -3.185  0.00  0.00     0.001 A 
ATOM     20  C   UNL d   1       3.450   2.801  -1.908  0.00  0.00     0.010 A 
ENDBRANCH  13  14
ENDBRANCH   2  13
BRANCH   7  21
ATOM     21  N   UNL d   1      -1.040  -2.881   0.056  0.00  0.00    -0.362 N 
ATOM     22  C   UNL d   1       0.183  -3.681   0.227  0.00  0.00     0.154 C 
ATOM     23  C   UNL d   1      -0.174  -5.163   0.505  0.00  0.00     0.291 C 
ATOM     24  N   UNL d   1      -1.047  -5.744  -0.539  0.00  0.00     0.087 N 
ATOM     25  C   UNL d   1      -2.276  -4.927  -0.641  0.00  0.00     0.291 C 
ATOM     26  C   UNL d   1      -1.381  -7.132  -0.228  0.00  0.00     0.310 C 
ATOM     27  C   UNL d   1      -1.983  -3.439  -0.934  0.00  0.00     0.154 C 
ENDBRANCH   7  21
TORSDOF 3
