REMARK  4 active torsions:
REMARK  status: ('A' for Active; 'I' for Inactive)
REMARK    1  A    between atoms: C_22  and  N_1 
REMARK    2  A    between atoms: C_21  and  C_6 
REMARK    3  A    between atoms: C_9  and  C_17 
REMARK       I    between atoms: C_17  and  N_20 
REMARK    4  A    between atoms: N_20  and  C_21 
ROOT
ATOM      1  C   UNL d   1       4.447   1.983   0.516  0.00  0.00     0.252 C 
ATOM      2  N   UNL d   1       3.365   1.138   0.408  0.00  0.00    -0.351 N 
ATOM      3  O   UNL d   1       4.307   3.203   0.560  0.00  0.00    -0.268 OA
ATOM      4  H   UNL d   1       3.415   0.130   0.478  0.00  0.00     0.163 HD
ENDROOT
BRANCH   2   5
ATOM      5  C   UNL d   1       2.047   1.716   0.290  0.00  0.00     0.183 C 
BRANCH   5   6
ATOM      6  C   UNL d   1       0.984   0.683   0.147  0.00  0.00     0.069 A 
ATOM      7  N   UNL d   1       1.199  -0.641   0.224  0.00  0.00    -0.280 N 
ATOM      8  N   UNL d   1      -0.055  -1.149   0.017  0.00  0.00    -0.197 N 
ATOM      9  HN  UNL d   1       2.073  -1.140   0.392  1.00  0.00     0.189 HD
ATOM     10  N   UNL d   1      -1.040  -0.232  -0.181  0.00  0.00    -0.282 N 
ATOM     11  C   UNL d   1      -0.388   0.928  -0.083  0.00  0.00     0.049 A 
ATOM     12  HN  UNL d   1      -2.031  -0.392  -0.361  1.00  0.00     0.189 HD
ATOM     13  C   UNL d   1      -1.093   2.223  -0.215  0.00  0.00     0.072 C 
BRANCH   8  14
ATOM     14  C   UNL d   1      -0.334  -2.542   0.009  0.00  0.00     0.074 A 
ATOM     15  C   UNL d   1       0.675  -3.471   0.290  0.00  0.00     0.033 A 
ATOM     16  C   UNL d   1       0.380  -4.838   0.285  0.00  0.00     0.002 A 
ATOM     17  C   UNL d   1      -0.912  -5.279  -0.006  0.00  0.00     0.000 A 
ATOM     18  C   UNL d   1      -1.918  -4.357  -0.289  0.00  0.00     0.002 A 
ATOM     19  C   UNL d   1      -1.633  -2.990  -0.279  0.00  0.00     0.033 A 
ENDBRANCH   8  14
ENDBRANCH   5   6
ENDBRANCH   2   5
BRANCH   1  20
ATOM     20  C   UNL d   1       5.822   1.401   0.567  0.00  0.00     0.034 A 
ATOM     21  C   UNL d   1       6.858   2.300   0.919  0.00  0.00     0.049 A 
ATOM     22  C   UNL d   1       8.178   1.795   0.886  0.00  0.00     0.067 A 
ATOM     23  N   UNL d   1       9.294   2.486   1.161  0.00  0.00    -0.310 N 
ATOM     24  C   UNL d   1       8.446   0.365   0.508  0.00  0.00     0.067 A 
ATOM     25  S   UNL d   1      10.562   1.435   0.947  0.00  0.00     0.068 SA
ATOM     26  HN  UNL d   1       9.352   3.464   1.445  1.00  0.00     0.176 HD
ATOM     27  N   UNL d   1       9.749   0.051   0.513  0.00  0.00    -0.310 N 
ATOM     28  HN  UNL d   1      10.160  -0.857   0.294  1.00  0.00     0.176 HD
ATOM     29  C   UNL d   1       7.380  -0.507   0.181  0.00  0.00     0.033 A 
ATOM     30  C   UNL d   1       6.082   0.048   0.215  0.00  0.00     0.019 A 
ENDBRANCH   1  20
TORSDOF 4
