REMARK  4 active torsions:
REMARK  status: ('A' for Active; 'I' for Inactive)
REMARK    1  A    between atoms: C_2  and  N_1 
REMARK    2  A    between atoms: C_4  and  C_10 
REMARK       I    between atoms: N_7  and  C_4 
REMARK    3  A    between atoms: N_12  and  N_7 
REMARK    4  A    between atoms: C_10  and  C_11 
ROOT
ATOM      1  C   UNL d   1       0.221   0.667   0.905  0.00  0.00     0.102 A 
ATOM      2  C   UNL d   1       0.697   1.974   1.054  0.00  0.00     0.036 A 
ATOM      3  C   UNL d   1      -0.984   0.278   1.503  0.00  0.00     0.036 A 
ATOM      4  C   UNL d   1      -1.247   2.519   2.414  0.00  0.00    -0.049 A 
ATOM      5  C   UNL d   1      -0.039   2.895   1.806  0.00  0.00     0.010 A 
ATOM      6  C   UNL d   1      -1.714   1.205   2.253  0.00  0.00     0.010 A 
ENDROOT
BRANCH   4   7
ATOM      7  C   UNL d   1      -2.065   3.537   3.176  0.00  0.00     0.142 C 
BRANCH   7   8
ATOM      8  C   UNL d   1      -2.352   3.177   4.620  0.00  0.00     0.235 C 
ATOM      9  O   UNL d   1      -3.497   3.059   5.058  0.00  0.00    -0.272 OA
ATOM     10  N   UNL d   1      -1.225   3.075   5.426  0.00  0.00    -0.294 N 
ATOM     11  H   UNL d   1      -0.309   2.937   4.999  0.00  0.00     0.183 HD
BRANCH  10  12
ATOM     12  N   UNL d   1      -1.386   2.751   6.793  0.00  0.00    -0.247 NA
ATOM     13  H   UNL d   1      -2.359   2.432   6.913  0.00  0.00     0.143 HD
ATOM     14  H   UNL d   1      -1.354   3.624   7.327  0.00  0.00     0.143 HD
ENDBRANCH  10  12
ENDBRANCH   7   8
ENDBRANCH   4   7
BRANCH   1  15
ATOM     15  N   UNL d   1       0.987  -0.301   0.109  0.00  0.00    -0.116 N 
ATOM     16  O   UNL d   1       2.050   0.085  -0.400  0.00  0.00    -0.532 OA
ATOM     17  O   UNL d   1       0.527  -1.445  -0.007  0.00  0.00    -0.532 OA
ENDBRANCH   1  15
TORSDOF 4
