REMARK  4 active torsions:
REMARK  status: ('A' for Active; 'I' for Inactive)
REMARK    1  A    between atoms: C_3  and  C_1 
REMARK    2  A    between atoms: C_4  and  CA_2 
REMARK       I    between atoms: N_5  and  C_3 
REMARK    3  A    between atoms: OXT_13  and  C_4 
REMARK    4  A    between atoms: C_12  and  N_5 
ROOT
ATOM      1  C   UNL d   1      -2.898  -2.348  -0.195  0.00  0.00     0.134 A 
ATOM      2  CA  UNL d   1      -3.474  -1.298  -0.897  0.00  0.00     0.139 A 
ATOM      3  N   UNL d   1      -3.651  -3.294   0.455  0.00  0.00    -0.358 N 
ATOM      4  HN  UNL d   1      -3.235  -4.098   0.925  1.00  0.00     0.165 HD
ATOM      5  N   UNL d   1      -4.827  -1.096  -0.919  0.00  0.00    -0.357 N 
ATOM      6  HN  UNL d   1      -5.253  -0.319  -1.423  1.00  0.00     0.165 HD
ATOM      7  C   UNL d   1      -4.989  -3.079   0.425  0.00  0.00     0.105 A 
ATOM      8  C   UNL d   1      -5.561  -1.996  -0.228  0.00  0.00     0.105 A 
ENDROOT
BRANCH   1   9
ATOM      9  C   UNL d   1      -1.427  -2.417   0.031  0.00  0.00     0.275 C 
ATOM     10  N   UNL d   1      -0.933  -3.700   0.192  0.00  0.00    -0.322 N 
ATOM     11  H   UNL d   1      -1.598  -4.454   0.048  0.00  0.00     0.169 HD
ATOM     12  O   UNL d   1      -0.789  -1.373   0.088  0.00  0.00    -0.266 OA
BRANCH  10  13
ATOM     13  C   UNL d   1       0.361  -4.062   0.620  0.00  0.00     0.035 A 
ATOM     14  C   UNL d   1       1.290  -3.147   1.119  0.00  0.00     0.030 A 
ATOM     15  C   UNL d   1       2.511  -3.586   1.641  0.00  0.00     0.009 A 
ATOM     16  C   UNL d   1       2.831  -4.946   1.657  0.00  0.00    -0.062 A 
ATOM     17  C   UNL d   1       1.928  -5.858   1.103  0.00  0.00     0.009 A 
ATOM     18  C   UNL d   1       4.112  -5.402   2.290  0.00  0.00     0.048 C 
ATOM     19  C   UNL d   1       0.699  -5.419   0.597  0.00  0.00     0.030 A 
ENDBRANCH  10  13
ENDBRANCH   1   9
BRANCH   2  20
ATOM     20  C   UNL d   1      -2.672  -0.413  -1.768  0.00  0.00     0.196 C 
ATOM     21  O   UNL d   1      -2.773   0.794  -1.888  0.00  0.00    -0.645 OA
BRANCH  20  22
ATOM     22  OXT UNL d   1      -1.867  -1.143  -2.570  0.00  0.00    -0.772 OA
ATOM     23  HXT UNL d   1      -1.386  -0.470  -3.097  0.00  0.00     0.167 HD
ENDBRANCH  20  22
ENDBRANCH   2  20
TORSDOF 4
