REMARK  2 active torsions:
REMARK  status: ('A' for Active; 'I' for Inactive)
REMARK       I    between atoms: N_2  and  C_1 
REMARK       I    between atoms: N_4  and  C_1 
REMARK    1  A    between atoms: C_5  and  N_2 
REMARK    2  A    between atoms: O_11  and  C_6 
ROOT
ATOM      1  C   UNL d   1       1.149   2.107  -1.225  0.00  0.00     0.036 A 
ATOM      2  C   UNL d   1       2.495   4.234  -2.485  0.00  0.00     0.068 A 
ATOM      3  C   UNL d   1       2.188   1.859  -2.122  0.00  0.00     0.032 A 
ATOM      4  C   UNL d   1       0.762   3.433  -0.994  0.00  0.00     0.032 A 
ATOM      5  C   UNL d   1       1.428   4.488  -1.627  0.00  0.00     0.039 A 
ATOM      6  C   UNL d   1       2.860   2.916  -2.749  0.00  0.00     0.039 A 
ENDROOT
BRANCH   1   7
ATOM      7  N   UNL d   1       0.457   1.097  -0.530  0.00  0.00    -0.314 N 
ATOM      8  C   UNL d   1       0.718  -0.248  -0.537  0.00  0.00     0.296 C 
ATOM      9  O   UNL d   1       1.601  -0.851  -1.126  0.00  0.00    -0.254 OA
ATOM     10  N   UNL d   1      -0.153  -0.939   0.255  0.00  0.00    -0.254 NA
ATOM     11  H   UNL d   1      -1.119  -0.647   0.252  0.00  0.00     0.128 HD
ATOM     12  H   UNL d   1      -0.022  -1.941   0.184  0.00  0.00     0.128 HD
ATOM     13  H   UNL d   1      -0.235   1.398   0.138  0.00  0.00     0.170 HD
ENDBRANCH   1   7
BRANCH   2  14
ATOM     14  O   UNL d   1       3.091   5.337  -3.033  0.00  0.00    -0.356 OA
ATOM     15  C   UNL d   1       4.473   5.183  -3.341  0.00  0.00     0.210 C 
ENDBRANCH   2  14
TORSDOF 2
