REMARK  5 active torsions:
REMARK  status: ('A' for Active; 'I' for Inactive)
REMARK    1  A    between atoms: C_6  and  C_1 
REMARK    2  A    between atoms: C_11  and  C_3 
REMARK    3  A    between atoms: C_7  and  C_4 
REMARK       I    between atoms: N_9  and  C_7 
REMARK    4  A    between atoms: C_8  and  C_10 
REMARK    5  A    between atoms: C_12  and  N_9 
ROOT
ATOM      1  C   UNL d   1       0.204   1.246   0.226  0.00  0.00     0.100 A 
ATOM      2  S   UNL d   1      -0.946  -0.048   0.280  0.00  0.00    -0.079 SA
ATOM      3  C   UNL d   1       1.498   0.762   0.063  0.00  0.00    -0.003 A 
ATOM      4  C   UNL d   1       0.249  -1.243   0.122  0.00  0.00     0.074 A 
ATOM      5  C   UNL d   1       1.495  -0.670  -0.013  0.00  0.00     0.038 A 
ENDROOT
BRANCH   4   6
ATOM      6  C   UNL d   1      -0.008  -2.682   0.117  0.00  0.00     0.263 C 
ATOM      7  N   UNL d   1      -1.334  -3.063   0.252  0.00  0.00    -0.323 N 
ATOM      8  H   UNL d   1      -2.006  -2.312   0.357  0.00  0.00     0.169 HD
ATOM      9  O   UNL d   1       0.925  -3.469  -0.009  0.00  0.00    -0.267 OA
BRANCH   7  10
ATOM     10  C   UNL d   1      -1.850  -4.377   0.185  0.00  0.00     0.035 A 
ATOM     11  C   UNL d   1      -1.054  -5.517   0.032  0.00  0.00     0.045 A 
ATOM     12  C   UNL d   1      -1.622  -6.796  -0.094  0.00  0.00     0.050 A 
ATOM     13  C   UNL d   1      -3.015  -6.925  -0.054  0.00  0.00     0.016 A 
ATOM     14  C   UNL d   1      -3.819  -5.800   0.125  0.00  0.00     0.003 A 
ATOM     15  C   UNL d   1      -3.239  -4.534   0.247  0.00  0.00     0.029 A 
BRANCH  12  16
ATOM     16  C   UNL d   1      -0.747  -8.008  -0.307  0.00  0.00     0.417 C 
ATOM     17  F   UNL d   1       0.585  -7.762  -0.163  0.00  0.00    -0.166 F 
ATOM     18  F   UNL d   1      -1.033  -9.017   0.564  0.00  0.00    -0.166 F 
ATOM     19  F   UNL d   1      -0.895  -8.539  -1.552  0.00  0.00    -0.166 F 
ENDBRANCH  12  16
ENDBRANCH   7  10
ENDBRANCH   4   6
BRANCH   1  20
ATOM     20  C   UNL d   1      -0.303   2.652   0.351  0.00  0.00     0.424 C 
ATOM     21  F   UNL d   1      -1.557   2.724   0.872  0.00  0.00    -0.166 F 
ATOM     22  F   UNL d   1       0.481   3.421   1.149  0.00  0.00    -0.166 F 
ATOM     23  F   UNL d   1      -0.360   3.268  -0.859  0.00  0.00    -0.166 F 
ENDBRANCH   1  20
BRANCH   3  24
ATOM     24  C   UNL d   1       2.722   1.571   0.014  0.00  0.00    -0.025 A 
ATOM     25  C   UNL d   1       3.883   1.079   0.637  0.00  0.00     0.012 A 
ATOM     26  C   UNL d   1       5.092   1.775   0.570  0.00  0.00     0.001 A 
ATOM     27  C   UNL d   1       5.154   2.986  -0.109  0.00  0.00     0.000 A 
ATOM     28  C   UNL d   1       4.013   3.491  -0.730  0.00  0.00     0.001 A 
ATOM     29  C   UNL d   1       2.808   2.781  -0.683  0.00  0.00     0.012 A 
ENDBRANCH   3  24
TORSDOF 5
