REMARK  5 active torsions:
REMARK  status: ('A' for Active; 'I' for Inactive)
REMARK    1  A    between atoms: C_2  and  C_1 
REMARK    2  A    between atoms: C_4  and  C_2 
REMARK    3  A    between atoms: S_8  and  C_3 
REMARK    4  A    between atoms: C_9  and  S_8 
REMARK    5  A    between atoms: C_19  and  C_13 
ROOT
ATOM      1  C   UNL d   1       1.125  -0.053   0.080  0.00  0.00     0.062 C 
ATOM      2  C   UNL d   1       0.621   0.793   0.987  0.00  0.00     0.054 C 
ENDROOT
BRANCH   1   3
ATOM      3  C   UNL d   1       0.246  -0.982  -0.679  0.00  0.00     0.182 C 
ATOM      4  O   UNL d   1      -0.971  -0.851  -0.699  0.00  0.00    -0.288 OA
BRANCH   3   5
ATOM      5  C   UNL d   1       0.917  -2.052  -1.471  0.00  0.00     0.014 A 
ATOM      6  C   UNL d   1       2.130  -2.624  -1.065  0.00  0.00     0.016 A 
ATOM      7  C   UNL d   1       2.756  -3.589  -1.859  0.00  0.00     0.008 A 
ATOM      8  C   UNL d   1       2.171  -4.010  -3.060  0.00  0.00    -0.059 A 
ATOM      9  C   UNL d   1       0.941  -3.459  -3.446  0.00  0.00     0.008 A 
ATOM     10  C   UNL d   1       0.313  -2.493  -2.653  0.00  0.00     0.016 A 
BRANCH   8  11
ATOM     11  C   UNL d   1       2.862  -5.029  -3.932  0.00  0.00     0.034 C 
ATOM     12  C   UNL d   1       3.791  -4.382  -4.950  0.00  0.00     0.010 C 
ENDBRANCH   8  11
ENDBRANCH   3   5
ENDBRANCH   1   3
BRANCH   2  13
ATOM     13  S   UNL d   1       1.678   1.823   1.891  0.00  0.00    -0.102 SA
BRANCH  13  14
ATOM     14  C   UNL d   1       1.016   3.450   1.567  0.00  0.00     0.004 A 
ATOM     15  C   UNL d   1       1.215   4.436   2.544  0.00  0.00     0.020 A 
ATOM     16  C   UNL d   1       0.795   5.752   2.331  0.00  0.00     0.025 A 
ATOM     17  C   UNL d   1       0.173   6.091   1.133  0.00  0.00     0.034 A 
ATOM     18  C   UNL d   1      -0.033   5.125   0.151  0.00  0.00     0.025 A 
ATOM     19 CL   UNL d   1      -0.327   7.714   0.858  0.00  0.00    -0.084 Cl
ATOM     20  C   UNL d   1       0.393   3.809   0.365  0.00  0.00     0.020 A 
ENDBRANCH  13  14
ENDBRANCH   2  13
TORSDOF 5
