REMARK  5 active torsions:
REMARK  status: ('A' for Active; 'I' for Inactive)
REMARK    1  A    between atoms: C_2  and  S_1 
REMARK    2  A    between atoms: N_14  and  S_1 
REMARK    3  A    between atoms: C_19  and  N_14 
REMARK    4  A    between atoms: C_18  and  C_20 
REMARK    5  A    between atoms: C_20  and  C_19 
ROOT
ATOM      1  S   UNL d   1       0.864   0.058   0.150  0.00  0.00     0.248 S 
ATOM      2  O   UNL d   1       0.452  -0.228  -1.203  0.00  0.00    -0.205 OA
ATOM      3  O   UNL d   1       0.426  -0.733   1.281  0.00  0.00    -0.205 OA
ENDROOT
BRANCH   1   4
ATOM      4  C   UNL d   1       0.299   1.706   0.503  0.00  0.00     0.116 A 
ATOM      5  S   UNL d   1       0.813   2.933  -0.570  0.00  0.00    -0.074 SA
ATOM      6  C   UNL d   1       0.175   4.173   0.427  0.00  0.00     0.042 A 
ATOM      7  C   UNL d   1       0.360   5.569   0.143  0.00  0.00     0.117 A 
ATOM      8  C   UNL d   1      -0.495   3.643   1.514  0.00  0.00     0.024 A 
ATOM      9  O   UNL d   1      -0.156   6.551   0.953  0.00  0.00    -0.237 OA
ATOM     10  C   UNL d   1       1.049   6.195  -0.878  0.00  0.00     0.059 A 
ATOM     11  N   UNL d   1       0.195   7.801   0.476  0.00  0.00    -0.272 N 
ATOM     12  C   UNL d   1       0.917   7.569  -0.618  0.00  0.00     0.117 A 
ATOM     13  HN  UNL d   1      -0.048   8.707   0.876  1.00  0.00     0.194 HD
ATOM     14  C   UNL d   1      -0.427   2.221   1.556  0.00  0.00     0.034 A 
ENDBRANCH   1   4
BRANCH   1  15
ATOM     15  N   UNL d   1       2.555   0.102   0.165  0.00  0.00    -0.215 NA
ATOM     16  H   UNL d   1       2.871   0.551  -0.699  0.00  0.00     0.140 HD
BRANCH  15  17
ATOM     17  C   UNL d   1       3.180   0.676   1.386  0.00  0.00     0.110 C 
BRANCH  17  18
ATOM     18  C   UNL d   1       4.706   0.677   1.270  0.00  0.00     0.072 C 
BRANCH  18  19
ATOM     19  C   UNL d   1       5.161   1.438   0.049  0.00  0.00     0.010 A 
ATOM     20  N   UNL d   1       4.797   2.741  -0.036  0.00  0.00    -0.369 N 
ATOM     21  C   UNL d   1       5.112   3.402  -1.172  0.00  0.00     0.088 A 
ATOM     22  HN  UNL d   1       4.303   3.205   0.727  1.00  0.00     0.165 HD
ATOM     23  C   UNL d   1       5.765   2.819  -2.244  0.00  0.00     0.017 A 
ATOM     24  C   UNL d   1       6.135   1.485  -2.139  0.00  0.00     0.003 A 
ATOM     25  C   UNL d   1       5.836   0.782  -0.976  0.00  0.00     0.025 A 
ENDBRANCH  18  19
ENDBRANCH  17  18
ENDBRANCH  15  17
ENDBRANCH   1  15
TORSDOF 5
