REMARK  1 active torsions:
REMARK  status: ('A' for Active; 'I' for Inactive)
REMARK    1  A    between atoms: C_11  and  N_3 
ROOT
ATOM      1  C   UNL d   1       1.411   0.678   0.141  0.00  0.00     0.144 A 
ATOM      2  C   UNL d   1       1.506  -0.688   0.021  0.00  0.00     0.084 A 
ATOM      3  N   UNL d   1       2.685   1.194  -0.013  0.00  0.00    -0.239 N 
ATOM      4  N   UNL d   1       3.575   0.204  -0.306  0.00  0.00    -0.296 N 
ATOM      5  HN  UNL d   1       4.560   0.309  -0.551  1.00  0.00     0.187 HD
ATOM      6  C   UNL d   1       0.319  -1.516   0.067  0.00  0.00     0.200 C 
ATOM      7  N   UNL d   1       0.248   1.365   0.263  0.00  0.00    -0.339 N 
ATOM      8  C   UNL d   1       2.875  -0.938  -0.201  0.00  0.00     0.040 A 
ATOM      9  C   UNL d   1      -0.981  -0.763   0.062  0.00  0.00     0.042 A 
ATOM     10  C   UNL d   1      -0.966   0.652   0.126  0.00  0.00     0.048 A 
ATOM     11  O   UNL d   1       0.347  -2.742   0.068  0.00  0.00    -0.286 OA
ATOM     12  C   UNL d   1       3.569  -2.238  -0.381  0.00  0.00     0.071 C 
ATOM     13  C   UNL d   1      -2.191  -1.452  -0.064  0.00  0.00     0.018 A 
ATOM     14  C   UNL d   1      -2.179   1.349   0.106  0.00  0.00     0.030 A 
ATOM     15  C   UNL d   1      -3.390  -0.737  -0.123  0.00  0.00     0.001 A 
ATOM     16  C   UNL d   1      -3.383   0.657  -0.033  0.00  0.00     0.002 A 
ATOM     17  H   UNL d   1       0.190   2.361   0.067  0.00  0.00     0.167 HD
ENDROOT
BRANCH   3  18
ATOM     18  C   UNL d   1       3.093   2.552   0.048  0.00  0.00     0.058 A 
ATOM     19  C   UNL d   1       2.425   3.465   0.876  0.00  0.00     0.031 A 
ATOM     20  C   UNL d   1       2.805   4.808   0.883  0.00  0.00     0.002 A 
ATOM     21  C   UNL d   1       3.846   5.242   0.064  0.00  0.00     0.000 A 
ATOM     22  C   UNL d   1       4.529   4.332  -0.742  0.00  0.00     0.002 A 
ATOM     23  C   UNL d   1       4.169   2.982  -0.738  0.00  0.00     0.031 A 
ENDBRANCH   3  18
TORSDOF 1
