REMARK  1 active torsions:
REMARK  status: ('A' for Active; 'I' for Inactive)
REMARK    1  A    between atoms: C_3  and  N_1 
ROOT
ATOM      1  C   UNL d   1       0.230  -2.456  -0.036  0.00  0.00     0.047 A 
ATOM      2  C   UNL d   1       0.840  -3.238   0.955  0.00  0.00     0.075 A 
ATOM      3  C   UNL d   1       0.694  -4.623   0.934  0.00  0.00     0.157 A 
ATOM      4  C   UNL d   1      -0.483  -3.094  -1.065  0.00  0.00     0.033 A 
ATOM      5  C   UNL d   1      -0.021  -5.243  -0.081  0.00  0.00     0.154 A 
ATOM      6  C   UNL d   1      -0.603  -4.487  -1.091  0.00  0.00     0.048 A 
ATOM      7  F   UNL d   1       1.244  -5.354   1.914  0.00  0.00    -0.203 F 
ATOM      8  F   UNL d   1      -0.154  -6.577  -0.099  0.00  0.00    -0.203 F 
ENDROOT
BRANCH   1   9
ATOM      9  N   UNL d   1       0.356  -1.035  -0.011  0.00  0.00    -0.266 N 
ATOM     10  C   UNL d   1      -0.720  -0.165  -0.067  0.00  0.00     0.148 A 
ATOM     11  S   UNL d   1      -0.156   1.499  -0.101  0.00  0.00    -0.090 SA
ATOM     12  S   UNL d   1      -2.359  -0.498  -0.008  0.00  0.00    -0.052 SA
ATOM     13  C   UNL d   1       1.571   1.039   0.056  0.00  0.00     0.185 A 
ATOM     14  C   UNL d   1       1.619  -0.463   0.096  0.00  0.00     0.239 A 
ATOM     15  O   UNL d   1       2.688  -1.067   0.180  0.00  0.00    -0.272 OA
ENDBRANCH   1   9
TORSDOF 1
