REMARK  5 active torsions:
REMARK  status: ('A' for Active; 'I' for Inactive)
REMARK    1  A    between atoms: C_10  and  C_2 
REMARK    2  A    between atoms: C_5  and  N_9 
REMARK    3  A    between atoms: N_8  and  C_5 
REMARK    4  A    between atoms: C_15  and  N_8 
REMARK    5  A    between atoms: N_9  and  C_14 
ROOT
ATOM      1  N   UNL d   1       5.737  -4.223  -0.129  0.00  0.00    -0.333 N 
ATOM      2  H   UNL d   1       6.575  -4.200   0.441  0.00  0.00     0.168 HD
ENDROOT
BRANCH   1   3
ATOM      3  C   UNL d   1       5.787  -5.116  -1.161  0.00  0.00     0.176 C 
ATOM      4  S   UNL d   1       4.600  -6.247  -1.517  0.00  0.00    -0.041 SA
BRANCH   3   5
ATOM      5  N   UNL d   1       6.943  -5.182  -1.881  0.00  0.00    -0.333 N 
ATOM      6  H   UNL d   1       6.998  -6.029  -2.439  0.00  0.00     0.168 HD
BRANCH   5   7
ATOM      7  C   UNL d   1       7.845  -4.162  -2.268  0.00  0.00     0.034 A 
ATOM      8  C   UNL d   1       7.732  -2.818  -1.906  0.00  0.00     0.031 A 
ATOM      9  C   UNL d   1       8.593  -1.860  -2.464  0.00  0.00     0.026 A 
ATOM     10  C   UNL d   1       9.561  -2.240  -3.391  0.00  0.00     0.034 A 
ATOM     11  C   UNL d   1       9.698  -3.578  -3.744  0.00  0.00     0.026 A 
ATOM     12 CL   UNL d   1      10.566  -1.055  -4.120  0.00  0.00    -0.084 Cl
ATOM     13  C   UNL d   1       8.846  -4.533  -3.182  0.00  0.00     0.031 A 
ENDBRANCH   5   7
ENDBRANCH   3   5
ENDBRANCH   1   3
BRANCH   1  14
ATOM     14  C   UNL d   1       4.641  -3.459   0.314  0.00  0.00     0.034 A 
ATOM     15  C   UNL d   1       4.663  -2.964   1.620  0.00  0.00     0.030 A 
ATOM     16  C   UNL d   1       3.703  -2.040   2.042  0.00  0.00     0.016 A 
ATOM     17  C   UNL d   1       2.739  -1.559   1.147  0.00  0.00    -0.008 A 
ATOM     18  C   UNL d   1       2.679  -2.108  -0.141  0.00  0.00     0.016 A 
ATOM     19  C   UNL d   1       3.621  -3.056  -0.552  0.00  0.00     0.030 A 
BRANCH  17  20
ATOM     20  C   UNL d   1       1.889  -0.445   1.540  0.00  0.00     0.063 A 
ATOM     21  N   UNL d   1       1.448  -0.284   2.847  0.00  0.00    -0.292 N 
ATOM     22  N   UNL d   1       0.765   0.838   3.002  0.00  0.00    -0.061 NA
ATOM     23  HN  UNL d   1       1.630  -0.951   3.597  1.00  0.00     0.183 HD
ATOM     24  S   UNL d   1       0.660   1.737   1.596  0.00  0.00    -0.010 SA
ATOM     25  C   UNL d   1       1.550   0.591   0.683  0.00  0.00     0.096 A 
ENDBRANCH  17  20
ENDBRANCH   1  14
TORSDOF 5
