REMARK  5 active torsions:
REMARK  status: ('A' for Active; 'I' for Inactive)
REMARK    1  A    between atoms: C_19  and  N_1 
REMARK    2  A    between atoms: C_20  and  N_2 
REMARK    3  A    between atoms: C_14  and  C_13 
REMARK    4  A    between atoms: C_21  and  C_19 
REMARK    5  A    between atoms: C_22  and  C_20 
ROOT
ATOM      1  N   UNL d   1       0.248  -1.937   0.492  0.00  0.00    -0.342 N 
ATOM      2  C   UNL d   1       2.172  -1.051  -0.201  0.00  0.00     0.004 A 
ATOM      3  C   UNL d   1       0.994  -0.772   0.486  0.00  0.00     0.046 A 
ATOM      4  C   UNL d   1       0.911  -2.945  -0.189  0.00  0.00     0.046 A 
ATOM      5  C   UNL d   1       2.120  -2.410  -0.631  0.00  0.00     0.003 A 
ATOM      6  C   UNL d   1       3.146  -0.041  -0.338  0.00  0.00     0.027 A 
ATOM      7  C   UNL d   1       2.945   1.247   0.188  0.00  0.00    -0.025 A 
ATOM      8  C   UNL d   1       0.747   0.500   1.022  0.00  0.00     0.031 A 
ATOM      9  C   UNL d   1       1.729   1.489   0.851  0.00  0.00     0.014 A 
ATOM     10  C   UNL d   1       0.559  -4.279  -0.455  0.00  0.00     0.030 A 
ATOM     11  C   UNL d   1       3.011  -3.223  -1.360  0.00  0.00     0.014 A 
ATOM     12  C   UNL d   1       2.670  -4.550  -1.628  0.00  0.00     0.001 A 
ATOM     13  C   UNL d   1       1.458  -5.067  -1.179  0.00  0.00     0.002 A 
ENDROOT
BRANCH   7  14
ATOM     14  C   UNL d   1       4.006   2.277   0.080  0.00  0.00    -0.025 A 
ATOM     15  C   UNL d   1       4.197   3.220   1.105  0.00  0.00     0.027 A 
ATOM     16  C   UNL d   1       5.236   4.174   1.043  0.00  0.00     0.004 A 
ATOM     17  C   UNL d   1       5.630   5.232   1.910  0.00  0.00     0.003 A 
ATOM     18  C   UNL d   1       6.102   4.166  -0.047  0.00  0.00     0.046 A 
ATOM     19  C   UNL d   1       6.746   5.848   1.343  0.00  0.00     0.046 A 
ATOM     20  C   UNL d   1       5.116   5.723   3.128  0.00  0.00     0.014 A 
ATOM     21  C   UNL d   1       7.374   6.942   1.962  0.00  0.00     0.030 A 
ATOM     22  N   UNL d   1       7.021   5.179   0.161  0.00  0.00    -0.342 N 
ATOM     23  C   UNL d   1       6.841   7.416   3.165  0.00  0.00     0.002 A 
ATOM     24  C   UNL d   1       5.726   6.817   3.744  0.00  0.00     0.001 A 
ATOM     25  C   UNL d   1       5.949   3.244  -1.092  0.00  0.00     0.031 A 
ATOM     26  C   UNL d   1       4.889   2.327  -1.012  0.00  0.00     0.014 A 
BRANCH  22  27
ATOM     27  C   UNL d   1       8.066   5.565  -0.786  0.00  0.00     0.156 C 
BRANCH  27  28
ATOM     28  C   UNL d   1       9.420   4.938  -0.575  0.00  0.00    -0.017 C 
ATOM     29  C   UNL d   1       9.779   4.012   0.323  0.00  0.00     0.008 C 
ENDBRANCH  27  28
ENDBRANCH  22  27
ENDBRANCH   7  14
BRANCH   1  30
ATOM     30  C   UNL d   1      -1.030  -2.108   1.183  0.00  0.00     0.156 C 
BRANCH  30  31
ATOM     31  C   UNL d   1      -2.262  -1.876   0.349  0.00  0.00    -0.017 C 
ATOM     32  C   UNL d   1      -2.335  -1.467  -0.925  0.00  0.00     0.008 C 
ENDBRANCH  30  31
ENDBRANCH   1  30
TORSDOF 5
