REMARK  4 active torsions:
REMARK  status: ('A' for Active; 'I' for Inactive)
REMARK    1  A    between atoms: C_7  and  C_1 
REMARK    2  A    between atoms: C_9  and  N_2 
REMARK    3  A    between atoms: C_8  and  C_5 
REMARK    4  A    between atoms: N_19  and  C_18 
ROOT
ATOM      1  C   UNL d   1      -0.449   1.171   0.048  0.00  0.00     0.142 C 
ATOM      2  N   UNL d   1       0.865   0.765  -0.054  0.00  0.00    -0.251 N 
ATOM      3  N   UNL d   1       0.937  -0.579  -0.261  0.00  0.00    -0.289 N 
ATOM      4  HN  UNL d   1       1.765  -1.118  -0.515  1.00  0.00     0.187 HD
ATOM      5  C   UNL d   1      -0.305  -1.049  -0.063  0.00  0.00     0.134 C 
ATOM      6  C   UNL d   1      -1.208   0.017   0.121  0.00  0.00     0.072 C 
ENDROOT
BRANCH   2   7
ATOM      7  C   UNL d   1       2.072   1.511   0.023  0.00  0.00     0.057 A 
ATOM      8  C   UNL d   1       2.174   2.667   0.804  0.00  0.00     0.033 A 
ATOM      9  C   UNL d   1       3.365   3.399   0.816  0.00  0.00     0.025 A 
ATOM     10  C   UNL d   1       4.454   3.018   0.029  0.00  0.00     0.005 A 
ATOM     11  C   UNL d   1       4.384   1.804  -0.658  0.00  0.00     0.025 A 
ATOM     12  C   UNL d   1       3.205   1.054  -0.666  0.00  0.00     0.033 A 
BRANCH  10  13
ATOM     13  N   UNL d   1       5.663   3.715   0.112  0.00  0.00    -0.303 NA
ATOM     14  H   UNL d   1       6.264   3.584  -0.697  0.00  0.00     0.124 HD
ATOM     15  H   UNL d   1       5.552   4.697   0.346  0.00  0.00     0.124 HD
ENDBRANCH  10  13
ENDBRANCH   2   7
BRANCH   1  16
ATOM     16  C   UNL d   1      -0.908   2.570  -0.007  0.00  0.00     0.434 C 
ATOM     17  F   UNL d   1      -0.036   3.427  -0.583  0.00  0.00    -0.165 F 
ATOM     18  F   UNL d   1      -2.058   2.668  -0.726  0.00  0.00    -0.165 F 
ATOM     19  F   UNL d   1      -1.187   3.044   1.231  0.00  0.00    -0.165 F 
ENDBRANCH   1  16
BRANCH   5  20
ATOM     20  C   UNL d   1      -0.658  -2.516  -0.086  0.00  0.00     0.434 C 
ATOM     21  F   UNL d   1       0.406  -3.336  -0.279  0.00  0.00    -0.165 F 
ATOM     22  F   UNL d   1      -1.243  -2.900   1.081  0.00  0.00    -0.165 F 
ATOM     23  F   UNL d   1      -1.555  -2.796  -1.071  0.00  0.00    -0.165 F 
ENDBRANCH   5  20
TORSDOF 4
