REMARK  3 active torsions:
REMARK  status: ('A' for Active; 'I' for Inactive)
REMARK    1  A    between atoms: C_8  and  C_1 
REMARK    2  A    between atoms: C_6  and  C_4 
REMARK    3  A    between atoms: O_15  and  C_8 
ROOT
ATOM      1  C   UNL d   1      -1.159  -1.506   0.057  0.00  0.00     0.052 A 
ATOM      2  N   UNL d   1      -1.204   1.257  -0.119  0.00  0.00    -0.354 N 
ATOM      3  HN  UNL d   1      -1.222   2.272  -0.216  1.00  0.00     0.166 HD
ATOM      4  C   UNL d   1      -2.360   0.557  -0.048  0.00  0.00     0.051 A 
ATOM      5  C   UNL d   1      -2.377  -0.820   0.026  0.00  0.00     0.050 A 
ATOM      6  C   UNL d   1       0.070  -0.800   0.037  0.00  0.00     0.007 A 
ATOM      7  C   UNL d   1      -0.033   0.604  -0.061  0.00  0.00     0.044 A 
ATOM      8  C   UNL d   1       1.368  -1.374   0.132  0.00  0.00     0.015 A 
ATOM      9  C   UNL d   1       1.125   1.369  -0.088  0.00  0.00     0.030 A 
ATOM     10  C   UNL d   1       2.516  -0.582   0.086  0.00  0.00     0.001 A 
ATOM     11  C   UNL d   1       2.394   0.794  -0.024  0.00  0.00     0.002 A 
ENDROOT
BRANCH   4  12
ATOM     12  C   UNL d   1      -3.573   1.387  -0.081  0.00  0.00     0.031 A 
ATOM     13  S   UNL d   1      -5.036   0.856   0.652  0.00  0.00    -0.100 SA
ATOM     14  C   UNL d   1      -5.873   2.271   0.193  0.00  0.00     0.050 A 
ATOM     15  C   UNL d   1      -5.064   3.151  -0.486  0.00  0.00     0.008 A 
ATOM     16  C   UNL d   1      -3.737   2.649  -0.629  0.00  0.00     0.021 A 
ENDBRANCH   4  12
BRANCH   1  17
ATOM     17  C   UNL d   1      -1.286  -2.981   0.162  0.00  0.00     0.177 C 
ATOM     18  O   UNL d   1      -2.130  -3.513   0.858  0.00  0.00    -0.646 OA
BRANCH  17  19
ATOM     19  O   UNL d   1      -0.461  -3.674  -0.652  0.00  0.00    -0.773 OA
ATOM     20  H   UNL d   1       0.050  -3.136  -1.284  0.00  0.00     0.167 HD
ENDBRANCH  17  19
ENDBRANCH   1  17
TORSDOF 3
