REMARK  4 active torsions:
REMARK  status: ('A' for Active; 'I' for Inactive)
REMARK    1  A    between atoms: C_12  and  C_1 
REMARK    2  A    between atoms: C_5  and  C_8 
REMARK    3  A    between atoms: N_10  and  C_21 
REMARK    4  A    between atoms: O_26  and  C_13 
ROOT
ATOM      1  C   UNL d   1      -3.915  -0.768  -0.001  0.00  0.00    -0.002 A 
ATOM      2  C   UNL d   1      -4.660  -0.216  -1.052  0.00  0.00     0.016 A 
ATOM      3  C   UNL d   1      -4.601  -1.509   0.971  0.00  0.00     0.016 A 
ATOM      4  C   UNL d   1      -6.731  -1.121  -0.141  0.00  0.00     0.031 A 
ATOM      5  C   UNL d   1      -5.987  -1.683   0.896  0.00  0.00     0.030 A 
ATOM      6  C   UNL d   1      -6.048  -0.407  -1.133  0.00  0.00     0.030 A 
ENDROOT
BRANCH   4   7
ATOM      7  N   UNL d   1      -8.118  -1.355  -0.136  0.00  0.00    -0.365 N 
ATOM      8  C   UNL d   1      -8.921  -0.468  -0.634  0.00  0.00     0.103 C 
ATOM      9  HN  UNL d   1      -8.490  -2.218   0.259  1.00  0.00     0.165 HD
BRANCH   8  10
ATOM     10  C   UNL d   1     -10.385  -0.683  -0.640  0.00  0.00     0.023 A 
ATOM     11  C   UNL d   1     -11.188  -0.110  -1.663  0.00  0.00    -0.012 A 
ATOM     12  C   UNL d   1     -12.593  -0.285  -1.579  0.00  0.00    -0.025 A 
ATOM     13  C   UNL d   1     -10.682   0.602  -2.780  0.00  0.00     0.013 A 
ATOM     14  C   UNL d   1     -13.427   0.256  -2.571  0.00  0.00     0.012 A 
ATOM     15  C   UNL d   1     -13.151  -1.008  -0.512  0.00  0.00     0.015 A 
ATOM     16  C   UNL d   1     -12.899   0.959  -3.652  0.00  0.00     0.001 A 
ATOM     17  C   UNL d   1     -11.526   1.129  -3.759  0.00  0.00     0.001 A 
ATOM     18  C   UNL d   1     -12.343  -1.578   0.471  0.00  0.00     0.038 A 
ATOM     19  C   UNL d   1     -10.967  -1.426   0.400  0.00  0.00     0.078 A 
BRANCH  19  20
ATOM     20  O   UNL d   1     -10.235  -2.020   1.393  0.00  0.00    -0.360 OA
ATOM     21  H   UNL d   1      -9.292  -1.987   1.113  0.00  0.00     0.217 HD
ENDBRANCH  19  20
ENDBRANCH   8  10
ENDBRANCH   4   7
BRANCH   1  22
ATOM     22  C   UNL d   1      -2.461  -0.533   0.061  0.00  0.00     0.085 A 
ATOM     23  N   UNL d   1      -1.858   0.531  -0.430  0.00  0.00    -0.349 N 
ATOM     24  C   UNL d   1      -0.497   0.477  -0.170  0.00  0.00     0.050 A 
ATOM     25  HN  UNL d   1      -2.326   1.287  -0.930  1.00  0.00     0.166 HD
ATOM     26  C   UNL d   1       0.453   1.462  -0.502  0.00  0.00     0.031 A 
ATOM     27  C   UNL d   1      -0.062  -0.672   0.489  0.00  0.00     0.034 A 
ATOM     28  C   UNL d   1       1.800   1.274  -0.163  0.00  0.00     0.009 A 
ATOM     29  C   UNL d   1       2.220   0.117   0.497  0.00  0.00    -0.061 A 
ATOM     30  C   UNL d   1       1.287  -0.876   0.828  0.00  0.00     0.028 A 
ATOM     31  C   UNL d   1       3.668  -0.059   0.852  0.00  0.00     0.048 C 
ATOM     32  S   UNL d   1      -1.409  -1.695   0.777  0.00  0.00    -0.070 SA
ENDBRANCH   1  22
TORSDOF 4
