REMARK  5 active torsions:
REMARK  status: ('A' for Active; 'I' for Inactive)
REMARK    1  A    between atoms: C_22  and  N_3 
REMARK    2  A    between atoms: C_11  and  C_4 
REMARK    3  A    between atoms: C_7  and  N_12 
REMARK    4  A    between atoms: S_18  and  C_10 
REMARK       I    between atoms: N_12  and  C_11 
REMARK    5  A    between atoms: C_19  and  S_18 
ROOT
ATOM      1  C   UNL d   1      -3.274   2.269  -0.099  0.00  0.00     0.168 C 
ATOM      2  S   UNL d   1      -4.660   3.275  -0.158  0.00  0.00    -0.026 SA
ATOM      3  C   UNL d   1      -3.701   4.401  -1.049  0.00  0.00     0.135 C 
ATOM      4  N   UNL d   1      -2.176   2.844  -0.533  0.00  0.00    -0.278 N 
ATOM      5  HN  UNL d   1      -1.250   2.418  -0.479  1.00  0.00     0.189 HD
ATOM      6  N   UNL d   1      -2.420   4.097  -1.075  0.00  0.00    -0.286 N 
ATOM      7  HN  UNL d   1      -1.695   4.710  -1.448  1.00  0.00     0.188 HD
ENDROOT
BRANCH   1   8
ATOM      8  N   UNL d   1      -3.482   0.977   0.329  0.00  0.00    -0.300 N 
ATOM      9  C   UNL d   1      -2.565  -0.014   0.034  0.00  0.00     0.277 C 
ATOM     10  O   UNL d   1      -1.496   0.169  -0.541  0.00  0.00    -0.266 OA
ATOM     11  H   UNL d   1      -4.387   0.704   0.686  0.00  0.00     0.171 HD
BRANCH   9  12
ATOM     12  C   UNL d   1      -2.986  -1.381   0.404  0.00  0.00     0.141 A 
ATOM     13  N   UNL d   1      -4.061  -1.685   1.174  0.00  0.00    -0.272 N 
ATOM     14  N   UNL d   1      -3.993  -3.059   1.236  0.00  0.00    -0.196 N 
ATOM     15  HN  UNL d   1      -4.743  -1.057   1.598  1.00  0.00     0.189 HD
ATOM     16  N   UNL d   1      -2.988  -3.628   0.534  0.00  0.00    -0.281 N 
ATOM     17  C   UNL d   1      -2.359  -2.588  -0.007  0.00  0.00     0.057 A 
ATOM     18  HN  UNL d   1      -2.765  -4.619   0.442  1.00  0.00     0.189 HD
ATOM     19  C   UNL d   1      -1.228  -2.847  -0.926  0.00  0.00     0.072 C 
BRANCH  14  20
ATOM     20  C   UNL d   1      -4.916  -3.896   1.925  0.00  0.00     0.074 A 
ATOM     21  C   UNL d   1      -6.016  -3.379   2.613  0.00  0.00     0.033 A 
ATOM     22  C   UNL d   1      -6.919  -4.259   3.229  0.00  0.00     0.002 A 
ATOM     23  C   UNL d   1      -6.724  -5.644   3.168  0.00  0.00     0.000 A 
ATOM     24  C   UNL d   1      -5.620  -6.160   2.502  0.00  0.00     0.002 A 
ATOM     25  C   UNL d   1      -4.719  -5.293   1.886  0.00  0.00     0.033 A 
ENDBRANCH  14  20
ENDBRANCH   9  12
ENDBRANCH   1   8
BRANCH   3  26
ATOM     26  S   UNL d   1      -4.372   5.574  -2.163  0.00  0.00    -0.063 SA
BRANCH  26  27
ATOM     27  C   UNL d   1      -4.492   7.089  -1.204  0.00  0.00     0.021 A 
ATOM     28  C   UNL d   1      -5.737   7.768  -1.071  0.00  0.00     0.008 A 
ATOM     29  C   UNL d   1      -5.711   9.072  -0.523  0.00  0.00     0.045 A 
ATOM     30  C   UNL d   1      -6.990   7.247  -1.492  0.00  0.00     0.017 A 
ATOM     31  C   UNL d   1      -6.890   9.801  -0.429  0.00  0.00     0.054 A 
ATOM     32  N   UNL d   1      -4.582   9.660  -0.109  0.00  0.00    -0.365 N 
ATOM     33  C   UNL d   1      -8.105   9.276  -0.864  0.00  0.00     0.036 A 
ATOM     34  C   UNL d   1      -8.163   7.994  -1.389  0.00  0.00     0.025 A 
ATOM     35 CL   UNL d   1      -9.535  10.226  -0.773  0.00  0.00    -0.084 Cl
ATOM     36  C   UNL d   1      -3.419   8.989  -0.250  0.00  0.00     0.090 A 
ATOM     37  HN  UNL d   1      -4.600  10.592   0.304  1.00  0.00     0.165 HD
ATOM     38  C   UNL d   1      -3.321   7.722  -0.789  0.00  0.00     0.037 A 
ENDBRANCH  26  27
ENDBRANCH   3  26
TORSDOF 5
