REMARK  5 active torsions:
REMARK  status: ('A' for Active; 'I' for Inactive)
REMARK    1  A    between atoms: N_2  and  S_1 
REMARK    2  A    between atoms: C_4  and  S_1 
REMARK    3  A    between atoms: N_5  and  N_2 
REMARK    4  A    between atoms: C_3  and  C_11 
REMARK    5  A    between atoms: O_21  and  C_9 
ROOT
ATOM      1  N   UNL d   1       0.543   0.696  -1.495  0.00  0.00    -0.223 N 
ATOM      2  H   UNL d   1      -0.022   0.099  -2.096  0.00  0.00     0.200 HD
ENDROOT
BRANCH   1   3
ATOM      3  S   UNL d   1       0.991   0.076   0.031  0.00  0.00     0.276 S 
ATOM      4  O   UNL d   1       0.199   0.728   1.053  0.00  0.00    -0.199 OA
ATOM      5  O   UNL d   1       2.436   0.015   0.105  0.00  0.00    -0.199 OA
BRANCH   3   6
ATOM      6  C   UNL d   1       0.390  -1.591  -0.115  0.00  0.00     0.081 A 
ATOM      7  C   UNL d   1       1.246  -2.594  -0.574  0.00  0.00     0.026 A 
ATOM      8  C   UNL d   1       0.765  -3.898  -0.698  0.00  0.00     0.008 A 
ATOM      9  C   UNL d   1      -0.561  -4.202  -0.359  0.00  0.00    -0.062 A 
ATOM     10  C   UNL d   1      -1.398  -3.189   0.128  0.00  0.00     0.008 A 
ATOM     11  C   UNL d   1      -1.065  -5.608  -0.515  0.00  0.00     0.048 C 
ATOM     12  C   UNL d   1      -0.925  -1.885   0.254  0.00  0.00     0.026 A 
ENDBRANCH   3   6
ENDBRANCH   1   3
BRANCH   1  13
ATOM     13  N   UNL d   1       0.787   2.075  -1.760  0.00  0.00    -0.301 N 
ATOM     14  C   UNL d   1       0.453   2.514  -2.932  0.00  0.00     0.122 C 
ATOM     15  HN  UNL d   1       1.205   2.688  -1.060  1.00  0.00     0.186 HD
BRANCH  14  16
ATOM     16  C   UNL d   1       0.659   3.930  -3.271  0.00  0.00     0.015 A 
ATOM     17  C   UNL d   1      -0.139   4.651  -4.168  0.00  0.00     0.080 A 
ATOM     18  C   UNL d   1       0.186   5.995  -4.425  0.00  0.00     0.039 A 
ATOM     19  C   UNL d   1       1.287   6.607  -3.816  0.00  0.00     0.022 A 
ATOM     20  C   UNL d   1       2.084   5.874  -2.948  0.00  0.00     0.011 A 
ATOM     21  C   UNL d   1       1.772   4.547  -2.667  0.00  0.00     0.034 A 
ATOM     22 BR   UNL d   1       3.613   6.664  -2.168  0.00  0.00    -0.051 Br
BRANCH  17  23
ATOM     23  O   UNL d   1      -1.178   4.190  -4.928  0.00  0.00    -0.355 OA
ATOM     24  C   UNL d   1      -2.160   3.381  -4.296  0.00  0.00     0.210 C 
ENDBRANCH  17  23
ENDBRANCH  14  16
ENDBRANCH   1  13
TORSDOF 5
