REMARK  2 active torsions:
REMARK  status: ('A' for Active; 'I' for Inactive)
REMARK    1  A    between atoms: N_18  and  C_2 
REMARK    2  A    between atoms: C_10  and  C_6 
ROOT
ATOM      1  C   UNL d   1      -2.406   0.757   0.061  0.00  0.00     0.084 C 
ATOM      2  C   UNL d   1      -2.381  -0.589   0.119  0.00  0.00     0.159 C 
ATOM      3  O   UNL d   1      -1.197  -1.298   0.252  0.00  0.00    -0.291 OA
ATOM      4  C   UNL d   1       0.109   0.730   0.021  0.00  0.00    -0.010 A 
ATOM      5  C   UNL d   1       0.013  -0.665   0.103  0.00  0.00     0.102 A 
ATOM      6  C   UNL d   1      -1.135   1.587   0.207  0.00  0.00     0.101 C 
ATOM      7  C   UNL d   1       1.168  -1.459   0.043  0.00  0.00     0.046 A 
ATOM      8  C   UNL d   1      -3.639   1.457  -0.091  0.00  0.00     0.100 C 
ATOM      9  N   UNL d   1      -4.613   2.079  -0.192  0.00  0.00    -0.191 NA
ATOM     10  C   UNL d   1       2.425  -0.871  -0.100  0.00  0.00     0.041 A 
ATOM     11  C   UNL d   1       1.373   1.307  -0.195  0.00  0.00     0.030 A 
ATOM     12  C   UNL d   1       2.518   0.510  -0.228  0.00  0.00     0.013 A 
ATOM     13 BR   UNL d   1       1.076  -3.351   0.158  0.00  0.00    -0.048 Br
ATOM     14 BR   UNL d   1       4.215   1.323  -0.413  0.00  0.00    -0.051 Br
ENDROOT
BRANCH   2  15
ATOM     15  N   UNL d   1      -3.482  -1.406   0.091  0.00  0.00    -0.379 N 
ATOM     16  H   UNL d   1      -4.338  -1.042  -0.318  0.00  0.00     0.158 HD
ATOM     17  H   UNL d   1      -3.267  -2.366  -0.173  0.00  0.00     0.158 HD
ENDBRANCH   2  15
BRANCH   6  18
ATOM     18  C   UNL d   1      -1.161   2.382   1.555  0.00  0.00     0.213 C 
ATOM     19  C   UNL d   1      -1.087   1.490   2.721  0.00  0.00     0.079 C 
ATOM     20  N   UNL d   1      -1.048   0.778   3.638  0.00  0.00    -0.196 NA
ATOM     21  C   UNL d   1      -0.116   3.415   1.605  0.00  0.00     0.079 C 
ATOM     22  N   UNL d   1       0.711   4.231   1.614  0.00  0.00    -0.196 NA
ENDBRANCH   6  18
TORSDOF 2
