REMARK  5 active torsions:
REMARK  status: ('A' for Active; 'I' for Inactive)
REMARK    1  A    between atoms: C_15  and  C_3 
REMARK    2  A    between atoms: C_7  and  C_5 
REMARK    3  A    between atoms: O_16  and  C_6 
REMARK    4  A    between atoms: O_18  and  C_9 
REMARK    5  A    between atoms: O_17  and  C_10 
ROOT
ATOM      1  N   UNL d   1      -0.394   1.645  -0.791  0.00  0.00    -0.358 N 
ATOM      2  HN  UNL d   1      -0.199   2.222  -1.609  1.00  0.00     0.166 HD
ATOM      3  C   UNL d   1      -1.544   1.760  -0.185  0.00  0.00     0.021 C 
ATOM      4  S   UNL d   1      -1.163  -1.461  -0.520  0.00  0.00    -0.118 SA
ATOM      5  C   UNL d   1      -2.333  -0.528   0.553  0.00  0.00     0.091 C 
ATOM      6  C   UNL d   1      -1.944   0.890   0.989  0.00  0.00     0.078 C 
ATOM      7  C   UNL d   1       0.581   0.740  -0.337  0.00  0.00     0.049 A 
ATOM      8  C   UNL d   1       0.383  -0.646  -0.170  0.00  0.00     0.028 A 
ATOM      9  C   UNL d   1       1.853   1.271  -0.090  0.00  0.00     0.031 A 
ATOM     10  C   UNL d   1       1.453  -1.458   0.236  0.00  0.00     0.021 A 
ATOM     11  C   UNL d   1       2.910   0.459   0.322  0.00  0.00     0.002 A 
ATOM     12  C   UNL d   1       2.710  -0.907   0.485  0.00  0.00     0.002 A 
ENDROOT
BRANCH   5  13
ATOM     13  C   UNL d   1      -3.755  -0.574   0.004  0.00  0.00    -0.038 A 
ATOM     14  C   UNL d   1      -4.060  -0.421  -1.353  0.00  0.00     0.048 A 
ATOM     15  C   UNL d   1      -5.380  -0.497  -1.822  0.00  0.00     0.104 A 
ATOM     16  C   UNL d   1      -6.433  -0.737  -0.922  0.00  0.00     0.135 A 
ATOM     17  C   UNL d   1      -6.136  -0.921   0.446  0.00  0.00     0.104 A 
ATOM     18  C   UNL d   1      -4.815  -0.786   0.895  0.00  0.00     0.048 A 
BRANCH  15  19
ATOM     19  O   UNL d   1      -5.456  -0.402  -3.189  0.00  0.00    -0.353 OA
ATOM     20  C   UNL d   1      -6.614   0.219  -3.727  0.00  0.00     0.210 C 
ENDBRANCH  15  19
BRANCH  16  21
ATOM     21  O   UNL d   1      -7.686  -0.965  -1.435  0.00  0.00    -0.351 OA
ATOM     22  C   UNL d   1      -8.746  -0.215  -0.845  0.00  0.00     0.210 C 
ENDBRANCH  16  21
BRANCH  17  23
ATOM     23  O   UNL d   1      -7.164  -1.267   1.291  0.00  0.00    -0.353 OA
ATOM     24  C   UNL d   1      -6.799  -1.851   2.539  0.00  0.00     0.210 C 
ENDBRANCH  17  23
ENDBRANCH   5  13
BRANCH   3  25
ATOM     25  C   UNL d   1      -2.495   2.802  -0.678  0.00  0.00    -0.014 A 
ATOM     26  C   UNL d   1      -2.502   3.118  -2.042  0.00  0.00     0.013 A 
ATOM     27  C   UNL d   1      -3.332   4.129  -2.528  0.00  0.00     0.001 A 
ATOM     28  C   UNL d   1      -4.157   4.835  -1.654  0.00  0.00     0.000 A 
ATOM     29  C   UNL d   1      -4.156   4.526  -0.294  0.00  0.00     0.001 A 
ATOM     30  C   UNL d   1      -3.327   3.514   0.197  0.00  0.00     0.013 A 
ENDBRANCH   3  25
TORSDOF 5
