REMARK  2 active torsions:
REMARK  status: ('A' for Active; 'I' for Inactive)
REMARK    1  A    between atoms: N_12  and  C_2 
REMARK    2  A    between atoms: C_11  and  C_6 
ROOT
ATOM      1  C   UNL d   1       2.588   0.173  -0.037  0.00  0.00     0.080 C 
ATOM      2  C   UNL d   1       1.983  -1.028   0.066  0.00  0.00     0.138 C 
ATOM      3  C   UNL d   1      -0.216  -0.069  -0.014  0.00  0.00     0.095 A 
ATOM      4  O   UNL d   1       0.608  -1.174  -0.062  0.00  0.00    -0.296 OA
ATOM      5  C   UNL d   1       0.307   1.227  -0.035  0.00  0.00    -0.009 A 
ATOM      6  C   UNL d   1       1.793   1.437  -0.251  0.00  0.00     0.102 C 
ATOM      7  C   UNL d   1       4.000   0.299   0.103  0.00  0.00     0.100 C 
ATOM      8  C   UNL d   1      -1.611  -0.296   0.026  0.00  0.00     0.009 A 
ATOM      9  N   UNL d   1       5.152   0.404   0.209  0.00  0.00    -0.191 NA
ATOM     10  C   UNL d   1      -0.566   2.319   0.054  0.00  0.00     0.012 A 
ATOM     11  C   UNL d   1      -2.479   0.819   0.083  0.00  0.00    -0.023 A 
ATOM     12  C   UNL d   1      -1.944   2.115   0.116  0.00  0.00     0.013 A 
ATOM     13  C   UNL d   1      -2.179  -1.587  -0.007  0.00  0.00     0.015 A 
ATOM     14  C   UNL d   1      -3.869   0.619   0.093  0.00  0.00     0.012 A 
ATOM     15  C   UNL d   1      -3.562  -1.770  -0.004  0.00  0.00     0.001 A 
ATOM     16  C   UNL d   1      -4.407  -0.667   0.043  0.00  0.00     0.001 A 
ENDROOT
BRANCH   2  17
ATOM     17  N   UNL d   1       2.620  -2.229   0.283  0.00  0.00    -0.282 NA
ATOM     18  H   UNL d   1       3.595  -2.276  -0.001  0.00  0.00     0.126 HD
ATOM     19  H   UNL d   1       2.067  -3.022  -0.031  0.00  0.00     0.126 HD
ENDBRANCH   2  17
BRANCH   6  20
ATOM     20  C   UNL d   1       2.056   2.060  -1.626  0.00  0.00    -0.044 A 
ATOM     21  C   UNL d   1       2.708   3.300  -1.728  0.00  0.00     0.010 A 
ATOM     22  C   UNL d   1       2.892   3.904  -2.974  0.00  0.00     0.024 A 
ATOM     23  C   UNL d   1       2.430   3.274  -4.128  0.00  0.00     0.034 A 
ATOM     24  C   UNL d   1       1.797   2.037  -4.049  0.00  0.00     0.024 A 
ATOM     25 CL   UNL d   1       2.634   4.033  -5.658  0.00  0.00    -0.084 Cl
ATOM     26  C   UNL d   1       1.615   1.430  -2.805  0.00  0.00     0.010 A 
ENDBRANCH   6  20
TORSDOF 2
