REMARK  3 active torsions:
REMARK  status: ('A' for Active; 'I' for Inactive)
REMARK    1  A    between atoms: N_3  and  N_1 
REMARK    2  A    between atoms: C_9  and  C_12 
REMARK    3  A    between atoms: C_10  and  C_11 
ROOT
ATOM      1  N   UNL d   1       0.914  -0.049   0.258  0.00  0.00    -0.311 N 
ATOM      2  HN  UNL d   1       0.334   0.657   0.711  1.00  0.00     0.186 HD
ATOM      3  C   UNL d   1       2.189  -0.187   0.442  0.00  0.00     0.119 C 
ENDROOT
BRANCH   1   4
ATOM      4  N   UNL d   1       0.449  -0.996  -0.642  0.00  0.00    -0.311 N 
ATOM      5  C   UNL d   1      -0.823  -0.866  -0.840  0.00  0.00     0.119 C 
ATOM      6  HN  UNL d   1       1.034  -1.702  -1.089  1.00  0.00     0.186 HD
BRANCH   5   7
ATOM      7  C   UNL d   1      -1.560  -1.802  -1.697  0.00  0.00    -0.004 A 
ATOM      8  C   UNL d   1      -0.917  -2.875  -2.297  0.00  0.00     0.100 A 
ATOM      9  N   UNL d   1      -1.551  -3.795  -3.065  0.00  0.00    -0.374 N 
ATOM     10  C   UNL d   1      -2.882  -3.630  -3.233  0.00  0.00     0.087 A 
ATOM     11  HN  UNL d   1      -1.049  -4.572  -3.494  1.00  0.00     0.164 HD
ATOM     12  C   UNL d   1      -3.606  -2.585  -2.676  0.00  0.00     0.018 A 
ATOM     13  C   UNL d   1      -2.931  -1.651  -1.893  0.00  0.00     0.015 A 
ENDBRANCH   5   7
ENDBRANCH   1   4
BRANCH   3  14
ATOM     14  C   UNL d   1       2.928   0.648   1.395  0.00  0.00    -0.004 A 
ATOM     15  C   UNL d   1       2.276   1.578   2.190  0.00  0.00     0.100 A 
ATOM     16  N   UNL d   1       2.909   2.362   3.097  0.00  0.00    -0.374 N 
ATOM     17  C   UNL d   1       4.246   2.202   3.208  0.00  0.00     0.087 A 
ATOM     18  HN  UNL d   1       2.401   3.038   3.668  1.00  0.00     0.164 HD
ATOM     19  C   UNL d   1       4.981   1.296   2.457  0.00  0.00     0.018 A 
ATOM     20  C   UNL d   1       4.307   0.501   1.532  0.00  0.00     0.015 A 
ENDBRANCH   3  14
TORSDOF 3
