REMARK  3 active torsions:
REMARK  status: ('A' for Active; 'I' for Inactive)
REMARK       I    between atoms: N_2  and  C_1 
REMARK    1  A    between atoms: O_4  and  C_1 
REMARK    2  A    between atoms: C_3  and  C_8 
REMARK       I    between atoms: N_13  and  C_3 
REMARK    3  A    between atoms: C_10  and  O_4 
ROOT
ATOM      1  C   UNL d   1       0.822  -0.028  -0.041  0.00  0.00     0.363 C 
ATOM      2  N   UNL d   1       0.299  -0.559  -1.208  0.00  0.00    -0.328 N 
ATOM      3  O   UNL d   1       0.472   1.057   0.413  0.00  0.00    -0.238 OA
ATOM      4  C   UNL d   1      -0.698   0.184  -1.962  0.00  0.00     0.129 C 
ATOM      5  C   UNL d   1       0.655  -1.857  -1.766  0.00  0.00     0.129 C 
ATOM      6  C   UNL d   1      -1.776  -2.031  -2.581  0.00  0.00     0.081 C 
ATOM      7  C   UNL d   1      -1.999  -0.610  -2.040  0.00  0.00     0.034 C 
ATOM      8  C   UNL d   1      -0.589  -2.736  -1.903  0.00  0.00     0.034 C 
ENDROOT
BRANCH   1   9
ATOM      9  O   UNL d   1       1.752  -0.833   0.543  0.00  0.00    -0.294 OA
BRANCH   9  10
ATOM     10  C   UNL d   1       2.410  -0.426   1.772  0.00  0.00     0.061 C 
ATOM     11  C   UNL d   1       1.417  -0.320   2.938  0.00  0.00     0.046 C 
ATOM     12  C   UNL d   1       3.403  -1.558   2.096  0.00  0.00     0.046 C 
ATOM     13  C   UNL d   1       3.211   0.868   1.585  0.00  0.00     0.046 C 
ENDBRANCH   9  10
ENDBRANCH   1   9
BRANCH   6  14
ATOM     14  C   UNL d   1      -1.635  -2.010  -4.096  0.00  0.00     0.219 C 
ATOM     15  O   UNL d   1      -0.573  -2.107  -4.695  0.00  0.00    -0.273 OA
ATOM     16  N   UNL d   1      -2.807  -1.831  -4.778  0.00  0.00    -0.370 N 
ATOM     17  H   UNL d   1      -3.709  -1.965  -4.341  0.00  0.00     0.159 HD
ATOM     18  H   UNL d   1      -2.761  -1.882  -5.787  0.00  0.00     0.159 HD
ENDBRANCH   6  14
TORSDOF 3
