REMARK  3 active torsions:
REMARK  status: ('A' for Active; 'I' for Inactive)
REMARK       I    between atoms: C_5  and  N_6 
REMARK    1  A    between atoms: C_8  and  C_5 
REMARK    2  A    between atoms: O_12  and  C_8 
REMARK    3  A    between atoms: C_17  and  O_12 
ROOT
ATOM      1  C   UNL d   1       0.830  -2.049  -0.097  0.00  0.00     0.256 C 
ATOM      2  N   UNL d   1      -0.485  -1.867   0.247  0.00  0.00    -0.324 N 
ATOM      3  C   UNL d   1      -1.109  -0.562   0.148  0.00  0.00     0.146 C 
ATOM      4  C   UNL d   1       1.656  -0.831  -0.066  0.00  0.00     0.065 A 
ATOM      5  C   UNL d   1      -4.608   0.664  -1.175  0.00  0.00     0.254 C 
ATOM      6  N   UNL d   1      -3.416   1.072  -0.565  0.00  0.00    -0.349 N 
ATOM      7  O   UNL d   1      -0.248   0.443   0.721  0.00  0.00    -0.319 OA
ATOM      8  C   UNL d   1       1.069   0.352   0.374  0.00  0.00     0.087 A 
ATOM      9  C   UNL d   1      -2.399  -0.527   0.990  0.00  0.00     0.081 C 
ATOM     10  C   UNL d   1      -1.445  -0.214  -1.319  0.00  0.00     0.081 C 
ATOM     11  C   UNL d   1      -2.217   1.100  -1.405  0.00  0.00     0.130 C 
ATOM     12  C   UNL d   1      -3.098   0.830   0.840  0.00  0.00     0.130 C 
ATOM     13  O   UNL d   1       1.279  -3.146  -0.390  0.00  0.00    -0.267 OA
ATOM     14  O   UNL d   1      -4.559   0.074  -2.263  0.00  0.00    -0.270 OA
ATOM     15  C   UNL d   1       3.005  -0.857  -0.428  0.00  0.00     0.020 A 
ATOM     16  C   UNL d   1       1.835   1.509   0.496  0.00  0.00     0.038 A 
ATOM     17  C   UNL d   1       3.766   0.309  -0.336  0.00  0.00     0.001 A 
ATOM     18  C   UNL d   1       3.182   1.489   0.134  0.00  0.00     0.003 A 
ATOM     19  H   UNL d   1      -1.052  -2.695   0.109  0.00  0.00     0.165 HD
ENDROOT
BRANCH   5  20
ATOM     20  C   UNL d   1      -6.007   1.075  -0.575  0.00  0.00     0.141 C 
ATOM     21  C   UNL d   1      -7.146   0.466  -1.434  0.00  0.00     0.057 C 
ATOM     22  C   UNL d   1      -6.245   0.489   0.830  0.00  0.00     0.057 C 
BRANCH  20  23
ATOM     23  O   UNL d   1      -6.166   2.493  -0.407  0.00  0.00    -0.331 OA
BRANCH  23  24
ATOM     24  C   UNL d   1      -6.280   3.365  -1.450  0.00  0.00     0.070 A 
ATOM     25  C   UNL d   1      -5.970   3.128  -2.787  0.00  0.00     0.038 A 
ATOM     26  C   UNL d   1      -6.192   4.116  -3.756  0.00  0.00     0.026 A 
ATOM     27  C   UNL d   1      -6.695   5.359  -3.383  0.00  0.00     0.034 A 
ATOM     28  C   UNL d   1      -6.971   5.626  -2.048  0.00  0.00     0.026 A 
ATOM     29 CL   UNL d   1      -6.975   6.565  -4.578  0.00  0.00    -0.084 Cl
ATOM     30  C   UNL d   1      -6.761   4.630  -1.087  0.00  0.00     0.038 A 
ENDBRANCH  23  24
ENDBRANCH  20  23
ENDBRANCH   5  20
TORSDOF 3
