REMARK  2 active torsions:
REMARK  status: ('A' for Active; 'I' for Inactive)
REMARK    1  A    between atoms: C_5  and  N_1 
REMARK    2  A    between atoms: C_6  and  C_5 
ROOT
ATOM      1  N   UNL d   1       0.483  -0.800  -0.049  0.00  0.00    -0.287 N 
ATOM      2  C   UNL d   1       0.687  -0.014  -1.148  0.00  0.00     0.177 A 
ATOM      3  C   UNL d   1       0.491  -0.032   1.089  0.00  0.00     0.244 A 
ATOM      4  N   UNL d   1       0.807   1.297  -0.732  0.00  0.00    -0.358 N 
ATOM      5  S   UNL d   1       0.781  -0.427  -2.749  0.00  0.00    -0.041 SA
ATOM      6  C   UNL d   1       0.690   1.423   0.693  0.00  0.00     0.225 A 
ATOM      7  O   UNL d   1       0.358  -0.425   2.240  0.00  0.00    -0.271 OA
ATOM      8  H   UNL d   1       0.965   2.058  -1.383  0.00  0.00     0.162 HD
ENDROOT
BRANCH   1   9
ATOM      9  C   UNL d   1       0.302  -2.244  -0.010  0.00  0.00     0.199 C 
BRANCH   9  10
ATOM     10  C   UNL d   1       1.622  -2.914   0.132  0.00  0.00     0.070 A 
ATOM     11  O   UNL d   1       2.013  -3.716  -0.900  0.00  0.00    -0.325 OA
ATOM     12  C   UNL d   1       3.231  -4.218  -0.576  0.00  0.00     0.142 A 
ATOM     13  C   UNL d   1       3.630  -3.757   0.656  0.00  0.00     0.027 A 
ATOM     14  C   UNL d   1       2.585  -2.923   1.122  0.00  0.00     0.036 A 
ENDBRANCH   9  10
ENDBRANCH   1   9
TORSDOF 2
