REMARK  1 active torsions:
REMARK  status: ('A' for Active; 'I' for Inactive)
REMARK    1  A    between atoms: C_4  and  C_1 
ROOT
ATOM      1  C   UNL d   1      -2.399  -0.140  -0.071  0.00  0.00     0.043 A 
ATOM      2  N   UNL d   1      -1.586   0.974  -0.049  0.00  0.00    -0.355 N 
ATOM      3  C   UNL d   1      -1.549  -1.234  -0.021  0.00  0.00     0.044 A 
ATOM      4  C   UNL d   1      -0.255   0.619  -0.027  0.00  0.00     0.043 A 
ATOM      5  C   UNL d   1      -0.207  -0.772  -0.007  0.00  0.00    -0.007 A 
ATOM      6  C   UNL d   1       0.897   1.413  -0.026  0.00  0.00     0.030 A 
ATOM      7  C   UNL d   1       1.047  -1.411   0.011  0.00  0.00     0.014 A 
ATOM      8  C   UNL d   1       2.133   0.757  -0.012  0.00  0.00     0.002 A 
ATOM      9  C   UNL d   1       2.209  -0.634   0.006  0.00  0.00     0.001 A 
ATOM     10  H   UNL d   1      -1.913   1.929  -0.051  0.00  0.00     0.166 HD
ENDROOT
BRANCH   1  11
ATOM     11  C   UNL d   1      -3.861  -0.089  -0.146  0.00  0.00    -0.006 A 
ATOM     12  C   UNL d   1      -4.523   0.965  -0.791  0.00  0.00     0.059 A 
ATOM     13  C   UNL d   1      -5.913   0.953  -0.899  0.00  0.00     0.155 A 
ATOM     14  F   UNL d   1      -6.527   1.961  -1.534  0.00  0.00    -0.203 F 
ATOM     15  C   UNL d   1      -6.657  -0.094  -0.371  0.00  0.00     0.154 A 
ATOM     16  C   UNL d   1      -6.022  -1.141   0.282  0.00  0.00     0.046 A 
ATOM     17  F   UNL d   1      -7.991  -0.106  -0.494  0.00  0.00    -0.203 F 
ATOM     18  C   UNL d   1      -4.629  -1.137   0.395  0.00  0.00     0.017 A 
ENDBRANCH   1  11
TORSDOF 1
