REMARK  2 active torsions:
REMARK  status: ('A' for Active; 'I' for Inactive)
REMARK    1  A    between atoms: C_9  and  C_3 
REMARK    2  A    between atoms: C_10  and  C_5 
ROOT
ATOM      1  N   UNL d   1      -0.857   1.408  -0.615  0.00  0.00    -0.357 N 
ATOM      2  HN  UNL d   1      -0.733   2.157  -1.297  1.00  0.00     0.166 HD
ATOM      3  C   UNL d   1      -2.031   1.201  -0.102  0.00  0.00     0.021 C 
ATOM      4  N   UNL d   1      -0.861  -1.609  -0.418  0.00  0.00    -0.282 NA
ATOM      5  C   UNL d   1      -2.175  -1.290   0.159  0.00  0.00     0.099 C 
ATOM      6  C   UNL d   1      -2.316   0.064   0.855  0.00  0.00     0.082 C 
ATOM      7  C   UNL d   1       0.250   0.619  -0.247  0.00  0.00     0.053 A 
ATOM      8  C   UNL d   1       0.246  -0.790  -0.148  0.00  0.00     0.035 A 
ATOM      9  C   UNL d   1       1.451   1.312  -0.033  0.00  0.00     0.031 A 
ATOM     10  C   UNL d   1       1.468  -1.453   0.066  0.00  0.00     0.026 A 
ATOM     11  C   UNL d   1       2.654  -0.748   0.272  0.00  0.00     0.002 A 
ATOM     12  C   UNL d   1       2.643   0.640   0.237  0.00  0.00     0.002 A 
ATOM     13  H   UNL d   1      -0.908  -1.761  -1.422  0.00  0.00     0.128 HD
ENDROOT
BRANCH   3  14
ATOM     14  C   UNL d   1      -3.143   2.131  -0.480  0.00  0.00    -0.014 A 
ATOM     15  C   UNL d   1      -3.131   2.717  -1.754  0.00  0.00     0.013 A 
ATOM     16  C   UNL d   1      -4.137   3.610  -2.130  0.00  0.00     0.001 A 
ATOM     17  C   UNL d   1      -5.156   3.929  -1.234  0.00  0.00     0.000 A 
ATOM     18  C   UNL d   1      -5.167   3.361   0.039  0.00  0.00     0.001 A 
ATOM     19  C   UNL d   1      -4.161   2.468   0.419  0.00  0.00     0.013 A 
ENDBRANCH   3  14
BRANCH   5  20
ATOM     20  C   UNL d   1      -3.297  -1.544  -0.844  0.00  0.00    -0.040 A 
ATOM     21  C   UNL d   1      -3.224  -1.103  -2.177  0.00  0.00     0.009 A 
ATOM     22  C   UNL d   1      -4.277  -1.333  -3.064  0.00  0.00     0.001 A 
ATOM     23  C   UNL d   1      -5.427  -1.986  -2.629  0.00  0.00     0.000 A 
ATOM     24  C   UNL d   1      -5.524  -2.415  -1.308  0.00  0.00     0.001 A 
ATOM     25  C   UNL d   1      -4.467  -2.198  -0.422  0.00  0.00     0.009 A 
ENDBRANCH   5  20
TORSDOF 2
