REMARK  2 active torsions:
REMARK  status: ('A' for Active; 'I' for Inactive)
REMARK    1  A    between atoms: N_7  and  N_10 
REMARK    2  A    between atoms: C_9  and  C_11 
ROOT
ATOM      1  C   UNL d   1      -2.089  -0.792  -0.088  0.00  0.00     0.164 A 
ATOM      2  N   UNL d   1      -1.052  -1.580   0.095  0.00  0.00    -0.334 N 
ATOM      3  HN  UNL d   1      -1.105  -2.590   0.229  1.00  0.00     0.168 HD
ATOM      4  S   UNL d   1      -1.701   0.879  -0.286  0.00  0.00    -0.051 SA
ATOM      5  C   UNL d   1       0.123  -0.844   0.081  0.00  0.00     0.051 A 
ATOM      6  C   UNL d   1      -0.033   0.527  -0.120  0.00  0.00     0.035 A 
ATOM      7  N   UNL d   1      -3.368  -1.252  -0.121  0.00  0.00    -0.280 N 
ATOM      8  C   UNL d   1       1.427  -1.355   0.246  0.00  0.00     0.031 A 
ATOM      9  C   UNL d   1       1.062   1.406  -0.165  0.00  0.00     0.021 A 
ATOM     10  C   UNL d   1       2.526  -0.490   0.203  0.00  0.00     0.002 A 
ATOM     11  C   UNL d   1       2.343   0.875  -0.002  0.00  0.00     0.002 A 
ATOM     12  H   UNL d   1      -3.473  -2.254   0.022  0.00  0.00     0.189 HD
ENDROOT
BRANCH   7  13
ATOM     13  N   UNL d   1      -4.452  -0.440  -0.252  0.00  0.00    -0.307 N 
ATOM     14  C   UNL d   1      -5.617  -1.003  -0.256  0.00  0.00     0.144 C 
ATOM     15  HN  UNL d   1      -4.350   0.571  -0.345  1.00  0.00     0.186 HD
BRANCH  14  16
ATOM     16  C   UNL d   1      -6.787  -0.184  -0.379  0.00  0.00     0.091 A 
ATOM     17  O   UNL d   1      -8.015  -0.783  -0.366  0.00  0.00    -0.321 OA
ATOM     18  C   UNL d   1      -8.940   0.206  -0.485  0.00  0.00     0.142 A 
ATOM     19  C   UNL d   1      -8.328   1.434  -0.577  0.00  0.00     0.027 A 
ATOM     20  C   UNL d   1      -6.939   1.184  -0.510  0.00  0.00     0.040 A 
ENDBRANCH  14  16
ENDBRANCH   7  13
TORSDOF 2
