REMARK  6 active torsions:
REMARK  status: ('A' for Active; 'I' for Inactive)
REMARK    1  A    between atoms: C_6  and  C_1 
REMARK    2  A    between atoms: O_7  and  N_2 
REMARK    3  A    between atoms: C_4  and  C_8 
REMARK    4  A    between atoms: N_16  and  C_4 
REMARK    5  A    between atoms: C_5  and  O_7 
REMARK    6  A    between atoms: C_10  and  C_5 
ROOT
ATOM      1  N   UNL d   1      -2.254   2.797  -4.452  0.00  0.00    -0.246 N 
ATOM      2  HN  UNL d   1      -2.842   2.611  -5.264  1.00  0.00     0.196 HD
ATOM      3  C   UNL d   1      -1.929   1.891  -3.580  0.00  0.00     0.109 C 
ENDROOT
BRANCH   3   4
ATOM      4  C   UNL d   1      -2.471   0.505  -3.788  0.00  0.00     0.004 A 
ATOM      5  C   UNL d   1      -2.655  -0.364  -2.703  0.00  0.00     0.030 A 
ATOM      6  C   UNL d   1      -3.171  -1.659  -2.903  0.00  0.00     0.048 A 
ATOM      7  C   UNL d   1      -3.491  -2.070  -4.207  0.00  0.00     0.016 A 
ATOM      8  C   UNL d   1      -3.312  -1.207  -5.287  0.00  0.00     0.002 A 
ATOM      9  C   UNL d   1      -2.809   0.079  -5.078  0.00  0.00     0.015 A 
BRANCH   6  10
ATOM     10  C   UNL d   1      -3.393  -2.603  -1.747  0.00  0.00     0.417 C 
ATOM     11  F   UNL d   1      -3.031  -2.083  -0.541  0.00  0.00    -0.166 F 
ATOM     12  F   UNL d   1      -2.686  -3.759  -1.879  0.00  0.00    -0.166 F 
ATOM     13  F   UNL d   1      -4.697  -2.975  -1.618  0.00  0.00    -0.166 F 
ENDBRANCH   6  10
ENDBRANCH   3   4
BRANCH   3  14
ATOM     14  N   UNL d   1      -1.112   2.127  -2.499  0.00  0.00    -0.286 NA
ATOM     15  H   UNL d   1      -0.599   2.996  -2.589  0.00  0.00     0.125 HD
ATOM     16  H   UNL d   1      -0.509   1.356  -2.233  0.00  0.00     0.125 HD
ENDBRANCH   3  14
BRANCH   1  17
ATOM     17  O   UNL d   1      -1.708   4.068  -4.160  0.00  0.00    -0.193 OA
BRANCH  17  18
ATOM     18  C   UNL d   1      -2.139   4.959  -5.108  0.00  0.00     0.315 C 
ATOM     19  O   UNL d   1      -2.859   4.723  -6.070  0.00  0.00    -0.257 OA
BRANCH  18  20
ATOM     20  C   UNL d   1      -1.603   6.329  -4.862  0.00  0.00     0.043 A 
ATOM     21  C   UNL d   1      -0.831   6.670  -3.745  0.00  0.00     0.041 A 
ATOM     22  C   UNL d   1      -0.366   7.982  -3.605  0.00  0.00     0.035 A 
ATOM     23 CL   UNL d   1       0.589   8.405  -2.236  0.00  0.00    -0.084 Cl
ATOM     24  C   UNL d   1      -0.663   8.957  -4.558  0.00  0.00     0.024 A 
ATOM     25  C   UNL d   1      -1.436   8.624  -5.667  0.00  0.00     0.003 A 
ATOM     26  C   UNL d   1      -1.903   7.318  -5.817  0.00  0.00     0.018 A 
ENDBRANCH  18  20
ENDBRANCH  17  18
ENDBRANCH   1  17
TORSDOF 6
