REMARK  3 active torsions:
REMARK  status: ('A' for Active; 'I' for Inactive)
REMARK    1  A    between atoms: C_8  and  N_1 
REMARK    2  A    between atoms: C_10  and  C_2 
REMARK    3  A    between atoms: C_9  and  C_7 
ROOT
ATOM      1  N   UNL d   1      -0.137  -1.311  -0.075  0.00  0.00    -0.223 N 
ATOM      2  C   UNL d   1       1.087  -0.642  -0.076  0.00  0.00     0.148 A 
ATOM      3  N   UNL d   1      -1.124  -0.386  -0.072  0.00  0.00     0.001 NA
ATOM      4  N   UNL d   1      -0.527   0.790  -0.014  0.00  0.00    -0.007 NA
ATOM      5  N   UNL d   1       0.832   0.653   0.000  0.00  0.00    -0.269 N 
ATOM      6  HN  UNL d   1       1.519   1.406   0.059  1.00  0.00     0.185 HD
ENDROOT
BRANCH   1   7
ATOM      7  C   UNL d   1      -0.438  -2.689   0.072  0.00  0.00     0.071 A 
ATOM      8  C   UNL d   1      -1.527  -3.294  -0.595  0.00  0.00     0.076 A 
ATOM      9  C   UNL d   1      -1.763  -4.668  -0.363  0.00  0.00     0.018 A 
ATOM     10  C   UNL d   1      -0.940  -5.421   0.474  0.00  0.00     0.001 A 
ATOM     11  C   UNL d   1       0.127  -4.816   1.121  0.00  0.00     0.002 A 
ATOM     12  C   UNL d   1       0.371  -3.454   0.933  0.00  0.00     0.032 A 
BRANCH   8  13
ATOM     13  C   UNL d   1      -2.439  -2.611  -1.595  0.00  0.00     0.419 C 
ATOM     14  F   UNL d   1      -1.893  -1.543  -2.230  0.00  0.00    -0.166 F 
ATOM     15  F   UNL d   1      -2.792  -3.458  -2.608  0.00  0.00    -0.166 F 
ATOM     16  F   UNL d   1      -3.610  -2.199  -1.042  0.00  0.00    -0.166 F 
ENDBRANCH   8  13
ENDBRANCH   1   7
BRANCH   2  17
ATOM     17  C   UNL d   1       2.434  -1.228  -0.169  0.00  0.00     0.011 A 
ATOM     18  C   UNL d   1       2.706  -2.368  -0.943  0.00  0.00     0.017 A 
ATOM     19  C   UNL d   1       3.982  -2.944  -0.935  0.00  0.00     0.025 A 
ATOM     20  C   UNL d   1       5.003  -2.362  -0.196  0.00  0.00     0.034 A 
ATOM     21  C   UNL d   1       4.767  -1.196   0.527  0.00  0.00     0.025 A 
ATOM     22 CL   UNL d   1       6.567  -3.087  -0.169  0.00  0.00    -0.084 Cl
ATOM     23  C   UNL d   1       3.487  -0.631   0.535  0.00  0.00     0.017 A 
ENDBRANCH   2  17
TORSDOF 3
