REMARK  4 active torsions:
REMARK  status: ('A' for Active; 'I' for Inactive)
REMARK    1  A    between atoms: N_6  and  C_1 
REMARK       I    between atoms: C_10  and  N_6 
REMARK    2  A    between atoms: N_7  and  C_12 
REMARK    3  A    between atoms: C_15  and  C_10 
REMARK    4  A    between atoms: O_27  and  C_25 
ROOT
ATOM      1  C   UNL d   1      -3.165   0.810  -0.185  0.00  0.00     0.152 A 
ATOM      2  C   UNL d   1      -1.045   0.212  -0.103  0.00  0.00     0.058 A 
ATOM      3  N   UNL d   1      -1.930   1.279  -0.180  0.00  0.00    -0.335 N 
ATOM      4  HN  UNL d   1      -1.670   2.264  -0.226  1.00  0.00     0.168 HD
ATOM      5  C   UNL d   1      -1.636  -1.030  -0.015  0.00  0.00     0.014 A 
ATOM      6  S   UNL d   1      -3.317  -0.893  -0.117  0.00  0.00    -0.056 SA
ATOM      7  C   UNL d   1       0.414   0.290  -0.067  0.00  0.00    -0.002 A 
ATOM      8  C   UNL d   1       1.159  -0.908  -0.182  0.00  0.00    -0.043 A 
ATOM      9  C   UNL d   1       1.092   1.500   0.099  0.00  0.00     0.017 A 
ATOM     10  C   UNL d   1      -0.923  -2.319   0.180  0.00  0.00     0.053 C 
ATOM     11  C   UNL d   1       2.558  -0.866  -0.131  0.00  0.00     0.044 A 
ATOM     12  C   UNL d   1       0.470  -2.235  -0.450  0.00  0.00     0.045 C 
ATOM     13  C   UNL d   1       3.232   0.343   0.046  0.00  0.00     0.068 A 
ATOM     14  C   UNL d   1       2.497   1.525   0.159  0.00  0.00     0.037 A 
ENDROOT
BRANCH   1  15
ATOM     15  N   UNL d   1      -4.273   1.634  -0.170  0.00  0.00    -0.303 N 
ATOM     16  C   UNL d   1      -5.583   1.204  -0.126  0.00  0.00     0.257 C 
ATOM     17  O   UNL d   1      -6.007   0.064  -0.276  0.00  0.00    -0.267 OA
ATOM     18  H   UNL d   1      -4.041   2.611  -0.072  0.00  0.00     0.171 HD
BRANCH  16  19
ATOM     19  C   UNL d   1      -6.600   2.239   0.188  0.00  0.00     0.032 A 
ATOM     20  C   UNL d   1      -6.598   3.509  -0.398  0.00  0.00     0.019 A 
ATOM     21  C   UNL d   1      -7.618   4.418  -0.084  0.00  0.00     0.037 A 
ATOM     22  C   UNL d   1      -8.633   4.051   0.817  0.00  0.00     0.102 A 
ATOM     23  C   UNL d   1      -8.640   2.780   1.401  0.00  0.00     0.037 A 
ATOM     24  C   UNL d   1      -7.628   1.877   1.078  0.00  0.00     0.019 A 
BRANCH  22  25
ATOM     25  N   UNL d   1      -9.703   5.003   1.145  0.00  0.00    -0.116 N 
ATOM     26  O   UNL d   1      -9.652   6.125   0.619  0.00  0.00    -0.532 OA
ATOM     27  O   UNL d   1     -10.587   4.633   1.928  0.00  0.00    -0.532 OA
ENDBRANCH  22  25
ENDBRANCH  16  19
ENDBRANCH   1  15
BRANCH  13  28
ATOM     28  O   UNL d   1       4.592   0.216   0.090  0.00  0.00    -0.356 OA
ATOM     29  C   UNL d   1       5.356   1.403   0.232  0.00  0.00     0.210 C 
ENDBRANCH  13  28
TORSDOF 4
