REMARK  1 active torsions:
REMARK  status: ('A' for Active; 'I' for Inactive)
REMARK    1  A    between atoms: C_6  and  N_1 
ROOT
ATOM      1  N   UNL d   1       2.432  -0.596  -0.088  0.00  0.00    -0.252 N 
ATOM      2  C   UNL d   1       2.400   0.806  -0.104  0.00  0.00     0.186 A 
ATOM      3  C   UNL d   1       1.280  -1.395   0.043  0.00  0.00     0.267 A 
ATOM      4  C   UNL d   1      -0.020  -0.703   0.015  0.00  0.00     0.059 A 
ATOM      5  N   UNL d   1       1.162   1.392  -0.016  0.00  0.00    -0.332 N 
ATOM      6  C   UNL d   1      -0.037   0.685   0.003  0.00  0.00     0.050 A 
ATOM      7  S   UNL d   1       3.694   1.866  -0.281  0.00  0.00    -0.040 SA
ATOM      8  O   UNL d   1       1.287  -2.612   0.221  0.00  0.00    -0.267 OA
ATOM      9  C   UNL d   1      -1.222  -1.421   0.009  0.00  0.00     0.019 A 
ATOM     10  C   UNL d   1      -1.251   1.373  -0.008  0.00  0.00     0.030 A 
ATOM     11  C   UNL d   1      -2.437  -0.738  -0.016  0.00  0.00     0.001 A 
ATOM     12  C   UNL d   1      -2.451   0.658  -0.023  0.00  0.00     0.002 A 
ATOM     13  H   UNL d   1       1.142   2.407  -0.048  0.00  0.00     0.168 HD
ENDROOT
BRANCH   1  14
ATOM     14  C   UNL d   1       3.676  -1.310  -0.142  0.00  0.00     0.067 A 
ATOM     15  C   UNL d   1       3.972  -2.191  -1.202  0.00  0.00     0.063 A 
ATOM     16  C   UNL d   1       5.152  -2.941  -1.192  0.00  0.00     0.050 A 
ATOM     17 CL   UNL d   1       2.961  -2.315  -2.602  0.00  0.00    -0.082 Cl
ATOM     18  C   UNL d   1       6.042  -2.811  -0.129  0.00  0.00     0.035 A 
ATOM     19  C   UNL d   1       5.773  -1.933   0.919  0.00  0.00     0.026 A 
ATOM     20 CL   UNL d   1       7.490  -3.739  -0.111  0.00  0.00    -0.084 Cl
ATOM     21  C   UNL d   1       4.591  -1.188   0.916  0.00  0.00     0.034 A 
ENDBRANCH   1  14
TORSDOF 1
