REMARK  5 active torsions:
REMARK  status: ('A' for Active; 'I' for Inactive)
REMARK    1  A    between atoms: N_15  and  C_3 
REMARK    2  A    between atoms: C_18  and  C_7 
REMARK    3  A    between atoms: C_12  and  S_20 
REMARK       I    between atoms: C_17  and  N_15 
REMARK    4  A    between atoms: C_27  and  C_17 
REMARK    5  A    between atoms: S_20  and  C_27 
ROOT
ATOM      1  N   UNL d   1       2.128  -2.393   1.007  0.00  0.00    -0.305 N 
ATOM      2  C   UNL d   1       1.755  -3.135  -0.095  0.00  0.00     0.233 C 
ATOM      3  O   UNL d   1       1.199  -2.714  -1.104  0.00  0.00    -0.272 OA
ATOM      4  H   UNL d   1       2.521  -2.860   1.814  0.00  0.00     0.171 HD
ENDROOT
BRANCH   2   5
ATOM      5  C   UNL d   1       2.071  -4.617   0.049  0.00  0.00     0.186 C 
BRANCH   5   6
ATOM      6  S   UNL d   1       3.871  -4.830   0.106  0.00  0.00    -0.075 SA
BRANCH   6   7
ATOM      7  C   UNL d   1       4.008  -6.555   0.046  0.00  0.00     0.204 A 
ATOM      8  O   UNL d   1       5.224  -7.175  -0.041  0.00  0.00    -0.267 OA
ATOM      9  C   UNL d   1       4.877  -8.498  -0.060  0.00  0.00     0.175 A 
ATOM     10  N   UNL d   1       3.573  -8.676   0.015  0.00  0.00    -0.277 N 
ATOM     11  N   UNL d   1       3.011  -7.413   0.088  0.00  0.00    -0.272 N 
ATOM     12  HN  UNL d   1       3.078  -9.568   0.019  1.00  0.00     0.189 HD
ATOM     13  HN  UNL d   1       2.018  -7.191   0.160  1.00  0.00     0.189 HD
BRANCH   9  14
ATOM     14  C   UNL d   1       5.971  -9.456  -0.160  0.00  0.00     0.017 A 
ATOM     15  C   UNL d   1       7.312  -9.034  -0.183  0.00  0.00     0.017 A 
ATOM     16  C   UNL d   1       8.356  -9.957  -0.285  0.00  0.00     0.025 A 
ATOM     17  C   UNL d   1       8.070 -11.317  -0.365  0.00  0.00     0.034 A 
ATOM     18  C   UNL d   1       6.749 -11.758  -0.342  0.00  0.00     0.025 A 
ATOM     19 CL   UNL d   1       9.354 -12.453  -0.494  0.00  0.00    -0.084 Cl
ATOM     20  C   UNL d   1       5.704 -10.832  -0.239  0.00  0.00     0.017 A 
ENDBRANCH   9  14
ENDBRANCH   6   7
ENDBRANCH   5   6
ENDBRANCH   2   5
BRANCH   1  21
ATOM     21  C   UNL d   1       2.076  -1.027   1.136  0.00  0.00     0.168 A 
ATOM     22  S   UNL d   1       1.615   0.020  -0.123  0.00  0.00    -0.031 SA
ATOM     23  C   UNL d   1       1.894   1.325   0.951  0.00  0.00     0.126 A 
ATOM     24  N   UNL d   1       2.304   0.955   2.149  0.00  0.00    -0.289 N 
ATOM     25  C   UNL d   1       1.688   2.695   0.578  0.00  0.00     0.110 A 
ATOM     26  N   UNL d   1       2.424  -0.419   2.249  0.00  0.00    -0.279 N 
ATOM     27  HN  UNL d   1       2.507   1.604   2.909  1.00  0.00     0.188 HD
ATOM     28  HN  UNL d   1       2.744  -0.904   3.088  1.00  0.00     0.189 HD
ATOM     29  O   UNL d   1       1.391   3.096  -0.703  0.00  0.00    -0.320 OA
ATOM     30  C   UNL d   1       1.742   3.823   1.383  0.00  0.00     0.042 A 
ATOM     31  C   UNL d   1       1.259   4.445  -0.699  0.00  0.00     0.142 A 
ATOM     32  C   UNL d   1       1.460   4.943   0.564  0.00  0.00     0.027 A 
ENDBRANCH   1  21
TORSDOF 5
