REMARK  5 active torsions:
REMARK  status: ('A' for Active; 'I' for Inactive)
REMARK    1  A    between atoms: C_3  and  C_1 
REMARK    2  A    between atoms: C_6  and  C_1 
REMARK    3  A    between atoms: C_2  and  C_9 
REMARK    4  A    between atoms: O_11  and  C_2 
REMARK    5  A    between atoms: C_9  and  C_6 
ROOT
ATOM      1  C   UNL d   1       0.974  -0.100  -0.153  0.00  0.00     0.160 C 
ATOM      2  O   UNL d   1       0.400  -0.897   0.590  0.00  0.00    -0.292 OA
ENDROOT
BRANCH   1   3
ATOM      3  C   UNL d   1       0.183   0.841  -0.991  0.00  0.00     0.010 A 
ATOM      4  C   UNL d   1      -1.033   1.323  -0.490  0.00  0.00     0.016 A 
ATOM      5  C   UNL d   1      -1.793   2.225  -1.240  0.00  0.00     0.020 A 
ATOM      6  C   UNL d   1      -1.343   2.632  -2.496  0.00  0.00     0.011 A 
ATOM      7  C   UNL d   1      -0.148   2.137  -3.013  0.00  0.00     0.020 A 
ATOM      8 BR   UNL d   1      -2.362   3.860  -3.509  0.00  0.00    -0.051 Br
ATOM      9  C   UNL d   1       0.615   1.237  -2.263  0.00  0.00     0.016 A 
ENDBRANCH   1   3
BRANCH   1  10
ATOM     10  C   UNL d   1       2.491  -0.018  -0.197  0.00  0.00     0.094 C 
BRANCH  10  11
ATOM     11  C   UNL d   1       3.120  -1.314   0.298  0.00  0.00     0.117 C 
BRANCH  11  12
ATOM     12  C   UNL d   1       2.785  -2.451  -0.633  0.00  0.00     0.139 C 
ATOM     13  O   UNL d   1       3.455  -2.736  -1.615  0.00  0.00    -0.650 OA
BRANCH  12  14
ATOM     14  O   UNL d   1       1.639  -3.090  -0.320  0.00  0.00    -0.776 OA
ATOM     15  H   UNL d   1       1.113  -2.630   0.377  0.00  0.00     0.167 HD
ENDBRANCH  12  14
ENDBRANCH  11  12
ENDBRANCH  10  11
ENDBRANCH   1  10
TORSDOF 5
