REMARK  3 active torsions:
REMARK  status: ('A' for Active; 'I' for Inactive)
REMARK    1  A    between atoms: C_4  and  C_1 
REMARK       I    between atoms: N_10  and  C_4 
REMARK       I    between atoms: C_9  and  N_11 
REMARK    2  A    between atoms: C_14  and  C_9 
REMARK    3  A    between atoms: N_11  and  N_10 
ROOT
ATOM      1  C   UNL d   1       1.190  -7.044   0.415  0.00  0.00     0.280 C 
ATOM      2  N   UNL d   1       1.513  -5.697   0.365  0.00  0.00    -0.263 N 
ATOM      3  O   UNL d   1       2.084  -7.890   0.395  0.00  0.00    -0.265 OA
ATOM      4  H   UNL d   1       0.824  -4.947   0.341  0.00  0.00     0.190 HD
ENDROOT
BRANCH   2   5
ATOM      5  N   UNL d   1       2.853  -5.311   0.249  0.00  0.00    -0.267 N 
ATOM      6  C   UNL d   1       3.137  -3.970   0.074  0.00  0.00     0.240 C 
ATOM      7  O   UNL d   1       2.248  -3.121   0.051  0.00  0.00    -0.271 OA
ATOM      8  H   UNL d   1       3.554  -6.048   0.302  0.00  0.00     0.190 HD
BRANCH   6   9
ATOM      9  C   UNL d   1       4.631  -3.657  -0.049  0.00  0.00     0.079 C 
ATOM     10  C   UNL d   1       4.918  -2.147  -0.076  0.00  0.00     0.014 C 
ATOM     11  C   UNL d   1       4.621  -1.481  -1.422  0.00  0.00     0.001 C 
ATOM     12  C   UNL d   1       5.249  -2.229  -2.592  0.00  0.00     0.000 C 
ATOM     13  C   UNL d   1       4.871  -3.704  -2.579  0.00  0.00     0.001 C 
ATOM     14  C   UNL d   1       5.266  -4.359  -1.258  0.00  0.00     0.014 C 
ENDBRANCH   6   9
ENDBRANCH   2   5
BRANCH   1  15
ATOM     15  C   UNL d   1      -0.219  -7.366   0.492  0.00  0.00     0.115 A 
ATOM     16  C   UNL d   1      -0.866  -8.596   0.568  0.00  0.00     0.046 A 
ATOM     17  N   UNL d   1      -2.257  -8.514   0.634  0.00  0.00    -0.298 N 
ATOM     18  C   UNL d   1      -0.284  -9.962   0.592  0.00  0.00     0.071 C 
ATOM     19  N   UNL d   1      -2.685  -7.267   0.609  0.00  0.00    -0.269 N 
ATOM     20  HN  UNL d   1      -2.872  -9.326   0.694  1.00  0.00     0.187 HD
ATOM     21  S   UNL d   1      -1.444  -6.162   0.507  0.00  0.00     0.009 SA
ATOM     22  HN  UNL d   1      -3.670  -7.008   0.647  1.00  0.00     0.195 HD
ENDBRANCH   1  15
TORSDOF 3
