REMARK  5 active torsions:
REMARK  status: ('A' for Active; 'I' for Inactive)
REMARK    1  A    between atoms: C_9  and  C_3 
REMARK    2  A    between atoms: C_12  and  C_4 
REMARK    3  A    between atoms: C_11  and  C_6 
REMARK    4  A    between atoms: O_18  and  C_11 
REMARK    5  A    between atoms: C_21  and  O_18 
ROOT
ATOM      1  C   UNL d   1       0.300  -0.795  -0.087  0.00  0.00     0.084 A 
ATOM      2  C   UNL d   1       0.320   0.576  -0.132  0.00  0.00     0.066 A 
ATOM      3  C   UNL d   1       2.588   0.107   0.071  0.00  0.00     0.102 A 
ATOM      4  C   UNL d   1       1.644   1.133  -0.061  0.00  0.00     0.024 A 
ATOM      5  S   UNL d   1       1.844  -1.458   0.025  0.00  0.00    -0.078 SA
ATOM      6  C   UNL d   1      -2.189  -0.803  -0.104  0.00  0.00     0.106 A 
ATOM      7  C   UNL d   1      -0.913  -1.597  -0.131  0.00  0.00     0.208 A 
ATOM      8  N   UNL d   1      -0.866   1.229  -0.233  0.00  0.00    -0.363 N 
ATOM      9  C   UNL d   1      -2.069   0.538  -0.177  0.00  0.00     0.110 A 
ATOM     10  O   UNL d   1      -0.920  -2.821  -0.209  0.00  0.00    -0.286 OA
ATOM     11  H   UNL d   1      -0.931   2.242  -0.312  0.00  0.00     0.165 HD
ENDROOT
BRANCH   4  12
ATOM     12  C   UNL d   1       1.996   2.559  -0.081  0.00  0.00    -0.022 A 
ATOM     13  C   UNL d   1       1.278   3.477   0.704  0.00  0.00     0.012 A 
ATOM     14  C   UNL d   1       1.598   4.838   0.686  0.00  0.00     0.001 A 
ATOM     15  C   UNL d   1       2.661   5.296  -0.087  0.00  0.00     0.000 A 
ATOM     16  C   UNL d   1       3.385   4.398  -0.867  0.00  0.00     0.001 A 
ATOM     17  C   UNL d   1       3.035   3.043  -0.885  0.00  0.00     0.012 A 
ENDBRANCH   4  12
BRANCH   3  18
ATOM     18  C   UNL d   1       4.079   0.115   0.221  0.00  0.00     0.424 C 
ATOM     19  F   UNL d   1       4.596   1.318   0.569  0.00  0.00    -0.166 F 
ATOM     20  F   UNL d   1       4.505  -0.759   1.173  0.00  0.00    -0.166 F 
ATOM     21  F   UNL d   1       4.689  -0.248  -0.940  0.00  0.00    -0.166 F 
ENDBRANCH   3  18
BRANCH   6  22
ATOM     22  C   UNL d   1      -3.531  -1.380   0.076  0.00  0.00     0.298 C 
ATOM     23  O   UNL d   1      -4.568  -0.760  -0.118  0.00  0.00    -0.259 OA
BRANCH  22  24
ATOM     24  O   UNL d   1      -3.445  -2.622   0.608  0.00  0.00    -0.318 OA
BRANCH  24  25
ATOM     25  C   UNL d   1      -4.657  -3.190   1.124  0.00  0.00     0.174 C 
ATOM     26  C   UNL d   1      -4.793  -2.779   2.577  0.00  0.00     0.034 C 
ENDBRANCH  24  25
ENDBRANCH  22  24
ENDBRANCH   6  22
TORSDOF 5
