REMARK  8 active torsions:
REMARK  status: ('A' for Active; 'I' for Inactive)
REMARK    1  A    between atoms: C_2  and  C_1 
REMARK       I    between atoms: N_3  and  C_1 
REMARK       I    between atoms: C_4  and  N_3 
REMARK       I    between atoms: N_8  and  C_4 
REMARK    2  A    between atoms: C_5  and  C_13 
REMARK    3  A    between atoms: C_6  and  C_14 
REMARK    4  A    between atoms: O_12  and  C_7 
REMARK    5  A    between atoms: C_24  and  N_8 
REMARK    6  A    between atoms: C_13  and  O_12 
REMARK    7  A    between atoms: C_14  and  O_23 
REMARK    8  A    between atoms: O_23  and  C_22 
ROOT
ATOM      1  C   UNL d   1       0.408   1.129  -0.611  0.00  0.00     0.068 A 
ATOM      2  C   UNL d   1       0.860   1.195  -1.957  0.00  0.00     0.085 A 
ATOM      3  C   UNL d   1      -0.871   1.617  -0.327  0.00  0.00     0.056 A 
ATOM      4  C   UNL d   1       0.022   1.736  -2.953  0.00  0.00     0.040 A 
ATOM      5  C   UNL d   1      -1.717   2.091  -1.335  0.00  0.00     0.070 A 
ATOM      6  C   UNL d   1      -1.265   2.173  -2.653  0.00  0.00     0.039 A 
ENDROOT
BRANCH   1   7
ATOM      7  C   UNL d   1       1.114   0.315   0.450  0.00  0.00     0.262 C 
ATOM      8  N   UNL d   1       0.901   0.441   1.842  0.00  0.00    -0.275 N 
ATOM      9  C   UNL d   1       0.684   1.554   2.654  0.00  0.00     0.327 C 
ATOM     10  H   UNL d   1       1.435  -0.286   2.301  0.00  0.00     0.173 HD
ATOM     11  N   UNL d   1       0.797   1.265   4.026  0.00  0.00    -0.309 N 
ATOM     12  O   UNL d   1       0.378   2.644   2.183  0.00  0.00    -0.247 OA
ATOM     13  H   UNL d   1       0.990   0.310   4.294  0.00  0.00     0.170 HD
ATOM     14  O   UNL d   1       1.848  -0.615   0.092  0.00  0.00    -0.267 OA
BRANCH  11  15
ATOM     15  C   UNL d   1       0.742   2.205   5.103  0.00  0.00     0.036 A 
ATOM     16  C   UNL d   1       0.467   3.559   4.929  0.00  0.00     0.029 A 
ATOM     17  C   UNL d   1       0.522   4.467   5.995  0.00  0.00     0.002 A 
ATOM     18  C   UNL d   1       0.843   4.031   7.275  0.00  0.00     0.000 A 
ATOM     19  C   UNL d   1       1.071   2.675   7.489  0.00  0.00     0.002 A 
ATOM     20  C   UNL d   1       1.012   1.765   6.416  0.00  0.00     0.029 A 
ENDBRANCH  11  15
ENDBRANCH   1   7
BRANCH   2  21
ATOM     21  O   UNL d   1       2.150   0.836  -2.271  0.00  0.00    -0.341 OA
BRANCH  21  22
ATOM     22  C   UNL d   1       2.350   0.118  -3.510  0.00  0.00     0.293 C 
BRANCH  22  23
ATOM     23  C   UNL d   1       2.548   0.960  -4.777  0.00  0.00     0.408 C 
ATOM     24  F   UNL d   1       2.631   2.284  -4.532  0.00  0.00    -0.169 F 
ATOM     25  F   UNL d   1       3.671   0.601  -5.442  0.00  0.00    -0.169 F 
ATOM     26  F   UNL d   1       1.514   0.775  -5.638  0.00  0.00    -0.169 F 
ENDBRANCH  22  23
ENDBRANCH  21  22
ENDBRANCH   2  21
BRANCH   5  27
ATOM     27  O   UNL d   1      -3.003   2.493  -1.114  0.00  0.00    -0.342 OA
BRANCH  27  28
ATOM     28  C   UNL d   1      -3.695   1.588  -0.237  0.00  0.00     0.293 C 
BRANCH  28  29
ATOM     29  C   UNL d   1      -5.172   1.910  -0.090  0.00  0.00     0.408 C 
ATOM     30  F   UNL d   1      -5.666   2.635  -1.112  0.00  0.00    -0.169 F 
ATOM     31  F   UNL d   1      -5.890   0.762  -0.020  0.00  0.00    -0.169 F 
ATOM     32  F   UNL d   1      -5.402   2.591   1.057  0.00  0.00    -0.169 F 
ENDBRANCH  28  29
ENDBRANCH  27  28
ENDBRANCH   5  27
TORSDOF 8
