REMARK  3 active torsions:
REMARK  status: ('A' for Active; 'I' for Inactive)
REMARK       I    between atoms: N_2  and  C_1 
REMARK       I    between atoms: N_3  and  C_1 
REMARK    1  A    between atoms: C_9  and  N_2 
REMARK    2  A    between atoms: C_10  and  N_3 
REMARK    3  A    between atoms: N_6  and  C_4 
ROOT
ATOM      1  C   UNL d   1      -1.059   0.431  -1.087  0.00  0.00     0.325 C 
ATOM      2  N   UNL d   1       0.199  -0.115  -1.295  0.00  0.00    -0.309 N 
ATOM      3  N   UNL d   1      -1.443   0.348   0.242  0.00  0.00    -0.309 N 
ATOM      4  O   UNL d   1      -1.760   0.908  -1.973  0.00  0.00    -0.247 OA
ATOM      5  H   UNL d   1       0.608  -0.630  -0.532  0.00  0.00     0.170 HD
ATOM      6  H   UNL d   1      -0.725   0.121   0.910  0.00  0.00     0.170 HD
ENDROOT
BRANCH   2   7
ATOM      7  C   UNL d   1       0.853  -0.221  -2.547  0.00  0.00     0.036 A 
ATOM      8  C   UNL d   1       0.426   0.431  -3.699  0.00  0.00     0.032 A 
ATOM      9  C   UNL d   1       1.084   0.247  -4.925  0.00  0.00     0.031 A 
ATOM     10  C   UNL d   1       2.208  -0.576  -5.054  0.00  0.00     0.029 A 
ATOM     11  C   UNL d   1       2.644  -1.198  -3.871  0.00  0.00     0.031 A 
ATOM     12  C   UNL d   1       1.984  -1.029  -2.639  0.00  0.00     0.032 A 
BRANCH  10  13
ATOM     13  N   UNL d   1       2.908  -0.712  -6.250  0.00  0.00    -0.390 N 
ATOM     14  C   UNL d   1       3.445  -2.021  -6.621  0.00  0.00     0.149 C 
ATOM     15  C   UNL d   1       2.595   0.147  -7.393  0.00  0.00     0.149 C 
ENDBRANCH  10  13
ENDBRANCH   2   7
BRANCH   3  16
ATOM     16  C   UNL d   1      -2.720   0.669   0.764  0.00  0.00     0.036 A 
ATOM     17  C   UNL d   1      -3.819   1.023  -0.029  0.00  0.00     0.032 A 
ATOM     18  C   UNL d   1      -5.060   1.309   0.544  0.00  0.00     0.044 A 
ATOM     19  C   UNL d   1      -5.208   1.234   1.919  0.00  0.00     0.116 A 
ATOM     20  C   UNL d   1      -4.136   0.883   2.729  0.00  0.00     0.044 A 
ATOM     21  F   UNL d   1      -6.400   1.498   2.471  0.00  0.00    -0.206 F 
ATOM     22  C   UNL d   1      -2.892   0.602   2.154  0.00  0.00     0.032 A 
ENDBRANCH   3  16
TORSDOF 3
