REMARK  4 active torsions:
REMARK  status: ('A' for Active; 'I' for Inactive)
REMARK    1  A    between atoms: C_6  and  C_1 
REMARK    2  A    between atoms: O_11  and  C_6 
REMARK    3  A    between atoms: O_12  and  C_9 
REMARK    4  A    between atoms: C_16  and  O_12 
ROOT
ATOM      1  C   UNL d   1      -1.864  -1.414  -0.070  0.00  0.00     0.114 A 
ATOM      2  C   UNL d   1      -2.207   0.013  -0.078  0.00  0.00     0.305 A 
ATOM      3  O   UNL d   1      -1.169   0.925  -0.071  0.00  0.00    -0.271 OA
ATOM      4  C   UNL d   1      -0.578  -1.799  -0.035  0.00  0.00     0.039 A 
ATOM      5  C   UNL d   1       0.188   0.547  -0.042  0.00  0.00     0.123 A 
ATOM      6  C   UNL d   1       0.499  -0.817  -0.011  0.00  0.00     0.002 A 
ATOM      7  O   UNL d   1      -3.383   0.375  -0.090  0.00  0.00    -0.259 OA
ATOM      8  C   UNL d   1       1.190   1.526  -0.039  0.00  0.00     0.103 A 
ATOM      9  C   UNL d   1       1.836  -1.216   0.035  0.00  0.00     0.014 A 
ATOM     10  C   UNL d   1       2.847  -0.257   0.047  0.00  0.00     0.004 A 
ATOM     11  C   UNL d   1       2.523   1.102   0.009  0.00  0.00     0.040 A 
ENDROOT
BRANCH   1  12
ATOM     12  C   UNL d   1      -2.903  -2.470  -0.103  0.00  0.00     0.182 C 
ATOM     13  O   UNL d   1      -2.637  -3.665  -0.112  0.00  0.00    -0.646 OA
BRANCH  12  14
ATOM     14  O   UNL d   1      -4.179  -2.030  -0.124  0.00  0.00    -0.772 OA
ATOM     15  H   UNL d   1      -4.293  -1.050  -0.114  0.00  0.00     0.167 HD
ENDBRANCH  12  14
ENDBRANCH   1  12
BRANCH   8  16
ATOM     16  O   UNL d   1       1.058   2.888  -0.076  0.00  0.00    -0.349 OA
BRANCH  16  17
ATOM     17  C   UNL d   1      -0.249   3.448  -0.167  0.00  0.00     0.171 C 
ATOM     18  C   UNL d   1      -0.123   4.959  -0.244  0.00  0.00     0.034 C 
ENDBRANCH  16  17
ENDBRANCH   8  16
TORSDOF 4
