REMARK  4 active torsions:
REMARK  status: ('A' for Active; 'I' for Inactive)
REMARK    1  A    between atoms: C_2  and  C_1 
REMARK    2  A    between atoms: C_13  and  N_3 
REMARK    3  A    between atoms: C_15  and  C_8 
REMARK    4  A    between atoms: C_9  and  C_16 
ROOT
ATOM      1  C   UNL d   1      -0.449  -2.740  -0.035  0.00  0.00     0.056 A 
ATOM      2  C   UNL d   1       0.078  -3.552   0.955  0.00  0.00     0.073 A 
ATOM      3  N   UNL d   1      -1.256  -4.842  -0.382  0.00  0.00    -0.310 N 
ATOM      4  HN  UNL d   1      -1.761  -5.644  -0.758  1.00  0.00     0.186 HD
ATOM      5  N   UNL d   1      -0.433  -4.800   0.679  0.00  0.00    -0.299 N 
ATOM      6  C   UNL d   1      -1.257  -3.585  -0.825  0.00  0.00     0.124 A 
ATOM      7  H   UNL d   1      -0.287  -5.656   1.203  0.00  0.00     0.187 HD
ENDROOT
BRANCH   1   8
ATOM      8  C   UNL d   1      -0.194  -1.292  -0.243  0.00  0.00     0.152 C 
ATOM      9  N   UNL d   1      -1.045  -0.354  -0.804  0.00  0.00    -0.224 N 
ATOM     10  N   UNL d   1      -0.304   0.727  -1.145  0.00  0.00     0.001 NA
ATOM     11  N   UNL d   1       0.883   0.537  -0.587  0.00  0.00    -0.007 NA
ATOM     12  N   UNL d   1       0.957  -0.699   0.002  0.00  0.00    -0.269 N 
ATOM     13  HN  UNL d   1       1.744  -1.082   0.526  1.00  0.00     0.185 HD
BRANCH   9  14
ATOM     14  C   UNL d   1      -2.458  -0.332  -0.881  0.00  0.00     0.056 A 
ATOM     15  C   UNL d   1      -3.232  -1.094   0.006  0.00  0.00     0.032 A 
ATOM     16  C   UNL d   1      -4.625  -1.032  -0.049  0.00  0.00     0.009 A 
ATOM     17  C   UNL d   1      -5.262  -0.217  -0.988  0.00  0.00    -0.062 A 
ATOM     18  C   UNL d   1      -4.486   0.560  -1.857  0.00  0.00     0.009 A 
ATOM     19  C   UNL d   1      -6.760  -0.143  -1.010  0.00  0.00     0.048 C 
ATOM     20  C   UNL d   1      -3.090   0.514  -1.799  0.00  0.00     0.032 A 
ENDBRANCH   9  14
ENDBRANCH   1   8
BRANCH   2  21
ATOM     21  C   UNL d   1       0.876  -3.280   2.149  0.00  0.00    -0.007 A 
ATOM     22  C   UNL d   1       0.638  -2.128   2.910  0.00  0.00     0.014 A 
ATOM     23  C   UNL d   1       1.385  -1.859   4.059  0.00  0.00     0.017 A 
ATOM     24  C   UNL d   1       2.383  -2.746   4.482  0.00  0.00     0.048 A 
ATOM     25  C   UNL d   1       2.612  -3.909   3.733  0.00  0.00     0.017 A 
ATOM     26  C   UNL d   1       1.867  -4.172   2.577  0.00  0.00     0.014 A 
BRANCH  24  27
ATOM     27  C   UNL d   1       3.193  -2.427   5.714  0.00  0.00     0.417 C 
ATOM     28  F   UNL d   1       4.090  -3.398   6.042  0.00  0.00    -0.166 F 
ATOM     29  F   UNL d   1       3.914  -1.280   5.582  0.00  0.00    -0.166 F 
ATOM     30  F   UNL d   1       2.413  -2.254   6.818  0.00  0.00    -0.166 F 
ENDBRANCH  24  27
ENDBRANCH   2  21
TORSDOF 4
