REMARK  3 active torsions:
REMARK  status: ('A' for Active; 'I' for Inactive)
REMARK    1  A    between atoms: C_16  and  C_4 
REMARK    2  A    between atoms: C_14  and  C_8 
REMARK    3  A    between atoms: N_15  and  C_9 
ROOT
ATOM      1  C   UNL d   1       4.306  -1.990   0.981  0.00  0.00     0.071 A 
ATOM      2  C   UNL d   1       4.985  -2.745  -0.006  0.00  0.00     0.050 A 
ATOM      3  C   UNL d   1       4.974  -1.353   2.084  0.00  0.00     0.102 C 
ATOM      4  N   UNL d   1       5.472  -0.847   3.004  0.00  0.00    -0.191 NA
ATOM      5  C   UNL d   1       4.184  -3.238  -1.063  0.00  0.00     0.031 A 
ATOM      6  C   UNL d   1       2.913  -1.787   0.909  0.00  0.00     0.036 A 
ATOM      7  C   UNL d   1       2.159  -2.303  -0.147  0.00  0.00    -0.034 A 
ATOM      8  C   UNL d   1       2.804  -3.022  -1.143  0.00  0.00     0.014 A 
ENDROOT
BRANCH   2   9
ATOM      9  N   UNL d   1       6.339  -3.052   0.006  0.00  0.00    -0.388 N 
ATOM     10  C   UNL d   1       7.108  -3.109  -1.236  0.00  0.00     0.149 C 
ATOM     11  C   UNL d   1       7.122  -3.194   1.230  0.00  0.00     0.149 C 
ENDBRANCH   2   9
BRANCH   7  12
ATOM     12  C   UNL d   1       0.708  -2.139  -0.161  0.00  0.00     0.031 C 
ATOM     13  C   UNL d   1       0.043  -1.051  -0.574  0.00  0.00     0.071 A 
ATOM     14  C   UNL d   1      -1.396  -0.807  -0.531  0.00  0.00     0.081 A 
ATOM     15  C   UNL d   1       0.600   0.126  -1.258  0.00  0.00     0.317 A 
ATOM     16  N   UNL d   1      -1.710   0.286  -1.163  0.00  0.00    -0.256 N 
ATOM     17  O   UNL d   1      -0.488   0.883  -1.631  0.00  0.00    -0.194 OA
ATOM     18  HN  UNL d   1      -2.651   0.654  -1.302  1.00  0.00     0.195 HD
ATOM     19  O   UNL d   1       1.766   0.380  -1.493  0.00  0.00    -0.257 OA
BRANCH  14  20
ATOM     20  C   UNL d   1      -2.387  -1.666   0.140  0.00  0.00    -0.006 A 
ATOM     21  C   UNL d   1      -3.660  -1.788  -0.427  0.00  0.00     0.014 A 
ATOM     22  C   UNL d   1      -4.610  -2.627   0.161  0.00  0.00     0.001 A 
ATOM     23  C   UNL d   1      -4.293  -3.341   1.316  0.00  0.00     0.000 A 
ATOM     24  C   UNL d   1      -3.044  -3.185   1.912  0.00  0.00     0.001 A 
ATOM     25  C   UNL d   1      -2.101  -2.330   1.339  0.00  0.00     0.014 A 
ENDBRANCH  14  20
ENDBRANCH   7  12
TORSDOF 3
