REMARK  6 active torsions:
REMARK  status: ('A' for Active; 'I' for Inactive)
REMARK    1  A    between atoms: C_5  and  C_1 
REMARK    2  A    between atoms: O_6  and  C_2 
REMARK    3  A    between atoms: C_3  and  C_4 
REMARK       I    between atoms: N_10  and  C_5 
REMARK    4  A    between atoms: C_20  and  O_6 
REMARK    5  A    between atoms: C_13  and  N_10 
REMARK    6  A    between atoms: C_11  and  C_13 
ROOT
ATOM      1  C   UNL d   1       0.684   1.286   0.435  0.00  0.00     0.098 A 
ATOM      2  C   UNL d   1      -0.642   0.872   0.390  0.00  0.00     0.164 A 
ATOM      3  C   UNL d   1       1.685   0.303   0.488  0.00  0.00     0.069 A 
ATOM      4  N   UNL d   1      -1.019  -0.429   0.496  0.00  0.00    -0.346 N 
ATOM      5  HN  UNL d   1      -2.004  -0.692   0.531  1.00  0.00     0.167 HD
ATOM      6  C   UNL d   1      -0.049  -1.358   0.555  0.00  0.00     0.091 A 
ATOM      7  C   UNL d   1       1.297  -1.047   0.535  0.00  0.00     0.034 A 
ENDROOT
BRANCH   1   8
ATOM      8  C   UNL d   1       1.042   2.706   0.309  0.00  0.00     0.257 C 
ATOM      9  N   UNL d   1       0.582   3.558   1.285  0.00  0.00    -0.352 N 
ATOM     10  H   UNL d   1      -0.049   3.232   2.011  0.00  0.00     0.163 HD
ATOM     11  O   UNL d   1       1.773   3.043  -0.615  0.00  0.00    -0.267 OA
BRANCH   9  12
ATOM     12  C   UNL d   1       0.959   4.949   1.250  0.00  0.00     0.163 C 
BRANCH  12  13
ATOM     13  C   UNL d   1       0.397   5.889   2.297  0.00  0.00    -0.019 A 
ATOM     14  C   UNL d   1      -0.755   5.704   3.079  0.00  0.00     0.043 A 
ATOM     15  C   UNL d   1      -1.198   6.707   3.955  0.00  0.00     0.048 A 
ATOM     16 CL   UNL d   1      -1.712   4.265   3.029  0.00  0.00    -0.084 Cl
ATOM     17  C   UNL d   1      -0.510   7.913   4.048  0.00  0.00     0.035 A 
ATOM     18  C   UNL d   1       0.625   8.130   3.281  0.00  0.00     0.024 A 
ATOM     19 CL   UNL d   1      -1.075   9.147   5.106  0.00  0.00    -0.084 Cl
ATOM     20  C   UNL d   1       1.071   7.128   2.417  0.00  0.00     0.012 A 
ENDBRANCH  12  13
ENDBRANCH   9  12
ENDBRANCH   1   8
BRANCH   2  21
ATOM     21  O   UNL d   1      -1.637   1.819   0.178  0.00  0.00    -0.293 OA
BRANCH  21  22
ATOM     22  C   UNL d   1      -2.727   1.385  -0.546  0.00  0.00     0.077 A 
ATOM     23  C   UNL d   1      -3.994   1.604  -0.008  0.00  0.00     0.039 A 
ATOM     24  C   UNL d   1      -5.124   1.138  -0.685  0.00  0.00     0.026 A 
ATOM     25  C   UNL d   1      -4.979   0.471  -1.903  0.00  0.00     0.034 A 
ATOM     26  C   UNL d   1      -3.716   0.292  -2.466  0.00  0.00     0.026 A 
ATOM     27 CL   UNL d   1      -6.368  -0.140  -2.715  0.00  0.00    -0.084 Cl
ATOM     28  C   UNL d   1      -2.588   0.765  -1.795  0.00  0.00     0.039 A 
ENDBRANCH  21  22
ENDBRANCH   2  21
BRANCH   3  29
ATOM     29  C   UNL d   1       3.151   0.643   0.444  0.00  0.00     0.418 C 
ATOM     30  F   UNL d   1       3.486   1.771   1.123  0.00  0.00    -0.166 F 
ATOM     31  F   UNL d   1       3.911  -0.341   1.012  0.00  0.00    -0.166 F 
ATOM     32  F   UNL d   1       3.627   0.774  -0.822  0.00  0.00    -0.166 F 
ENDBRANCH   3  29
TORSDOF 6
