REMARK  6 active torsions:
REMARK  status: ('A' for Active; 'I' for Inactive)
REMARK    1  A    between atoms: N_2  and  S_1 
REMARK    2  A    between atoms: C_4  and  S_1 
REMARK    3  A    between atoms: C_3  and  N_2 
REMARK    4  A    between atoms: O_12  and  C_10 
REMARK    5  A    between atoms: C_19  and  O_12 
REMARK    6  A    between atoms: C_17  and  C_19 
ROOT
ATOM      1  C   UNL d   1       0.968  -2.253  -1.412  0.00  0.00     0.128 A 
ATOM      2  N   UNL d   1      -0.120  -2.730  -2.046  0.00  0.00    -0.354 N 
ATOM      3  HN  UNL d   1      -1.049  -2.688  -1.629  1.00  0.00     0.166 HD
ATOM      4  C   UNL d   1       2.272  -2.293  -1.912  0.00  0.00     0.108 A 
ATOM      5  C   UNL d   1       0.091  -3.266  -3.265  0.00  0.00     0.089 A 
ATOM      6  C   UNL d   1       2.451  -2.874  -3.163  0.00  0.00     0.041 A 
ATOM      7  C   UNL d   1       1.341  -3.358  -3.858  0.00  0.00     0.020 A 
ENDROOT
BRANCH   1   8
ATOM      8  N   UNL d   1       0.640  -1.613  -0.194  0.00  0.00    -0.164 NA
ATOM      9  H   UNL d   1      -0.146  -2.078   0.250  0.00  0.00     0.147 HD
BRANCH   8  10
ATOM     10  S   UNL d   1       0.338   0.045  -0.327  0.00  0.00     0.247 S 
ATOM     11  O   UNL d   1       1.431   0.686  -1.032  0.00  0.00    -0.205 OA
ATOM     12  O   UNL d   1      -0.090   0.503   0.976  0.00  0.00    -0.205 OA
BRANCH  10  13
ATOM     13  C   UNL d   1      -1.102   0.127  -1.379  0.00  0.00     0.074 A 
ATOM     14  C   UNL d   1      -2.284  -0.499  -0.965  0.00  0.00     0.026 A 
ATOM     15  C   UNL d   1      -3.389  -0.513  -1.817  0.00  0.00     0.020 A 
ATOM     16  C   UNL d   1      -3.312   0.121  -3.058  0.00  0.00     0.011 A 
ATOM     17  C   UNL d   1      -2.147   0.781  -3.453  0.00  0.00     0.020 A 
ATOM     18 BR   UNL d   1      -4.801   0.074  -4.223  0.00  0.00    -0.051 Br
ATOM     19  C   UNL d   1      -1.033   0.785  -2.611  0.00  0.00     0.026 A 
ENDBRANCH  10  13
ENDBRANCH   8  10
ENDBRANCH   1   8
BRANCH   4  20
ATOM     20  O   UNL d   1       3.270  -1.836  -1.105  0.00  0.00    -0.343 OA
BRANCH  20  21
ATOM     21  C   UNL d   1       4.469  -1.398  -1.734  0.00  0.00     0.214 C 
BRANCH  21  22
ATOM     22  C   UNL d   1       5.126  -0.441  -0.771  0.00  0.00    -0.032 A 
ATOM     23  C   UNL d   1       4.778   0.919  -0.795  0.00  0.00     0.035 A 
ATOM     24  C   UNL d   1       5.306   1.810   0.143  0.00  0.00     0.056 A 
ATOM     25 CL   UNL d   1       4.820   3.465   0.042  0.00  0.00    -0.083 Cl
ATOM     26  C   UNL d   1       6.187   1.344   1.122  0.00  0.00     0.055 A 
ATOM     27  C   UNL d   1       6.535  -0.011   1.157  0.00  0.00     0.026 A 
ATOM     28 CL   UNL d   1       6.873   2.381   2.322  0.00  0.00    -0.083 Cl
ATOM     29  C   UNL d   1       6.005  -0.900   0.218  0.00  0.00     0.011 A 
ENDBRANCH  21  22
ENDBRANCH  20  21
ENDBRANCH   4  20
TORSDOF 6
