REMARK  4 active torsions:
REMARK  status: ('A' for Active; 'I' for Inactive)
REMARK    1  A    between atoms: C_6  and  C_1 
REMARK    2  A    between atoms: N_13  and  C_2 
REMARK    3  A    between atoms: C_8  and  C_3 
REMARK    4  A    between atoms: O_15  and  C_6 
ROOT
ATOM      1  C   UNL d   1      -1.316   2.344   1.484  0.00  0.00     0.212 C 
ATOM      2  N   UNL d   1       0.573   4.170   1.684  0.00  0.00    -0.196 NA
ATOM      3  N   UNL d   1      -1.374   0.722   3.556  0.00  0.00    -0.196 NA
ATOM      4  C   UNL d   1      -1.323   1.436   2.643  0.00  0.00     0.079 C 
ATOM      5  C   UNL d   1      -0.255   3.362   1.604  0.00  0.00     0.079 C 
ENDROOT
BRANCH   1   6
ATOM      6  C   UNL d   1      -1.244   1.567   0.131  0.00  0.00     0.096 C 
ATOM      7  C   UNL d   1      -2.490   0.707  -0.073  0.00  0.00     0.073 C 
ATOM      8  C   UNL d   1      -2.432  -0.642  -0.053  0.00  0.00     0.134 C 
ATOM      9  O   UNL d   1      -1.246  -1.318   0.202  0.00  0.00    -0.298 OA
ATOM     10  C   UNL d   1      -0.054  -0.652   0.089  0.00  0.00     0.084 A 
ATOM     11  C   UNL d   1       0.022   0.737  -0.020  0.00  0.00    -0.013 A 
ATOM     12  C   UNL d   1       1.100  -1.436   0.079  0.00  0.00     0.038 A 
ATOM     13  C   UNL d   1       1.278   1.325  -0.232  0.00  0.00     0.011 A 
ATOM     14  C   UNL d   1       2.435   0.543  -0.240  0.00  0.00     0.001 A 
ATOM     15  C   UNL d   1       2.348  -0.836  -0.068  0.00  0.00     0.003 A 
BRANCH   7  16
ATOM     16  C   UNL d   1      -3.739   1.483  -0.308  0.00  0.00     0.293 C 
ATOM     17  O   UNL d   1      -3.714   2.676  -0.575  0.00  0.00    -0.259 OA
BRANCH  16  18
ATOM     18  O   UNL d   1      -4.856   0.758  -0.058  0.00  0.00    -0.323 OA
ATOM     19  C   UNL d   1      -6.092   1.460  -0.213  0.00  0.00     0.213 C 
ENDBRANCH  16  18
ENDBRANCH   7  16
BRANCH   8  20
ATOM     20  N   UNL d   1      -3.485  -1.505  -0.238  0.00  0.00    -0.282 NA
ATOM     21  H   UNL d   1      -4.393  -1.098  -0.014  0.00  0.00     0.126 HD
ATOM     22  H   UNL d   1      -3.324  -2.398   0.221  0.00  0.00     0.126 HD
ENDBRANCH   8  20
ENDBRANCH   1   6
TORSDOF 4
