REMARK  3 active torsions:
REMARK  status: ('A' for Active; 'I' for Inactive)
REMARK    1  A    between atoms: C_14  and  N_9 
REMARK    2  A    between atoms: C_19  and  C_12 
REMARK    3  A    between atoms: C_15  and  C_14 
ROOT
ATOM      1  N   UNL d   1       1.236  -0.612  -0.036  0.00  0.00    -0.203 N 
ATOM      2  C   UNL d   1      -1.183  -0.641   0.019  0.00  0.00     0.062 A 
ATOM      3  C   UNL d   1       1.230   0.776   0.040  0.00  0.00     0.133 A 
ATOM      4  C   UNL d   1      -1.102   0.689   0.082  0.00  0.00     0.116 A 
ATOM      5  C   UNL d   1       0.069  -1.424  -0.054  0.00  0.00     0.278 A 
ATOM      6  N   UNL d   1       2.506  -1.103  -0.092  0.00  0.00    -0.289 N 
ATOM      7  HN  UNL d   1       2.794  -2.077  -0.176  1.00  0.00     0.188 HD
ATOM      8  N   UNL d   1       0.047   1.426   0.096  0.00  0.00    -0.336 N 
ATOM      9  N   UNL d   1      -3.303   0.106  -0.013  0.00  0.00    -0.336 N 
ATOM     10  C   UNL d   1      -2.481   1.210   0.107  0.00  0.00     0.271 A 
ATOM     11  C   UNL d   1       2.531   1.184   0.043  0.00  0.00     0.082 A 
ATOM     12  C   UNL d   1       3.296  -0.014  -0.011  0.00  0.00     0.062 A 
ATOM     13  C   UNL d   1      -2.571  -1.148   0.002  0.00  0.00     0.173 A 
ATOM     14  O   UNL d   1       0.111  -2.644  -0.131  0.00  0.00    -0.265 OA
ATOM     15  O   UNL d   1      -2.778   2.385   0.202  0.00  0.00    -0.266 OA
ATOM     16  H   UNL d   1      -0.067   2.438   0.142  0.00  0.00     0.168 HD
ENDROOT
BRANCH   9  17
ATOM     17  C   UNL d   1      -4.748   0.184   0.022  0.00  0.00     0.191 C 
BRANCH  17  18
ATOM     18  C   UNL d   1      -5.212   0.224   1.430  0.00  0.00     0.070 A 
ATOM     19  O   UNL d   1      -5.487  -0.973   2.023  0.00  0.00    -0.325 OA
ATOM     20  C   UNL d   1      -5.855  -0.703   3.303  0.00  0.00     0.142 A 
ATOM     21  C   UNL d   1      -5.824   0.652   3.539  0.00  0.00     0.027 A 
ATOM     22  C   UNL d   1      -5.425   1.254   2.323  0.00  0.00     0.036 A 
ENDBRANCH  17  18
ENDBRANCH   9  17
BRANCH  12  23
ATOM     23  C   UNL d   1       4.758  -0.105   0.023  0.00  0.00    -0.008 A 
ATOM     24  C   UNL d   1       5.431  -1.131  -0.651  0.00  0.00     0.014 A 
ATOM     25  C   UNL d   1       6.827  -1.206  -0.612  0.00  0.00     0.001 A 
ATOM     26  C   UNL d   1       7.561  -0.262   0.105  0.00  0.00     0.000 A 
ATOM     27  C   UNL d   1       6.903   0.765   0.778  0.00  0.00     0.001 A 
ATOM     28  C   UNL d   1       5.510   0.845   0.734  0.00  0.00     0.014 A 
ENDBRANCH  12  23
TORSDOF 3
