REMARK  3 active torsions:
REMARK  status: ('A' for Active; 'I' for Inactive)
REMARK    1  A    between atoms: C_9  and  C_12 
REMARK    2  A    between atoms: C_12  and  O_14 
REMARK    3  A    between atoms: O_14  and  C_13 
ROOT
ATOM      1  C   UNL d   1      -0.423  -0.797   0.106  0.00  0.00     0.086 A 
ATOM      2  C   UNL d   1      -0.692   0.567   0.085  0.00  0.00     0.043 A 
ATOM      3  C   UNL d   1       0.429   1.510   0.238  0.00  0.00     0.165 C 
ATOM      4  O   UNL d   1       0.824  -1.342   0.214  0.00  0.00    -0.340 OA
ATOM      5  C   UNL d   1       1.922  -0.461  -0.081  0.00  0.00     0.067 C 
ATOM      6  C   UNL d   1       1.756   0.900   0.600  0.00  0.00     0.121 C 
ATOM      7  C   UNL d   1      -1.470  -1.713   0.048  0.00  0.00     0.074 A 
ATOM      8  C   UNL d   1      -2.006   1.024  -0.036  0.00  0.00     0.021 A 
ATOM      9  O   UNL d   1       0.259   2.720   0.151  0.00  0.00    -0.292 OA
ATOM     10  C   UNL d   1      -2.791  -1.268  -0.009  0.00  0.00     0.071 A 
ATOM     11  C   UNL d   1      -3.055   0.101  -0.085  0.00  0.00     0.038 A 
ATOM     12  C   UNL d   1       2.090  -0.347  -1.604  0.00  0.00     0.046 C 
ATOM     13  C   UNL d   1       3.159  -1.162   0.496  0.00  0.00     0.046 C 
ENDROOT
BRANCH  10  14
ATOM     14  O   UNL d   1      -3.887  -2.090   0.013  0.00  0.00    -0.346 OA
BRANCH  14  15
ATOM     15  C   UNL d   1      -3.653  -3.384   0.586  0.00  0.00     0.217 C 
BRANCH  15  16
ATOM     16  C   UNL d   1      -4.941  -4.008   1.050  0.00  0.00     0.004 A 
ATOM     17  C   UNL d   1      -4.929  -4.837   2.176  0.00  0.00     0.124 A 
ATOM     18  F   UNL d   1      -3.780  -5.050   2.836  0.00  0.00    -0.205 F 
ATOM     19  C   UNL d   1      -6.085  -5.456   2.636  0.00  0.00     0.043 A 
ATOM     20  C   UNL d   1      -7.284  -5.262   1.955  0.00  0.00     0.003 A 
ATOM     21  C   UNL d   1      -7.314  -4.457   0.815  0.00  0.00     0.001 A 
ATOM     22  C   UNL d   1      -6.147  -3.836   0.360  0.00  0.00     0.012 A 
ENDBRANCH  15  16
ENDBRANCH  14  15
ENDBRANCH  10  14
TORSDOF 3
