REMARK  5 active torsions:
REMARK  status: ('A' for Active; 'I' for Inactive)
REMARK    1  A    between atoms: C_8  and  C_1 
REMARK    2  A    between atoms: C_9  and  C_2 
REMARK    3  A    between atoms: S_14  and  C_6 
REMARK    4  A    between atoms: O_16  and  C_8 
REMARK    5  A    between atoms: C_19  and  O_16 
ROOT
ATOM      1  C   UNL d   1       0.890   1.155  -0.101  0.00  0.00     0.067 C 
ATOM      2  C   UNL d   1       1.456  -0.227   0.200  0.00  0.00     0.165 C 
ATOM      3  C   UNL d   1      -0.447   1.335  -0.168  0.00  0.00     0.022 C 
ATOM      4  N   UNL d   1       0.520  -1.360  -0.041  0.00  0.00    -0.357 N 
ATOM      5  HN  UNL d   1       0.848  -2.321  -0.137  1.00  0.00     0.162 HD
ATOM      6  C   UNL d   1      -0.724  -1.056  -0.119  0.00  0.00     0.140 C 
ATOM      7  N   UNL d   1      -1.240   0.205  -0.074  0.00  0.00    -0.340 N 
ATOM      8  C   UNL d   1      -1.187   2.632  -0.352  0.00  0.00     0.069 C 
ATOM      9  H   UNL d   1      -2.237   0.305  -0.216  0.00  0.00     0.167 HD
ENDROOT
BRANCH   1  10
ATOM     10  C   UNL d   1       1.871   2.258  -0.274  0.00  0.00     0.293 C 
ATOM     11  O   UNL d   1       1.661   3.431  -0.027  0.00  0.00    -0.259 OA
BRANCH  10  12
ATOM     12  O   UNL d   1       2.989   1.764  -0.865  0.00  0.00    -0.318 OA
BRANCH  12  13
ATOM     13  C   UNL d   1       3.836   2.721  -1.515  0.00  0.00     0.174 C 
ATOM     14  C   UNL d   1       3.433   2.757  -2.978  0.00  0.00     0.034 C 
ENDBRANCH  12  13
ENDBRANCH  10  12
ENDBRANCH   1  10
BRANCH   2  15
ATOM     15  C   UNL d   1       1.907  -0.346   1.644  0.00  0.00     0.010 A 
ATOM     16  S   UNL d   1       3.532  -0.717   2.036  0.00  0.00    -0.104 SA
ATOM     17  C   UNL d   1       3.211  -0.634   3.714  0.00  0.00     0.050 A 
ATOM     18  C   UNL d   1       1.894  -0.335   3.978  0.00  0.00     0.008 A 
ATOM     19  C   UNL d   1       1.140  -0.174   2.784  0.00  0.00     0.017 A 
ENDBRANCH   2  15
BRANCH   6  20
ATOM     20  S   UNL d   1      -1.923  -2.315  -0.316  0.00  0.00    -0.099 SA
ATOM     21  C   UNL d   1      -0.865  -3.782  -0.323  0.00  0.00     0.099 C 
ENDBRANCH   6  20
TORSDOF 5
