REMARK  4 active torsions:
REMARK  status: ('A' for Active; 'I' for Inactive)
REMARK    1  A    between atoms: N_5  and  C_1 
REMARK       I    between atoms: C_4  and  N_9 
REMARK    2  A    between atoms: C_8  and  C_4 
REMARK    3  A    between atoms: N_9  and  N_5 
REMARK    4  A    between atoms: C_11  and  N_6 
ROOT
ATOM      1  N   UNL d   1       6.526  -4.388   1.137  0.00  0.00    -0.197 NA
ATOM      2  C   UNL d   1       5.561  -4.734   1.685  0.00  0.00     0.068 C 
ATOM      3  C   UNL d   1       4.321  -5.173   2.321  0.00  0.00     0.228 C 
ENDROOT
BRANCH   3   4
ATOM      4  C   UNL d   1       3.415  -4.024   2.713  0.00  0.00     0.249 C 
ATOM      5  N   UNL d   1       3.312  -3.000   1.796  0.00  0.00    -0.267 N 
ATOM      6  H   UNL d   1       3.991  -2.835   1.053  0.00  0.00     0.190 HD
ATOM      7  O   UNL d   1       2.723  -4.067   3.730  0.00  0.00    -0.271 OA
BRANCH   5   8
ATOM      8  N   UNL d   1       2.423  -1.937   2.046  0.00  0.00    -0.274 N 
ATOM      9  H   UNL d   1       1.855  -2.018   2.888  0.00  0.00     0.189 HD
BRANCH   8  10
ATOM     10  C   UNL d   1       2.670  -0.705   1.507  0.00  0.00     0.186 C 
ATOM     11  N   UNL d   1       1.697   0.235   1.618  0.00  0.00    -0.361 N 
ATOM     12  H   UNL d   1       1.972   1.091   1.148  0.00  0.00     0.162 HD
ATOM     13  S   UNL d   1       4.036  -0.297   0.629  0.00  0.00    -0.040 SA
BRANCH  11  14
ATOM     14  C   UNL d   1       0.250   0.049   1.808  0.00  0.00     0.083 C 
ATOM     15  C   UNL d   1      -0.373  -0.872   0.750  0.00  0.00     0.025 C 
ATOM     16  C   UNL d   1      -0.191  -0.319  -0.660  0.00  0.00     0.002 C 
ATOM     17  C   UNL d   1      -0.714   1.108  -0.808  0.00  0.00     0.000 C 
ATOM     18  C   UNL d   1      -0.347   2.049   0.340  0.00  0.00     0.002 C 
ATOM     19  C   UNL d   1      -0.465   1.409   1.729  0.00  0.00     0.025 C 
ENDBRANCH  11  14
ENDBRANCH   8  10
ENDBRANCH   5   8
ENDBRANCH   3   4
TORSDOF 4
