REMARK  6 active torsions:
REMARK  status: ('A' for Active; 'I' for Inactive)
REMARK    1  A    between atoms: C_4  and  C_1 
REMARK    2  A    between atoms: C_3  and  C_2 
REMARK       I    between atoms: N_8  and  C_4 
REMARK    3  A    between atoms: C_15  and  N_8 
REMARK    4  A    between atoms: O_19  and  C_9 
REMARK    5  A    between atoms: C_17  and  C_15 
REMARK    6  A    between atoms: O_20  and  C_18 
ROOT
ATOM      1  C   UNL d   1       2.681   2.604  -0.022  0.00  0.00     0.062 A 
ATOM      2  C   UNL d   1       3.509   3.556  -0.630  0.00  0.00     0.069 A 
ATOM      3  C   UNL d   1       3.300   1.520   0.606  0.00  0.00     0.108 A 
ATOM      4  N   UNL d   1       4.641   1.333   0.695  0.00  0.00    -0.346 N 
ATOM      5  HN  UNL d   1       5.040   0.528   1.178  1.00  0.00     0.167 HD
ATOM      6  C   UNL d   1       5.415   2.262   0.115  0.00  0.00     0.142 A 
ATOM      7  C   UNL d   1       4.906   3.368  -0.541  0.00  0.00     0.073 A 
ENDROOT
BRANCH   1   8
ATOM      8  C   UNL d   1       1.194   2.561  -0.006  0.00  0.00     0.254 C 
ATOM      9  N   UNL d   1       0.512   3.737   0.170  0.00  0.00    -0.353 N 
ATOM     10  H   UNL d   1       0.987   4.626   0.198  0.00  0.00     0.163 HD
ATOM     11  O   UNL d   1       0.641   1.472  -0.098  0.00  0.00    -0.268 OA
BRANCH   9  12
ATOM     12  C   UNL d   1      -0.931   3.796   0.051  0.00  0.00     0.161 C 
BRANCH  12  13
ATOM     13  C   UNL d   1      -1.511   4.633   1.159  0.00  0.00    -0.038 A 
ATOM     14  C   UNL d   1      -1.849   4.029   2.381  0.00  0.00     0.045 A 
ATOM     15  C   UNL d   1      -2.350   4.793   3.435  0.00  0.00     0.068 A 
ATOM     16  C   UNL d   1      -2.546   6.163   3.258  0.00  0.00     0.037 A 
ATOM     17  C   UNL d   1      -2.203   6.776   2.053  0.00  0.00     0.003 A 
ATOM     18  C   UNL d   1      -1.679   6.016   1.008  0.00  0.00     0.009 A 
BRANCH  15  19
ATOM     19  O   UNL d   1      -2.702   4.302   4.663  0.00  0.00    -0.356 OA
ATOM     20  C   UNL d   1      -2.007   3.126   5.067  0.00  0.00     0.210 C 
ENDBRANCH  15  19
ENDBRANCH  12  13
ENDBRANCH   9  12
ENDBRANCH   1   8
BRANCH   2  21
ATOM     21  C   UNL d   1       3.058   4.759  -1.406  0.00  0.00     0.418 C 
ATOM     22  F   UNL d   1       1.726   4.860  -1.638  0.00  0.00    -0.166 F 
ATOM     23  F   UNL d   1       3.400   5.914  -0.769  0.00  0.00    -0.166 F 
ATOM     24  F   UNL d   1       3.642   4.829  -2.635  0.00  0.00    -0.166 F 
ENDBRANCH   2  21
BRANCH   6  25
ATOM     25  O   UNL d   1       6.788   2.140   0.143  0.00  0.00    -0.341 OA
ATOM     26  C   UNL d   1       7.231   0.975   0.836  0.00  0.00     0.211 C 
ENDBRANCH   6  25
TORSDOF 6
