REMARK  1 active torsions:
REMARK  status: ('A' for Active; 'I' for Inactive)
REMARK    1  A    between atoms: C_2  and  N_1 
ROOT
ATOM      1  C   UNL d   1       1.299   2.247  -0.965  0.00  0.00     0.119 A 
ATOM      2  N   UNL d   1       0.832   3.497  -0.747  0.00  0.00    -0.340 N 
ATOM      3  HN  UNL d   1       0.026   3.657  -0.143  1.00  0.00     0.167 HD
ATOM      4  N   UNL d   1       3.042   3.093  -2.452  0.00  0.00    -0.361 N 
ATOM      5  HN  UNL d   1       3.838   2.926  -3.068  1.00  0.00     0.165 HD
ATOM      6  C   UNL d   1       1.464   4.530  -1.352  0.00  0.00     0.060 A 
ATOM      7  C   UNL d   1       2.387   2.086  -1.828  0.00  0.00     0.137 A 
ATOM      8  C   UNL d   1       2.575   4.323  -2.206  0.00  0.00     0.059 A 
ATOM      9  C   UNL d   1       1.029   5.836  -1.142  0.00  0.00     0.032 A 
ATOM     10  C   UNL d   1       3.196   5.408  -2.805  0.00  0.00     0.032 A 
ATOM     11  C   UNL d   1       1.668   6.925  -1.744  0.00  0.00     0.002 A 
ATOM     12  C   UNL d   1       2.754   6.711  -2.578  0.00  0.00     0.002 A 
ENDROOT
BRANCH   1  13
ATOM     13  N   UNL d   1       0.665   1.154  -0.403  0.00  0.00    -0.365 N 
ATOM     14  C   UNL d   1       1.439   0.035   0.130  0.00  0.00     0.128 C 
ATOM     15  C   UNL d   1       0.721  -1.264  -0.260  0.00  0.00    -0.000 C 
ATOM     16  C   UNL d   1       1.460  -2.484   0.280  0.00  0.00     0.011 C 
ATOM     17  C   UNL d   1      -0.737  -1.238   0.233  0.00  0.00     0.011 C 
ATOM     18  C   UNL d   1      -1.468   0.032  -0.244  0.00  0.00    -0.000 C 
ATOM     19  C   UNL d   1      -0.680   1.298   0.151  0.00  0.00     0.128 C 
ATOM     20  C   UNL d   1      -2.898   0.066   0.285  0.00  0.00     0.011 C 
ENDBRANCH   1  13
TORSDOF 1
