REMARK  5 active torsions:
REMARK  status: ('A' for Active; 'I' for Inactive)
REMARK    1  A    between atoms: C_13  and  N_1 
REMARK    2  A    between atoms: C_2  and  C_3 
REMARK    3  A    between atoms: N_16  and  C_4 
REMARK    4  A    between atoms: C_15  and  N_5 
REMARK    5  A    between atoms: C_17  and  C_13 
ROOT
ATOM      1  C   UNL d   1       2.081   1.414   0.172  0.00  0.00     0.072 C 
ATOM      2  C   UNL d   1       3.168   1.169   0.994  0.00  0.00     0.136 C 
ATOM      3  N   UNL d   1       4.086   2.198   0.745  0.00  0.00    -0.240 N 
ATOM      4  N   UNL d   1       3.511   3.204   0.037  0.00  0.00    -0.302 N 
ATOM      5  HN  UNL d   1       3.892   4.130  -0.161  1.00  0.00     0.186 HD
ATOM      6  C   UNL d   1       2.333   2.706  -0.341  0.00  0.00     0.127 C 
ENDROOT
BRANCH   1   7
ATOM      7  C   UNL d   1       0.880   0.639   0.013  0.00  0.00     0.140 A 
ATOM      8  N   UNL d   1       0.826  -0.726  -0.040  0.00  0.00    -0.303 N 
ATOM      9  C   UNL d   1      -0.514  -1.013   0.005  0.00  0.00     0.194 A 
ATOM     10  N   UNL d   1      -1.175   0.206  -0.065  0.00  0.00    -0.274 N 
ATOM     11  S   UNL d   1      -1.304  -2.460   0.167  0.00  0.00    -0.039 SA
ATOM     12  N   UNL d   1      -0.278   1.234  -0.035  0.00  0.00    -0.282 N 
ATOM     13  H   UNL d   1      -2.175   0.358  -0.002  0.00  0.00     0.189 HD
ATOM     14  HN  UNL d   1      -0.470   2.235  -0.048  1.00  0.00     0.188 HD
BRANCH   8  15
ATOM     15  C   UNL d   1       1.935  -1.677  -0.022  0.00  0.00     0.171 C 
BRANCH  15  16
ATOM     16  C   UNL d   1       1.994  -2.629  -1.193  0.00  0.00    -0.040 A 
ATOM     17  C   UNL d   1       2.102  -2.152  -2.507  0.00  0.00     0.009 A 
ATOM     18  C   UNL d   1       2.268  -3.044  -3.568  0.00  0.00     0.001 A 
ATOM     19  C   UNL d   1       2.328  -4.416  -3.327  0.00  0.00     0.000 A 
ATOM     20  C   UNL d   1       2.215  -4.901  -2.026  0.00  0.00     0.001 A 
ATOM     21  C   UNL d   1       2.052  -4.013  -0.965  0.00  0.00     0.009 A 
ENDBRANCH  15  16
ENDBRANCH   8  15
ENDBRANCH   1   7
BRANCH   2  22
ATOM     22  N   UNL d   1       3.348   0.209   1.952  0.00  0.00    -0.383 N 
ATOM     23  H   UNL d   1       2.519  -0.219   2.363  0.00  0.00     0.157 HD
ATOM     24  H   UNL d   1       4.048   0.375   2.677  0.00  0.00     0.157 HD
ENDBRANCH   2  22
BRANCH   3  25
ATOM     25  C   UNL d   1       5.434   2.296   1.185  0.00  0.00     0.058 A 
ATOM     26  C   UNL d   1       6.201   1.143   1.408  0.00  0.00     0.031 A 
ATOM     27  C   UNL d   1       7.508   1.254   1.885  0.00  0.00     0.002 A 
ATOM     28  C   UNL d   1       8.051   2.511   2.144  0.00  0.00     0.000 A 
ATOM     29  C   UNL d   1       7.301   3.662   1.895  0.00  0.00     0.002 A 
ATOM     30  C   UNL d   1       6.001   3.559   1.396  0.00  0.00     0.031 A 
ENDBRANCH   3  25
TORSDOF 5
