REMARK  4 active torsions:
REMARK  status: ('A' for Active; 'I' for Inactive)
REMARK    1  A    between atoms: C_8  and  N_1 
REMARK    2  A    between atoms: C_4  and  C_2 
REMARK       I    between atoms: N_7  and  C_4 
REMARK    3  A    between atoms: C_11  and  N_7 
REMARK    4  A    between atoms: C_12  and  C_8 
ROOT
ATOM      1  N   UNL d   1       0.086  -0.950   0.053  0.00  0.00    -0.347 N 
ATOM      2  C   UNL d   1      -1.428   0.758  -0.309  0.00  0.00     0.105 C 
ATOM      3  C   UNL d   1       0.869   0.185  -0.102  0.00  0.00     0.221 C 
ATOM      4  C   UNL d   1      -1.297  -0.625   0.294  0.00  0.00     0.140 C 
ATOM      5  C   UNL d   1      -0.050   1.385  -0.097  0.00  0.00     0.118 C 
ATOM      6  O   UNL d   1       2.077   0.218  -0.251  0.00  0.00    -0.273 OA
ENDROOT
BRANCH   2   7
ATOM      7  C   UNL d   1      -1.853   0.753  -1.781  0.00  0.00     0.228 C 
ATOM      8  N   UNL d   1      -0.964   0.175  -2.674  0.00  0.00    -0.327 N 
ATOM      9  H   UNL d   1      -0.236  -0.422  -2.300  0.00  0.00     0.169 HD
ATOM     10  O   UNL d   1      -2.935   1.251  -2.087  0.00  0.00    -0.273 OA
BRANCH   8  11
ATOM     11  C   UNL d   1      -0.939   0.363  -4.079  0.00  0.00     0.034 A 
ATOM     12  C   UNL d   1      -1.730   1.303  -4.741  0.00  0.00     0.030 A 
ATOM     13  C   UNL d   1      -1.563   1.546  -6.110  0.00  0.00     0.009 A 
ATOM     14  C   UNL d   1      -0.601   0.852  -6.848  0.00  0.00    -0.062 A 
ATOM     15  C   UNL d   1       0.150  -0.136  -6.205  0.00  0.00     0.009 A 
ATOM     16  C   UNL d   1      -0.385   1.189  -8.294  0.00  0.00     0.048 C 
ATOM     17  C   UNL d   1      -0.011  -0.372  -4.830  0.00  0.00     0.030 A 
ENDBRANCH   8  11
ENDBRANCH   2   7
BRANCH   1  18
ATOM     18  C   UNL d   1       0.608  -2.299   0.154  0.00  0.00     0.164 C 
BRANCH  18  19
ATOM     19  C   UNL d   1       1.117  -2.667   1.525  0.00  0.00    -0.040 A 
ATOM     20  C   UNL d   1       0.279  -3.271   2.476  0.00  0.00     0.012 A 
ATOM     21  C   UNL d   1       0.787  -3.671   3.711  0.00  0.00     0.043 A 
ATOM     22  C   UNL d   1       2.133  -3.467   4.006  0.00  0.00     0.116 A 
ATOM     23  C   UNL d   1       2.975  -2.852   3.087  0.00  0.00     0.043 A 
ATOM     24  F   UNL d   1       2.624  -3.872   5.182  0.00  0.00    -0.206 F 
ATOM     25  C   UNL d   1       2.466  -2.445   1.852  0.00  0.00     0.012 A 
ENDBRANCH  18  19
ENDBRANCH   1  18
TORSDOF 4
