REMARK  4 active torsions:
REMARK  status: ('A' for Active; 'I' for Inactive)
REMARK    1  A    between atoms: N_10  and  C_1 
REMARK    2  A    between atoms: C_2  and  C_3 
REMARK    3  A    between atoms: C_15  and  C_9 
REMARK       I    between atoms: C_13  and  N_10 
REMARK    4  A    between atoms: C_14  and  C_13 
ROOT
ATOM      1  C   UNL d   1       0.093  -1.165   0.331  0.00  0.00     0.126 A 
ATOM      2  C   UNL d   1       1.341   0.666   0.168  0.00  0.00     0.064 A 
ATOM      3  N   UNL d   1       0.095   1.112   0.321  0.00  0.00    -0.296 N 
ATOM      4  HN  UNL d   1      -0.225   2.080   0.347  1.00  0.00     0.187 HD
ATOM      5  C   UNL d   1       1.400  -0.746   0.186  0.00  0.00     0.082 A 
ATOM      6  N   UNL d   1      -0.640  -0.002   0.433  0.00  0.00    -0.281 N 
ATOM      7  C   UNL d   1      -2.074   0.137   0.519  0.00  0.00     0.179 C 
ENDROOT
BRANCH   1   8
ATOM      8  N   UNL d   1      -0.420  -2.459   0.353  0.00  0.00    -0.308 N 
ATOM      9  C   UNL d   1       0.356  -3.628   0.033  0.00  0.00     0.257 C 
ATOM     10  O   UNL d   1       1.550  -3.548  -0.208  0.00  0.00    -0.267 OA
ATOM     11  H   UNL d   1      -1.389  -2.583   0.607  0.00  0.00     0.170 HD
BRANCH   9  12
ATOM     12  C   UNL d   1      -0.338  -4.946   0.067  0.00  0.00     0.038 A 
ATOM     13  C   UNL d   1      -1.651  -5.180  -0.391  0.00  0.00    -0.046 A 
ATOM     14  C   UNL d   1      -2.532  -4.152  -1.044  0.00  0.00     0.049 C 
ATOM     15  C   UNL d   1      -2.184  -6.478  -0.258  0.00  0.00     0.007 A 
ATOM     16  C   UNL d   1      -1.422  -7.525   0.261  0.00  0.00     0.001 A 
ATOM     17  C   UNL d   1      -0.111  -7.299   0.660  0.00  0.00     0.001 A 
ATOM     18  C   UNL d   1       0.427  -6.017   0.566  0.00  0.00     0.017 A 
ENDBRANCH   9  12
ENDBRANCH   1   8
BRANCH   2  19
ATOM     19  C   UNL d   1       2.471   1.565  -0.039  0.00  0.00     0.024 A 
ATOM     20  C   UNL d   1       3.804   1.377   0.416  0.00  0.00     0.049 A 
ATOM     21  C   UNL d   1       4.519   2.493   0.020  0.00  0.00     0.061 A 
ATOM     22  O   UNL d   1       3.698   3.335  -0.676  0.00  0.00    -0.318 OA
ATOM     23  C   UNL d   1       2.459   2.773  -0.707  0.00  0.00     0.062 A 
ATOM     24  C   UNL d   1       1.429   3.544  -1.433  0.00  0.00     0.077 C 
BRANCH  21  25
ATOM     25  C   UNL d   1       5.944   2.966   0.189  0.00  0.00    -0.002 C 
ATOM     26  C   UNL d   1       6.769   1.962   1.013  0.00  0.00     0.021 C 
ATOM     27  C   UNL d   1       6.602   3.127  -1.193  0.00  0.00     0.021 C 
ATOM     28  C   UNL d   1       5.958   4.323   0.918  0.00  0.00     0.021 C 
ENDBRANCH  21  25
ENDBRANCH   2  19
TORSDOF 4
