REMARK  5 active torsions:
REMARK  status: ('A' for Active; 'I' for Inactive)
REMARK    1  A    between atoms: N_7  and  C_1 
REMARK       I    between atoms: C_8  and  N_6 
REMARK       I    between atoms: C_11  and  N_7 
REMARK    2  A    between atoms: O_20  and  C_8 
REMARK    3  A    between atoms: C_17  and  C_11 
REMARK    4  A    between atoms: N_14  and  C_17 
REMARK    5  A    between atoms: C_25  and  O_20 
ROOT
ATOM      1  C   UNL d   1       1.453   1.363   0.984  0.00  0.00     0.098 A 
ATOM      2  C   UNL d   1       1.259  -0.005   1.013  0.00  0.00     0.086 A 
ATOM      3  C   UNL d   1      -0.867   0.745   0.444  0.00  0.00     0.011 A 
ATOM      4  C   UNL d   1      -0.083  -0.372   0.676  0.00  0.00    -0.018 A 
ATOM      5  S   UNL d   1       0.000   2.190   0.649  0.00  0.00    -0.073 SA
ATOM      6  N   UNL d   1      -2.676  -0.629  -0.354  0.00  0.00    -0.323 N 
ATOM      7  C   UNL d   1      -3.220  -0.922  -1.588  0.00  0.00     0.363 C 
ATOM      8  C   UNL d   1      -2.324   0.734   0.061  0.00  0.00     0.174 C 
ATOM      9  C   UNL d   1       2.301  -0.938   1.327  0.00  0.00     0.103 C 
ATOM     10  N   UNL d   1       3.152  -1.680   1.595  0.00  0.00    -0.191 NA
ATOM     11  C   UNL d   1      -0.650  -1.759   0.513  0.00  0.00     0.061 C 
ATOM     12  C   UNL d   1      -2.189  -1.719   0.497  0.00  0.00     0.133 C 
ATOM     13  O   UNL d   1      -3.328  -2.060  -2.031  0.00  0.00    -0.238 OA
ENDROOT
BRANCH   1  14
ATOM     14  N   UNL d   1       2.657   2.047   1.129  0.00  0.00    -0.319 N 
ATOM     15  C   UNL d   1       2.843   3.421   1.108  0.00  0.00     0.251 C 
ATOM     16  O   UNL d   1       1.982   4.292   1.206  0.00  0.00    -0.271 OA
ATOM     17  H   UNL d   1       3.511   1.496   1.115  0.00  0.00     0.169 HD
BRANCH  15  18
ATOM     18  C   UNL d   1       4.323   3.804   0.947  0.00  0.00     0.375 C 
BRANCH  18  19
ATOM     19  N   UNL d   1       4.938   3.099  -0.205  0.00  0.00     0.101 N 
ATOM     20  C   UNL d   1       4.239   3.386  -1.486  0.00  0.00     0.299 C 
ATOM     21  C   UNL d   1       4.456   4.811  -2.014  0.00  0.00     0.198 C 
ATOM     22  O   UNL d   1       5.851   5.053  -2.226  0.00  0.00    -0.388 OA
ATOM     23  C   UNL d   1       6.584   4.889  -1.007  0.00  0.00     0.198 C 
ATOM     24  C   UNL d   1       6.359   3.499  -0.373  0.00  0.00     0.299 C 
ENDBRANCH  18  19
ENDBRANCH  15  18
ENDBRANCH   1  14
BRANCH   7  25
ATOM     25  O   UNL d   1      -3.608   0.194  -2.261  0.00  0.00    -0.304 OA
BRANCH  25  26
ATOM     26  C   UNL d   1      -4.043  -0.001  -3.615  0.00  0.00     0.176 C 
ATOM     27  C   UNL d   1      -2.841   0.091  -4.535  0.00  0.00     0.034 C 
ENDBRANCH  25  26
ENDBRANCH   7  25
TORSDOF 5
