REMARK  4 active torsions:
REMARK  status: ('A' for Active; 'I' for Inactive)
REMARK    1  A    between atoms: N_8  and  C_1 
REMARK    2  A    between atoms: O_15  and  C_2 
REMARK    3  A    between atoms: S_7  and  C_12 
REMARK    4  A    between atoms: C_18  and  N_10 
ROOT
ATOM      1  N   UNL d   1       0.407  -2.861  -0.933  0.00  0.00    -0.294 N 
ATOM      2  HN  UNL d   1       0.204  -3.278  -1.842  1.00  0.00     0.187 HD
ATOM      3  N   UNL d   1       0.444  -3.512   0.134  0.00  0.00    -0.300 N 
ATOM      4  HN  UNL d   1       0.568  -3.080   1.049  1.00  0.00     0.187 HD
ENDROOT
BRANCH   1   5
ATOM      5  C   UNL d   1       0.676  -1.494  -0.747  0.00  0.00     0.124 A 
ATOM      6  C   UNL d   1       0.614  -0.746   0.410  0.00  0.00     0.187 A 
ATOM      7  N   UNL d   1       1.032   0.508   0.049  0.00  0.00    -0.274 N 
ATOM      8  C   UNL d   1       1.218   1.650   0.911  0.00  0.00     0.180 C 
ATOM      9  N   UNL d   1       1.312   0.629  -1.268  0.00  0.00    -0.299 N 
ATOM     10  C   UNL d   1       1.090  -0.599  -1.761  0.00  0.00     0.054 A 
ATOM     11  HN  UNL d   1       1.621   1.462  -1.770  1.00  0.00     0.187 HD
ATOM     12  C   UNL d   1       1.303  -0.867  -3.202  0.00  0.00     0.072 C 
BRANCH   6  13
ATOM     13  O   UNL d   1       0.266  -1.050   1.658  0.00  0.00    -0.343 OA
ATOM     14  H   UNL d   1       0.017  -1.996   1.638  0.00  0.00     0.219 HD
ENDBRANCH   6  13
ENDBRANCH   1   5
BRANCH   3  15
ATOM     15  C   UNL d   1       0.295  -4.901  -0.053  0.00  0.00     0.048 A 
ATOM     16  C   UNL d   1       1.056  -5.752   0.763  0.00  0.00     0.032 A 
ATOM     17  C   UNL d   1       0.916  -7.142   0.694  0.00  0.00     0.026 A 
ATOM     18  C   UNL d   1       0.004  -7.696  -0.205  0.00  0.00     0.059 A 
ATOM     19  C   UNL d   1      -0.776  -6.869  -1.020  0.00  0.00     0.026 A 
ATOM     20  C   UNL d   1      -0.625  -5.477  -0.942  0.00  0.00     0.032 A 
BRANCH  18  21
ATOM     21  S   UNL d   1      -0.261  -9.457  -0.210  0.00  0.00     0.171 S 
ATOM     22  O   UNL d   1       0.154  -9.959   1.085  0.00  0.00    -0.223 OA
ATOM     23  O   UNL d   1      -1.608  -9.688  -0.696  0.00  0.00    -0.223 OA
ATOM     24  C   UNL d   1       0.874 -10.072  -1.425  0.00  0.00     0.167 C 
ENDBRANCH  18  21
ENDBRANCH   3  15
TORSDOF 4
