REMARK  8 active torsions:
REMARK  status: ('A' for Active; 'I' for Inactive)
REMARK    1  A    between atoms: C_3  and  S_1 
REMARK    2  A    between atoms: C_5  and  S_1 
REMARK    3  A    between atoms: C_2  and  C_3 
REMARK    4  A    between atoms: C_4  and  C_2 
REMARK    5  A    between atoms: C_6  and  C_3 
REMARK    6  A    between atoms: C_9  and  C_4 
REMARK    7  A    between atoms: N_12  and  C_7 
REMARK    8  A    between atoms: O_16  and  C_13 
ROOT
ATOM      1  C   UNL d   1       0.427   1.721  -0.208  0.00  0.00     0.092 C 
ENDROOT
BRANCH   1   2
ATOM      2  C   UNL d   1       0.848   2.317  -1.562  0.00  0.00     0.104 C 
BRANCH   2   3
ATOM      3  C   UNL d   1       0.523   1.447  -2.762  0.00  0.00     0.161 C 
ATOM      4  O   UNL d   1       1.161   0.406  -2.964  0.00  0.00    -0.292 OA
BRANCH   3   5
ATOM      5  C   UNL d   1      -0.568   1.787  -3.727  0.00  0.00     0.010 A 
ATOM      6  C   UNL d   1      -1.437   2.875  -3.582  0.00  0.00     0.015 A 
ATOM      7  C   UNL d   1      -2.486   3.064  -4.493  0.00  0.00     0.001 A 
ATOM      8  C   UNL d   1      -2.674   2.177  -5.553  0.00  0.00     0.000 A 
ATOM      9  C   UNL d   1      -1.796   1.112  -5.725  0.00  0.00     0.001 A 
ATOM     10  C   UNL d   1      -0.749   0.924  -4.822  0.00  0.00     0.015 A 
ENDBRANCH   3   5
ENDBRANCH   2   3
ENDBRANCH   1   2
BRANCH   1  11
ATOM     11  S   UNL d   1       1.181   0.082   0.219  0.00  0.00    -0.118 SA
BRANCH  11  12
ATOM     12  C   UNL d   1       2.894   0.484   0.568  0.00  0.00     0.022 A 
ATOM     13  C   UNL d   1       3.914   0.171  -0.354  0.00  0.00     0.022 A 
ATOM     14  C   UNL d   1       5.254   0.326   0.029  0.00  0.00     0.024 A 
ATOM     15  C   UNL d   1       5.587   0.734   1.321  0.00  0.00     0.002 A 
ATOM     16  C   UNL d   1       4.580   1.019   2.238  0.00  0.00     0.001 A 
ATOM     17  C   UNL d   1       3.238   0.892   1.865  0.00  0.00     0.020 A 
BRANCH  13  18
ATOM     18  N   UNL d   1       3.640  -0.122  -1.698  0.00  0.00    -0.302 NA
ATOM     19  H   UNL d   1       2.654  -0.324  -1.894  0.00  0.00     0.124 HD
ATOM     20  H   UNL d   1       4.264  -0.798  -2.122  0.00  0.00     0.124 HD
ENDBRANCH  13  18
ENDBRANCH  11  12
ENDBRANCH   1  11
BRANCH   1  21
ATOM     21  C   UNL d   1      -1.100   1.669  -0.085  0.00  0.00    -0.043 A 
ATOM     22  C   UNL d   1      -1.859   0.581  -0.551  0.00  0.00     0.011 A 
ATOM     23  C   UNL d   1      -3.255   0.561  -0.434  0.00  0.00     0.037 A 
ATOM     24  C   UNL d   1      -3.927   1.643   0.128  0.00  0.00     0.068 A 
ATOM     25  C   UNL d   1      -3.188   2.740   0.573  0.00  0.00     0.037 A 
ATOM     26  C   UNL d   1      -1.791   2.756   0.472  0.00  0.00     0.011 A 
BRANCH  24  27
ATOM     27  O   UNL d   1      -5.281   1.754   0.290  0.00  0.00    -0.356 OA
ATOM     28  C   UNL d   1      -6.068   0.634  -0.098  0.00  0.00     0.210 C 
ENDBRANCH  24  27
ENDBRANCH   1  21
TORSDOF 8
