REMARK  1 active torsions:
REMARK  status: ('A' for Active; 'I' for Inactive)
REMARK    1  A    between atoms: C_11  and  C_2 
ROOT
ATOM      1  N   UNL d   1       0.102  -0.570  -0.397  0.00  0.00    -0.243 N 
ATOM      2  C   UNL d   1       1.290  -1.128   0.026  0.00  0.00     0.141 A 
ATOM      3  C   UNL d   1       0.223   0.758  -0.161  0.00  0.00     0.170 A 
ATOM      4  N   UNL d   1       2.014  -0.147   0.565  0.00  0.00    -0.282 N 
ATOM      5  HN  UNL d   1       2.926  -0.264   1.008  1.00  0.00     0.188 HD
ATOM      6  N   UNL d   1       1.340   1.051   0.432  0.00  0.00    -0.278 N 
ATOM      7  HN  UNL d   1       1.654   1.972   0.737  1.00  0.00     0.189 HD
ATOM      8  C   UNL d   1      -1.087  -1.019  -0.937  0.00  0.00     0.241 C 
ATOM      9  S   UNL d   1      -1.131   1.675  -0.659  0.00  0.00    -0.083 SA
ATOM     10  C   UNL d   1      -1.952   0.170  -1.309  0.00  0.00     0.186 C 
ATOM     11  O   UNL d   1      -1.344  -2.200  -1.089  0.00  0.00    -0.272 OA
ENDROOT
BRANCH   2  12
ATOM     12  C   UNL d   1       1.744  -2.517  -0.088  0.00  0.00     0.010 A 
ATOM     13  C   UNL d   1       1.369  -3.361  -1.141  0.00  0.00     0.015 A 
ATOM     14  C   UNL d   1       1.861  -4.668  -1.227  0.00  0.00     0.001 A 
ATOM     15  C   UNL d   1       2.763  -5.140  -0.279  0.00  0.00     0.000 A 
ATOM     16  C   UNL d   1       3.172  -4.307   0.758  0.00  0.00     0.001 A 
ATOM     17  C   UNL d   1       2.666  -3.008   0.852  0.00  0.00     0.015 A 
ENDBRANCH   2  12
TORSDOF 1
