REMARK  5 active torsions:
REMARK  status: ('A' for Active; 'I' for Inactive)
REMARK    1  A    between atoms: C_7  and  N_1 
REMARK    2  A    between atoms: C_2  and  C_8 
REMARK       I    between atoms: N_5  and  C_2 
REMARK    3  A    between atoms: C_17  and  N_5 
REMARK    4  A    between atoms: C_18  and  N_6 
REMARK    5  A    between atoms: C_23  and  C_18 
ROOT
ATOM      1  C   UNL d   1      -2.345  -6.299   0.483  0.00  0.00     0.252 C 
ATOM      2  N   UNL d   1      -1.469  -7.288   0.880  0.00  0.00    -0.352 N 
ATOM      3  O   UNL d   1      -2.337  -5.146   0.895  0.00  0.00    -0.268 OA
ATOM      4  H   UNL d   1      -1.603  -8.213   0.497  0.00  0.00     0.163 HD
ENDROOT
BRANCH   2   5
ATOM      5  C   UNL d   1      -0.505  -7.172   1.989  0.00  0.00     0.088 C 
ATOM      6  C   UNL d   1       0.115  -5.793   2.205  0.00  0.00     0.055 C 
ATOM      7  C   UNL d   1       0.946  -5.379   0.996  0.00  0.00     0.275 C 
ATOM      8  N   UNL d   1       2.041  -6.332   0.725  0.00  0.00     0.092 N 
ATOM      9  C   UNL d   1       1.553  -7.718   0.619  0.00  0.00     0.275 C 
ATOM     10  C   UNL d   1       0.657  -8.153   1.786  0.00  0.00     0.055 C 
BRANCH   8  11
ATOM     11  C   UNL d   1       2.752  -5.974  -0.525  0.00  0.00     0.311 C 
BRANCH  11  12
ATOM     12  C   UNL d   1       3.244  -4.542  -0.572  0.00  0.00    -0.030 A 
ATOM     13  C   UNL d   1       4.241  -4.101   0.307  0.00  0.00     0.009 A 
ATOM     14  C   UNL d   1       4.627  -2.759   0.321  0.00  0.00     0.001 A 
ATOM     15  C   UNL d   1       4.022  -1.849  -0.545  0.00  0.00     0.000 A 
ATOM     16  C   UNL d   1       3.038  -2.278  -1.434  0.00  0.00     0.001 A 
ATOM     17  C   UNL d   1       2.652  -3.618  -1.450  0.00  0.00     0.009 A 
ENDBRANCH  11  12
ENDBRANCH   8  11
ENDBRANCH   2   5
BRANCH   1  18
ATOM     18  C   UNL d   1      -3.352  -6.661  -0.548  0.00  0.00     0.032 A 
ATOM     19  C   UNL d   1      -3.984  -7.907  -0.574  0.00  0.00     0.019 A 
ATOM     20  C   UNL d   1      -5.017  -8.145  -1.489  0.00  0.00     0.032 A 
ATOM     21  C   UNL d   1      -5.435  -7.134  -2.372  0.00  0.00     0.056 A 
ATOM     22  C   UNL d   1      -4.774  -5.900  -2.369  0.00  0.00     0.032 A 
ATOM     23  C   UNL d   1      -3.739  -5.668  -1.459  0.00  0.00     0.019 A 
BRANCH  21  24
ATOM     24  N   UNL d   1      -6.547  -7.366  -3.230  0.00  0.00    -0.268 N 
ATOM     25  N   UNL d   1      -7.121  -8.595  -3.317  0.00  0.00    -0.305 N 
ATOM     26  C   UNL d   1      -8.119  -8.444  -4.185  0.00  0.00     0.109 A 
ATOM     27  HN  UNL d   1      -6.848  -9.446  -2.825  1.00  0.00     0.186 HD
ATOM     28  C   UNL d   1      -8.226  -7.130  -4.661  0.00  0.00     0.038 A 
ATOM     29  C   UNL d   1      -7.205  -6.456  -4.033  0.00  0.00     0.118 A 
ENDBRANCH  21  24
ENDBRANCH   1  18
TORSDOF 5
