REMARK  2 active torsions:
REMARK  status: ('A' for Active; 'I' for Inactive)
REMARK    1  A    between atoms: C_8  and  N_1 
REMARK    2  A    between atoms: C_13  and  C_4 
ROOT
ATOM      1  N   UNL d   1      -1.955   4.348  -1.891  0.00  0.00    -0.359 N 
ATOM      2  C   UNL d   1      -1.532   2.769  -0.385  0.00  0.00     0.001 A 
ATOM      3  C   UNL d   1      -2.693   3.501   0.034  0.00  0.00    -0.024 A 
ATOM      4  C   UNL d   1      -2.938   4.459  -0.939  0.00  0.00     0.013 A 
ATOM      5  C   UNL d   1      -1.083   3.335  -1.577  0.00  0.00     0.043 A 
ATOM      6  C   UNL d   1      -0.817   1.679   0.156  0.00  0.00     0.050 A 
ATOM      7  C   UNL d   1       0.323   1.214  -0.522  0.00  0.00     0.103 A 
ATOM      8  C   UNL d   1       0.056   2.889  -2.258  0.00  0.00     0.033 A 
ATOM      9  C   UNL d   1       0.759   1.812  -1.710  0.00  0.00     0.038 A 
ATOM     10  C   UNL d   1      -4.000   5.490  -1.073  0.00  0.00     0.068 C 
ATOM     11  H   UNL d   1      -1.877   4.934  -2.712  0.00  0.00     0.166 HD
ENDROOT
BRANCH   7  12
ATOM     12  N   UNL d   1       1.069   0.076   0.029  0.00  0.00    -0.116 N 
ATOM     13  O   UNL d   1       0.651  -0.439   1.077  0.00  0.00    -0.532 OA
ATOM     14  O   UNL d   1       2.074  -0.309  -0.587  0.00  0.00    -0.532 OA
ENDBRANCH   7  12
BRANCH   3  15
ATOM     15  C   UNL d   1      -3.464   3.272   1.299  0.00  0.00     0.037 C 
ATOM     16  C   UNL d   1      -4.556   2.225   1.151  0.00  0.00     0.010 C 
ENDBRANCH   3  15
TORSDOF 2
