REMARK  3 active torsions:
REMARK  status: ('A' for Active; 'I' for Inactive)
REMARK       I    between atoms: N_2  and  C_1 
REMARK       I    between atoms: N_3  and  C_1 
REMARK    1  A    between atoms: C_8  and  N_2 
REMARK    2  A    between atoms: C_9  and  N_3 
REMARK       I    between atoms: C_4  and  N_5 
REMARK    3  A    between atoms: N_5  and  C_10 
ROOT
ATOM      1  C   UNL d   1       0.962  -0.213   0.087  0.00  0.00     0.325 C 
ATOM      2  N   UNL d   1       0.422   0.265  -1.096  0.00  0.00    -0.309 N 
ATOM      3  N   UNL d   1       0.170   0.111   1.177  0.00  0.00    -0.309 N 
ATOM      4  O   UNL d   1       2.021  -0.824   0.162  0.00  0.00    -0.247 OA
ATOM      5  H   UNL d   1      -0.347   0.912  -1.019  0.00  0.00     0.170 HD
ATOM      6  H   UNL d   1      -0.746   0.482   0.982  0.00  0.00     0.170 HD
ENDROOT
BRANCH   2   7
ATOM      7  C   UNL d   1       1.024   0.165  -2.373  0.00  0.00     0.036 A 
ATOM      8  C   UNL d   1       2.096  -0.681  -2.662  0.00  0.00     0.032 A 
ATOM      9  C   UNL d   1       2.711  -0.657  -3.920  0.00  0.00     0.032 A 
ATOM     10  C   UNL d   1       2.256   0.204  -4.918  0.00  0.00     0.034 A 
ATOM     11  C   UNL d   1       1.147   1.007  -4.651  0.00  0.00     0.032 A 
ATOM     12  C   UNL d   1       0.530   0.982  -3.392  0.00  0.00     0.032 A 
BRANCH  10  13
ATOM     13  N   UNL d   1       2.966   0.214  -6.137  0.00  0.00    -0.328 N 
ATOM     14  C   UNL d   1       2.728   1.020  -7.234  0.00  0.00     0.218 C 
ATOM     15  O   UNL d   1       1.832   1.851  -7.356  0.00  0.00    -0.274 OA
ATOM     16  C   UNL d   1       3.710   0.807  -8.359  0.00  0.00     0.117 C 
ATOM     17  H   UNL d   1       3.759  -0.414  -6.187  0.00  0.00     0.169 HD
ENDBRANCH  10  13
ENDBRANCH   2   7
BRANCH   3  18
ATOM     18  C   UNL d   1       0.484  -0.111   2.539  0.00  0.00     0.036 A 
ATOM     19  C   UNL d   1       1.703  -0.642   2.979  0.00  0.00     0.032 A 
ATOM     20  C   UNL d   1       1.955  -0.833   4.339  0.00  0.00     0.044 A 
ATOM     21  C   UNL d   1       0.987  -0.485   5.267  0.00  0.00     0.116 A 
ATOM     22  C   UNL d   1      -0.226   0.054   4.859  0.00  0.00     0.044 A 
ATOM     23  F   UNL d   1       1.228  -0.667   6.572  0.00  0.00    -0.206 F 
ATOM     24  C   UNL d   1      -0.478   0.241   3.496  0.00  0.00     0.032 A 
ENDBRANCH   3  18
TORSDOF 3
