REMARK  7 active torsions:
REMARK  status: ('A' for Active; 'I' for Inactive)
REMARK    1  A    between atoms: C_14  and  N_1 
REMARK    2  A    between atoms: C_17  and  C_2 
REMARK    3  A    between atoms: S_15  and  C_5 
REMARK    4  A    between atoms: C_10  and  C_19 
REMARK    5  A    between atoms: C_11  and  C_24 
REMARK    6  A    between atoms: C_18  and  C_14 
REMARK    7  A    between atoms: C_24  and  S_15 
ROOT
ATOM      1  N   UNL d   1      -0.239  -1.209  -0.133  0.00  0.00    -0.305 N 
ATOM      2  C   UNL d   1       0.975  -0.544  -0.176  0.00  0.00     0.135 A 
ATOM      3  N   UNL d   1       0.723   0.756  -0.163  0.00  0.00    -0.283 N 
ATOM      4  HN  UNL d   1       1.427   1.495  -0.157  1.00  0.00     0.188 HD
ATOM      5  C   UNL d   1      -1.199  -0.229  -0.143  0.00  0.00     0.163 A 
ATOM      6  N   UNL d   1      -0.632   0.951  -0.158  0.00  0.00    -0.278 N 
ATOM      7  HN  UNL d   1      -1.113   1.850  -0.165  1.00  0.00     0.189 HD
ENDROOT
BRANCH   2   8
ATOM      8  C   UNL d   1       2.328  -1.117  -0.168  0.00  0.00     0.009 A 
ATOM      9  C   UNL d   1       2.669  -2.281  -0.867  0.00  0.00     0.016 A 
ATOM     10  C   UNL d   1       3.968  -2.800  -0.811  0.00  0.00     0.017 A 
ATOM     11  C   UNL d   1       4.970  -2.149  -0.080  0.00  0.00     0.048 A 
ATOM     12  C   UNL d   1       4.648  -0.956   0.580  0.00  0.00     0.017 A 
ATOM     13  C   UNL d   1       3.344  -0.450   0.534  0.00  0.00     0.016 A 
BRANCH  11  14
ATOM     14  C   UNL d   1       6.358  -2.736  -0.017  0.00  0.00     0.417 C 
ATOM     15  F   UNL d   1       7.238  -1.989   0.706  0.00  0.00    -0.166 F 
ATOM     16  F   UNL d   1       6.369  -3.975   0.552  0.00  0.00    -0.166 F 
ATOM     17  F   UNL d   1       6.919  -2.888  -1.249  0.00  0.00    -0.166 F 
ENDBRANCH  11  14
ENDBRANCH   2   8
BRANCH   1  18
ATOM     18  C   UNL d   1      -0.466  -2.633   0.036  0.00  0.00     0.198 C 
BRANCH  18  19
ATOM     19  C   UNL d   1      -0.644  -3.336  -1.262  0.00  0.00     0.070 A 
ATOM     20  O   UNL d   1      -0.227  -4.638  -1.284  0.00  0.00    -0.325 OA
ATOM     21  C   UNL d   1      -0.462  -5.116  -2.532  0.00  0.00     0.142 A 
ATOM     22  C   UNL d   1      -1.022  -4.140  -3.321  0.00  0.00     0.027 A 
ATOM     23  C   UNL d   1      -1.143  -2.990  -2.505  0.00  0.00     0.036 A 
ENDBRANCH  18  19
ENDBRANCH   1  18
BRANCH   5  24
ATOM     24  S   UNL d   1      -2.901  -0.531  -0.130  0.00  0.00    -0.086 SA
BRANCH  24  25
ATOM     25  C   UNL d   1      -3.517   1.076  -0.723  0.00  0.00     0.140 C 
BRANCH  25  26
ATOM     26  C   UNL d   1      -5.003   1.036  -0.890  0.00  0.00     0.026 A 
ATOM     27  N   UNL d   1      -5.537   0.611  -2.102  0.00  0.00    -0.356 N 
ATOM     28  C   UNL d   1      -6.852   0.642  -2.056  0.00  0.00     0.047 A 
ATOM     29  HN  UNL d   1      -4.989   0.317  -2.910  1.00  0.00     0.166 HD
ATOM     30  C   UNL d   1      -7.745   0.243  -3.177  0.00  0.00     0.076 C 
ATOM     31  S   UNL d   1      -7.526   1.191  -0.574  0.00  0.00    -0.087 SA
ATOM     32  C   UNL d   1      -5.946   1.398   0.054  0.00  0.00     0.077 A 
ENDBRANCH  25  26
ENDBRANCH  24  25
ENDBRANCH   5  24
TORSDOF 7
