REMARK  6 active torsions:
REMARK  status: ('A' for Active; 'I' for Inactive)
REMARK    1  A    between atoms: C_7  and  C_1 
REMARK    2  A    between atoms: S_8  and  C_4 
REMARK    3  A    between atoms: O_10  and  C_7 
REMARK    4  A    between atoms: C_11  and  S_8 
REMARK    5  A    between atoms: C_18  and  O_10 
REMARK    6  A    between atoms: C_12  and  C_11 
ROOT
ATOM      1  C   UNL d   1      -0.438  -1.077  -0.094  0.00  0.00     0.125 A 
ATOM      2  N   UNL d   1      -1.163   0.083  -0.352  0.00  0.00    -0.331 N 
ATOM      3  HN  UNL d   1      -2.065   0.159  -0.820  1.00  0.00     0.168 HD
ATOM      4  C   UNL d   1      -0.435   1.057   0.136  0.00  0.00     0.145 A 
ATOM      5  C   UNL d   1       0.714  -0.759   0.606  0.00  0.00     0.126 A 
ATOM      6  N   UNL d   1       0.703   0.599   0.728  0.00  0.00    -0.344 N 
ATOM      7  H   UNL d   1       1.414   1.183   1.143  0.00  0.00     0.167 HD
ENDROOT
BRANCH   4   8
ATOM      8  S   UNL d   1      -0.689   2.756   0.054  0.00  0.00    -0.089 SA
BRANCH   8   9
ATOM      9  C   UNL d   1      -2.499   2.859   0.001  0.00  0.00     0.121 C 
BRANCH   9  10
ATOM     10  C   UNL d   1      -2.951   4.302   0.044  0.00  0.00    -0.049 A 
ATOM     11  C   UNL d   1      -3.150   5.025  -1.141  0.00  0.00     0.008 A 
ATOM     12  C   UNL d   1      -3.541   6.367  -1.099  0.00  0.00     0.007 A 
ATOM     13  C   UNL d   1      -3.735   7.015   0.126  0.00  0.00    -0.062 A 
ATOM     14  C   UNL d   1      -3.525   6.301   1.310  0.00  0.00     0.007 A 
ATOM     15  C   UNL d   1      -4.158   8.454   0.155  0.00  0.00     0.048 C 
ATOM     16  C   UNL d   1      -3.135   4.960   1.269  0.00  0.00     0.008 A 
ENDBRANCH   9  10
ENDBRANCH   8   9
ENDBRANCH   4   8
BRANCH   1  17
ATOM     17  C   UNL d   1      -0.780  -2.421  -0.562  0.00  0.00     0.311 C 
ATOM     18  O   UNL d   1      -0.074  -3.400  -0.340  0.00  0.00    -0.258 OA
BRANCH  17  19
ATOM     19  O   UNL d   1      -1.904  -2.443  -1.337  0.00  0.00    -0.317 OA
BRANCH  19  20
ATOM     20  C   UNL d   1      -2.080  -3.630  -2.121  0.00  0.00     0.175 C 
ATOM     21  C   UNL d   1      -1.356  -3.446  -3.443  0.00  0.00     0.034 C 
ENDBRANCH  19  20
ENDBRANCH  17  19
ENDBRANCH   1  17
TORSDOF 6
