REMARK  4 active torsions:
REMARK  status: ('A' for Active; 'I' for Inactive)
REMARK    1  A    between atoms: C_2  and  C_1 
REMARK    2  A    between atoms: C_13  and  N_3 
REMARK    3  A    between atoms: N_15  and  C_6 
REMARK    4  A    between atoms: C_14  and  C_10 
ROOT
ATOM      1  C   UNL d   1       0.814  -0.682   0.048  0.00  0.00     0.138 A 
ATOM      2  N   UNL d   1       0.859   0.697  -0.051  0.00  0.00    -0.302 N 
ATOM      3  N   UNL d   1      -0.384  -1.193  -0.014  0.00  0.00    -0.282 N 
ATOM      4  HN  UNL d   1      -0.646  -2.177   0.047  1.00  0.00     0.188 HD
ATOM      5  C   UNL d   1      -0.468   1.039  -0.224  0.00  0.00     0.195 A 
ATOM      6  N   UNL d   1      -1.196  -0.135  -0.177  0.00  0.00    -0.274 N 
ATOM      7  S   UNL d   1      -1.284   2.458  -0.462  0.00  0.00    -0.039 SA
ATOM      8  H   UNL d   1      -2.200  -0.221  -0.268  0.00  0.00     0.189 HD
ENDROOT
BRANCH   1   9
ATOM      9  C   UNL d   1       1.931  -1.608   0.209  0.00  0.00     0.044 A 
ATOM     10  C   UNL d   1       1.812  -2.749   0.995  0.00  0.00     0.082 A 
ATOM     11  S   UNL d   1       3.182  -3.750   0.913  0.00  0.00    -0.071 SA
ATOM     12  C   UNL d   1       4.028  -2.672  -0.114  0.00  0.00     0.018 A 
ATOM     13  C   UNL d   1       3.224  -1.587  -0.436  0.00  0.00     0.038 A 
BRANCH  10  14
ATOM     14  N   UNL d   1       0.764  -3.127   1.767  0.00  0.00    -0.393 N 
ATOM     15  H   UNL d   1      -0.151  -2.736   1.538  0.00  0.00     0.156 HD
ATOM     16  H   UNL d   1       0.718  -4.097   2.069  0.00  0.00     0.156 HD
ENDBRANCH  10  14
BRANCH  12  17
ATOM     17  C   UNL d   1       5.397  -3.012  -0.552  0.00  0.00    -0.019 A 
ATOM     18  C   UNL d   1       6.278  -3.725   0.284  0.00  0.00     0.013 A 
ATOM     19  C   UNL d   1       7.564  -4.071  -0.141  0.00  0.00     0.001 A 
ATOM     20  C   UNL d   1       7.999  -3.702  -1.407  0.00  0.00     0.000 A 
ATOM     21  C   UNL d   1       7.148  -2.988  -2.247  0.00  0.00     0.001 A 
ATOM     22  C   UNL d   1       5.859  -2.644  -1.823  0.00  0.00     0.013 A 
ENDBRANCH  12  17
ENDBRANCH   1   9
BRANCH   2  23
ATOM     23  C   UNL d   1       2.071   1.553   0.061  0.00  0.00     0.094 C 
ATOM     24  C   UNL d   1       2.057   2.627   1.167  0.00  0.00     0.026 C 
ATOM     25  C   UNL d   1       1.576   4.021   0.775  0.00  0.00     0.002 C 
ATOM     26  C   UNL d   1       2.067   4.498  -0.587  0.00  0.00     0.000 C 
ATOM     27  C   UNL d   1       1.981   3.448  -1.688  0.00  0.00     0.002 C 
ATOM     28  C   UNL d   1       2.581   2.109  -1.277  0.00  0.00     0.026 C 
ENDBRANCH   2  23
TORSDOF 4
