REMARK  5 active torsions:
REMARK  status: ('A' for Active; 'I' for Inactive)
REMARK    1  A    between atoms: C_3  and  C_1 
REMARK    2  A    between atoms: C_2  and  C_11 
REMARK    3  A    between atoms: O_16  and  C_3 
REMARK    4  A    between atoms: O_10  and  C_6 
REMARK    5  A    between atoms: C_11  and  O_10 
ROOT
ATOM      1  C   UNL d   1       0.752   1.233   0.029  0.00  0.00     0.053 A 
ATOM      2  N   UNL d   1      -1.260  -0.108  -0.010  0.00  0.00    -0.346 N 
ATOM      3  HN  UNL d   1      -2.278  -0.167  -0.030  1.00  0.00     0.167 HD
ATOM      4  C   UNL d   1      -0.497  -1.219  -0.019  0.00  0.00     0.142 A 
ATOM      5  C   UNL d   1      -0.627   1.093   0.028  0.00  0.00     0.108 A 
ATOM      6  C   UNL d   1       1.526   0.073   0.034  0.00  0.00     0.024 A 
ATOM      7  C   UNL d   1       0.892  -1.172   0.000  0.00  0.00     0.057 A 
ENDROOT
BRANCH   4   8
ATOM      8  O   UNL d   1      -1.218  -2.374  -0.124  0.00  0.00    -0.327 OA
BRANCH   8   9
ATOM      9  C   UNL d   1      -0.707  -3.485   0.619  0.00  0.00     0.294 C 
BRANCH   9  10
ATOM     10  C   UNL d   1      -1.685  -4.658   0.618  0.00  0.00     0.408 C 
ATOM     11  F   UNL d   1      -2.843  -4.391  -0.019  0.00  0.00    -0.169 F 
ATOM     12  F   UNL d   1      -1.128  -5.735   0.011  0.00  0.00    -0.169 F 
ATOM     13  F   UNL d   1      -1.990  -5.032   1.883  0.00  0.00    -0.169 F 
ENDBRANCH   9  10
ENDBRANCH   8   9
ENDBRANCH   4   8
BRANCH   1  14
ATOM     14  C   UNL d   1       1.322   2.595   0.061  0.00  0.00     0.177 C 
ATOM     15  O   UNL d   1       0.748   3.536   0.579  0.00  0.00    -0.646 OA
BRANCH  14  16
ATOM     16  O   UNL d   1       2.519   2.706  -0.554  0.00  0.00    -0.773 OA
ATOM     17  H   UNL d   1       2.792   1.946  -1.099  0.00  0.00     0.167 HD
ENDBRANCH  14  16
ENDBRANCH   1  14
TORSDOF 5
