REMARK  9 active torsions:
REMARK  status: ('A' for Active; 'I' for Inactive)
REMARK    1  A    between atoms: N_3  and  C_1 
REMARK    2  A    between atoms: C_2  and  N_3 
REMARK    3  A    between atoms: N_8  and  C_2 
REMARK    4  A    between atoms: C_16  and  N_8 
REMARK    5  A    between atoms: C_15  and  C_16 
REMARK    6  A    between atoms: O_17  and  C_15 
REMARK    7  A    between atoms: O_18  and  C_15 
REMARK    8  A    between atoms: C_19  and  O_17 
REMARK    9  A    between atoms: C_20  and  O_18 
ROOT
ATOM      1  C   UNL d   1       1.031   3.168   2.252  0.00  0.00     0.168 C 
ATOM      2  S   UNL d   1      -0.180   4.181   1.710  0.00  0.00    -0.041 SA
ENDROOT
BRANCH   1   3
ATOM      3  N   UNL d   1       1.109   1.802   2.071  0.00  0.00    -0.358 N 
ATOM      4  H   UNL d   1       1.914   1.388   2.517  0.00  0.00     0.162 HD
BRANCH   3   5
ATOM      5  C   UNL d   1       0.533   0.939   1.015  0.00  0.00     0.033 C 
ATOM      6  C   UNL d   1       1.197   1.272  -0.343  0.00  0.00     0.035 C 
ATOM      7  C   UNL d   1       0.709   0.314  -1.438  0.00  0.00    -0.012 C 
ATOM      8  C   UNL d   1       1.080  -1.128  -1.052  0.00  0.00     0.009 C 
ATOM      9  C   UNL d   1      -0.818   0.432  -1.564  0.00  0.00     0.009 C 
ATOM     10  C   UNL d   1       0.411  -1.506   0.278  0.00  0.00    -0.012 C 
ATOM     11  C   UNL d   1       0.888  -0.538   1.373  0.00  0.00     0.035 C 
ATOM     12  C   UNL d   1      -1.111  -1.394   0.131  0.00  0.00     0.009 C 
ATOM     13  C   UNL d   1      -1.493   0.045  -0.235  0.00  0.00    -0.012 C 
ATOM     14  C   UNL d   1      -1.007   1.000   0.874  0.00  0.00     0.035 C 
ENDBRANCH   3   5
ENDBRANCH   1   3
BRANCH   1  15
ATOM     15  N   UNL d   1       2.123   3.610   2.972  0.00  0.00    -0.363 N 
ATOM     16  H   UNL d   1       2.817   2.939   3.271  0.00  0.00     0.162 HD
BRANCH  15  17
ATOM     17  C   UNL d   1       2.315   4.944   3.546  0.00  0.00     0.182 C 
BRANCH  17  18
ATOM     18  C   UNL d   1       1.892   4.989   5.032  0.00  0.00     0.277 C 
BRANCH  18  19
ATOM     19  O   UNL d   1       2.854   4.174   5.726  0.00  0.00    -0.360 OA
BRANCH  19  20
ATOM     20  C   UNL d   1       2.546   4.001   7.104  0.00  0.00     0.166 C 
ATOM     21  C   UNL d   1       3.642   3.150   7.722  0.00  0.00     0.033 C 
ENDBRANCH  19  20
ENDBRANCH  18  19
BRANCH  18  22
ATOM     22  O   UNL d   1       1.923   6.325   5.538  0.00  0.00    -0.360 OA
BRANCH  22  23
ATOM     23  C   UNL d   1       0.853   7.134   5.053  0.00  0.00     0.166 C 
ATOM     24  C   UNL d   1       0.964   8.504   5.692  0.00  0.00     0.033 C 
ENDBRANCH  22  23
ENDBRANCH  18  22
ENDBRANCH  17  18
ENDBRANCH  15  17
ENDBRANCH   1  15
TORSDOF 9
