REMARK  3 active torsions:
REMARK  status: ('A' for Active; 'I' for Inactive)
REMARK    1  A    between atoms: C_6  and  C_1 
REMARK    2  A    between atoms: C_11  and  N_2 
REMARK       I    between atoms: N_8  and  C_6 
REMARK    3  A    between atoms: C_14  and  N_8 
ROOT
ATOM      1  C   UNL d   1      -0.132  -1.237   0.024  0.00  0.00     0.080 C 
ATOM      2  N   UNL d   1       1.121   0.618   0.094  0.00  0.00    -0.260 N 
ATOM      3  N   UNL d   1      -0.138   1.026   0.379  0.00  0.00    -0.297 N 
ATOM      4  HN  UNL d   1      -0.440   1.968   0.626  1.00  0.00     0.187 HD
ATOM      5  C   UNL d   1       1.183  -0.761   0.007  0.00  0.00     0.048 C 
ATOM      6  C   UNL d   1      -0.903  -0.066   0.270  0.00  0.00     0.040 C 
ATOM      7  C   UNL d   1       2.453  -1.549   0.016  0.00  0.00     0.071 C 
ATOM      8  C   UNL d   1      -2.368   0.110   0.453  0.00  0.00     0.071 C 
ENDROOT
BRANCH   1   9
ATOM      9  C   UNL d   1      -0.459  -2.667  -0.091  0.00  0.00     0.260 C 
ATOM     10  N   UNL d   1      -1.792  -3.030  -0.041  0.00  0.00    -0.323 N 
ATOM     11  H   UNL d   1      -2.483  -2.332  -0.270  0.00  0.00     0.169 HD
ATOM     12  O   UNL d   1       0.441  -3.491  -0.252  0.00  0.00    -0.267 OA
BRANCH  10  13
ATOM     13  C   UNL d   1      -2.257  -4.350   0.195  0.00  0.00     0.037 A 
ATOM     14  C   UNL d   1      -1.438  -5.345   0.750  0.00  0.00     0.069 A 
ATOM     15  C   UNL d   1      -1.993  -6.576   1.028  0.00  0.00     0.107 A 
ATOM     16  O   UNL d   1      -1.347  -7.622   1.610  0.00  0.00    -0.323 OA
ATOM     17  C   UNL d   1      -3.309  -6.855   0.757  0.00  0.00     0.105 A 
ATOM     18  C   UNL d   1      -2.434  -8.555   1.764  0.00  0.00     0.352 A 
ATOM     19  O   UNL d   1      -3.657  -8.114   1.133  0.00  0.00    -0.323 OA
ATOM     20  C   UNL d   1      -4.139  -5.913   0.189  0.00  0.00     0.042 A 
ATOM     21  C   UNL d   1      -3.608  -4.642  -0.079  0.00  0.00     0.032 A 
ENDBRANCH  10  13
ENDBRANCH   1   9
BRANCH   2  22
ATOM     22  C   UNL d   1       2.162   1.577  -0.048  0.00  0.00     0.056 A 
ATOM     23  C   UNL d   1       3.254   1.339  -0.894  0.00  0.00     0.031 A 
ATOM     24  C   UNL d   1       4.285   2.275  -0.989  0.00  0.00     0.002 A 
ATOM     25  C   UNL d   1       4.230   3.453  -0.246  0.00  0.00     0.000 A 
ATOM     26  C   UNL d   1       3.130   3.711   0.571  0.00  0.00     0.002 A 
ATOM     27  C   UNL d   1       2.087   2.786   0.658  0.00  0.00     0.031 A 
ENDBRANCH   2  22
TORSDOF 3
