REMARK  7 active torsions:
REMARK  status: ('A' for Active; 'I' for Inactive)
REMARK    1  A    between atoms: N_2  and  C_1 
REMARK    2  A    between atoms: N_3  and  C_1 
REMARK    3  A    between atoms: C_4  and  N_2 
REMARK    4  A    between atoms: C_7  and  N_3 
REMARK    5  A    between atoms: S_10  and  C_11 
REMARK    6  A    between atoms: C_19  and  S_10 
REMARK    7  A    between atoms: C_18  and  C_19 
ROOT
ATOM      1  C   UNL d   1      -1.366   0.982  -0.435  0.00  0.00     0.051 A 
ATOM      2  C   UNL d   1      -2.048   0.789   0.784  0.00  0.00     0.027 A 
ATOM      3  C   UNL d   1      -2.085   1.444  -1.556  0.00  0.00     0.031 A 
ATOM      4  C   UNL d   1      -3.443   0.993   0.810  0.00  0.00     0.021 A 
ATOM      5  C   UNL d   1      -3.465   1.636  -1.508  0.00  0.00     0.002 A 
ATOM      6  C   UNL d   1      -4.146   1.403  -0.324  0.00  0.00     0.002 A 
ENDROOT
BRANCH   1   7
ATOM      7  N   UNL d   1       0.009   0.803  -0.686  0.00  0.00    -0.332 N 
ATOM      8  H   UNL d   1       0.401   1.433  -1.379  0.00  0.00     0.168 HD
BRANCH   7   9
ATOM      9  C   UNL d   1       0.953   0.014  -0.147  0.00  0.00     0.172 C 
ATOM     10  S   UNL d   1       2.551   0.494  -0.260  0.00  0.00    -0.041 SA
BRANCH   9  11
ATOM     11  N   UNL d   1       0.696  -1.197   0.378  0.00  0.00    -0.362 N 
ATOM     12  H   UNL d   1       1.554  -1.661   0.651  0.00  0.00     0.162 HD
BRANCH  11  13
ATOM     13  C   UNL d   1      -0.376  -2.129   0.018  0.00  0.00     0.092 C 
ATOM     14  C   UNL d   1      -0.261  -2.707  -1.424  0.00  0.00     0.031 C 
ATOM     15  C   UNL d   1       1.130  -3.267  -1.612  0.00  0.00    -0.024 C 
ATOM     16  C   UNL d   1      -1.021  -4.030  -1.269  0.00  0.00     0.019 C 
ATOM     17  C   UNL d   1       1.228  -4.346  -0.818  0.00  0.00    -0.026 C 
ATOM     18  C   UNL d   1      -0.114  -4.533  -0.143  0.00  0.00     0.010 C 
ATOM     19  C   UNL d   1      -0.308  -3.414   0.902  0.00  0.00     0.034 C 
ENDBRANCH  11  13
ENDBRANCH   9  11
ENDBRANCH   7   9
ENDBRANCH   1   7
BRANCH   2  20
ATOM     20  S   UNL d   1      -1.367   0.275   2.360  0.00  0.00    -0.123 SA
BRANCH  20  21
ATOM     21  C   UNL d   1      -0.242   1.651   2.770  0.00  0.00     0.118 C 
BRANCH  21  22
ATOM     22  C   UNL d   1       0.442   1.358   4.088  0.00  0.00    -0.043 A 
ATOM     23  C   UNL d   1       1.667   0.671   4.124  0.00  0.00     0.050 A 
ATOM     24  C   UNL d   1       2.243   0.328   5.346  0.00  0.00     0.119 A 
ATOM     25  F   UNL d   1       3.405  -0.338   5.362  0.00  0.00    -0.206 F 
ATOM     26  C   UNL d   1       1.628   0.650   6.547  0.00  0.00     0.084 A 
ATOM     27  C   UNL d   1       0.419   1.329   6.513  0.00  0.00     0.119 A 
ATOM     28  C   UNL d   1      -0.176   1.686   5.304  0.00  0.00     0.050 A 
ATOM     29  F   UNL d   1      -0.196   1.637   7.663  0.00  0.00    -0.206 F 
ENDBRANCH  21  22
ENDBRANCH  20  21
ENDBRANCH   2  20
TORSDOF 7
