REMARK  23 active torsions:
REMARK  status: ('A' for Active; 'I' for Inactive)
REMARK    1  A    between atoms: C_2  and  C_1 
REMARK    2  A    between atoms: C_3  and  C_1 
REMARK    3  A    between atoms: C_4  and  C_2 
REMARK    4  A    between atoms: O_8  and  C_4 
REMARK    5  A    between atoms: O_9  and  C_5 
REMARK    6  A    between atoms: C_12  and  O_8 
REMARK    7  A    between atoms: C_13  and  O_9 
REMARK    8  A    between atoms: C_14  and  C_13 
REMARK    9  A    between atoms: C_28  and  C_14 
REMARK   10  A    between atoms: C_15  and  C_16 
REMARK   11  A    between atoms: C_16  and  C_27 
REMARK   12  A    between atoms: C_17  and  C_29 
REMARK   13  A    between atoms: C_18  and  C_17 
REMARK   14  A    between atoms: C_19  and  C_18 
REMARK   15  A    between atoms: C_20  and  C_19 
REMARK   16  A    between atoms: C_21  and  C_20 
REMARK   17  A    between atoms: C_22  and  C_21 
REMARK   18  A    between atoms: C_23  and  C_22 
REMARK   19  A    between atoms: C_24  and  C_23 
REMARK   20  A    between atoms: C_25  and  C_24 
REMARK   21  A    between atoms: C_26  and  C_25 
REMARK   22  A    between atoms: C_27  and  C_26 
REMARK   23  A    between atoms: C_29  and  C_28 
ROOT
ATOM      1  C   UNL d   1       4.420  -4.309   1.973  0.00  0.00     0.027 C 
ENDROOT
BRANCH   1   2
ATOM      2  C   UNL d   1       5.497  -5.034   1.143  0.00  0.00     0.175 C 
BRANCH   2   3
ATOM      3  O   UNL d   1       6.568  -5.634   1.886  0.00  0.00    -0.350 OA
BRANCH   3   4
ATOM      4  C   UNL d   1       6.258  -6.514   2.884  0.00  0.00     0.082 A 
ATOM      5  C   UNL d   1       7.142  -6.644   3.972  0.00  0.00     0.043 A 
ATOM      6  C   UNL d   1       6.765  -7.414   5.082  0.00  0.00     0.018 A 
ATOM      7  C   UNL d   1       5.549  -8.095   5.092  0.00  0.00     0.001 A 
ATOM      8  C   UNL d   1       4.723  -8.051   3.975  0.00  0.00     0.003 A 
ATOM      9  C   UNL d   1       5.089  -7.282   2.870  0.00  0.00     0.038 A 
BRANCH   5  10
ATOM     10  C   UNL d   1       8.482  -5.964   3.983  0.00  0.00     0.171 C 
ATOM     11  O   UNL d   1       8.620  -4.827   3.537  0.00  0.00    -0.292 OA
BRANCH  10  12
ATOM     12  C   UNL d   1       9.647  -6.660   4.649  0.00  0.00     0.195 C 
BRANCH  12  13
ATOM     13  C   UNL d   1       9.884  -8.062   4.169  0.00  0.00     0.266 C 
ATOM     14  O   UNL d   1       9.389  -8.563   3.170  0.00  0.00    -0.265 OA
BRANCH  13  15
ATOM     15  O   UNL d   1      10.711  -8.709   5.040  0.00  0.00    -0.322 OA
BRANCH  15  16
ATOM     16  C   UNL d   1      10.843 -10.123   4.824  0.00  0.00     0.174 C 
ATOM     17  C   UNL d   1       9.756 -10.835   5.607  0.00  0.00     0.034 C 
ENDBRANCH  15  16
ENDBRANCH  13  15
ENDBRANCH  12  13
ENDBRANCH  10  12
ENDBRANCH   5  10
ENDBRANCH   3   4
ENDBRANCH   2   3
ENDBRANCH   1   2
BRANCH   1  18
ATOM     18  C   UNL d   1       4.963  -3.357   3.036  0.00  0.00     0.002 C 
BRANCH  18  19
ATOM     19  C   UNL d   1       5.590  -2.100   2.433  0.00  0.00     0.000 C 
BRANCH  19  20
ATOM     20  C   UNL d   1       6.282  -1.225   3.478  0.00  0.00     0.000 C 
BRANCH  20  21
ATOM     21  C   UNL d   1       7.504  -1.922   4.066  0.00  0.00     0.000 C 
BRANCH  21  22
ATOM     22  C   UNL d   1       8.252  -1.042   5.054  0.00  0.00     0.000 C 
BRANCH  22  23
ATOM     23  C   UNL d   1       9.424  -1.822   5.643  0.00  0.00     0.000 C 
BRANCH  23  24
ATOM     24  C   UNL d   1      10.174  -0.970   6.655  0.00  0.00     0.000 C 
BRANCH  24  25
ATOM     25  C   UNL d   1      11.352  -1.737   7.240  0.00  0.00     0.000 C 
BRANCH  25  26
ATOM     26  C   UNL d   1      12.093  -0.863   8.242  0.00  0.00     0.000 C 
BRANCH  26  27
ATOM     27  C   UNL d   1      13.283  -1.603   8.835  0.00  0.00     0.000 C 
BRANCH  27  28
ATOM     28  C   UNL d   1      14.016  -0.712   9.830  0.00  0.00     0.000 C 
BRANCH  28  29
ATOM     29  C   UNL d   1      15.212  -1.440  10.429  0.00  0.00     0.000 C 
BRANCH  29  30
ATOM     30  C   UNL d   1      15.946  -0.547  11.425  0.00  0.00     0.000 C 
BRANCH  30  31
ATOM     31  C   UNL d   1      17.144  -1.276  12.026  0.00  0.00    -0.000 C 
BRANCH  31  32
ATOM     32  C   UNL d   1      17.883  -0.391  13.025  0.00  0.00    -0.005 C 
ATOM     33  C   UNL d   1      19.077  -1.118  13.621  0.00  0.00     0.005 C 
ENDBRANCH  31  32
ENDBRANCH  30  31
ENDBRANCH  29  30
ENDBRANCH  28  29
ENDBRANCH  27  28
ENDBRANCH  26  27
ENDBRANCH  25  26
ENDBRANCH  24  25
ENDBRANCH  23  24
ENDBRANCH  22  23
ENDBRANCH  21  22
ENDBRANCH  20  21
ENDBRANCH  19  20
ENDBRANCH  18  19
ENDBRANCH   1  18
TORSDOF 23
