REMARK  1 active torsions:
REMARK  status: ('A' for Active; 'I' for Inactive)
REMARK    1  A    between atoms: C_15  and  N_7 
ROOT
ATOM      1  C   UNL d   1       0.954  -0.897  -0.344  0.00  0.00     0.102 C 
ATOM      2  C   UNL d   1       0.504   0.408  -0.276  0.00  0.00     0.071 C 
ATOM      3  C   UNL d   1       2.296  -1.433  -0.251  0.00  0.00     0.268 C 
ATOM      4  S   UNL d   1      -0.325  -2.025  -0.412  0.00  0.00    -0.064 SA
ATOM      5  C   UNL d   1      -0.956   0.486  -0.282  0.00  0.00     0.032 A 
ATOM      6  C   UNL d   1      -1.485  -0.804  -0.217  0.00  0.00     0.088 A 
ATOM      7  N   UNL d   1       3.017  -0.789   0.749  0.00  0.00    -0.305 N 
ATOM      8  N   UNL d   1       1.309   1.529  -0.144  0.00  0.00    -0.324 N 
ATOM      9  N   UNL d   1      -2.769  -1.159  -0.020  0.00  0.00    -0.354 N 
ATOM     10  HN  UNL d   1      -3.070  -2.133   0.012  1.00  0.00     0.166 HD
ATOM     11  C   UNL d   1      -1.911   1.550  -0.239  0.00  0.00    -0.045 A 
ATOM     12  C   UNL d   1       2.613   1.665   0.212  0.00  0.00     0.240 C 
ATOM     13  C   UNL d   1       3.575   0.494   0.337  0.00  0.00     0.235 C 
ATOM     14  O   UNL d   1       2.710  -2.374  -0.914  0.00  0.00    -0.266 OA
ATOM     15  C   UNL d   1      -3.254   1.191  -0.007  0.00  0.00     0.032 A 
ATOM     16  C   UNL d   1      -3.623  -0.137   0.132  0.00  0.00     0.006 A 
ATOM     17  O   UNL d   1       3.038   2.822   0.327  0.00  0.00    -0.271 OA
ATOM     18  C   UNL d   1      -1.667   3.032  -0.377  0.00  0.00     0.049 C 
ATOM     19  C   UNL d   1      -5.042  -0.474   0.486  0.00  0.00     0.068 C 
ATOM     20  H   UNL d   1       0.863   2.428  -0.183  0.00  0.00     0.169 HD
ENDROOT
BRANCH   7  21
ATOM     21  C   UNL d   1       3.692  -1.514   1.784  0.00  0.00     0.038 A 
ATOM     22  C   UNL d   1       3.891  -2.900   1.727  0.00  0.00     0.030 A 
ATOM     23  C   UNL d   1       4.507  -3.585   2.780  0.00  0.00     0.002 A 
ATOM     24  C   UNL d   1       4.896  -2.902   3.927  0.00  0.00     0.000 A 
ATOM     25  C   UNL d   1       4.671  -1.533   4.020  0.00  0.00     0.002 A 
ATOM     26  C   UNL d   1       4.077  -0.845   2.957  0.00  0.00     0.030 A 
ENDBRANCH   7  21
TORSDOF 1
