REMARK  6 active torsions:
REMARK  status: ('A' for Active; 'I' for Inactive)
REMARK    1  A    between atoms: N_4  and  S_1 
REMARK    2  A    between atoms: C_7  and  S_1 
REMARK    3  A    between atoms: C_2  and  C_5 
REMARK    4  A    between atoms: C_3  and  C_6 
REMARK    5  A    between atoms: C_8  and  N_4 
REMARK       I    between atoms: C_12  and  N_15 
REMARK    6  A    between atoms: N_15  and  C_25 
ROOT
ATOM      1  N   UNL d   1       0.545   0.355  -1.518  0.00  0.00    -0.181 NA
ATOM      2  H   UNL d   1       0.052   1.246  -1.607  0.00  0.00     0.146 HD
ENDROOT
BRANCH   1   3
ATOM      3  S   UNL d   1       1.019   0.134   0.095  0.00  0.00     0.245 S 
ATOM      4  O   UNL d   1       0.198   1.046   0.862  0.00  0.00    -0.206 OA
ATOM      5  O   UNL d   1       2.462   0.168   0.188  0.00  0.00    -0.206 OA
BRANCH   3   6
ATOM      6  C   UNL d   1       0.470  -1.518   0.457  0.00  0.00     0.075 A 
ATOM      7  C   UNL d   1       1.323  -2.605   0.246  0.00  0.00     0.027 A 
ATOM      8  C   UNL d   1       0.906  -3.896   0.603  0.00  0.00     0.031 A 
ATOM      9  C   UNL d   1      -0.351  -4.106   1.194  0.00  0.00     0.034 A 
ATOM     10  C   UNL d   1      -1.179  -3.003   1.411  0.00  0.00     0.031 A 
ATOM     11  C   UNL d   1      -0.775  -1.713   1.048  0.00  0.00     0.027 A 
BRANCH   9  12
ATOM     12  N   UNL d   1      -0.702  -5.429   1.555  0.00  0.00    -0.328 N 
ATOM     13  C   UNL d   1      -1.884  -5.835   2.155  0.00  0.00     0.218 C 
ATOM     14  O   UNL d   1      -2.837  -5.124   2.461  0.00  0.00    -0.274 OA
ATOM     15  C   UNL d   1      -1.948  -7.316   2.434  0.00  0.00     0.117 C 
ATOM     16  H   UNL d   1      -0.013  -6.143   1.360  0.00  0.00     0.169 HD
ENDBRANCH   9  12
ENDBRANCH   3   6
ENDBRANCH   1   3
BRANCH   1  17
ATOM     17  C   UNL d   1       1.481   0.029  -2.536  0.00  0.00     0.024 A 
ATOM     18  C   UNL d   1       1.505  -1.263  -3.056  0.00  0.00     0.040 A 
ATOM     19  C   UNL d   1       2.451  -1.617  -4.029  0.00  0.00     0.050 A 
ATOM     20  C   UNL d   1       3.371  -0.651  -4.469  0.00  0.00     0.032 A 
ATOM     21  C   UNL d   1       3.369   0.648  -3.933  0.00  0.00     0.050 A 
ATOM     22  C   UNL d   1       2.412   0.979  -2.961  0.00  0.00     0.040 A 
BRANCH  19  23
ATOM     23  C   UNL d   1       2.485  -3.027  -4.568  0.00  0.00     0.417 C 
ATOM     24  F   UNL d   1       3.446  -3.223  -5.512  0.00  0.00    -0.166 F 
ATOM     25  F   UNL d   1       2.729  -3.943  -3.590  0.00  0.00    -0.166 F 
ATOM     26  F   UNL d   1       1.310  -3.394  -5.145  0.00  0.00    -0.166 F 
ENDBRANCH  19  23
BRANCH  21  27
ATOM     27  C   UNL d   1       4.392   1.669  -4.375  0.00  0.00     0.417 C 
ATOM     28  F   UNL d   1       5.261   1.191  -5.309  0.00  0.00    -0.166 F 
ATOM     29  F   UNL d   1       3.819   2.772  -4.929  0.00  0.00    -0.166 F 
ATOM     30  F   UNL d   1       5.160   2.118  -3.346  0.00  0.00    -0.166 F 
ENDBRANCH  21  27
ENDBRANCH   1  17
TORSDOF 6
