REMARK  2 active torsions:
REMARK  status: ('A' for Active; 'I' for Inactive)
REMARK    1  A    between atoms: N_3  and  C_1 
REMARK    2  A    between atoms: C_16  and  N_6 
ROOT
ATOM      1  C   UNL d   1       0.054   1.460  -0.029  0.00  0.00     0.125 A 
ATOM      2  C   UNL d   1      -0.233   0.684  -1.169  0.00  0.00     0.094 A 
ATOM      3  N   UNL d   1      -0.096   0.933   1.213  0.00  0.00    -0.345 N 
ATOM      4  HN  UNL d   1       0.110   1.501   2.035  1.00  0.00     0.167 HD
ATOM      5  C   UNL d   1      -0.675  -0.646  -1.008  0.00  0.00    -0.036 A 
ATOM      6  C   UNL d   1      -0.131   1.247  -2.487  0.00  0.00     0.104 C 
ATOM      7  N   UNL d   1      -0.012   1.663  -3.561  0.00  0.00    -0.191 NA
ATOM      8  C   UNL d   1      -0.519  -0.341   1.365  0.00  0.00     0.007 A 
ATOM      9  C   UNL d   1      -0.818  -1.153   0.285  0.00  0.00     0.033 A 
ATOM     10  C   UNL d   1      -1.004  -1.565  -2.155  0.00  0.00     0.050 C 
ATOM     11  C   UNL d   1      -0.662  -0.854   2.765  0.00  0.00     0.068 C 
ENDROOT
BRANCH   1  12
ATOM     12  N   UNL d   1       0.367   2.804  -0.091  0.00  0.00    -0.363 N 
ATOM     13  C   UNL d   1       0.071   3.620   1.106  0.00  0.00     0.144 C 
ATOM     14  C   UNL d   1      -0.283   5.059   0.656  0.00  0.00     0.143 C 
ATOM     15  N   UNL d   1       0.766   5.621  -0.221  0.00  0.00    -0.378 N 
ATOM     16  C   UNL d   1       1.206   4.750  -1.331  0.00  0.00     0.143 C 
ATOM     17  C   UNL d   1       1.526   3.317  -0.848  0.00  0.00     0.144 C 
BRANCH  15  18
ATOM     18  C   UNL d   1       1.502   6.723   0.163  0.00  0.00     0.030 A 
ATOM     19  C   UNL d   1       0.895   7.847   0.744  0.00  0.00     0.029 A 
ATOM     20  C   UNL d   1       1.641   8.976   1.103  0.00  0.00     0.002 A 
ATOM     21  C   UNL d   1       3.017   9.000   0.893  0.00  0.00     0.000 A 
ATOM     22  C   UNL d   1       3.641   7.902   0.317  0.00  0.00     0.002 A 
ATOM     23  C   UNL d   1       2.888   6.784  -0.041  0.00  0.00     0.029 A 
ENDBRANCH  15  18
ENDBRANCH   1  12
TORSDOF 2
