REMARK  7 active torsions:
REMARK  status: ('A' for Active; 'I' for Inactive)
REMARK    1  A    between atoms: C_6  and  C_1 
REMARK    2  A    between atoms: C_10  and  N_2 
REMARK    3  A    between atoms: C_8  and  C_4 
REMARK    4  A    between atoms: O_13  and  C_6 
REMARK    5  A    between atoms: N_7  and  C_15 
REMARK    6  A    between atoms: C_12  and  C_10 
REMARK    7  A    between atoms: C_15  and  C_12 
ROOT
ATOM      1  C   UNL d   1      -0.371   1.205   0.066  0.00  0.00     0.062 A 
ATOM      2  N   UNL d   1       0.879  -0.682   0.042  0.00  0.00    -0.349 N 
ATOM      3  C   UNL d   1       0.929   0.709   0.040  0.00  0.00     0.025 A 
ATOM      4  C   UNL d   1      -0.452  -1.100   0.141  0.00  0.00     0.046 A 
ATOM      5  C   UNL d   1      -1.216   0.063   0.132  0.00  0.00     0.050 A 
ATOM      6  C   UNL d   1       2.184   1.532   0.009  0.00  0.00     0.069 C 
ENDROOT
BRANCH   2   7
ATOM      7  C   UNL d   1       2.044  -1.558  -0.021  0.00  0.00     0.131 C 
BRANCH   7   8
ATOM      8  C   UNL d   1       2.119  -2.471  -1.250  0.00  0.00     0.050 C 
BRANCH   8   9
ATOM      9  C   UNL d   1       3.400  -3.310  -1.193  0.00  0.00     0.274 C 
BRANCH   9  10
ATOM     10  N   UNL d   1       3.631  -4.258  -2.278  0.00  0.00     0.092 N 
ATOM     11  C   UNL d   1       3.640  -3.652  -3.620  0.00  0.00     0.298 C 
ATOM     12  C   UNL d   1       4.139  -4.690  -4.637  0.00  0.00     0.198 C 
ATOM     13  O   UNL d   1       3.287  -5.847  -4.653  0.00  0.00    -0.388 OA
ATOM     14  C   UNL d   1       3.213  -6.434  -3.344  0.00  0.00     0.198 C 
ATOM     15  C   UNL d   1       2.724  -5.419  -2.293  0.00  0.00     0.298 C 
ENDBRANCH   9  10
ENDBRANCH   8   9
ENDBRANCH   7   8
ENDBRANCH   2   7
BRANCH   4  16
ATOM     16  C   UNL d   1      -0.963  -2.490   0.123  0.00  0.00    -0.009 A 
ATOM     17  C   UNL d   1      -2.146  -2.780  -0.578  0.00  0.00     0.014 A 
ATOM     18  C   UNL d   1      -2.602  -4.095  -0.725  0.00  0.00     0.001 A 
ATOM     19  C   UNL d   1      -1.869  -5.148  -0.189  0.00  0.00     0.000 A 
ATOM     20  C   UNL d   1      -0.726  -4.879   0.557  0.00  0.00     0.001 A 
ATOM     21  C   UNL d   1      -0.306  -3.558   0.748  0.00  0.00     0.014 A 
ENDBRANCH   4  16
BRANCH   1  22
ATOM     22  C   UNL d   1      -0.732   2.631   0.013  0.00  0.00     0.178 C 
ATOM     23  O   UNL d   1       0.074   3.548  -0.039  0.00  0.00    -0.646 OA
BRANCH  22  24
ATOM     24  O   UNL d   1      -2.067   2.890   0.029  0.00  0.00    -0.773 OA
ATOM     25  H   UNL d   1      -2.611   2.079   0.071  0.00  0.00     0.167 HD
ENDBRANCH  22  24
ENDBRANCH   1  22
TORSDOF 7
