REMARK  2 active torsions:
REMARK  status: ('A' for Active; 'I' for Inactive)
REMARK       I    between atoms: N_5  and  C_1 
REMARK       I    between atoms: N_9  and  C_1 
REMARK    1  A    between atoms: C_6  and  N_5 
REMARK    2  A    between atoms: C_14  and  N_9 
ROOT
ATOM      1  C   UNL d   1       0.468  -2.811   2.136  0.00  0.00     0.021 A 
ATOM      2  N   UNL d   1       0.510  -4.658   3.656  0.00  0.00    -0.300 N 
ATOM      3  HN  UNL d   1       0.880  -5.092   4.502  1.00  0.00     0.187 HD
ATOM      4  C   UNL d   1       1.014  -1.560   1.746  0.00  0.00     0.049 A 
ATOM      5  N   UNL d   1      -0.472  -5.301   2.941  0.00  0.00    -0.305 N 
ATOM      6  HN  UNL d   1      -0.821  -6.207   3.253  1.00  0.00     0.186 HD
ATOM      7  C   UNL d   1       0.993  -3.468   3.261  0.00  0.00     0.060 A 
ATOM      8  C   UNL d   1      -0.535  -3.486   1.415  0.00  0.00     0.042 A 
ATOM      9  C   UNL d   1      -0.970  -4.733   1.831  0.00  0.00     0.023 A 
ATOM     10  C   UNL d   1       2.097  -1.014   2.440  0.00  0.00     0.030 A 
ATOM     11  C   UNL d   1       2.608  -1.673   3.553  0.00  0.00     0.005 A 
ATOM     12  C   UNL d   1       2.044  -2.882   3.960  0.00  0.00     0.032 A 
ATOM     13  C   UNL d   1      -1.963  -5.503   1.020  0.00  0.00     0.070 C 
ENDROOT
BRANCH   4  14
ATOM     14  N   UNL d   1       0.419  -0.827   0.691  0.00  0.00    -0.308 N 
ATOM     15  C   UNL d   1       1.142  -0.275  -0.355  0.00  0.00     0.325 C 
ATOM     16  N   UNL d   1       0.271   0.356  -1.228  0.00  0.00    -0.309 N 
ATOM     17  O   UNL d   1       2.352  -0.380  -0.499  0.00  0.00    -0.247 OA
ATOM     18  H   UNL d   1      -0.553   0.748  -0.794  0.00  0.00     0.170 HD
ATOM     19  H   UNL d   1      -0.508  -1.108   0.412  0.00  0.00     0.170 HD
BRANCH  16  20
ATOM     20  C   UNL d   1       0.540   0.747  -2.551  0.00  0.00     0.036 A 
ATOM     21  C   UNL d   1       1.613   0.243  -3.293  0.00  0.00     0.032 A 
ATOM     22  C   UNL d   1       1.809   0.654  -4.614  0.00  0.00     0.044 A 
ATOM     23  C   UNL d   1       0.932   1.565  -5.188  0.00  0.00     0.116 A 
ATOM     24  C   UNL d   1      -0.149   2.062  -4.471  0.00  0.00     0.044 A 
ATOM     25  F   UNL d   1       1.126   1.966  -6.450  0.00  0.00    -0.206 F 
ATOM     26  C   UNL d   1      -0.351   1.644  -3.154  0.00  0.00     0.032 A 
ENDBRANCH  16  20
ENDBRANCH   4  14
TORSDOF 2
