REMARK  2 active torsions:
REMARK  status: ('A' for Active; 'I' for Inactive)
REMARK    1  A    between atoms: N_8  and  C_1 
REMARK    2  A    between atoms: C_4  and  C_7 
REMARK       I    between atoms: N_5  and  C_6 
REMARK       I    between atoms: C_7  and  N_5 
REMARK       I    between atoms: C_6  and  N_8 
ROOT
ATOM      1  N   UNL d   1      -4.425   0.603   0.086  0.00  0.00    -0.273 N 
ATOM      2  C   UNL d   1      -4.268  -0.745   0.114  0.00  0.00     0.329 C 
ATOM      3  C   UNL d   1      -5.680   1.187   0.046  0.00  0.00     0.277 C 
ATOM      4  N   UNL d   1      -3.035  -1.281  -0.045  0.00  0.00    -0.288 N 
ATOM      5  O   UNL d   1      -5.195  -1.544   0.248  0.00  0.00    -0.247 OA
ATOM      6  O   UNL d   1      -6.703   0.725   0.538  0.00  0.00    -0.266 OA
ATOM      7  H   UNL d   1      -3.676   1.138  -0.331  0.00  0.00     0.173 HD
ATOM      8  H   UNL d   1      -3.060  -2.289  -0.128  0.00  0.00     0.172 HD
ENDROOT
BRANCH   4   9
ATOM      9  C   UNL d   1      -1.763  -0.788  -0.085  0.00  0.00     0.153 A 
ATOM     10  N   UNL d   1      -0.768  -1.588  -0.377  0.00  0.00    -0.335 N 
ATOM     11  C   UNL d   1       0.428  -0.899  -0.303  0.00  0.00     0.051 A 
ATOM     12  HN  UNL d   1      -0.862  -2.574  -0.622  1.00  0.00     0.168 HD
ATOM     13  C   UNL d   1       1.702  -1.440  -0.569  0.00  0.00     0.031 A 
ATOM     14  C   UNL d   1       0.321   0.438   0.084  0.00  0.00     0.035 A 
ATOM     15  C   UNL d   1       2.838  -0.639  -0.428  0.00  0.00     0.002 A 
ATOM     16  C   UNL d   1       2.715   0.687  -0.022  0.00  0.00     0.002 A 
ATOM     17  C   UNL d   1       1.459   1.250   0.236  0.00  0.00     0.021 A 
ATOM     18  S   UNL d   1      -1.355   0.817   0.290  0.00  0.00    -0.052 SA
ENDBRANCH   4   9
BRANCH   3  19
ATOM     19  C   UNL d   1      -5.686   2.507  -0.579  0.00  0.00     0.121 A 
ATOM     20  N   UNL d   1      -4.515   3.080  -1.074  0.00  0.00    -0.287 N 
ATOM     21  N   UNL d   1      -4.738   4.275  -1.595  0.00  0.00    -0.061 NA
ATOM     22  HN  UNL d   1      -3.599   2.633  -1.038  1.00  0.00     0.183 HD
ATOM     23  S   UNL d   1      -6.345   4.736  -1.513  0.00  0.00    -0.010 SA
ATOM     24  C   UNL d   1      -6.822   3.285  -0.740  0.00  0.00     0.101 A 
ENDBRANCH   3  19
TORSDOF 2
