REMARK  3 active torsions:
REMARK  status: ('A' for Active; 'I' for Inactive)
REMARK    1  A    between atoms: C_6  and  C_1 
REMARK    2  A    between atoms: C_15  and  N_2 
REMARK       I    between atoms: N_13  and  C_6 
REMARK    3  A    between atoms: C_7  and  N_14 
ROOT
ATOM      1  C   UNL d   1      -0.681   2.410   0.313  0.00  0.00     0.257 C 
ATOM      2  N   UNL d   1       0.433   3.258   0.344  0.00  0.00    -0.344 N 
ATOM      3  N   UNL d   1       2.680   5.174   0.091  0.00  0.00     0.105 N 
ATOM      4  O   UNL d   1      -1.023   1.818  -0.707  0.00  0.00    -0.267 OA
ATOM      5  C   UNL d   1       1.157   3.398  -0.916  0.00  0.00     0.156 C 
ATOM      6  C   UNL d   1       0.477   4.452   1.196  0.00  0.00     0.156 C 
ATOM      7  C   UNL d   1       2.578   3.926  -0.692  0.00  0.00     0.293 C 
ATOM      8  C   UNL d   1       1.883   5.082   1.318  0.00  0.00     0.293 C 
ENDROOT
BRANCH   1   9
ATOM      9  C   UNL d   1      -1.416   2.235   1.556  0.00  0.00     0.073 C 
ATOM     10  C   UNL d   1      -2.788   2.069   1.709  0.00  0.00     0.048 C 
ATOM     11  N   UNL d   1      -3.020   1.999   3.078  0.00  0.00    -0.260 N 
ATOM     12  C   UNL d   1      -3.827   1.917   0.654  0.00  0.00     0.071 C 
ATOM     13  N   UNL d   1      -1.851   1.891   3.767  0.00  0.00    -0.304 N 
ATOM     14  C   UNL d   1      -0.903   2.066   2.854  0.00  0.00     0.126 C 
ATOM     15  HN  UNL d   1      -1.730   1.715   4.764  1.00  0.00     0.186 HD
BRANCH  11  16
ATOM     16  C   UNL d   1      -4.241   2.044   3.808  0.00  0.00     0.056 A 
ATOM     17  C   UNL d   1      -4.271   1.501   5.104  0.00  0.00     0.031 A 
ATOM     18  C   UNL d   1      -5.446   1.533   5.854  0.00  0.00     0.002 A 
ATOM     19  C   UNL d   1      -6.589   2.131   5.332  0.00  0.00     0.000 A 
ATOM     20  C   UNL d   1      -6.558   2.702   4.060  0.00  0.00     0.002 A 
ATOM     21  C   UNL d   1      -5.388   2.660   3.297  0.00  0.00     0.031 A 
ENDBRANCH  11  16
ENDBRANCH   1   9
BRANCH   3  22
ATOM     22  C   UNL d   1       2.589   6.448  -0.649  0.00  0.00     0.290 C 
ATOM     23  C   UNL d   1       3.534   6.437  -1.853  0.00  0.00    -0.009 A 
ATOM     24  C   UNL d   1       2.791   6.485  -3.053  0.00  0.00    -0.017 A 
ATOM     25  C   UNL d   1       4.915   6.282  -1.855  0.00  0.00     0.010 A 
ATOM     26  C   UNL d   1       3.430   6.370  -4.276  0.00  0.00     0.013 A 
ATOM     27  C   UNL d   1       1.390   6.654  -2.728  0.00  0.00    -0.017 C 
ATOM     28  C   UNL d   1       4.819   6.198  -4.285  0.00  0.00     0.001 A 
ATOM     29  C   UNL d   1       5.554   6.157  -3.089  0.00  0.00     0.001 A 
ATOM     30  C   UNL d   1       1.257   6.753  -1.326  0.00  0.00    -0.009 C 
ATOM     31  C   UNL d   1       0.273   6.735  -3.544  0.00  0.00     0.013 C 
ATOM     32  C   UNL d   1       0.046   7.107  -0.750  0.00  0.00     0.010 C 
ATOM     33  C   UNL d   1      -1.081   7.180  -1.569  0.00  0.00     0.001 C 
ATOM     34  C   UNL d   1      -0.972   6.965  -2.951  0.00  0.00     0.001 C 
ENDBRANCH   3  22
TORSDOF 3
