REMARK  3 active torsions:
REMARK  status: ('A' for Active; 'I' for Inactive)
REMARK    1  A    between atoms: C_6  and  N_1 
REMARK    2  A    between atoms: O_18  and  C_15 
REMARK    3  A    between atoms: O_19  and  C_16 
ROOT
ATOM      1  N   UNL d   1      -2.458  -0.685  -0.059  0.00  0.00    -0.241 N 
ATOM      2  C   UNL d   1      -1.372  -1.291   0.551  0.00  0.00     0.284 A 
ATOM      3  C   UNL d   1      -2.056   0.446  -0.749  0.00  0.00     0.284 A 
ATOM      4  C   UNL d   1      -0.199  -0.497   0.198  0.00  0.00     0.134 A 
ATOM      5  C   UNL d   1      -0.610   0.549  -0.575  0.00  0.00     0.134 A 
ATOM      6  N   UNL d   1       1.086  -0.731   0.533  0.00  0.00    -0.358 N 
ATOM      7  HN  UNL d   1       1.385  -1.521   1.106  1.00  0.00     0.165 HD
ATOM      8  N   UNL d   1       0.214   1.488  -1.081  0.00  0.00    -0.358 N 
ATOM      9  HN  UNL d   1      -0.105   2.272  -1.650  1.00  0.00     0.165 HD
ATOM     10  O   UNL d   1      -1.306  -2.303   1.227  0.00  0.00    -0.265 OA
ATOM     11  O   UNL d   1      -2.704   1.270  -1.367  0.00  0.00    -0.265 OA
ATOM     12  C   UNL d   1       1.942   0.197   0.027  0.00  0.00     0.105 A 
ATOM     13  C   UNL d   1       1.516   1.281  -0.752  0.00  0.00     0.105 A 
ENDROOT
BRANCH   1  14
ATOM     14  C   UNL d   1      -3.797  -1.178  -0.011  0.00  0.00     0.051 A 
ATOM     15  C   UNL d   1      -4.215  -2.058   1.002  0.00  0.00     0.067 A 
ATOM     16  C   UNL d   1      -5.521  -2.559   1.032  0.00  0.00     0.073 A 
ATOM     17  C   UNL d   1      -6.422  -2.204   0.029  0.00  0.00     0.073 A 
ATOM     18  C   UNL d   1      -6.034  -1.340  -0.990  0.00  0.00     0.073 A 
ATOM     19  C   UNL d   1      -4.735  -0.818  -0.991  0.00  0.00     0.067 A 
BRANCH  16  20
ATOM     20  O   UNL d   1      -6.039  -3.400   1.980  0.00  0.00    -0.356 OA
ATOM     21  C   UNL d   1      -5.178  -3.793   3.042  0.00  0.00     0.210 C 
ENDBRANCH  16  20
BRANCH  18  22
ATOM     22  O   UNL d   1      -6.815  -0.938  -2.039  0.00  0.00    -0.356 OA
ATOM     23  C   UNL d   1      -8.109  -1.520  -2.136  0.00  0.00     0.210 C 
ENDBRANCH  18  22
ENDBRANCH   1  14
TORSDOF 3
