REMARK  3 active torsions:
REMARK  status: ('A' for Active; 'I' for Inactive)
REMARK    1  A    between atoms: C_11  and  C_5 
REMARK    2  A    between atoms: C_10  and  C_7 
REMARK    3  A    between atoms: O_13  and  C_10 
ROOT
ATOM      1  C   UNL d   1       1.094  -0.773  -0.137  0.00  0.00     0.055 A 
ATOM      2  C   UNL d   1       0.676   0.538  -0.183  0.00  0.00    -0.018 A 
ATOM      3  N   UNL d   1      -0.014  -1.575  -0.087  0.00  0.00    -0.356 N 
ATOM      4  N   UNL d   1       3.477  -0.185  -0.210  0.00  0.00     0.113 N 
ATOM      5  C   UNL d   1       2.498  -1.271  -0.021  0.00  0.00     0.304 C 
ATOM      6  C   UNL d   1      -0.744   0.539  -0.126  0.00  0.00    -0.001 A 
ATOM      7  C   UNL d   1       3.040   1.151   0.314  0.00  0.00     0.324 C 
ATOM      8  C   UNL d   1       1.668   1.643  -0.224  0.00  0.00     0.087 C 
ATOM      9  C   UNL d   1      -1.150  -0.798  -0.066  0.00  0.00     0.043 A 
ATOM     10  C   UNL d   1      -1.731   1.542  -0.093  0.00  0.00     0.014 A 
ATOM     11  C   UNL d   1      -2.493  -1.181   0.019  0.00  0.00     0.030 A 
ATOM     12  C   UNL d   1      -3.080   1.175  -0.014  0.00  0.00     0.001 A 
ATOM     13  C   UNL d   1      -3.453  -0.167   0.039  0.00  0.00     0.002 A 
ATOM     14  H   UNL d   1      -0.002  -2.581   0.015  0.00  0.00     0.166 HD
ATOM     15  H   UNL d   1       3.618  -0.066  -1.216  0.00  0.00     0.318 HD
ENDROOT
BRANCH   5  16
ATOM     16  C   UNL d   1       2.711  -2.073   1.259  0.00  0.00    -0.019 A 
ATOM     17  C   UNL d   1       2.128  -1.690   2.481  0.00  0.00     0.010 A 
ATOM     18  C   UNL d   1       2.178  -2.531   3.594  0.00  0.00     0.001 A 
ATOM     19  C   UNL d   1       2.836  -3.755   3.513  0.00  0.00     0.000 A 
ATOM     20  C   UNL d   1       3.466  -4.127   2.327  0.00  0.00     0.001 A 
ATOM     21  C   UNL d   1       3.411  -3.290   1.210  0.00  0.00     0.010 A 
ENDBRANCH   5  16
BRANCH   7  22
ATOM     22  C   UNL d   1       4.076   2.207  -0.104  0.00  0.00     0.292 C 
ATOM     23  O   UNL d   1       4.739   2.167  -1.132  0.00  0.00    -0.263 OA
BRANCH  22  24
ATOM     24  O   UNL d   1       4.103   3.232   0.801  0.00  0.00    -0.325 OA
ATOM     25  C   UNL d   1       5.040   4.264   0.481  0.00  0.00     0.213 C 
ENDBRANCH  22  24
ENDBRANCH   7  22
TORSDOF 3
