REMARK  4 active torsions:
REMARK  status: ('A' for Active; 'I' for Inactive)
REMARK    1  A    between atoms: N_8  and  C_2 
REMARK    2  A    between atoms: C_10  and  C_3 
REMARK       I    between atoms: C_9  and  N_8 
REMARK       I    between atoms: N_12  and  C_9 
REMARK    3  A    between atoms: C_11  and  N_12 
REMARK    4  A    between atoms: O_22  and  C_16 
ROOT
ATOM      1  N   UNL d   1       0.090   2.261   0.421  0.00  0.00    -0.287 N 
ATOM      2  C   UNL d   1       1.189   3.040   0.232  0.00  0.00     0.326 C 
ATOM      3  N   UNL d   1       2.362   2.390  -0.066  0.00  0.00    -0.306 N 
ATOM      4  O   UNL d   1       1.219   4.267   0.213  0.00  0.00    -0.247 OA
ATOM      5  H   UNL d   1       0.174   1.259   0.379  0.00  0.00     0.172 HD
ATOM      6  H   UNL d   1       3.053   3.023  -0.456  0.00  0.00     0.171 HD
ENDROOT
BRANCH   1   7
ATOM      7  C   UNL d   1      -1.200   2.683   0.623  0.00  0.00     0.169 A 
ATOM      8  S   UNL d   1      -1.693   4.312   0.549  0.00  0.00    -0.037 SA
ATOM      9  C   UNL d   1      -3.278   3.780   0.916  0.00  0.00     0.074 A 
ATOM     10  N   UNL d   1      -3.384   2.475   1.054  0.00  0.00    -0.296 N 
ATOM     11  N   UNL d   1      -2.176   1.835   0.859  0.00  0.00    -0.279 N 
ATOM     12  HN  UNL d   1      -4.255   1.993   1.278  1.00  0.00     0.187 HD
ATOM     13  HN  UNL d   1      -2.056   0.823   0.894  1.00  0.00     0.189 HD
BRANCH   9  14
ATOM     14  C   UNL d   1      -4.510   4.668   1.104  0.00  0.00     0.044 A 
ATOM     15  C   UNL d   1      -4.757   5.845   0.183  0.00  0.00     0.012 A 
ATOM     16  C   UNL d   1      -4.356   6.093   1.597  0.00  0.00     0.012 A 
ENDBRANCH   9  14
ENDBRANCH   1   7
BRANCH   3  17
ATOM     17  C   UNL d   1       2.720   1.032  -0.033  0.00  0.00     0.071 A 
ATOM     18  C   UNL d   1       2.301   0.198   1.012  0.00  0.00     0.056 A 
ATOM     19  C   UNL d   1       2.772  -1.115   1.092  0.00  0.00     0.036 A 
ATOM     20 CL   UNL d   1       2.300  -2.108   2.415  0.00  0.00    -0.084 Cl
ATOM     21  C   UNL d   1       3.653  -1.613   0.139  0.00  0.00     0.026 A 
ATOM     22  C   UNL d   1       4.084  -0.786  -0.899  0.00  0.00     0.041 A 
ATOM     23  C   UNL d   1       3.623   0.532  -0.991  0.00  0.00     0.095 A 
BRANCH  23  24
ATOM     24  O   UNL d   1       4.160   1.258  -2.023  0.00  0.00    -0.354 OA
ATOM     25  C   UNL d   1       3.225   1.978  -2.828  0.00  0.00     0.210 C 
ENDBRANCH  23  24
ENDBRANCH   3  17
TORSDOF 4
