REMARK  4 active torsions:
REMARK  status: ('A' for Active; 'I' for Inactive)
REMARK    1  A    between atoms: N_3  and  S_1 
REMARK    2  A    between atoms: C_4  and  S_1 
REMARK       I    between atoms: C_2  and  N_5 
REMARK    3  A    between atoms: O_6  and  C_2 
REMARK    4  A    between atoms: C_17  and  O_6 
ROOT
ATOM      1  C   UNL d   1       1.454   0.397  -5.541  0.00  0.00     0.363 C 
ATOM      2  N   UNL d   1       0.570   0.096  -1.565  0.00  0.00    -0.205 NA
ATOM      3  N   UNL d   1       0.440   0.330  -4.591  0.00  0.00    -0.327 N 
ATOM      4  C   UNL d   1       0.862   1.360  -2.330  0.00  0.00     0.127 C 
ATOM      5  C   UNL d   1       0.114   1.421  -3.670  0.00  0.00     0.143 C 
ATOM      6  O   UNL d   1       1.712  -0.504  -6.321  0.00  0.00    -0.238 OA
ATOM      7  C   UNL d   1       0.083  -1.724  -3.180  0.00  0.00     0.035 C 
ATOM      8  C   UNL d   1       1.132  -1.106  -2.264  0.00  0.00     0.109 C 
ATOM      9  C   UNL d   1      -0.301  -0.909  -4.417  0.00  0.00     0.129 C 
ENDROOT
BRANCH   2  10
ATOM     10  S   UNL d   1       1.057   0.161   0.089  0.00  0.00     0.243 S 
ATOM     11  O   UNL d   1       2.406   0.689   0.111  0.00  0.00    -0.206 OA
ATOM     12  O   UNL d   1       0.733  -1.104   0.711  0.00  0.00    -0.206 OA
BRANCH  10  13
ATOM     13  C   UNL d   1      -0.029   1.368   0.812  0.00  0.00     0.075 A 
ATOM     14  C   UNL d   1       0.507   2.491   1.457  0.00  0.00     0.034 A 
ATOM     15  C   UNL d   1      -0.378   3.370   2.056  0.00  0.00    -0.021 A 
ATOM     16  C   UNL d   1      -0.110   4.636   2.775  0.00  0.00     0.068 C 
ATOM     17  C   UNL d   1      -1.746   3.153   2.000  0.00  0.00     0.075 A 
ATOM     18  C   UNL d   1      -1.504   4.902   3.348  0.00  0.00     0.180 C 
ATOM     19  O   UNL d   1      -2.485   4.128   2.617  0.00  0.00    -0.350 OA
ATOM     20  C   UNL d   1      -2.292   2.054   1.365  0.00  0.00     0.039 A 
ATOM     21  C   UNL d   1      -1.418   1.140   0.771  0.00  0.00     0.027 A 
ENDBRANCH  10  13
ENDBRANCH   2  10
BRANCH   1  22
ATOM     22  O   UNL d   1       2.114   1.588  -5.509  0.00  0.00    -0.294 OA
BRANCH  22  23
ATOM     23  C   UNL d   1       3.081   1.949  -6.535  0.00  0.00     0.061 C 
ATOM     24  C   UNL d   1       2.416   2.008  -7.918  0.00  0.00     0.046 C 
ATOM     25  C   UNL d   1       3.553   3.360  -6.139  0.00  0.00     0.046 C 
ATOM     26  C   UNL d   1       4.303   1.023  -6.551  0.00  0.00     0.046 C 
ENDBRANCH  22  23
ENDBRANCH   1  22
TORSDOF 4
