REMARK  4 active torsions:
REMARK  status: ('A' for Active; 'I' for Inactive)
REMARK    1  A    between atoms: N_2  and  C_1 
REMARK       I    between atoms: C_3  and  N_2 
REMARK    2  A    between atoms: C_4  and  C_3 
REMARK    3  A    between atoms: C_5  and  C_6 
REMARK    4  A    between atoms: O_11  and  C_5 
ROOT
ATOM      1  N   UNL d   1       0.222   2.330   0.027  0.00  0.00    -0.323 N 
ATOM      2  C   UNL d   1       1.412   2.928  -0.342  0.00  0.00     0.245 C 
ATOM      3  O   UNL d   1       2.483   2.388  -0.594  0.00  0.00    -0.268 OA
ATOM      4  H   UNL d   1      -0.594   2.913  -0.073  0.00  0.00     0.169 HD
ENDROOT
BRANCH   1   5
ATOM      5  C   UNL d   1      -0.027   0.937   0.172  0.00  0.00     0.046 C 
ATOM      6  C   UNL d   1       0.955   0.010   0.584  0.00  0.00    -0.035 C 
ATOM      7  C   UNL d   1       0.707  -1.372   0.459  0.00  0.00     0.009 C 
ATOM      8  C   UNL d   1       2.232   0.380   1.292  0.00  0.00     0.050 C 
ATOM      9  C   UNL d   1      -0.530  -1.843   0.048  0.00  0.00     0.001 C 
ATOM     10  C   UNL d   1      -1.554  -0.937  -0.185  0.00  0.00     0.009 C 
ATOM     11  C   UNL d   1      -1.330   0.454  -0.109  0.00  0.00    -0.035 C 
ATOM     12  C   UNL d   1      -2.559   1.312  -0.275  0.00  0.00     0.050 C 
ENDBRANCH   1   5
BRANCH   2  13
ATOM     13  C   UNL d   1       1.274   4.403  -0.491  0.00  0.00     0.081 C 
ATOM     14  C   UNL d   1       2.353   5.141  -0.782  0.00  0.00     0.086 C 
BRANCH  14  15
ATOM     15  C   UNL d   1       2.191   6.597  -0.936  0.00  0.00     0.165 C 
ATOM     16  O   UNL d   1       1.118   7.174  -0.877  0.00  0.00    -0.647 OA
BRANCH  15  17
ATOM     17  O   UNL d   1       3.362   7.226  -1.143  0.00  0.00    -0.773 OA
ATOM     18  H   UNL d   1       4.152   6.655  -1.156  0.00  0.00     0.167 HD
ENDBRANCH  15  17
ENDBRANCH  14  15
ENDBRANCH   2  13
TORSDOF 4
