REMARK  4 active torsions:
REMARK  status: ('A' for Active; 'I' for Inactive)
REMARK    1  A    between atoms: N_2  and  S_1 
REMARK    2  A    between atoms: C_3  and  S_1 
REMARK    3  A    between atoms: N_4  and  N_2 
REMARK    4  A    between atoms: C_15  and  C_14 
ROOT
ATOM      1  N   UNL d   1       0.281  -0.096  -1.632  0.00  0.00    -0.223 N 
ATOM      2  H   UNL d   1       0.945  -0.298  -2.381  0.00  0.00     0.200 HD
ENDROOT
BRANCH   1   3
ATOM      3  S   UNL d   1       0.972   0.054  -0.084  0.00  0.00     0.276 S 
ATOM      4  O   UNL d   1       0.415   1.214   0.577  0.00  0.00    -0.199 OA
ATOM      5  O   UNL d   1       2.402  -0.105  -0.259  0.00  0.00    -0.199 OA
BRANCH   3   6
ATOM      6  C   UNL d   1       0.350  -1.401   0.730  0.00  0.00     0.081 A 
ATOM      7  C   UNL d   1       1.136  -2.553   0.804  0.00  0.00     0.026 A 
ATOM      8  C   UNL d   1       0.616  -3.701   1.405  0.00  0.00     0.008 A 
ATOM      9  C   UNL d   1      -0.681  -3.700   1.940  0.00  0.00    -0.062 A 
ATOM     10  C   UNL d   1      -1.442  -2.525   1.896  0.00  0.00     0.008 A 
ATOM     11  C   UNL d   1      -1.241  -4.956   2.543  0.00  0.00     0.048 C 
ATOM     12  C   UNL d   1      -0.927  -1.374   1.298  0.00  0.00     0.026 A 
ENDBRANCH   3   6
ENDBRANCH   1   3
BRANCH   1  13
ATOM     13  N   UNL d   1      -1.135  -0.176  -1.761  0.00  0.00    -0.302 N 
ATOM     14  C   UNL d   1      -1.602  -0.361  -2.951  0.00  0.00     0.119 C 
ATOM     15  HN  UNL d   1      -1.751  -0.092  -0.952  1.00  0.00     0.186 HD
BRANCH  14  16
ATOM     16  C   UNL d   1      -3.064  -0.450  -3.157  0.00  0.00    -0.018 A 
ATOM     17  C   UNL d   1      -3.575  -0.631  -4.444  0.00  0.00     0.038 A 
ATOM     18  C   UNL d   1      -4.962  -0.708  -4.630  0.00  0.00     0.056 A 
ATOM     19 CL   UNL d   1      -5.541  -0.929  -6.243  0.00  0.00    -0.083 Cl
ATOM     20  C   UNL d   1      -5.830  -0.604  -3.534  0.00  0.00     0.055 A 
ATOM     21  C   UNL d   1      -5.309  -0.425  -2.250  0.00  0.00     0.026 A 
ATOM     22 CL   UNL d   1      -7.547  -0.691  -3.694  0.00  0.00    -0.083 Cl
ATOM     23  C   UNL d   1      -3.929  -0.348  -2.062  0.00  0.00     0.014 A 
ENDBRANCH  14  16
ENDBRANCH   1  13
TORSDOF 4
