REMARK  6 active torsions:
REMARK  status: ('A' for Active; 'I' for Inactive)
REMARK    1  A    between atoms: C_5  and  S_1 
REMARK    2  A    between atoms: N_9  and  S_1 
REMARK       I    between atoms: C_2  and  N_11 
REMARK       I    between atoms: N_4  and  C_2 
REMARK    3  A    between atoms: C_3  and  C_8 
REMARK    4  A    between atoms: C_20  and  N_9 
REMARK    5  A    between atoms: N_11  and  C_23 
REMARK    6  A    between atoms: C_23  and  C_20 
ROOT
ATOM      1  N   UNL d   1       2.580  -0.140  -0.013  0.00  0.00    -0.214 NA
ATOM      2  H   UNL d   1       2.893   0.521   0.700  0.00  0.00     0.140 HD
ENDROOT
BRANCH   1   3
ATOM      3  S   UNL d   1       0.885  -0.081  -0.142  0.00  0.00     0.241 S 
ATOM      4  O   UNL d   1       0.561   1.175  -0.783  0.00  0.00    -0.206 OA
ATOM      5  O   UNL d   1       0.404  -1.346  -0.648  0.00  0.00    -0.206 OA
BRANCH   3   6
ATOM      6  C   UNL d   1       0.391   0.069   1.564  0.00  0.00     0.074 A 
ATOM      7  C   UNL d   1       0.261   1.343   2.126  0.00  0.00     0.025 A 
ATOM      8  C   UNL d   1      -0.128   1.474   3.460  0.00  0.00     0.018 A 
ATOM      9  C   UNL d   1      -0.398   0.337   4.241  0.00  0.00     0.048 A 
ATOM     10  C   UNL d   1      -0.296  -0.934   3.650  0.00  0.00     0.018 A 
ATOM     11  C   UNL d   1       0.091  -1.071   2.313  0.00  0.00     0.025 A 
BRANCH   9  12
ATOM     12  C   UNL d   1      -0.778   0.500   5.694  0.00  0.00     0.417 C 
ATOM     13  F   UNL d   1      -1.036  -0.677   6.329  0.00  0.00    -0.166 F 
ATOM     14  F   UNL d   1       0.205   1.106   6.418  0.00  0.00    -0.166 F 
ATOM     15  F   UNL d   1      -1.890   1.268   5.861  0.00  0.00    -0.166 F 
ENDBRANCH   9  12
ENDBRANCH   3   6
ENDBRANCH   1   3
BRANCH   1  16
ATOM     16  C   UNL d   1       3.166  -1.492   0.171  0.00  0.00     0.124 C 
BRANCH  16  17
ATOM     17  C   UNL d   1       4.699  -1.389   0.267  0.00  0.00     0.139 C 
BRANCH  17  18
ATOM     18  N   UNL d   1       5.388  -2.670   0.327  0.00  0.00    -0.342 N 
ATOM     19  C   UNL d   1       5.167  -3.531   1.368  0.00  0.00     0.318 C 
ATOM     20  N   UNL d   1       5.879  -4.708   1.333  0.00  0.00    -0.330 N 
ATOM     21  O   UNL d   1       4.357  -3.268   2.256  0.00  0.00    -0.247 OA
ATOM     22  C   UNL d   1       6.767  -5.183   0.265  0.00  0.00     0.153 C 
ATOM     23  C   UNL d   1       5.666  -5.699   2.393  0.00  0.00     0.153 C 
ATOM     24  C   UNL d   1       6.303  -6.551  -0.253  0.00  0.00     0.187 C 
ATOM     25  O   UNL d   1       6.179  -7.499   0.818  0.00  0.00    -0.388 OA
ATOM     26  C   UNL d   1       5.228  -7.039   1.793  0.00  0.00     0.187 C 
ATOM     27  H   UNL d   1       6.344  -2.651   0.005  0.00  0.00     0.164 HD
ENDBRANCH  17  18
ENDBRANCH  16  17
ENDBRANCH   1  16
TORSDOF 6
