REMARK  0 active torsions:
REMARK  status: ('A' for Active; 'I' for Inactive)
ROOT
ATOM      1  C   UNL d   1       1.324  -0.855  -0.073  0.00  0.00     0.091 A 
ATOM      2  C   UNL d   1       0.782   0.415  -0.059  0.00  0.00     0.073 A 
ATOM      3  C   UNL d   1      -0.646   0.405  -0.085  0.00  0.00    -0.026 A 
ATOM      4  C   UNL d   1      -1.128  -0.893  -0.063  0.00  0.00    -0.008 A 
ATOM      5  S   UNL d   1       0.112  -2.058  -0.095  0.00  0.00    -0.075 SA
ATOM      6  N   UNL d   1       2.645  -1.174  -0.058  0.00  0.00    -0.346 N 
ATOM      7  HN  UNL d   1       2.984  -2.136  -0.081  1.00  0.00     0.167 HD
ATOM      8  C   UNL d   1       1.701   1.535  -0.007  0.00  0.00     0.259 A 
ATOM      9  N   UNL d   1       3.026   1.160   0.015  0.00  0.00    -0.319 N 
ATOM     10  C   UNL d   1       3.434  -0.150  -0.012  0.00  0.00     0.184 A 
ATOM     11  C   UNL d   1      -1.558   1.597  -0.061  0.00  0.00     0.041 C 
ATOM     12  C   UNL d   1      -2.577  -1.276  -0.023  0.00  0.00     0.051 C 
ATOM     13  O   UNL d   1       1.362   2.713   0.023  0.00  0.00    -0.267 OA
ATOM     14  C   UNL d   1      -3.019   1.199  -0.328  0.00  0.00     0.009 C 
ATOM     15  C   UNL d   1      -3.438  -0.076   0.437  0.00  0.00    -0.014 C 
ATOM     16  C   UNL d   1      -3.356   0.121   1.957  0.00  0.00     0.010 C 
ATOM     17  H   UNL d   1       3.697   1.912   0.059  0.00  0.00     0.169 HD
ENDROOT
TORSDOF 0
