REMARK  2 active torsions:
REMARK  status: ('A' for Active; 'I' for Inactive)
REMARK    1  A    between atoms: C_7  and  N_1 
REMARK    2  A    between atoms: C_8  and  C_2 
ROOT
ATOM      1  N   UNL d   1      -0.181  -1.314  -0.250  0.00  0.00    -0.236 N 
ATOM      2  C   UNL d   1       0.990  -0.691   0.006  0.00  0.00     0.149 A 
ATOM      3  N   UNL d   1       0.867   0.584   0.203  0.00  0.00    -0.238 N 
ATOM      4  HN  UNL d   1       1.611   1.255   0.399  1.00  0.00     0.196 HD
ATOM      5  C   UNL d   1      -1.141  -0.363  -0.119  0.00  0.00     0.395 A 
ATOM      6  O   UNL d   1      -0.527   0.850   0.089  0.00  0.00    -0.179 OA
ATOM      7  O   UNL d   1      -2.354  -0.516  -0.111  0.00  0.00    -0.235 OA
ENDROOT
BRANCH   1   8
ATOM      8  C   UNL d   1      -0.481  -2.678  -0.114  0.00  0.00     0.085 A 
ATOM      9  C   UNL d   1      -0.755  -3.437  -1.254  0.00  0.00     0.143 A 
ATOM     10  F   UNL d   1      -0.672  -2.875  -2.469  0.00  0.00    -0.204 F 
ATOM     11  C   UNL d   1      -1.051  -4.793  -1.156  0.00  0.00     0.044 A 
ATOM     12  C   UNL d   1      -1.107  -5.394   0.101  0.00  0.00     0.003 A 
ATOM     13  C   UNL d   1      -0.860  -4.638   1.250  0.00  0.00     0.002 A 
ATOM     14  C   UNL d   1      -0.539  -3.281   1.147  0.00  0.00     0.033 A 
ENDBRANCH   1   8
BRANCH   2  15
ATOM     15  C   UNL d   1       2.298  -1.367   0.030  0.00  0.00     0.026 A 
ATOM     16  C   UNL d   1       3.296  -0.866   0.859  0.00  0.00     0.102 A 
ATOM     17  N   UNL d   1       4.542  -1.394   0.949  0.00  0.00    -0.374 N 
ATOM     18  C   UNL d   1       4.813  -2.454   0.157  0.00  0.00     0.087 A 
ATOM     19  HN  UNL d   1       5.241  -1.009   1.584  1.00  0.00     0.164 HD
ATOM     20  C   UNL d   1       3.897  -3.006  -0.724  0.00  0.00     0.018 A 
ATOM     21  C   UNL d   1       2.623  -2.445  -0.794  0.00  0.00     0.018 A 
ENDBRANCH   2  15
TORSDOF 2
