REMARK  2 active torsions:
REMARK  status: ('A' for Active; 'I' for Inactive)
REMARK    1  A    between atoms: C_12  and  C_5 
REMARK    2  A    between atoms: S_20  and  C_7 
ROOT
ATOM      1  N   UNL d   1      -2.159  -1.732   0.312  0.00  0.00    -0.236 N 
ATOM      2  C   UNL d   1      -1.147  -0.872   0.627  0.00  0.00     0.145 A 
ATOM      3  N   UNL d   1       0.032  -1.403   0.809  0.00  0.00    -0.347 N 
ATOM      4  HN  UNL d   1       0.861  -1.017   1.261  1.00  0.00     0.163 HD
ATOM      5  C   UNL d   1      -0.178  -2.744   0.164  0.00  0.00     0.128 C 
ATOM      6  N   UNL d   1      -1.636  -3.033   0.191  0.00  0.00    -0.197 NA
ATOM      7  C   UNL d   1      -3.400  -1.306  -0.104  0.00  0.00     0.162 A 
ATOM      8  C   UNL d   1      -1.459   0.569   0.679  0.00  0.00     0.105 A 
ATOM      9  N   UNL d   1      -3.704  -0.030  -0.121  0.00  0.00    -0.344 N 
ATOM     10  HN  UNL d   1      -4.627   0.293  -0.408  1.00  0.00     0.167 HD
ATOM     11  C   UNL d   1      -2.710   0.864   0.271  0.00  0.00     0.116 A 
ATOM     12  C   UNL d   1      -0.473   1.542   0.972  0.00  0.00     0.104 C 
ATOM     13  N   UNL d   1       0.315   2.362   1.186  0.00  0.00    -0.191 NA
ATOM     14  C   UNL d   1       0.633  -3.784   0.939  0.00  0.00     0.064 C 
ATOM     15  H   UNL d   1      -1.845  -3.537   1.055  0.00  0.00     0.150 HD
ENDROOT
BRANCH   7  16
ATOM     16  S   UNL d   1      -4.615  -2.472  -0.600  0.00  0.00    -0.097 SA
ATOM     17  C   UNL d   1      -5.589  -1.451  -1.729  0.00  0.00     0.099 C 
ENDBRANCH   7  16
BRANCH   5  18
ATOM     18  C   UNL d   1       0.313  -2.645  -1.298  0.00  0.00    -0.011 A 
ATOM     19  C   UNL d   1       1.373  -1.778  -1.627  0.00  0.00     0.035 A 
ATOM     20  C   UNL d   1       1.699  -1.522  -2.959  0.00  0.00     0.036 A 
ATOM     21 CL   UNL d   1       2.938  -0.387  -3.328  0.00  0.00    -0.084 Cl
ATOM     22  C   UNL d   1       1.003  -2.144  -3.990  0.00  0.00     0.047 A 
ATOM     23  C   UNL d   1      -0.009  -3.046  -3.677  0.00  0.00     0.036 A 
ATOM     24  C   UNL d   1      -0.348  -3.308  -2.348  0.00  0.00     0.035 A 
ATOM     25 CL   UNL d   1      -0.891  -3.808  -4.944  0.00  0.00    -0.084 Cl
ENDBRANCH   5  18
TORSDOF 2
