REMARK  7 active torsions:
REMARK  status: ('A' for Active; 'I' for Inactive)
REMARK    1  A    between atoms: N_5  and  S_1 
REMARK    2  A    between atoms: C_14  and  S_1 
REMARK    3  A    between atoms: N_10  and  N_5 
REMARK    4  A    between atoms: C_6  and  C_20 
REMARK    5  A    between atoms: C_7  and  S_17 
REMARK       I    between atoms: C_13  and  N_10 
REMARK    6  A    between atoms: C_23  and  C_13 
REMARK    7  A    between atoms: S_17  and  C_23 
ROOT
ATOM      1  N   UNL d   1       1.046  -0.304  -2.734  0.00  0.00    -0.260 N 
ATOM      2  C   UNL d   1       0.469  -0.914  -3.838  0.00  0.00     0.246 C 
ATOM      3  O   UNL d   1      -0.411  -1.765  -3.717  0.00  0.00    -0.271 OA
ATOM      4  H   UNL d   1       1.776   0.403  -2.804  0.00  0.00     0.190 HD
ENDROOT
BRANCH   1   5
ATOM      5  N   UNL d   1       0.595  -0.672  -1.402  0.00  0.00    -0.220 N 
ATOM      6  H   UNL d   1      -0.145  -1.374  -1.300  0.00  0.00     0.200 HD
BRANCH   5   7
ATOM      7  S   UNL d   1       1.291   0.093  -0.075  0.00  0.00     0.276 S 
ATOM      8  O   UNL d   1       0.935   1.496  -0.157  0.00  0.00    -0.199 OA
ATOM      9  O   UNL d   1       2.682  -0.305  -0.029  0.00  0.00    -0.199 OA
BRANCH   7  10
ATOM     10  C   UNL d   1       0.460  -0.611   1.327  0.00  0.00     0.081 A 
ATOM     11  C   UNL d   1       1.014  -1.720   1.972  0.00  0.00     0.026 A 
ATOM     12  C   UNL d   1       0.463  -2.170   3.177  0.00  0.00     0.018 A 
ATOM     13  C   UNL d   1      -0.636  -1.510   3.752  0.00  0.00     0.048 A 
ATOM     14  C   UNL d   1      -1.192  -0.407   3.082  0.00  0.00     0.018 A 
ATOM     15  C   UNL d   1      -0.645   0.047   1.877  0.00  0.00     0.026 A 
BRANCH  13  16
ATOM     16  C   UNL d   1      -1.196  -1.940   5.089  0.00  0.00     0.417 C 
ATOM     17  F   UNL d   1      -0.558  -3.015   5.628  0.00  0.00    -0.166 F 
ATOM     18  F   UNL d   1      -1.118  -0.953   6.024  0.00  0.00    -0.166 F 
ATOM     19  F   UNL d   1      -2.512  -2.283   5.017  0.00  0.00    -0.166 F 
ENDBRANCH  13  16
ENDBRANCH   7  10
ENDBRANCH   5   7
ENDBRANCH   1   5
BRANCH   2  20
ATOM     20  C   UNL d   1       1.055  -0.409  -5.154  0.00  0.00     0.185 C 
BRANCH  20  21
ATOM     21  S   UNL d   1       0.283  -1.193  -6.603  0.00  0.00    -0.102 SA
BRANCH  21  22
ATOM     22  C   UNL d   1       1.245  -0.494  -7.922  0.00  0.00     0.090 A 
ATOM     23  C   UNL d   1       0.988  -0.809  -9.261  0.00  0.00     0.065 A 
ATOM     24  S   UNL d   1      -0.213  -1.816  -9.975  0.00  0.00    -0.096 SA
ATOM     25  C   UNL d   1       1.803  -0.250 -10.246  0.00  0.00     0.059 A 
ATOM     26  C   UNL d   1       0.356  -1.515 -11.552  0.00  0.00     0.059 A 
ATOM     27  C   UNL d   1       1.447  -0.669 -11.575  0.00  0.00    -0.027 A 
ATOM     28  C   UNL d   1       2.153  -0.258 -12.825  0.00  0.00     0.051 C 
ATOM     29  N   UNL d   1       2.824   0.593  -9.950  0.00  0.00    -0.351 N 
ATOM     30  C   UNL d   1       2.979   0.842  -8.649  0.00  0.00     0.181 A 
ATOM     31  HN  UNL d   1       3.424   1.004 -10.665  1.00  0.00     0.166 HD
ATOM     32  N   UNL d   1       2.259   0.351  -7.631  0.00  0.00    -0.346 N 
ATOM     33  HN  UNL d   1       2.469   0.608  -6.666  1.00  0.00     0.167 HD
ENDBRANCH  21  22
ENDBRANCH  20  21
ENDBRANCH   2  20
TORSDOF 7
