REMARK  1 active torsions:
REMARK  status: ('A' for Active; 'I' for Inactive)
REMARK       I    between atoms: C_6  and  N_1 
REMARK    1  A    between atoms: C_11  and  C_6 
ROOT
ATOM      1  N   UNL d   1      -1.330  -1.732  -0.006  0.00  0.00    -0.260 N 
ATOM      2  C   UNL d   1      -0.123  -1.053  -0.017  0.00  0.00     0.144 A 
ATOM      3  C   UNL d   1      -0.375   0.308  -0.025  0.00  0.00     0.090 A 
ATOM      4  C   UNL d   1      -2.362  -0.778   0.073  0.00  0.00     0.057 A 
ATOM      5  C   UNL d   1      -1.776   0.494   0.002  0.00  0.00     0.025 A 
ATOM      6  C   UNL d   1      -1.483  -3.143  -0.056  0.00  0.00     0.271 C 
ATOM      7  N   UNL d   1       1.111  -1.603   0.007  0.00  0.00    -0.338 N 
ATOM      8  HN  UNL d   1       1.273  -2.610   0.031  1.00  0.00     0.167 HD
ATOM      9  N   UNL d   1       0.629   1.222  -0.042  0.00  0.00    -0.351 N 
ATOM     10  HN  UNL d   1       0.459   2.227  -0.068  1.00  0.00     0.166 HD
ATOM     11  C   UNL d   1       2.100  -0.702  -0.004  0.00  0.00     0.060 A 
ATOM     12  C   UNL d   1       1.865   0.696  -0.023  0.00  0.00     0.059 A 
ATOM     13  C   UNL d   1      -3.763  -0.926   0.145  0.00  0.00     0.034 A 
ATOM     14  C   UNL d   1      -2.598   1.639  -0.015  0.00  0.00     0.058 A 
ATOM     15  O   UNL d   1      -2.515  -3.581   0.451  0.00  0.00    -0.266 OA
ATOM     16  C   UNL d   1      -3.980   1.480   0.035  0.00  0.00     0.117 A 
ATOM     17  C   UNL d   1      -4.559   0.224   0.121  0.00  0.00     0.044 A 
ATOM     18  F   UNL d   1      -4.765   2.565  -0.004  0.00  0.00    -0.206 F 
ATOM     19  C   UNL d   1       3.407  -1.172   0.003  0.00  0.00     0.032 A 
ATOM     20  C   UNL d   1       2.958   1.555  -0.022  0.00  0.00     0.032 A 
ATOM     21  C   UNL d   1       4.493  -0.297  -0.001  0.00  0.00     0.002 A 
ATOM     22  C   UNL d   1       4.268   1.071  -0.009  0.00  0.00     0.002 A 
ENDROOT
BRANCH   6  23
ATOM     23  C   UNL d   1      -0.516  -4.018  -0.721  0.00  0.00     0.073 A 
ATOM     24  S   UNL d   1      -0.311  -5.625  -0.155  0.00  0.00    -0.097 SA
ATOM     25  C   UNL d   1       0.803  -5.998  -1.398  0.00  0.00     0.050 A 
ATOM     26  C   UNL d   1       1.025  -4.925  -2.231  0.00  0.00     0.009 A 
ATOM     27  C   UNL d   1       0.265  -3.784  -1.840  0.00  0.00     0.025 A 
ENDBRANCH   6  23
TORSDOF 1
