REMARK  1 active torsions:
REMARK  status: ('A' for Active; 'I' for Inactive)
REMARK    1  A    between atoms: C_10  and  N_2 
ROOT
ATOM      1  C   UNL d   1       1.193   0.892  -0.016  0.00  0.00     0.103 A 
ATOM      2  N   UNL d   1       3.464   0.149  -0.007  0.00  0.00    -0.229 N 
ATOM      3  C   UNL d   1       0.738  -0.399  -0.014  0.00  0.00     0.072 A 
ATOM      4  C   UNL d   1       2.591   1.257  -0.024  0.00  0.00     0.275 A 
ATOM      5  C   UNL d   1       3.030  -1.182  -0.007  0.00  0.00     0.334 A 
ATOM      6  N   UNL d   1       1.675  -1.406  -0.015  0.00  0.00    -0.306 N 
ATOM      7  S   UNL d   1      -0.060   2.026   0.004  0.00  0.00    -0.064 SA
ATOM      8  C   UNL d   1      -0.699  -0.498  -0.010  0.00  0.00     0.032 A 
ATOM      9  C   UNL d   1      -1.239   0.794  -0.001  0.00  0.00     0.088 A 
ATOM     10  N   UNL d   1      -2.541   1.134   0.005  0.00  0.00    -0.354 N 
ATOM     11  HN  UNL d   1      -2.851   2.106   0.013  1.00  0.00     0.166 HD
ATOM     12  C   UNL d   1      -1.637  -1.570  -0.011  0.00  0.00    -0.045 A 
ATOM     13  O   UNL d   1       2.973   2.427  -0.007  0.00  0.00    -0.266 OA
ATOM     14  O   UNL d   1       3.764  -2.171  -0.039  0.00  0.00    -0.246 OA
ATOM     15  C   UNL d   1      -3.002  -1.226  -0.009  0.00  0.00     0.032 A 
ATOM     16  C   UNL d   1      -3.402   0.105  -0.001  0.00  0.00     0.006 A 
ATOM     17  C   UNL d   1      -1.324  -3.043  -0.009  0.00  0.00     0.049 C 
ATOM     18  C   UNL d   1      -4.864   0.435  -0.003  0.00  0.00     0.068 C 
ATOM     19  H   UNL d   1       1.406  -2.377  -0.044  0.00  0.00     0.171 HD
ENDROOT
BRANCH   2  20
ATOM     20  C   UNL d   1       4.875   0.391  -0.000  0.00  0.00     0.049 A 
ATOM     21  C   UNL d   1       5.694  -0.223   0.958  0.00  0.00     0.054 A 
ATOM     22  C   UNL d   1       7.068   0.019   0.961  0.00  0.00     0.036 A 
ATOM     23 CL   UNL d   1       8.056  -0.696   2.176  0.00  0.00    -0.084 Cl
ATOM     24  C   UNL d   1       7.644   0.841  -0.004  0.00  0.00     0.024 A 
ATOM     25  C   UNL d   1       6.840   1.443  -0.970  0.00  0.00     0.004 A 
ATOM     26  C   UNL d   1       5.459   1.233  -0.958  0.00  0.00     0.030 A 
ENDBRANCH   2  20
TORSDOF 1
