REMARK  6 active torsions:
REMARK  status: ('A' for Active; 'I' for Inactive)
REMARK    1  A    between atoms: C_4  and  N_1 
REMARK    2  A    between atoms: C_10  and  O_12 
REMARK    3  A    between atoms: C_11  and  C_17 
REMARK    4  A    between atoms: C_14  and  O_12 
REMARK    5  A    between atoms: C_15  and  O_19 
REMARK    6  A    between atoms: O_19  and  C_17 
ROOT
ATOM      1  C   UNL d   1      -1.209  -2.661  -0.194  0.00  0.00     0.235 C 
ATOM      2  O   UNL d   1      -1.943  -3.114   0.955  0.00  0.00    -0.356 OA
ATOM      3  C   UNL d   1      -2.099  -2.889  -1.408  0.00  0.00     0.089 C 
ATOM      4  C   UNL d   1      -2.974  -4.051  -0.979  0.00  0.00     0.167 C 
ATOM      5  C   UNL d   1      -3.159  -3.748   0.509  0.00  0.00     0.178 C 
ENDROOT
BRANCH   1   6
ATOM      6  N   UNL d   1       0.084  -3.350  -0.261  0.00  0.00    -0.281 N 
ATOM      7  C   UNL d   1       1.135  -2.673  -0.868  0.00  0.00     0.331 A 
ATOM      8  N   UNL d   1       2.341  -3.325  -0.865  0.00  0.00    -0.274 N 
ATOM      9  O   UNL d   1       1.028  -1.563  -1.386  0.00  0.00    -0.246 OA
ATOM     10  C   UNL d   1       2.576  -4.602  -0.435  0.00  0.00     0.268 A 
ATOM     11  H   UNL d   1       3.116  -2.845  -1.297  0.00  0.00     0.173 HD
ATOM     12  C   UNL d   1       1.415  -5.294   0.184  0.00  0.00     0.094 A 
ATOM     13  O   UNL d   1       3.674  -5.130  -0.567  0.00  0.00    -0.267 OA
ATOM     14  C   UNL d   1       0.256  -4.629   0.238  0.00  0.00     0.123 A 
ATOM     15 BR   UNL d   1       1.614  -7.019   0.850  0.00  0.00    -0.044 Br
ENDBRANCH   1   6
BRANCH   5  16
ATOM     16  C   UNL d   1      -3.398  -4.990   1.371  0.00  0.00     0.213 C 
BRANCH  16  17
ATOM     17  O   UNL d   1      -4.583  -5.702   1.008  0.00  0.00    -0.319 OA
BRANCH  17  18
ATOM     18  C   UNL d   1      -5.724  -5.236   1.578  0.00  0.00     0.254 C 
ATOM     19  O   UNL d   1      -5.808  -4.239   2.283  0.00  0.00    -0.266 OA
ATOM     20  C   UNL d   1      -6.883  -6.115   1.226  0.00  0.00     0.126 C 
ENDBRANCH  17  18
ENDBRANCH  16  17
ENDBRANCH   5  16
BRANCH   4  21
ATOM     21  O   UNL d   1      -4.229  -4.077  -1.673  0.00  0.00    -0.314 OA
BRANCH  21  22
ATOM     22  C   UNL d   1      -4.167  -4.535  -2.952  0.00  0.00     0.255 C 
ATOM     23  O   UNL d   1      -3.148  -4.925  -3.506  0.00  0.00    -0.266 OA
ATOM     24  C   UNL d   1      -5.520  -4.551  -3.594  0.00  0.00     0.126 C 
ENDBRANCH  21  22
ENDBRANCH   4  21
TORSDOF 6
