REMARK  3 active torsions:
REMARK  status: ('A' for Active; 'I' for Inactive)
REMARK    1  A    between atoms: C_8  and  C_1 
REMARK    2  A    between atoms: C_11  and  C_7 
REMARK       I    between atoms: N_9  and  C_8 
REMARK    3  A    between atoms: C_12  and  N_9 
ROOT
ATOM      1  C   UNL d   1      -0.295  -1.033  -0.207  0.00  0.00     0.234 A 
ATOM      2  O   UNL d   1      -1.094   0.055   0.039  0.00  0.00    -0.268 OA
ATOM      3  N   UNL d   1       0.939  -0.701  -0.534  0.00  0.00    -0.273 N 
ATOM      4  HN  UNL d   1       1.708  -1.335  -0.753  1.00  0.00     0.189 HD
ATOM      5  N   UNL d   1       0.978   0.681  -0.521  0.00  0.00    -0.277 N 
ATOM      6  HN  UNL d   1       1.783   1.268  -0.736  1.00  0.00     0.189 HD
ATOM      7  C   UNL d   1      -0.228   1.095  -0.176  0.00  0.00     0.175 A 
ENDROOT
BRANCH   1   8
ATOM      8  C   UNL d   1      -0.836  -2.373  -0.099  0.00  0.00     0.298 C 
ATOM      9  N   UNL d   1       0.111  -3.376  -0.302  0.00  0.00    -0.320 N 
ATOM     10  H   UNL d   1       1.075  -3.067  -0.380  0.00  0.00     0.169 HD
ATOM     11  O   UNL d   1      -2.018  -2.577   0.174  0.00  0.00    -0.263 OA
BRANCH   9  12
ATOM     12  C   UNL d   1      -0.126  -4.767  -0.310  0.00  0.00     0.035 A 
ATOM     13  C   UNL d   1      -1.403  -5.329  -0.398  0.00  0.00     0.029 A 
ATOM     14  C   UNL d   1      -1.577  -6.716  -0.373  0.00  0.00     0.002 A 
ATOM     15  C   UNL d   1      -0.474  -7.556  -0.262  0.00  0.00     0.000 A 
ATOM     16  C   UNL d   1       0.805  -7.010  -0.199  0.00  0.00     0.002 A 
ATOM     17  C   UNL d   1       0.981  -5.623  -0.237  0.00  0.00     0.029 A 
ENDBRANCH   9  12
ENDBRANCH   1   8
BRANCH   7  18
ATOM     18  C   UNL d   1      -0.742   2.449   0.007  0.00  0.00     0.017 A 
ATOM     19  C   UNL d   1      -2.060   2.701   0.426  0.00  0.00     0.016 A 
ATOM     20  C   UNL d   1      -2.510   4.014   0.609  0.00  0.00     0.001 A 
ATOM     21  C   UNL d   1      -1.651   5.087   0.374  0.00  0.00     0.000 A 
ATOM     22  C   UNL d   1      -0.344   4.852  -0.049  0.00  0.00     0.001 A 
ATOM     23  C   UNL d   1       0.105   3.542  -0.230  0.00  0.00     0.016 A 
ENDBRANCH   7  18
TORSDOF 3
