REMARK  4 active torsions:
REMARK  status: ('A' for Active; 'I' for Inactive)
REMARK    1  A    between atoms: C_9  and  N_1 
REMARK    2  A    between atoms: C_13  and  C_4 
REMARK    3  A    between atoms: C_5  and  C_12 
REMARK    4  A    between atoms: C_14  and  C_6 
ROOT
ATOM      1  N   UNL d   1      -1.972   5.651   0.866  0.00  0.00    -0.355 N 
ATOM      2  HN  UNL d   1      -1.573   5.307   1.739  1.00  0.00     0.166 HD
ATOM      3  C   UNL d   1      -2.647   6.825   0.831  0.00  0.00     0.043 A 
ATOM      4  C   UNL d   1      -1.838   4.943  -0.280  0.00  0.00     0.043 A 
ATOM      5  C   UNL d   1      -3.073   6.601  -1.548  0.00  0.00    -0.022 A 
ATOM      6  C   UNL d   1      -3.186   7.322  -0.355  0.00  0.00     0.042 A 
ATOM      7  C   UNL d   1      -2.384   5.386  -1.483  0.00  0.00     0.042 A 
ENDROOT
BRANCH   4   8
ATOM      8  C   UNL d   1      -1.088   3.673  -0.174  0.00  0.00    -0.009 A 
ATOM      9  C   UNL d   1      -1.081   2.936   1.026  0.00  0.00     0.016 A 
ATOM     10  C   UNL d   1      -0.389   1.724   1.138  0.00  0.00     0.037 A 
ATOM     11  C   UNL d   1       0.317   1.232   0.035  0.00  0.00     0.102 A 
ATOM     12  C   UNL d   1       0.337   1.944  -1.166  0.00  0.00     0.037 A 
ATOM     13  C   UNL d   1      -0.356   3.154  -1.261  0.00  0.00     0.016 A 
BRANCH  11  14
ATOM     14  N   UNL d   1       1.046  -0.038   0.135  0.00  0.00    -0.116 N 
ATOM     15  O   UNL d   1       1.653  -0.434  -0.867  0.00  0.00    -0.532 OA
ATOM     16  O   UNL d   1       1.008  -0.639   1.219  0.00  0.00    -0.532 OA
ENDBRANCH  11  14
ENDBRANCH   4   8
BRANCH   3  17
ATOM     17  C   UNL d   1      -2.783   7.539   2.118  0.00  0.00    -0.009 A 
ATOM     18  C   UNL d   1      -1.819   7.396   3.131  0.00  0.00     0.014 A 
ATOM     19  C   UNL d   1      -1.935   8.074   4.349  0.00  0.00     0.007 A 
ATOM     20  C   UNL d   1      -3.025   8.915   4.591  0.00  0.00    -0.062 A 
ATOM     21  C   UNL d   1      -3.997   9.062   3.602  0.00  0.00     0.007 A 
ATOM     22  C   UNL d   1      -3.146   9.634   5.901  0.00  0.00     0.048 C 
ATOM     23  C   UNL d   1      -3.878   8.381   2.388  0.00  0.00     0.014 A 
ENDBRANCH   3  17
BRANCH   5  24
ATOM     24  C   UNL d   1      -3.664   7.093  -2.813  0.00  0.00    -0.026 A 
ATOM     25  C   UNL d   1      -4.163   6.205  -3.784  0.00  0.00     0.012 A 
ATOM     26  C   UNL d   1      -4.725   6.667  -4.977  0.00  0.00     0.001 A 
ATOM     27  C   UNL d   1      -4.817   8.033  -5.220  0.00  0.00     0.000 A 
ATOM     28  C   UNL d   1      -4.337   8.935  -4.277  0.00  0.00     0.001 A 
ATOM     29  C   UNL d   1      -3.759   8.469  -3.093  0.00  0.00     0.012 A 
ENDBRANCH   5  24
TORSDOF 4
