REMARK  6 active torsions:
REMARK  status: ('A' for Active; 'I' for Inactive)
REMARK    1  A    between atoms: C_3  and  C_1 
REMARK    2  A    between atoms: S_5  and  C_2 
REMARK    3  A    between atoms: O_18  and  C_3 
REMARK    4  A    between atoms: C_4  and  N_7 
REMARK    5  A    between atoms: C_17  and  S_5 
REMARK    6  A    between atoms: C_6  and  C_17 
REMARK       I    between atoms: N_7  and  C_6 
ROOT
ATOM      1  C   UNL d   1      -0.688   4.193  -0.139  0.00  0.00     0.184 C 
ENDROOT
BRANCH   1   2
ATOM      2  C   UNL d   1      -1.810   5.220  -0.293  0.00  0.00     0.231 C 
ATOM      3  N   UNL d   1      -1.542   6.416   0.368  0.00  0.00    -0.326 N 
ATOM      4  H   UNL d   1      -0.628   6.511   0.797  0.00  0.00     0.169 HD
ATOM      5  O   UNL d   1      -2.832   4.986  -0.931  0.00  0.00    -0.272 OA
BRANCH   3   6
ATOM      6  C   UNL d   1      -2.358   7.572   0.362  0.00  0.00     0.037 A 
ATOM      7  C   UNL d   1      -3.675   7.588  -0.110  0.00  0.00     0.053 A 
ATOM      8  C   UNL d   1      -4.391   8.787  -0.171  0.00  0.00     0.037 A 
ATOM      9 CL   UNL d   1      -6.000   8.788  -0.783  0.00  0.00    -0.084 Cl
ATOM     10  C   UNL d   1      -3.814   9.980   0.247  0.00  0.00     0.048 A 
ATOM     11  C   UNL d   1      -2.522   9.960   0.757  0.00  0.00     0.037 A 
ATOM     12  C   UNL d   1      -1.798   8.765   0.831  0.00  0.00     0.053 A 
ATOM     13 CL   UNL d   1      -1.793  11.429   1.279  0.00  0.00    -0.084 Cl
ENDBRANCH   3   6
ENDBRANCH   1   2
BRANCH   1  14
ATOM     14  S   UNL d   1      -0.886   2.833  -1.352  0.00  0.00    -0.102 SA
BRANCH  14  15
ATOM     15  C   UNL d   1       0.274   1.620  -0.744  0.00  0.00     0.087 A 
ATOM     16  C   UNL d   1       0.486   0.388  -1.372  0.00  0.00     0.071 A 
ATOM     17  C   UNL d   1       1.415  -0.488  -0.783  0.00  0.00     0.022 A 
ATOM     18  C   UNL d   1       2.086  -0.130   0.380  0.00  0.00     0.018 A 
ATOM     19  C   UNL d   1       1.815   1.108   0.923  0.00  0.00     0.089 A 
ATOM     20  N   UNL d   1       0.933   1.981   0.391  0.00  0.00    -0.360 N 
ATOM     21  HN  UNL d   1       0.764   2.888   0.828  1.00  0.00     0.166 HD
BRANCH  16  22
ATOM     22  C   UNL d   1      -0.145  -0.098  -2.630  0.00  0.00     0.179 C 
ATOM     23  O   UNL d   1       0.365  -0.989  -3.290  0.00  0.00    -0.646 OA
BRANCH  22  24
ATOM     24  O   UNL d   1      -1.339   0.426  -2.967  0.00  0.00    -0.773 OA
ATOM     25  H   UNL d   1      -1.644   1.187  -2.430  0.00  0.00     0.167 HD
ENDBRANCH  22  24
ENDBRANCH  16  22
ENDBRANCH  14  15
ENDBRANCH   1  14
TORSDOF 6
