REMARK  8 active torsions:
REMARK  status: ('A' for Active; 'I' for Inactive)
REMARK    1  A    between atoms: S_25  and  C_1 
REMARK    2  A    between atoms: C_2  and  S_26 
REMARK    3  A    between atoms: N_3  and  C_16 
REMARK    4  A    between atoms: N_4  and  C_15 
REMARK    5  A    between atoms: C_19  and  C_32 
REMARK    6  A    between atoms: C_31  and  C_20 
REMARK    7  A    between atoms: C_32  and  S_25 
REMARK    8  A    between atoms: S_26  and  C_31 
ROOT
ATOM      1  C   UNL d   1      -6.258  -0.849  -0.030  0.00  0.00    -0.042 A 
ATOM      2  C   UNL d   1      -8.925  -1.840  -0.039  0.00  0.00    -0.042 A 
ATOM      3  C   UNL d   1      -7.816  -2.708  -0.063  0.00  0.00     0.015 A 
ATOM      4  C   UNL d   1      -7.369   0.018  -0.074  0.00  0.00     0.015 A 
ATOM      5  C   UNL d   1      -8.692  -0.454  -0.069  0.00  0.00    -0.054 A 
ATOM      6  C   UNL d   1      -6.492  -2.236  -0.050  0.00  0.00    -0.054 A 
ATOM      7  C   UNL d   1      -5.376  -3.247  -0.068  0.00  0.00     0.049 C 
ATOM      8  C   UNL d   1      -9.814   0.547  -0.106  0.00  0.00     0.049 C 
ENDROOT
BRANCH   1   9
ATOM      9  C   UNL d   1      -4.862  -0.256  -0.028  0.00  0.00     0.120 C 
BRANCH   9  10
ATOM     10  S   UNL d   1      -4.571   0.994   1.260  0.00  0.00    -0.100 SA
BRANCH  10  11
ATOM     11  C   UNL d   1      -4.635   0.034   2.719  0.00  0.00     0.113 A 
ATOM     12  N   UNL d   1      -4.278  -1.228   2.748  0.00  0.00    -0.344 N 
ATOM     13  C   UNL d   1      -4.373  -1.712   4.040  0.00  0.00     0.050 A 
ATOM     14  HN  UNL d   1      -3.976  -1.771   1.939  1.00  0.00     0.167 HD
ATOM     15  C   UNL d   1      -4.069  -3.025   4.454  0.00  0.00     0.033 A 
ATOM     16  C   UNL d   1      -4.796  -0.787   4.999  0.00  0.00     0.036 A 
ATOM     17  C   UNL d   1      -4.179  -3.380   5.803  0.00  0.00     0.038 A 
ATOM     18  C   UNL d   1      -4.593  -2.430   6.742  0.00  0.00     0.104 A 
ATOM     19  C   UNL d   1      -4.916  -1.117   6.361  0.00  0.00     0.057 A 
ATOM     20  S   UNL d   1      -5.103   0.717   4.219  0.00  0.00    -0.063 SA
BRANCH  18  21
ATOM     21  N   UNL d   1      -4.687  -2.809   8.161  0.00  0.00    -0.116 N 
ATOM     22  O   UNL d   1      -5.039  -1.937   8.966  0.00  0.00    -0.532 OA
ATOM     23  O   UNL d   1      -4.406  -3.977   8.464  0.00  0.00    -0.532 OA
ENDBRANCH  18  21
ENDBRANCH  10  11
ENDBRANCH   9  10
ENDBRANCH   1   9
BRANCH   2  24
ATOM     24  C   UNL d   1     -10.323  -2.422  -0.039  0.00  0.00     0.120 C 
BRANCH  24  25
ATOM     25  S   UNL d   1     -10.669  -3.582   1.310  0.00  0.00    -0.100 SA
BRANCH  25  26
ATOM     26  C   UNL d   1     -10.450  -2.599   2.738  0.00  0.00     0.113 A 
ATOM     27  N   UNL d   1     -10.730  -1.318   2.788  0.00  0.00    -0.344 N 
ATOM     28  C   UNL d   1     -10.506  -0.834   4.068  0.00  0.00     0.050 A 
ATOM     29  HN  UNL d   1     -11.062  -0.761   2.001  1.00  0.00     0.167 HD
ATOM     30  C   UNL d   1     -10.686   0.496   4.503  0.00  0.00     0.033 A 
ATOM     31  C   UNL d   1     -10.072  -1.785   4.997  0.00  0.00     0.036 A 
ATOM     32  C   UNL d   1     -10.449   0.839   5.844  0.00  0.00     0.038 A 
ATOM     33  C   UNL d   1     -10.028  -0.140   6.749  0.00  0.00     0.104 A 
ATOM     34  C   UNL d   1      -9.828  -1.468   6.345  0.00  0.00     0.057 A 
ATOM     35  S   UNL d   1      -9.920  -3.304   4.208  0.00  0.00    -0.063 SA
BRANCH  33  36
ATOM     36  N   UNL d   1      -9.793   0.222   8.155  0.00  0.00    -0.116 N 
ATOM     37  O   UNL d   1      -9.426  -0.674   8.925  0.00  0.00    -0.532 OA
ATOM     38  O   UNL d   1      -9.974   1.403   8.486  0.00  0.00    -0.532 OA
ENDBRANCH  33  36
ENDBRANCH  25  26
ENDBRANCH  24  25
ENDBRANCH   2  24
TORSDOF 8
