REMARK  6 active torsions:
REMARK  status: ('A' for Active; 'I' for Inactive)
REMARK    1  A    between atoms: N_3  and  C_1 
REMARK    2  A    between atoms: S_2  and  O_12 
REMARK    3  A    between atoms: C_6  and  S_2 
REMARK    4  A    between atoms: C_7  and  C_9 
REMARK    5  A    between atoms: C_8  and  C_10 
REMARK    6  A    between atoms: O_12  and  C_22 
ROOT
ATOM      1  S   UNL d   1       4.895  -0.416  -0.108  0.00  0.00     0.303 S 
ATOM      2  O   UNL d   1       4.971   0.488   1.024  0.00  0.00    -0.193 OA
ATOM      3  O   UNL d   1       5.938  -1.387  -0.374  0.00  0.00    -0.193 OA
ENDROOT
BRANCH   1   4
ATOM      4  O   UNL d   1       3.458  -1.189  -0.086  0.00  0.00    -0.229 OA
BRANCH   4   5
ATOM      5  C   UNL d   1       3.007  -1.897   1.004  0.00  0.00     0.090 A 
ATOM      6  C   UNL d   1       1.712  -2.430   0.862  0.00  0.00     0.055 A 
ATOM      7  C   UNL d   1       1.126  -3.138   1.936  0.00  0.00     0.035 A 
ATOM      8  C   UNL d   1      -0.102  -3.814   2.196  0.00  0.00     0.138 A 
ATOM      9  C   UNL d   1       1.865  -3.267   3.107  0.00  0.00     0.087 A 
ATOM     10  C   UNL d   1      -0.043  -4.259   3.500  0.00  0.00     0.179 A 
ATOM     11  O   UNL d   1       1.153  -3.937   4.055  0.00  0.00    -0.319 OA
ATOM     12  C   UNL d   1       3.158  -2.779   3.273  0.00  0.00     0.041 A 
ATOM     13  C   UNL d   1       3.722  -2.094   2.188  0.00  0.00     0.041 A 
BRANCH   8  14
ATOM     14  N   UNL d   1      -1.215  -4.031   1.327  0.00  0.00    -0.113 N 
ATOM     15  O   UNL d   1      -1.115  -3.618   0.164  0.00  0.00    -0.532 OA
ATOM     16  O   UNL d   1      -2.195  -4.622   1.800  0.00  0.00    -0.532 OA
ENDBRANCH   8  14
ENDBRANCH   4   5
ENDBRANCH   1   4
BRANCH   1  17
ATOM     17  C   UNL d   1       4.833   0.649  -1.542  0.00  0.00     0.088 A 
ATOM     18  C   UNL d   1       3.692   0.713  -2.345  0.00  0.00     0.042 A 
ATOM     19  C   UNL d   1       3.626   1.655  -3.386  0.00  0.00     0.050 A 
ATOM     20  C   UNL d   1       4.730   2.497  -3.621  0.00  0.00     0.032 A 
ATOM     21  C   UNL d   1       5.888   2.424  -2.826  0.00  0.00     0.050 A 
ATOM     22  C   UNL d   1       5.929   1.491  -1.779  0.00  0.00     0.042 A 
BRANCH  19  23
ATOM     23  C   UNL d   1       2.370   1.817  -4.216  0.00  0.00     0.417 C 
ATOM     24  F   UNL d   1       1.381   0.948  -3.870  0.00  0.00    -0.166 F 
ATOM     25  F   UNL d   1       1.836   3.062  -4.094  0.00  0.00    -0.166 F 
ATOM     26  F   UNL d   1       2.593   1.628  -5.544  0.00  0.00    -0.166 F 
ENDBRANCH  19  23
BRANCH  21  27
ATOM     27  C   UNL d   1       7.042   3.369  -3.083  0.00  0.00     0.417 C 
ATOM     28  F   UNL d   1       8.077   3.211  -2.215  0.00  0.00    -0.166 F 
ATOM     29  F   UNL d   1       7.567   3.217  -4.329  0.00  0.00    -0.166 F 
ATOM     30  F   UNL d   1       6.667   4.674  -2.989  0.00  0.00    -0.166 F 
ENDBRANCH  21  27
ENDBRANCH   1  17
TORSDOF 6
