REMARK  8 active torsions:
REMARK  status: ('A' for Active; 'I' for Inactive)
REMARK    1  A    between atoms: N_6  and  C_1 
REMARK    2  A    between atoms: C_12  and  N_2 
REMARK       I    between atoms: C_8  and  N_6 
REMARK    3  A    between atoms: C_13  and  C_8 
REMARK    4  A    between atoms: N_11  and  C_13 
REMARK    5  A    between atoms: C_15  and  N_11 
REMARK    6  A    between atoms: C_16  and  N_11 
REMARK    7  A    between atoms: C_18  and  C_15 
REMARK    8  A    between atoms: C_17  and  C_16 
ROOT
ATOM      1  C   UNL d   1       3.743  -1.641  -0.107  0.00  0.00     0.152 C 
ATOM      2  N   UNL d   1       4.913  -2.421   0.005  0.00  0.00    -0.239 N 
ATOM      3  N   UNL d   1       5.971  -1.788  -0.593  0.00  0.00    -0.302 N 
ATOM      4  HN  UNL d   1       6.880  -2.183  -0.832  1.00  0.00     0.186 HD
ATOM      5  C   UNL d   1       4.192  -0.385  -0.475  0.00  0.00     0.107 C 
ATOM      6  C   UNL d   1       5.548  -0.542  -0.791  0.00  0.00     0.134 C 
ATOM      7  C   UNL d   1       3.422   0.801  -0.626  0.00  0.00     0.105 C 
ATOM      8  N   UNL d   1       2.787   1.763  -0.735  0.00  0.00    -0.191 NA
ENDROOT
BRANCH   1   9
ATOM      9  N   UNL d   1       2.421  -2.050   0.107  0.00  0.00    -0.309 N 
ATOM     10  C   UNL d   1       2.000  -3.303  -0.325  0.00  0.00     0.251 C 
ATOM     11  O   UNL d   1       2.708  -4.112  -0.919  0.00  0.00    -0.271 OA
ATOM     12  H   UNL d   1       1.682  -1.350   0.134  0.00  0.00     0.170 HD
BRANCH  10  13
ATOM     13  C   UNL d   1       0.534  -3.623  -0.010  0.00  0.00     0.375 C 
BRANCH  13  14
ATOM     14  N   UNL d   1      -0.444  -2.663  -0.600  0.00  0.00     0.105 N 
BRANCH  14  15
ATOM     15  C   UNL d   1      -0.209  -2.521  -2.063  0.00  0.00     0.311 C 
BRANCH  15  16
ATOM     16  C   UNL d   1      -1.125  -1.528  -2.758  0.00  0.00    -0.030 A 
ATOM     17  C   UNL d   1      -1.284  -0.222  -2.272  0.00  0.00     0.009 A 
ATOM     18  C   UNL d   1      -2.092   0.695  -2.949  0.00  0.00     0.001 A 
ATOM     19  C   UNL d   1      -2.745   0.321  -4.122  0.00  0.00     0.000 A 
ATOM     20  C   UNL d   1      -2.599  -0.974  -4.615  0.00  0.00     0.001 A 
ATOM     21  C   UNL d   1      -1.794  -1.893  -3.938  0.00  0.00     0.009 A 
ENDBRANCH  15  16
ENDBRANCH  14  15
BRANCH  14  22
ATOM     22  C   UNL d   1      -1.816  -3.225  -0.414  0.00  0.00     0.311 C 
BRANCH  22  23
ATOM     23  C   UNL d   1      -2.275  -3.389   1.020  0.00  0.00    -0.030 A 
ATOM     24  C   UNL d   1      -2.370  -2.284   1.876  0.00  0.00     0.009 A 
ATOM     25  C   UNL d   1      -2.895  -2.427   3.162  0.00  0.00     0.001 A 
ATOM     26  C   UNL d   1      -3.332  -3.674   3.607  0.00  0.00     0.000 A 
ATOM     27  C   UNL d   1      -3.239  -4.782   2.768  0.00  0.00     0.001 A 
ATOM     28  C   UNL d   1      -2.714  -4.642   1.482  0.00  0.00     0.009 A 
ENDBRANCH  22  23
ENDBRANCH  14  22
ENDBRANCH  13  14
ENDBRANCH  10  13
ENDBRANCH   1   9
BRANCH   2  29
ATOM     29  C   UNL d   1       5.177  -3.598   0.771  0.00  0.00     0.058 A 
ATOM     30  C   UNL d   1       4.333  -3.999   1.813  0.00  0.00     0.031 A 
ATOM     31  C   UNL d   1       4.640  -5.138   2.565  0.00  0.00     0.002 A 
ATOM     32  C   UNL d   1       5.794  -5.871   2.292  0.00  0.00     0.000 A 
ATOM     33  C   UNL d   1       6.653  -5.464   1.275  0.00  0.00     0.002 A 
ATOM     34  C   UNL d   1       6.353  -4.327   0.522  0.00  0.00     0.031 A 
ENDBRANCH   2  29
TORSDOF 8
