REMARK  3 active torsions:
REMARK  status: ('A' for Active; 'I' for Inactive)
REMARK       I    between atoms: C_2  and  N_1 
REMARK    1  A    between atoms: C_3  and  N_1 
REMARK    2  A    between atoms: C_8  and  N_1 
REMARK    3  A    between atoms: C_6  and  C_2 
ROOT
ATOM      1  N   UNL d   1       0.976   0.079   0.012  0.00  0.00    -0.313 N 
ATOM      2  C   UNL d   1       0.290   0.744   1.052  0.00  0.00     0.258 C 
ATOM      3  O   UNL d   1      -0.937   0.693   1.185  0.00  0.00    -0.267 OA
ENDROOT
BRANCH   1   4
ATOM      4  C   UNL d   1       0.182  -0.630  -0.970  0.00  0.00     0.048 A 
ATOM      5  C   UNL d   1      -0.836   0.015  -1.744  0.00  0.00     0.001 A 
ATOM      6  C   UNL d   1      -1.608  -0.775  -2.640  0.00  0.00    -0.024 A 
ATOM      7  C   UNL d   1      -1.111   1.403  -1.721  0.00  0.00     0.014 A 
ATOM      8  C   UNL d   1      -2.634  -0.190  -3.402  0.00  0.00     0.012 A 
ATOM      9  C   UNL d   1      -1.346  -2.147  -2.775  0.00  0.00     0.012 A 
ATOM     10  C   UNL d   1      -2.899   1.175  -3.320  0.00  0.00     0.001 A 
ATOM     11  C   UNL d   1      -2.131   1.974  -2.487  0.00  0.00     0.001 A 
ATOM     12  C   UNL d   1      -0.328  -2.755  -2.047  0.00  0.00     0.003 A 
ATOM     13  C   UNL d   1       0.427  -2.002  -1.156  0.00  0.00     0.031 A 
ENDBRANCH   1   4
BRANCH   1  14
ATOM     14  C   UNL d   1       2.433  -0.134  -0.084  0.00  0.00     0.128 C 
ATOM     15  C   UNL d   1       3.044  -0.959   1.038  0.00  0.00     0.027 C 
ENDBRANCH   1  14
BRANCH   2  16
ATOM     16  C   UNL d   1       1.002   1.497   2.126  0.00  0.00     0.032 A 
ATOM     17  C   UNL d   1       2.129   2.295   1.918  0.00  0.00     0.017 A 
ATOM     18  C   UNL d   1       2.753   2.933   2.997  0.00  0.00     0.001 A 
ATOM     19  C   UNL d   1       2.211   2.842   4.278  0.00  0.00     0.000 A 
ATOM     20  C   UNL d   1       1.037   2.125   4.484  0.00  0.00     0.001 A 
ATOM     21  C   UNL d   1       0.440   1.453   3.415  0.00  0.00     0.017 A 
ENDBRANCH   2  16
TORSDOF 3
