REMARK  4 active torsions:
REMARK  status: ('A' for Active; 'I' for Inactive)
REMARK    1  A    between atoms: C_2  and  C_1 
REMARK       I    between atoms: N_4  and  C_2 
REMARK    2  A    between atoms: C_5  and  C_3 
REMARK    3  A    between atoms: C_6  and  N_4 
REMARK    4  A    between atoms: O_18  and  C_10 
ROOT
ATOM      1  C   UNL d   1       0.732   1.274  -0.363  0.00  0.00     0.062 A 
ATOM      2  C   UNL d   1      -0.317   0.663   0.345  0.00  0.00     0.069 A 
ATOM      3  C   UNL d   1       1.368   0.493  -1.334  0.00  0.00     0.108 A 
ATOM      4  N   UNL d   1       1.006  -0.764  -1.692  0.00  0.00    -0.346 N 
ATOM      5  HN  UNL d   1       1.512  -1.284  -2.409  1.00  0.00     0.167 HD
ATOM      6  C   UNL d   1      -0.051  -1.290  -1.055  0.00  0.00     0.142 A 
ATOM      7  C   UNL d   1      -0.717  -0.635  -0.040  0.00  0.00     0.073 A 
ENDROOT
BRANCH   1   8
ATOM      8  C   UNL d   1       1.236   2.686  -0.293  0.00  0.00     0.258 C 
ATOM      9  N   UNL d   1       0.350   3.659   0.132  0.00  0.00    -0.322 N 
ATOM     10  H   UNL d   1      -0.160   3.407   0.973  0.00  0.00     0.169 HD
ATOM     11  O   UNL d   1       2.383   2.915  -0.667  0.00  0.00    -0.267 OA
BRANCH   9  12
ATOM     12  C   UNL d   1       0.723   5.028   0.144  0.00  0.00     0.046 A 
ATOM     13  C   UNL d   1       0.638   5.794  -1.034  0.00  0.00    -0.035 A 
ATOM     14  C   UNL d   1       0.761   7.191  -0.939  0.00  0.00     0.009 A 
ATOM     15  C   UNL d   1       0.344   5.218  -2.392  0.00  0.00     0.050 C 
ATOM     16  C   UNL d   1       0.985   7.813   0.286  0.00  0.00     0.001 A 
ATOM     17  C   UNL d   1       1.128   7.041   1.436  0.00  0.00     0.009 A 
ATOM     18  C   UNL d   1       1.015   5.644   1.379  0.00  0.00    -0.035 A 
ATOM     19  C   UNL d   1       1.267   4.873   2.647  0.00  0.00     0.050 C 
ENDBRANCH   9  12
ENDBRANCH   1   8
BRANCH   2  20
ATOM     20  C   UNL d   1      -1.071   1.249   1.498  0.00  0.00     0.418 C 
ATOM     21  F   UNL d   1      -0.486   2.339   2.062  0.00  0.00    -0.166 F 
ATOM     22  F   UNL d   1      -2.325   1.636   1.156  0.00  0.00    -0.166 F 
ATOM     23  F   UNL d   1      -1.219   0.364   2.527  0.00  0.00    -0.166 F 
ENDBRANCH   2  20
BRANCH   6  24
ATOM     24  O   UNL d   1      -0.535  -2.530  -1.407  0.00  0.00    -0.341 OA
ATOM     25  C   UNL d   1       0.148  -3.103  -2.517  0.00  0.00     0.211 C 
ENDBRANCH   6  24
TORSDOF 4
