REMARK  7 active torsions:
REMARK  status: ('A' for Active; 'I' for Inactive)
REMARK    1  A    between atoms: N_2  and  C_1 
REMARK    2  A    between atoms: N_4  and  C_3 
REMARK    3  A    between atoms: C_5  and  N_6 
REMARK       I    between atoms: N_6  and  C_9 
REMARK    4  A    between atoms: C_9  and  C_13 
REMARK    5  A    between atoms: C_14  and  C_21 
REMARK    6  A    between atoms: C_16  and  C_25 
REMARK    7  A    between atoms: O_29  and  C_23 
ROOT
ATOM      1  C   UNL d   1       1.110  -0.200   0.328  0.00  0.00     0.125 A 
ATOM      2  C   UNL d   1       0.311  -1.344   0.106  0.00  0.00     0.044 A 
ATOM      3  C   UNL d   1       0.569   1.076   0.610  0.00  0.00     0.049 A 
ATOM      4  C   UNL d   1      -1.081  -1.107   0.060  0.00  0.00     0.027 A 
ATOM      5  C   UNL d   1      -0.812   1.234   0.640  0.00  0.00    -0.034 A 
ATOM      6  C   UNL d   1      -1.629   0.156   0.323  0.00  0.00     0.013 A 
ENDROOT
BRANCH   5   7
ATOM      7  C   UNL d   1      -1.439   2.481   1.066  0.00  0.00     0.017 C 
ATOM      8  C   UNL d   1      -1.721   2.674   2.366  0.00  0.00     0.075 C 
BRANCH   8   9
ATOM      9  C   UNL d   1      -2.541   3.836   2.775  0.00  0.00     0.245 C 
ATOM     10  N   UNL d   1      -2.587   3.986   4.148  0.00  0.00    -0.323 N 
ATOM     11  H   UNL d   1      -1.830   3.562   4.661  0.00  0.00     0.169 HD
ATOM     12  O   UNL d   1      -3.081   4.561   1.944  0.00  0.00    -0.268 OA
BRANCH  10  13
ATOM     13  C   UNL d   1      -3.268   5.051   4.782  0.00  0.00     0.046 A 
ATOM     14  C   UNL d   1      -4.629   5.318   4.521  0.00  0.00    -0.034 A 
ATOM     15  C   UNL d   1      -5.242   6.426   5.136  0.00  0.00     0.015 A 
ATOM     16  C   UNL d   1      -5.514   4.465   3.649  0.00  0.00     0.050 C 
ATOM     17  C   UNL d   1      -4.546   7.238   6.033  0.00  0.00    -0.061 A 
ATOM     18  C   UNL d   1      -3.220   6.925   6.333  0.00  0.00     0.015 A 
ATOM     19  C   UNL d   1      -5.208   8.451   6.615  0.00  0.00     0.048 C 
ATOM     20  C   UNL d   1      -2.566   5.839   5.721  0.00  0.00    -0.034 A 
ATOM     21  C   UNL d   1      -1.113   5.649   6.069  0.00  0.00     0.050 C 
ENDBRANCH  10  13
ENDBRANCH   8   9
ENDBRANCH   5   7
BRANCH   1  22
ATOM     22  N   UNL d   1       2.556  -0.261   0.241  0.00  0.00    -0.114 N 
ATOM     23  O   UNL d   1       3.061  -0.620  -0.832  0.00  0.00    -0.532 OA
ATOM     24  O   UNL d   1       3.188   0.104   1.243  0.00  0.00    -0.532 OA
ENDBRANCH   1  22
BRANCH   2  25
ATOM     25  N   UNL d   1       0.834  -2.672   0.035  0.00  0.00    -0.281 NA
ATOM     26  C   UNL d   1      -0.044  -3.664  -0.613  0.00  0.00     0.096 C 
ATOM     27  C   UNL d   1       0.612  -5.032  -0.698  0.00  0.00     0.024 C 
ATOM     28  C   UNL d   1       1.032  -5.564   0.680  0.00  0.00     0.024 C 
ATOM     29  C   UNL d   1       1.909  -4.526   1.383  0.00  0.00     0.024 C 
ATOM     30  C   UNL d   1       1.446  -3.073   1.321  0.00  0.00     0.096 C 
BRANCH  28  31
ATOM     31  C   UNL d   1      -0.131  -6.143   1.486  0.00  0.00    -0.021 A 
ATOM     32  C   UNL d   1      -0.366  -7.528   1.615  0.00  0.00     0.074 A 
ATOM     33  C   UNL d   1      -1.451  -7.999   2.378  0.00  0.00     0.037 A 
ATOM     34  C   UNL d   1      -2.324  -7.118   3.010  0.00  0.00     0.003 A 
ATOM     35  C   UNL d   1      -2.106  -5.755   2.904  0.00  0.00     0.001 A 
ATOM     36  C   UNL d   1      -1.026  -5.279   2.155  0.00  0.00     0.010 A 
BRANCH  32  37
ATOM     37  O   UNL d   1       0.471  -8.531   1.197  0.00  0.00    -0.355 OA
ATOM     38  C   UNL d   1       0.791  -8.576  -0.188  0.00  0.00     0.210 C 
ENDBRANCH  32  37
ENDBRANCH  28  31
ENDBRANCH   2  25
TORSDOF 7
