REMARK  4 active torsions:
REMARK  status: ('A' for Active; 'I' for Inactive)
REMARK    1  A    between atoms: C_11  and  C_5 
REMARK    2  A    between atoms: S_13  and  C_8 
REMARK    3  A    between atoms: N_21  and  C_9 
REMARK    4  A    between atoms: C_10  and  C_12 
ROOT
ATOM      1  N   UNL d   1       0.181   0.828   1.021  0.00  0.00    -0.322 N 
ATOM      2  HN  UNL d   1      -0.002   1.504   1.762  1.00  0.00     0.169 HD
ATOM      3  N   UNL d   1       1.303   0.211  -0.956  0.00  0.00    -0.318 N 
ATOM      4  HN  UNL d   1       1.972   0.424  -1.696  1.00  0.00     0.170 HD
ATOM      5  C   UNL d   1       1.032   1.068   0.029  0.00  0.00     0.119 A 
ATOM      6  N   UNL d   1      -0.208  -1.282   0.039  0.00  0.00    -0.313 N 
ATOM      7  HN  UNL d   1      -0.674  -2.190   0.051  1.00  0.00     0.170 HD
ATOM      8  C   UNL d   1      -0.414  -0.359   0.974  0.00  0.00     0.147 A 
ATOM      9  C   UNL d   1       0.644  -0.933  -0.907  0.00  0.00     0.158 A 
ENDROOT
BRANCH   5  10
ATOM     10  C   UNL d   1       1.723   2.374   0.013  0.00  0.00     0.008 A 
ATOM     11  C   UNL d   1       2.626   2.715  -1.012  0.00  0.00     0.016 A 
ATOM     12  C   UNL d   1       3.276   3.954  -1.037  0.00  0.00     0.017 A 
ATOM     13  C   UNL d   1       3.045   4.898  -0.031  0.00  0.00     0.048 A 
ATOM     14  C   UNL d   1       2.151   4.577   0.998  0.00  0.00     0.017 A 
ATOM     15  C   UNL d   1       1.503   3.336   1.018  0.00  0.00     0.016 A 
BRANCH  13  16
ATOM     16  C   UNL d   1       3.735   6.239  -0.043  0.00  0.00     0.417 C 
ATOM     17  F   UNL d   1       4.584   6.406  -1.096  0.00  0.00    -0.166 F 
ATOM     18  F   UNL d   1       2.856   7.278  -0.106  0.00  0.00    -0.166 F 
ATOM     19  F   UNL d   1       4.483   6.450   1.075  0.00  0.00    -0.166 F 
ENDBRANCH  13  16
ENDBRANCH   5  10
BRANCH   9  20
ATOM     20  N   UNL d   1       0.900  -1.842  -1.913  0.00  0.00    -0.274 NA
ATOM     21  H   UNL d   1       0.717  -2.788  -1.606  0.00  0.00     0.127 HD
ATOM     22  H   UNL d   1       1.798  -1.658  -2.340  0.00  0.00     0.127 HD
ENDBRANCH   9  20
BRANCH   8  23
ATOM     23  S   UNL d   1      -1.562  -0.686   2.294  0.00  0.00    -0.098 SA
ATOM     24  C   UNL d   1      -2.151  -2.332   1.835  0.00  0.00     0.099 C 
ENDBRANCH   8  23
TORSDOF 4
