REMARK  2 active torsions:
REMARK  status: ('A' for Active; 'I' for Inactive)
REMARK    1  A    between atoms: C_10  and  N_2 
REMARK    2  A    between atoms: C_12  and  N_6 
ROOT
ATOM      1  C   UNL d   1      -1.825   0.510   0.032  0.00  0.00     0.146 C 
ATOM      2  N   UNL d   1      -0.567   1.037   0.215  0.00  0.00    -0.292 N 
ATOM      3  C   UNL d   1      -0.325  -1.081   1.241  0.00  0.00     0.097 A 
ATOM      4  C   UNL d   1       0.233   0.299   1.071  0.00  0.00     0.245 C 
ATOM      5  S   UNL d   1      -1.765  -1.220   0.282  0.00  0.00    -0.074 SA
ATOM      6  N   UNL d   1      -2.869   1.220  -0.236  0.00  0.00    -0.366 N 
ATOM      7  HN  UNL d   1      -2.795   2.238  -0.226  1.00  0.00     0.162 HD
ATOM      8  C   UNL d   1       0.652  -2.222   1.411  0.00  0.00     0.033 A 
ATOM      9  C   UNL d   1      -0.266  -1.841   2.538  0.00  0.00     0.033 A 
ATOM     10  O   UNL d   1       1.285   0.664   1.586  0.00  0.00    -0.271 OA
ENDROOT
BRANCH   2  11
ATOM     11  C   UNL d   1       0.075   2.109  -0.573  0.00  0.00     0.095 C 
ATOM     12  C   UNL d   1      -0.813   2.940  -1.516  0.00  0.00     0.026 C 
ATOM     13  C   UNL d   1      -1.318   2.178  -2.747  0.00  0.00     0.002 C 
ATOM     14  C   UNL d   1      -0.262   1.357  -3.478  0.00  0.00     0.000 C 
ATOM     15  C   UNL d   1       0.711   0.629  -2.560  0.00  0.00     0.002 C 
ATOM     16  C   UNL d   1       1.227   1.524  -1.437  0.00  0.00     0.026 C 
ENDBRANCH   2  11
BRANCH   6  17
ATOM     17  C   UNL d   1      -4.160   0.598  -0.557  0.00  0.00     0.083 C 
ATOM     18  C   UNL d   1      -4.980   1.596  -1.392  0.00  0.00     0.025 C 
ATOM     19  C   UNL d   1      -5.578   2.739  -0.576  0.00  0.00     0.002 C 
ATOM     20  C   UNL d   1      -6.404   2.232   0.597  0.00  0.00     0.000 C 
ATOM     21  C   UNL d   1      -5.623   1.260   1.471  0.00  0.00     0.002 C 
ATOM     22  C   UNL d   1      -4.951   0.143   0.678  0.00  0.00     0.025 C 
ENDBRANCH   6  17
TORSDOF 2
