REMARK  2 active torsions:
REMARK  status: ('A' for Active; 'I' for Inactive)
REMARK    1  A    between atoms: C_8  and  C_7 
REMARK    2  A    between atoms: S_15  and  C_10 
ROOT
ATOM      1  C   UNL d   1      -1.262   0.125  -0.111  0.00  0.00     0.116 C 
ATOM      2  C   UNL d   1      -0.656  -1.182   0.195  0.00  0.00     0.302 C 
ATOM      3  C   UNL d   1      -0.521   1.344   0.228  0.00  0.00     0.302 C 
ATOM      4  O   UNL d   1       0.690  -1.163   0.332  0.00  0.00    -0.280 OA
ATOM      5  O   UNL d   1       0.820   1.215   0.242  0.00  0.00    -0.280 OA
ATOM      6  C   UNL d   1       1.402  -0.025  -0.158  0.00  0.00     0.175 C 
ATOM      7  C   UNL d   1      -2.461   0.123  -0.724  0.00  0.00     0.042 C 
ATOM      8  O   UNL d   1      -1.051   2.404   0.523  0.00  0.00    -0.259 OA
ATOM      9  O   UNL d   1      -1.303  -2.211   0.314  0.00  0.00    -0.259 OA
ATOM     10  C   UNL d   1       1.538  -0.088  -1.683  0.00  0.00     0.080 C 
ATOM     11  C   UNL d   1       2.795  -0.054   0.473  0.00  0.00     0.080 C 
ENDROOT
BRANCH   7  12
ATOM     12  C   UNL d   1      -3.099   1.304  -1.198  0.00  0.00     0.007 A 
ATOM     13  S   UNL d   1      -2.842   1.836  -2.812  0.00  0.00    -0.084 SA
ATOM     14  C   UNL d   1      -3.932   3.149  -2.648  0.00  0.00     0.041 A 
ATOM     15  C   UNL d   1      -4.461   3.199  -1.377  0.00  0.00     0.027 A 
ATOM     16  C   UNL d   1      -3.973   2.148  -0.542  0.00  0.00     0.021 A 
BRANCH  14  17
ATOM     17  S   UNL d   1      -4.293   4.188  -4.022  0.00  0.00    -0.127 SA
ATOM     18  C   UNL d   1      -4.708   5.767  -3.252  0.00  0.00     0.096 C 
ENDBRANCH  14  17
ENDBRANCH   7  12
TORSDOF 2
