REMARK  4 active torsions:
REMARK  status: ('A' for Active; 'I' for Inactive)
REMARK    1  A    between atoms: C_13  and  C_1 
REMARK    2  A    between atoms: O_9  and  C_3 
REMARK    3  A    between atoms: C_7  and  C_10 
REMARK    4  A    between atoms: C_10  and  O_9 
ROOT
ATOM      1  C   UNL d   1      -1.314   2.316   0.001  0.00  0.00     0.077 A 
ATOM      2  C   UNL d   1       0.186   2.351  -0.086  0.00  0.00     0.262 A 
ATOM      3  C   UNL d   1      -1.965   1.138   0.082  0.00  0.00     0.098 A 
ATOM      4  N   UNL d   1       0.864   1.143  -0.055  0.00  0.00    -0.312 N 
ATOM      5  C   UNL d   1      -1.206  -0.134   0.099  0.00  0.00     0.026 A 
ATOM      6  C   UNL d   1       0.193  -0.105   0.037  0.00  0.00     0.057 A 
ATOM      7  C   UNL d   1       0.932  -1.305   0.067  0.00  0.00    -0.030 A 
ATOM      8  C   UNL d   1      -1.840  -1.383   0.207  0.00  0.00     0.023 A 
ATOM      9  O   UNL d   1       0.774   3.433  -0.144  0.00  0.00    -0.267 OA
ATOM     10  C   UNL d   1       0.264  -2.537   0.134  0.00  0.00     0.016 A 
ATOM     11  C   UNL d   1      -1.127  -2.584   0.190  0.00  0.00    -0.060 A 
ATOM     12  C   UNL d   1       2.316   1.181   0.080  0.00  0.00     0.133 C 
ATOM     13  C   UNL d   1       2.437  -1.303   0.098  0.00  0.00     0.042 C 
ATOM     14  C   UNL d   1       3.006  -0.036  -0.510  0.00  0.00     0.025 C 
ATOM     15  C   UNL d   1      -1.843  -3.901   0.243  0.00  0.00     0.048 C 
ENDROOT
BRANCH   3  16
ATOM     16  O   UNL d   1      -3.310   1.079   0.390  0.00  0.00    -0.345 OA
BRANCH  16  17
ATOM     17  C   UNL d   1      -4.221   0.668  -0.641  0.00  0.00     0.218 C 
BRANCH  17  18
ATOM     18  C   UNL d   1      -5.216  -0.361  -0.111  0.00  0.00     0.009 A 
ATOM     19  C   UNL d   1      -5.704  -0.346   1.215  0.00  0.00     0.044 A 
ATOM     20 CL   UNL d   1      -5.360   0.918   2.348  0.00  0.00    -0.084 Cl
ATOM     21  C   UNL d   1      -6.537  -1.367   1.696  0.00  0.00     0.024 A 
ATOM     22  C   UNL d   1      -6.949  -2.400   0.863  0.00  0.00     0.003 A 
ATOM     23  C   UNL d   1      -6.541  -2.400  -0.465  0.00  0.00     0.024 A 
ATOM     24  C   UNL d   1      -5.691  -1.393  -0.949  0.00  0.00     0.044 A 
ATOM     25 CL   UNL d   1      -5.264  -1.495  -2.623  0.00  0.00    -0.084 Cl
ENDBRANCH  17  18
ENDBRANCH  16  17
ENDBRANCH   3  16
BRANCH   1  26
ATOM     26  C   UNL d   1      -2.019   3.614   0.082  0.00  0.00    -0.018 A 
ATOM     27  C   UNL d   1      -2.393   4.144   1.324  0.00  0.00     0.012 A 
ATOM     28  C   UNL d   1      -2.928   5.431   1.409  0.00  0.00     0.001 A 
ATOM     29  C   UNL d   1      -3.101   6.195   0.256  0.00  0.00     0.000 A 
ATOM     30  C   UNL d   1      -2.750   5.669  -0.987  0.00  0.00     0.001 A 
ATOM     31  C   UNL d   1      -2.211   4.383  -1.075  0.00  0.00     0.012 A 
ENDBRANCH   1  26
TORSDOF 4
