REMARK  3 active torsions:
REMARK  status: ('A' for Active; 'I' for Inactive)
REMARK    1  A    between atoms: C_10  and  C_1 
REMARK    2  A    between atoms: C_11  and  C_4 
REMARK    3  A    between atoms: S_12  and  C_7 
ROOT
ATOM      1  C   UNL d   1      -0.268  -1.348   0.159  0.00  0.00     0.086 A 
ATOM      2  N   UNL d   1      -1.236  -0.419   0.339  0.00  0.00    -0.296 N 
ATOM      3  HN  UNL d   1      -2.193  -0.711   0.534  1.00  0.00     0.187 HD
ATOM      4  C   UNL d   1       1.027  -0.915  -0.141  0.00  0.00     0.073 A 
ATOM      5  N   UNL d   1       1.337   0.414  -0.204  0.00  0.00    -0.333 N 
ATOM      6  HN  UNL d   1       2.286   0.731  -0.402  1.00  0.00     0.168 HD
ATOM      7  C   UNL d   1       0.337   1.281   0.007  0.00  0.00     0.159 A 
ATOM      8  N   UNL d   1      -0.930   0.910   0.260  0.00  0.00    -0.279 N 
ATOM      9  HN  UNL d   1      -1.656   1.614   0.391  1.00  0.00     0.189 HD
ENDROOT
BRANCH   1  10
ATOM     10  C   UNL d   1      -0.734  -2.739   0.333  0.00  0.00    -0.006 A 
ATOM     11  C   UNL d   1      -1.959  -3.150  -0.230  0.00  0.00     0.014 A 
ATOM     12  C   UNL d   1      -2.416  -4.465  -0.104  0.00  0.00     0.001 A 
ATOM     13  C   UNL d   1      -1.655  -5.401   0.589  0.00  0.00     0.000 A 
ATOM     14  C   UNL d   1      -0.454  -5.016   1.177  0.00  0.00     0.001 A 
ATOM     15  C   UNL d   1      -0.009  -3.695   1.067  0.00  0.00     0.014 A 
ENDBRANCH   1  10
BRANCH   4  16
ATOM     16  C   UNL d   1       2.193  -1.793  -0.412  0.00  0.00    -0.007 A 
ATOM     17  C   UNL d   1       2.104  -2.954  -1.204  0.00  0.00     0.014 A 
ATOM     18  C   UNL d   1       3.207  -3.797  -1.384  0.00  0.00     0.001 A 
ATOM     19  C   UNL d   1       4.435  -3.475  -0.816  0.00  0.00     0.000 A 
ATOM     20  C   UNL d   1       4.566  -2.305  -0.076  0.00  0.00     0.001 A 
ATOM     21  C   UNL d   1       3.457  -1.477   0.122  0.00  0.00     0.014 A 
ENDBRANCH   4  16
BRANCH   7  22
ATOM     22  S   UNL d   1       0.668   3.026  -0.031  0.00  0.00    -0.097 SA
ATOM     23  C   UNL d   1       2.476   3.015   0.022  0.00  0.00     0.099 C 
ENDBRANCH   7  22
TORSDOF 3
