REMARK  3 active torsions:
REMARK  status: ('A' for Active; 'I' for Inactive)
REMARK    1  A    between atoms: S_10  and  C_2 
REMARK    2  A    between atoms: S_11  and  C_3 
REMARK    3  A    between atoms: C_12  and  S_11 
ROOT
ATOM      1  C   UNL d   1       6.302   0.637  -0.021  0.00  0.00    -0.107 C 
ATOM      2  C   UNL d   1       7.481   0.396  -0.019  0.00  0.00     0.013 C 
ATOM      3  C   UNL d   1       4.855   0.902  -0.025  0.00  0.00     0.174 C 
ENDROOT
BRANCH   3   4
ATOM      4  S   UNL d   1       3.929  -0.656   0.066  0.00  0.00    -0.091 SA
BRANCH   4   5
ATOM      5  C   UNL d   1       2.285  -0.074   0.070  0.00  0.00     0.130 A 
ATOM      6  S   UNL d   1       0.988  -1.006   0.696  0.00  0.00    -0.038 SA
ATOM      7  C   UNL d   1      -0.049   0.274   0.236  0.00  0.00     0.126 A 
ATOM      8  N   UNL d   1       0.559   1.296  -0.327  0.00  0.00    -0.287 N 
ATOM      9  N   UNL d   1       1.927   1.094  -0.419  0.00  0.00    -0.287 N 
ATOM     10  HN  UNL d   1       0.082   2.135  -0.655  1.00  0.00     0.188 HD
ATOM     11  HN  UNL d   1       2.579   1.770  -0.819  1.00  0.00     0.188 HD
BRANCH   7  12
ATOM     12  S   UNL d   1      -1.773   0.239   0.491  0.00  0.00    -0.117 SA
ATOM     13  H   UNL d   1      -1.826  -0.944   1.118  0.00  0.00     0.109 HD
ENDBRANCH   7  12
ENDBRANCH   4   5
ENDBRANCH   3   4
TORSDOF 3
