REMARK  3 active torsions:
REMARK  status: ('A' for Active; 'I' for Inactive)
REMARK    1  A    between atoms: C_7  and  C_3 
REMARK    2  A    between atoms: C_15  and  C_10 
REMARK    3  A    between atoms: C_20  and  N_19 
ROOT
ATOM      1  N   UNL d   1      -0.069   1.173   0.586  0.00  0.00    -0.320 N 
ATOM      2  HN  UNL d   1      -0.293   2.097   0.956  1.00  0.00     0.169 HD
ATOM      3  C   UNL d   1       1.155   0.815   0.032  0.00  0.00     0.127 A 
ATOM      4  C   UNL d   1      -0.895   0.149   0.566  0.00  0.00     0.167 A 
ATOM      5  N   UNL d   1       1.285  -0.432  -0.443  0.00  0.00    -0.309 N 
ATOM      6  HN  UNL d   1       2.110  -0.822  -0.899  1.00  0.00     0.176 HD
ATOM      7  S   UNL d   1      -0.149  -1.227  -0.152  0.00  0.00     0.024 SA
ATOM      8  N   UNL d   1      -2.150   0.125   1.062  0.00  0.00    -0.335 N 
ATOM      9  H   UNL d   1      -2.587  -0.761   1.279  0.00  0.00     0.168 HD
ENDROOT
BRANCH   3  10
ATOM     10  C   UNL d   1       2.236   1.781   0.016  0.00  0.00     0.046 A 
ATOM     11  C   UNL d   1       3.205   1.882  -0.968  0.00  0.00     0.022 A 
ATOM     12  N   UNL d   1       4.185   2.826  -0.933  0.00  0.00    -0.348 N 
ATOM     13  C   UNL d   1       3.214   0.998  -2.182  0.00  0.00     0.069 C 
ATOM     14  C   UNL d   1       4.206   3.699   0.096  0.00  0.00     0.085 A 
ATOM     15  HN  UNL d   1       4.889   2.872  -1.670  1.00  0.00     0.167 HD
ATOM     16  N   UNL d   1       3.303   3.669   1.093  0.00  0.00    -0.354 N 
ATOM     17  C   UNL d   1       2.344   2.718   1.027  0.00  0.00     0.106 A 
ATOM     18  HN  UNL d   1       3.339   4.335   1.864  1.00  0.00     0.166 HD
BRANCH  14  19
ATOM     19  C   UNL d   1       5.223   4.813   0.076  0.00  0.00     0.053 A 
ATOM     20  C   UNL d   1       6.708   4.535   0.125  0.00  0.00     0.013 A 
ATOM     21  C   UNL d   1       6.025   5.136   1.317  0.00  0.00     0.013 A 
ENDBRANCH  14  19
ENDBRANCH   3  10
BRANCH   8  22
ATOM     22  C   UNL d   1      -2.996   1.243   1.167  0.00  0.00     0.034 A 
ATOM     23  C   UNL d   1      -2.894   2.343   0.302  0.00  0.00     0.029 A 
ATOM     24  C   UNL d   1      -3.714   3.461   0.462  0.00  0.00     0.002 A 
ATOM     25  C   UNL d   1      -4.628   3.508   1.508  0.00  0.00     0.000 A 
ATOM     26  C   UNL d   1      -4.729   2.432   2.388  0.00  0.00     0.002 A 
ATOM     27  C   UNL d   1      -3.920   1.307   2.216  0.00  0.00     0.029 A 
ENDBRANCH   8  22
TORSDOF 3
