REMARK  4 active torsions:
REMARK  status: ('A' for Active; 'I' for Inactive)
REMARK    1  A    between atoms: C_3  and  C_1 
REMARK    2  A    between atoms: C_2  and  C_6 
REMARK    3  A    between atoms: N_14  and  C_2 
REMARK    4  A    between atoms: O_15  and  N_4 
ROOT
ATOM      1  C   UNL d   1      -2.067  -3.660  -7.376  0.00  0.00     0.048 A 
ATOM      2  C   UNL d   1      -1.456  -1.249  -6.040  0.00  0.00     0.004 A 
ATOM      3  C   UNL d   1      -1.531  -3.677  -6.081  0.00  0.00     0.017 A 
ATOM      4  C   UNL d   1      -2.291  -2.423  -7.999  0.00  0.00     0.017 A 
ATOM      5  C   UNL d   1      -1.990  -1.229  -7.335  0.00  0.00     0.015 A 
ATOM      6  C   UNL d   1      -1.222  -2.482  -5.419  0.00  0.00     0.015 A 
ENDROOT
BRANCH   2   7
ATOM      7  C   UNL d   1      -1.136   0.044  -5.347  0.00  0.00     0.108 C 
ATOM      8  N   UNL d   1      -1.353   1.163  -5.983  0.00  0.00    -0.258 N 
ATOM      9  HN  UNL d   1      -1.710   1.224  -6.936  1.00  0.00     0.195 HD
BRANCH   8  10
ATOM     10  O   UNL d   1      -1.030   2.272  -5.183  0.00  0.00    -0.289 OA
ATOM     11  H   UNL d   1      -1.181   3.014  -5.798  0.00  0.00     0.244 HD
ENDBRANCH   8  10
BRANCH   7  12
ATOM     12  N   UNL d   1      -0.631   0.035  -4.067  0.00  0.00    -0.287 NA
ATOM     13  H   UNL d   1      -1.066  -0.613  -3.425  0.00  0.00     0.125 HD
ATOM     14  H   UNL d   1      -0.639   0.986  -3.703  0.00  0.00     0.125 HD
ENDBRANCH   7  12
ENDBRANCH   2   7
BRANCH   1  15
ATOM     15  C   UNL d   1      -2.394  -4.942  -8.105  0.00  0.00     0.417 C 
ATOM     16  F   UNL d   1      -2.139  -6.063  -7.375  0.00  0.00    -0.166 F 
ATOM     17  F   UNL d   1      -1.687  -5.080  -9.260  0.00  0.00    -0.166 F 
ATOM     18  F   UNL d   1      -3.707  -5.019  -8.458  0.00  0.00    -0.166 F 
ENDBRANCH   1  15
TORSDOF 4
