REMARK  6 active torsions:
REMARK  status: ('A' for Active; 'I' for Inactive)
REMARK    1  A    between atoms: C_10  and  C_3 
REMARK    2  A    between atoms: C_12  and  C_4 
REMARK    3  A    between atoms: O_21  and  C_8 
REMARK    4  A    between atoms: O_22  and  C_9 
REMARK    5  A    between atoms: C_11  and  C_12 
REMARK    6  A    between atoms: O_23  and  C_14 
ROOT
ATOM      1  N   UNL d   1       0.911   6.303   1.393  0.00  0.00    -0.297 N 
ATOM      2  HN  UNL d   1       1.404   7.119   1.755  1.00  0.00     0.187 HD
ATOM      3  C   UNL d   1       0.694   5.260   2.137  0.00  0.00     0.066 A 
ATOM      4  C   UNL d   1      -0.394   4.005   0.352  0.00  0.00     0.018 A 
ATOM      5  N   UNL d   1       0.450   6.263   0.107  0.00  0.00    -0.266 N 
ATOM      6  C   UNL d   1       0.020   4.041   1.625  0.00  0.00     0.045 A 
ATOM      7  C   UNL d   1      -0.205   5.213  -0.488  0.00  0.00     0.266 A 
ATOM      8  O   UNL d   1      -0.584   5.257  -1.652  0.00  0.00    -0.266 OA
ATOM      9  H   UNL d   1       0.610   7.090  -0.459  0.00  0.00     0.190 HD
ENDROOT
BRANCH   4  10
ATOM     10  C   UNL d   1      -0.903   2.760  -0.308  0.00  0.00     0.086 C 
BRANCH  10  11
ATOM     11  C   UNL d   1      -2.354   2.427  -0.050  0.00  0.00    -0.017 A 
ATOM     12  C   UNL d   1      -2.827   1.771   1.108  0.00  0.00     0.111 A 
ATOM     13  C   UNL d   1      -4.205   1.462   1.257  0.00  0.00     0.135 A 
ATOM     14  C   UNL d   1      -5.107   1.790   0.231  0.00  0.00     0.104 A 
ATOM     15  C   UNL d   1      -4.631   2.462  -0.900  0.00  0.00     0.040 A 
ATOM     16  C   UNL d   1      -3.281   2.777  -1.040  0.00  0.00     0.013 A 
BRANCH  12  17
ATOM     17  O   UNL d   1      -1.984   1.536   2.169  0.00  0.00    -0.352 OA
ATOM     18  C   UNL d   1      -1.111   0.424   1.986  0.00  0.00     0.210 C 
ENDBRANCH  12  17
BRANCH  13  19
ATOM     19  O   UNL d   1      -4.651   0.733   2.331  0.00  0.00    -0.351 OA
ATOM     20  C   UNL d   1      -4.434   1.351   3.598  0.00  0.00     0.210 C 
ENDBRANCH  13  19
BRANCH  14  21
ATOM     21  O   UNL d   1      -6.455   1.566   0.150  0.00  0.00    -0.353 OA
ATOM     22  C   UNL d   1      -7.120   0.900   1.209  0.00  0.00     0.210 C 
ENDBRANCH  14  21
ENDBRANCH  10  11
ENDBRANCH   4  10
BRANCH   3  23
ATOM     23  C   UNL d   1       1.213   5.263   3.499  0.00  0.00     0.033 A 
ATOM     24  S   UNL d   1       0.441   4.400   4.766  0.00  0.00    -0.100 SA
ATOM     25  C   UNL d   1       1.627   4.863   5.904  0.00  0.00     0.050 A 
ATOM     26  C   UNL d   1       2.583   5.681   5.346  0.00  0.00     0.008 A 
ATOM     27  C   UNL d   1       2.327   5.931   3.966  0.00  0.00     0.021 A 
ENDBRANCH   3  23
TORSDOF 6
