REMARK  3 active torsions:
REMARK  status: ('A' for Active; 'I' for Inactive)
REMARK    1  A    between atoms: C_7  and  C_1 
REMARK    2  A    between atoms: O_10  and  C_7 
REMARK    3  A    between atoms: C_11  and  O_10 
ROOT
ATOM      1  C   UNL d   1      -1.216   0.996  -0.002  0.00  0.00    -0.021 A 
ATOM      2  C   UNL d   1       0.030   1.685   0.061  0.00  0.00    -0.047 A 
ATOM      3  C   UNL d   1      -1.223  -0.433  -0.035  0.00  0.00    -0.047 A 
ATOM      4  C   UNL d   1       1.249   0.952  -0.009  0.00  0.00    -0.049 A 
ATOM      5  C   UNL d   1       0.001  -1.160  -0.018  0.00  0.00    -0.049 A 
ATOM      6  C   UNL d   1       1.234  -0.467  -0.024  0.00  0.00    -0.049 A 
ATOM      7  C   UNL d   1       2.594   1.655  -0.057  0.00  0.00     0.049 C 
ATOM      8  C   UNL d   1       0.010  -2.674   0.014  0.00  0.00     0.049 C 
ATOM      9  C   UNL d   1       0.121   3.191   0.194  0.00  0.00     0.049 C 
ATOM     10  C   UNL d   1      -2.523  -1.211  -0.074  0.00  0.00     0.049 C 
ATOM     11  C   UNL d   1       2.556  -1.211  -0.031  0.00  0.00     0.049 C 
ENDROOT
BRANCH   1  12
ATOM     12  C   UNL d   1      -2.549   1.748   0.003  0.00  0.00     0.215 C 
BRANCH  12  13
ATOM     13  O   UNL d   1      -3.232   1.554  -1.234  0.00  0.00    -0.345 OA
BRANCH  13  14
ATOM     14  C   UNL d   1      -4.495   2.049  -1.423  0.00  0.00     0.090 A 
ATOM     15  C   UNL d   1      -5.306   2.849  -0.600  0.00  0.00     0.069 A 
ATOM     16  C   UNL d   1      -6.586   3.236  -1.035  0.00  0.00     0.050 A 
ATOM     17 CL   UNL d   1      -4.873   3.448   0.962  0.00  0.00    -0.081 Cl
ATOM     18  C   UNL d   1      -7.064   2.838  -2.279  0.00  0.00     0.035 A 
ATOM     19  C   UNL d   1      -6.277   2.049  -3.105  0.00  0.00     0.026 A 
ATOM     20 CL   UNL d   1      -8.629   3.329  -2.794  0.00  0.00    -0.084 Cl
ATOM     21  C   UNL d   1      -5.006   1.660  -2.676  0.00  0.00     0.040 A 
ENDBRANCH  13  14
ENDBRANCH  12  13
ENDBRANCH   1  12
TORSDOF 3
