REMARK  6 active torsions:
REMARK  status: ('A' for Active; 'I' for Inactive)
REMARK    1  A    between atoms: C_3  and  S_1 
REMARK    2  A    between atoms: N_13  and  S_1 
REMARK    3  A    between atoms: C_10  and  C_2 
REMARK    4  A    between atoms: C_8  and  C_11 
REMARK       I    between atoms: C_12  and  N_14 
REMARK    5  A    between atoms: O_17  and  C_12 
REMARK    6  A    between atoms: C_23  and  O_17 
ROOT
ATOM      1  S   UNL d   1       0.873   0.066  -0.152  0.00  0.00     0.250 S 
ATOM      2  O   UNL d   1       2.157   0.554  -0.604  0.00  0.00    -0.205 OA
ATOM      3  O   UNL d   1       0.701  -1.312   0.263  0.00  0.00    -0.205 OA
ENDROOT
BRANCH   1   4
ATOM      4  C   UNL d   1      -0.254   0.247  -1.530  0.00  0.00     0.116 A 
ATOM      5  S   UNL d   1      -0.050   1.616  -2.536  0.00  0.00    -0.075 SA
ATOM      6  C   UNL d   1      -1.448   1.250  -3.446  0.00  0.00     0.034 A 
ATOM      7  C   UNL d   1      -2.011   0.053  -3.052  0.00  0.00     0.023 A 
ATOM      8  C   UNL d   1      -1.315  -0.532  -1.955  0.00  0.00     0.034 A 
BRANCH   6   9
ATOM      9  C   UNL d   1      -2.019   2.132  -4.517  0.00  0.00     0.067 A 
ATOM     10  C   UNL d   1      -1.439   3.304  -5.048  0.00  0.00     0.068 A 
ATOM     11  C   UNL d   1      -2.366   3.808  -5.941  0.00  0.00     0.136 A 
ATOM     12  N   UNL d   1      -3.430   2.950  -5.880  0.00  0.00    -0.292 N 
ATOM     13  N   UNL d   1      -3.218   1.898  -5.065  0.00  0.00    -0.297 N 
ATOM     14  C   UNL d   1      -4.725   3.083  -6.512  0.00  0.00     0.178 C 
ATOM     15  HN  UNL d   1      -3.834   1.102  -4.901  1.00  0.00     0.187 HD
BRANCH  11  16
ATOM     16  C   UNL d   1      -2.319   5.016  -6.787  0.00  0.00     0.434 C 
ATOM     17  F   UNL d   1      -3.423   5.180  -7.556  0.00  0.00    -0.165 F 
ATOM     18  F   UNL d   1      -2.198   6.138  -6.036  0.00  0.00    -0.165 F 
ATOM     19  F   UNL d   1      -1.257   4.989  -7.630  0.00  0.00    -0.165 F 
ENDBRANCH  11  16
ENDBRANCH   6   9
ENDBRANCH   1   4
BRANCH   1  20
ATOM     20  N   UNL d   1       0.317   1.068   1.124  0.00  0.00    -0.204 NA
ATOM     21  C   UNL d   1       0.502   2.533   0.904  0.00  0.00     0.127 C 
ATOM     22  C   UNL d   1       0.544   3.305   2.228  0.00  0.00     0.143 C 
ATOM     23  N   UNL d   1      -0.711   3.259   2.976  0.00  0.00    -0.327 N 
ATOM     24  C   UNL d   1      -1.680   4.218   2.693  0.00  0.00     0.363 C 
ATOM     25  C   UNL d   1      -0.894   2.133   3.881  0.00  0.00     0.129 C 
ATOM     26  O   UNL d   1      -1.544   5.023   1.776  0.00  0.00    -0.238 OA
ATOM     27  C   UNL d   1      -0.992   0.755   3.209  0.00  0.00     0.035 C 
ATOM     28  C   UNL d   1      -1.017   0.719   1.683  0.00  0.00     0.109 C 
BRANCH  24  29
ATOM     29  O   UNL d   1      -2.761   4.178   3.513  0.00  0.00    -0.294 OA
BRANCH  29  30
ATOM     30  C   UNL d   1      -3.862   5.122   3.312  0.00  0.00     0.061 C 
ATOM     31  C   UNL d   1      -4.478   4.955   1.915  0.00  0.00     0.046 C 
ATOM     32  C   UNL d   1      -4.923   4.769   4.370  0.00  0.00     0.046 C 
ATOM     33  C   UNL d   1      -3.426   6.576   3.554  0.00  0.00     0.046 C 
ENDBRANCH  29  30
ENDBRANCH  24  29
ENDBRANCH   1  20
TORSDOF 6
