REMARK  10 active torsions:
REMARK  status: ('A' for Active; 'I' for Inactive)
REMARK    1  A    between atoms: C_9  and  C_1 
REMARK    2  A    between atoms: C_11  and  C_5 
REMARK    3  A    between atoms: C_12  and  C_5 
REMARK    4  A    between atoms: C_13  and  C_8 
REMARK    5  A    between atoms: C_10  and  N_14 
REMARK    6  A    between atoms: O_26  and  C_11 
REMARK    7  A    between atoms: O_25  and  C_12 
REMARK    8  A    between atoms: N_14  and  C_17 
REMARK    9  A    between atoms: C_29  and  O_25 
REMARK   10  A    between atoms: C_28  and  O_26 
ROOT
ATOM      1  C   UNL d   1      -1.279   2.307   0.257  0.00  0.00     0.017 A 
ATOM      2  C   UNL d   1      -0.385   3.179  -0.377  0.00  0.00     0.025 A 
ATOM      3  C   UNL d   1      -0.613   4.568  -0.419  0.00  0.00    -0.034 A 
ATOM      4  C   UNL d   1      -1.767   5.111   0.181  0.00  0.00     0.037 A 
ATOM      5  C   UNL d   1      -2.424   2.850   0.846  0.00  0.00     0.018 A 
ATOM      6  C   UNL d   1      -2.656   4.227   0.815  0.00  0.00     0.031 A 
ATOM      7  C   UNL d   1       0.398   5.444  -1.117  0.00  0.00     0.050 C 
ENDROOT
BRANCH   4   8
ATOM      8  N   UNL d   1      -1.961   6.505   0.223  0.00  0.00    -0.364 N 
ATOM      9  H   UNL d   1      -1.540   7.036  -0.538  0.00  0.00     0.165 HD
BRANCH   8  10
ATOM     10  C   UNL d   1      -2.777   7.224   1.068  0.00  0.00     0.112 C 
ATOM     11  C   UNL d   1      -3.201   8.502   0.996  0.00  0.00     0.129 C 
BRANCH  11  12
ATOM     12  C   UNL d   1      -2.917   9.395  -0.151  0.00  0.00     0.300 C 
ATOM     13  O   UNL d   1      -3.618  10.345  -0.468  0.00  0.00    -0.259 OA
BRANCH  12  14
ATOM     14  O   UNL d   1      -1.851   8.950  -0.874  0.00  0.00    -0.318 OA
BRANCH  14  15
ATOM     15  C   UNL d   1      -1.772   9.453  -2.216  0.00  0.00     0.174 C 
ATOM     16  C   UNL d   1      -2.654   8.586  -3.099  0.00  0.00     0.034 C 
ENDBRANCH  14  15
ENDBRANCH  12  14
ENDBRANCH  11  12
BRANCH  11  17
ATOM     17  C   UNL d   1      -4.161   8.908   2.047  0.00  0.00     0.300 C 
ATOM     18  O   UNL d   1      -4.859   8.122   2.674  0.00  0.00    -0.259 OA
BRANCH  17  19
ATOM     19  O   UNL d   1      -4.179  10.255   2.191  0.00  0.00    -0.318 OA
BRANCH  19  20
ATOM     20  C   UNL d   1      -5.324  10.783   2.874  0.00  0.00     0.174 C 
ATOM     21  C   UNL d   1      -6.448  10.966   1.868  0.00  0.00     0.034 C 
ENDBRANCH  19  20
ENDBRANCH  17  19
ENDBRANCH  11  17
ENDBRANCH   8  10
ENDBRANCH   4   8
BRANCH   1  22
ATOM     22  C   UNL d   1      -1.009   0.876   0.281  0.00  0.00     0.174 A 
ATOM     23  O   UNL d   1      -1.948   0.065   0.862  0.00  0.00    -0.269 OA
ATOM     24  C   UNL d   1      -1.397  -1.183   0.695  0.00  0.00     0.249 A 
ATOM     25  N   UNL d   1      -0.229  -1.133   0.078  0.00  0.00    -0.274 N 
ATOM     26  N   UNL d   1       0.019   0.197  -0.189  0.00  0.00    -0.277 N 
ATOM     27  HN  UNL d   1       0.372  -1.924  -0.156  1.00  0.00     0.189 HD
ATOM     28  HN  UNL d   1       0.838   0.581  -0.659  1.00  0.00     0.189 HD
BRANCH  24  29
ATOM     29  C   UNL d   1      -2.162  -2.352   1.196  0.00  0.00     0.457 C 
ATOM     30  F   UNL d   1      -3.319  -1.992   1.818  0.00  0.00    -0.163 F 
ATOM     31  F   UNL d   1      -2.518  -3.202   0.194  0.00  0.00    -0.163 F 
ATOM     32  F   UNL d   1      -1.457  -3.086   2.098  0.00  0.00    -0.163 F 
ENDBRANCH  24  29
ENDBRANCH   1  22
TORSDOF 10
