REMARK  4 active torsions:
REMARK  status: ('A' for Active; 'I' for Inactive)
REMARK    1  A    between atoms: C_10  and  C_2 
REMARK       I    between atoms: C_5  and  N_9 
REMARK    2  A    between atoms: C_6  and  C_5 
REMARK    3  A    between atoms: N_9  and  C_19 
REMARK    4  A    between atoms: C_19  and  C_20 
ROOT
ATOM      1  C   UNL d   1       5.961  -4.152  -0.197  0.00  0.00     0.161 C 
ENDROOT
BRANCH   1   2
ATOM      2  N   UNL d   1       5.877  -5.212  -1.174  0.00  0.00    -0.353 N 
ATOM      3  C   UNL d   1       6.893  -6.135  -1.300  0.00  0.00     0.252 C 
ATOM      4  O   UNL d   1       7.915  -6.118  -0.627  0.00  0.00    -0.268 OA
ATOM      5  H   UNL d   1       5.183  -5.125  -1.905  0.00  0.00     0.163 HD
BRANCH   3   6
ATOM      6  C   UNL d   1       6.698  -7.180  -2.338  0.00  0.00     0.035 A 
ATOM      7  C   UNL d   1       7.816  -7.695  -3.006  0.00  0.00     0.041 A 
ATOM      8  C   UNL d   1       7.642  -8.677  -3.982  0.00  0.00     0.036 A 
ATOM      9 CL   UNL d   1       9.008  -9.291  -4.829  0.00  0.00    -0.084 Cl
ATOM     10  C   UNL d   1       6.372  -9.164  -4.285  0.00  0.00     0.047 A 
ATOM     11  C   UNL d   1       5.269  -8.667  -3.594  0.00  0.00     0.036 A 
ATOM     12  C   UNL d   1       5.422  -7.680  -2.622  0.00  0.00     0.041 A 
ATOM     13 CL   UNL d   1       3.700  -9.283  -3.936  0.00  0.00    -0.084 Cl
ENDBRANCH   3   6
ENDBRANCH   1   2
BRANCH   1  14
ATOM     14  C   UNL d   1       4.691  -3.340  -0.163  0.00  0.00    -0.040 A 
ATOM     15  C   UNL d   1       3.621  -3.729   0.653  0.00  0.00     0.010 A 
ATOM     16  C   UNL d   1       2.438  -2.984   0.685  0.00  0.00     0.014 A 
ATOM     17  C   UNL d   1       2.292  -1.836  -0.105  0.00  0.00    -0.008 A 
ATOM     18  C   UNL d   1       3.354  -1.459  -0.939  0.00  0.00     0.014 A 
ATOM     19  C   UNL d   1       4.541  -2.204  -0.968  0.00  0.00     0.010 A 
BRANCH  17  20
ATOM     20  C   UNL d   1       1.063  -1.048  -0.090  0.00  0.00     0.063 A 
ATOM     21  N   UNL d   1       0.661  -0.315  -1.202  0.00  0.00    -0.292 N 
ATOM     22  N   UNL d   1      -0.481   0.319  -0.994  0.00  0.00    -0.061 NA
ATOM     23  HN  UNL d   1       1.186  -0.272  -2.076  1.00  0.00     0.183 HD
ATOM     24  S   UNL d   1      -1.094   0.066   0.540  0.00  0.00    -0.010 SA
ATOM     25  C   UNL d   1       0.215  -0.946   1.000  0.00  0.00     0.096 A 
ENDBRANCH  17  20
ENDBRANCH   1  14
TORSDOF 4
