REMARK  5 active torsions:
REMARK  status: ('A' for Active; 'I' for Inactive)
REMARK    1  A    between atoms: C_13  and  N_3 
REMARK    2  A    between atoms: C_16  and  N_10 
REMARK    3  A    between atoms: N_11  and  C_15 
REMARK    4  A    between atoms: C_14  and  C_13 
REMARK    5  A    between atoms: C_23  and  C_16 
ROOT
ATOM      1  C   UNL d   1       0.195   0.641   0.050  0.00  0.00     0.155 A 
ATOM      2  C   UNL d   1       0.318  -0.725   0.019  0.00  0.00     0.160 A 
ATOM      3  N   UNL d   1       1.485   1.087  -0.013  0.00  0.00    -0.254 N 
ATOM      4  N   UNL d   1      -0.939   1.375   0.106  0.00  0.00    -0.335 N 
ATOM      5  HN  UNL d   1      -0.952   2.394   0.153  1.00  0.00     0.168 HD
ATOM      6  N   UNL d   1       1.630  -1.083  -0.041  0.00  0.00    -0.276 N 
ATOM      7  HN  UNL d   1       1.995  -2.034  -0.075  1.00  0.00     0.184 HD
ATOM      8  N   UNL d   1       2.349   0.040  -0.047  0.00  0.00    -0.018 NA
ATOM      9  C   UNL d   1      -0.875  -1.534   0.030  0.00  0.00     0.280 A 
ATOM     10  N   UNL d   1      -2.048  -0.754   0.057  0.00  0.00    -0.304 N 
ATOM     11  C   UNL d   1      -2.010   0.640   0.093  0.00  0.00     0.188 A 
ATOM     12  O   UNL d   1      -0.874  -2.762  -0.004  0.00  0.00    -0.265 OA
ENDROOT
BRANCH  10  13
ATOM     13  C   UNL d   1      -3.330  -1.426  -0.055  0.00  0.00     0.171 C 
BRANCH  13  14
ATOM     14  C   UNL d   1      -3.983  -1.720   1.279  0.00  0.00    -0.040 A 
ATOM     15  C   UNL d   1      -4.821  -0.775   1.893  0.00  0.00     0.011 A 
ATOM     16  C   UNL d   1      -5.499  -1.086   3.077  0.00  0.00     0.037 A 
ATOM     17  C   UNL d   1      -5.336  -2.351   3.657  0.00  0.00     0.102 A 
ATOM     18  C   UNL d   1      -4.472  -3.288   3.080  0.00  0.00     0.037 A 
ATOM     19  C   UNL d   1      -3.794  -2.966   1.899  0.00  0.00     0.011 A 
BRANCH  17  20
ATOM     20  N   UNL d   1      -6.100  -2.703   4.861  0.00  0.00    -0.116 N 
ATOM     21  O   UNL d   1      -5.957  -3.845   5.322  0.00  0.00    -0.532 OA
ATOM     22  O   UNL d   1      -6.852  -1.841   5.338  0.00  0.00    -0.532 OA
ENDBRANCH  17  20
ENDBRANCH  13  14
ENDBRANCH  10  13
BRANCH   3  23
ATOM     23  C   UNL d   1       1.974   2.453   0.037  0.00  0.00     0.189 C 
BRANCH  23  24
ATOM     24  C   UNL d   1       2.183   3.025  -1.346  0.00  0.00    -0.017 A 
ATOM     25  C   UNL d   1       1.224   3.812  -2.005  0.00  0.00     0.042 A 
ATOM     26 CL   UNL d   1      -0.251   4.299  -1.252  0.00  0.00    -0.084 Cl
ATOM     27  C   UNL d   1       1.447   4.261  -3.311  0.00  0.00     0.024 A 
ATOM     28  C   UNL d   1       2.633   3.950  -3.972  0.00  0.00     0.002 A 
ATOM     29  C   UNL d   1       3.606   3.195  -3.324  0.00  0.00     0.001 A 
ATOM     30  C   UNL d   1       3.382   2.732  -2.026  0.00  0.00     0.010 A 
ENDBRANCH  23  24
ENDBRANCH   3  23
TORSDOF 5
