REMARK  4 active torsions:
REMARK  status: ('A' for Active; 'I' for Inactive)
REMARK    1  A    between atoms: N_2  and  C_1 
REMARK    2  A    between atoms: C_14  and  C_1 
REMARK    3  A    between atoms: C_10  and  C_3 
REMARK    4  A    between atoms: C_6  and  N_4 
ROOT
ATOM      1  C   UNL d   1       0.061  -1.736   0.986  0.00  0.00     0.124 C 
ATOM      2  N   UNL d   1       1.129  -1.179   3.277  0.00  0.00    -0.191 NA
ATOM      3  N   UNL d   1      -1.502  -3.788   0.818  0.00  0.00    -0.191 NA
ATOM      4  C   UNL d   1       0.300  -1.017  -0.132  0.00  0.00     0.036 C 
ATOM      5  C   UNL d   1      -0.813  -2.857   0.914  0.00  0.00     0.110 C 
ATOM      6  C   UNL d   1       0.663  -1.428   2.241  0.00  0.00     0.110 C 
ENDROOT
BRANCH   4   7
ATOM      7  C   UNL d   1       1.255   0.072  -0.258  0.00  0.00     0.032 C 
ATOM      8  C   UNL d   1       2.583  -0.076  -0.074  0.00  0.00     0.040 C 
BRANCH   8   9
ATOM      9  N   UNL d   1       3.205  -1.298   0.196  0.00  0.00    -0.377 N 
ATOM     10  C   UNL d   1       3.233  -2.381  -0.825  0.00  0.00     0.143 C 
ATOM     11  C   UNL d   1       3.229  -3.770  -0.150  0.00  0.00     0.143 C 
ATOM     12  N   UNL d   1       4.319  -3.881   0.836  0.00  0.00    -0.378 N 
ATOM     13  C   UNL d   1       4.347  -2.790   1.832  0.00  0.00     0.143 C 
ATOM     14  C   UNL d   1       4.356  -1.411   1.127  0.00  0.00     0.143 C 
BRANCH  12  15
ATOM     15  C   UNL d   1       5.270  -4.877   0.812  0.00  0.00     0.032 A 
ATOM     16  C   UNL d   1       5.889  -5.332   1.989  0.00  0.00     0.054 A 
ATOM     17  C   UNL d   1       6.880  -6.324   1.974  0.00  0.00     0.058 A 
ATOM     18 CL   UNL d   1       7.572  -6.791   3.489  0.00  0.00    -0.082 Cl
ATOM     19  C   UNL d   1       7.274  -6.894   0.766  0.00  0.00     0.055 A 
ATOM     20  C   UNL d   1       6.668  -6.474  -0.414  0.00  0.00     0.028 A 
ATOM     21 CL   UNL d   1       8.496  -8.109   0.661  0.00  0.00    -0.083 Cl
ATOM     22  C   UNL d   1       5.680  -5.482  -0.385  0.00  0.00     0.031 A 
ENDBRANCH  12  15
ENDBRANCH   8   9
BRANCH   8  23
ATOM     23  C   UNL d   1       3.424   1.139  -0.160  0.00  0.00    -0.010 A 
ATOM     24  C   UNL d   1       3.641   1.948   0.964  0.00  0.00     0.014 A 
ATOM     25  C   UNL d   1       4.457   3.081   0.877  0.00  0.00     0.007 A 
ATOM     26  C   UNL d   1       5.056   3.435  -0.337  0.00  0.00    -0.062 A 
ATOM     27  C   UNL d   1       4.820   2.642  -1.466  0.00  0.00     0.007 A 
ATOM     28  C   UNL d   1       5.942   4.645  -0.415  0.00  0.00     0.048 C 
ATOM     29  C   UNL d   1       4.013   1.502  -1.377  0.00  0.00     0.014 A 
ENDBRANCH   8  23
ENDBRANCH   4   7
TORSDOF 4
