REMARK  3 active torsions:
REMARK  status: ('A' for Active; 'I' for Inactive)
REMARK    1  A    between atoms: C_5  and  C_1 
REMARK       I    between atoms: N_8  and  C_5 
REMARK    2  A    between atoms: C_16  and  N_8 
REMARK    3  A    between atoms: C_9  and  C_16 
ROOT
ATOM      1  C   UNL d   1      -1.783  -1.240  -0.069  0.00  0.00     0.108 A 
ATOM      2  C   UNL d   1      -2.086   0.210  -0.086  0.00  0.00     0.304 A 
ATOM      3  C   UNL d   1      -0.509  -1.667  -0.016  0.00  0.00     0.037 A 
ATOM      4  O   UNL d   1      -1.010   1.092  -0.086  0.00  0.00    -0.274 OA
ATOM      5  C   UNL d   1       0.598  -0.724   0.013  0.00  0.00    -0.001 A 
ATOM      6  C   UNL d   1       0.318   0.637  -0.035  0.00  0.00     0.089 A 
ATOM      7  O   UNL d   1      -3.239   0.634  -0.104  0.00  0.00    -0.259 OA
ATOM      8  C   UNL d   1       1.931  -1.135   0.076  0.00  0.00     0.014 A 
ATOM      9  C   UNL d   1       1.328   1.595  -0.031  0.00  0.00     0.038 A 
ATOM     10  C   UNL d   1       2.657   1.179   0.029  0.00  0.00     0.003 A 
ATOM     11  C   UNL d   1       2.958  -0.184   0.085  0.00  0.00     0.001 A 
ENDROOT
BRANCH   1  12
ATOM     12  C   UNL d   1      -2.845  -2.296  -0.110  0.00  0.00     0.258 C 
ATOM     13  N   UNL d   1      -4.140  -1.857  -0.167  0.00  0.00    -0.351 N 
ATOM     14  H   UNL d   1      -4.338  -0.859  -0.236  0.00  0.00     0.163 HD
ATOM     15  O   UNL d   1      -2.563  -3.493  -0.099  0.00  0.00    -0.267 OA
BRANCH  13  16
ATOM     16  C   UNL d   1      -5.245  -2.779  -0.291  0.00  0.00     0.187 C 
BRANCH  16  17
ATOM     17  C   UNL d   1      -6.516  -2.019  -0.359  0.00  0.00     0.070 A 
ATOM     18  O   UNL d   1      -6.687  -1.209  -1.446  0.00  0.00    -0.325 OA
ATOM     19  C   UNL d   1      -7.899  -0.612  -1.311  0.00  0.00     0.142 A 
ATOM     20  C   UNL d   1      -8.515  -1.029  -0.155  0.00  0.00     0.027 A 
ATOM     21  C   UNL d   1      -7.623  -1.940   0.462  0.00  0.00     0.036 A 
ENDBRANCH  16  17
ENDBRANCH  13  16
ENDBRANCH   1  12
TORSDOF 3
