REMARK  5 active torsions:
REMARK  status: ('A' for Active; 'I' for Inactive)
REMARK    1  A    between atoms: C_8  and  C_1 
REMARK    2  A    between atoms: N_2  and  C_7 
REMARK    3  A    between atoms: C_12  and  C_8 
REMARK    4  A    between atoms: O_21  and  C_8 
REMARK    5  A    between atoms: C_20  and  C_13 
ROOT
ATOM      1  C   UNL d   1      -3.796  -0.050  -0.144  0.00  0.00     0.208 C 
ENDROOT
BRANCH   1   2
ATOM      2  C   UNL d   1      -2.313  -0.249  -0.159  0.00  0.00     0.087 A 
ATOM      3  O   UNL d   1      -1.528   0.719   0.405  0.00  0.00    -0.311 OA
ATOM      4  C   UNL d   1      -0.236   0.306   0.285  0.00  0.00     0.086 A 
ATOM      5  C   UNL d   1       0.884   1.005   0.729  0.00  0.00     0.040 A 
ATOM      6  C   UNL d   1      -0.182  -0.931  -0.348  0.00  0.00     0.003 A 
ATOM      7  C   UNL d   1       2.131   0.402   0.509  0.00  0.00     0.039 A 
ATOM      8  C   UNL d   1       2.219  -0.848  -0.125  0.00  0.00     0.103 A 
ATOM      9  C   UNL d   1       1.071  -1.535  -0.561  0.00  0.00     0.050 A 
ATOM     10  C   UNL d   1      -1.526  -1.280  -0.631  0.00  0.00     0.050 A 
BRANCH   8  11
ATOM     11  N   UNL d   1       3.536  -1.458  -0.342  0.00  0.00    -0.116 N 
ATOM     12  O   UNL d   1       3.578  -2.562  -0.905  0.00  0.00    -0.532 OA
ATOM     13  O   UNL d   1       4.535  -0.833   0.046  0.00  0.00    -0.532 OA
ENDBRANCH   8  11
ENDBRANCH   1   2
BRANCH   1  14
ATOM     14  C   UNL d   1      -4.459  -0.632   1.085  0.00  0.00    -0.023 A 
ATOM     15  C   UNL d   1      -4.116  -0.217   2.377  0.00  0.00     0.011 A 
ATOM     16  C   UNL d   1      -4.748  -0.767   3.498  0.00  0.00     0.013 A 
ATOM     17  C   UNL d   1      -5.756  -1.740   3.377  0.00  0.00    -0.026 A 
ATOM     18  C   UNL d   1      -6.081  -2.155   2.073  0.00  0.00     0.013 A 
ATOM     19  C   UNL d   1      -5.443  -1.619   0.948  0.00  0.00     0.011 A 
BRANCH  17  20
ATOM     20  C   UNL d   1      -6.441  -2.297   4.570  0.00  0.00    -0.026 A 
ATOM     21  C   UNL d   1      -6.934  -3.616   4.593  0.00  0.00     0.012 A 
ATOM     22  C   UNL d   1      -7.574  -4.140   5.721  0.00  0.00     0.001 A 
ATOM     23  C   UNL d   1      -7.727  -3.361   6.862  0.00  0.00     0.000 A 
ATOM     24  C   UNL d   1      -7.253  -2.054   6.870  0.00  0.00     0.001 A 
ATOM     25  C   UNL d   1      -6.628  -1.529   5.735  0.00  0.00     0.012 A 
ENDBRANCH  17  20
ENDBRANCH   1  14
BRANCH   1  26
ATOM     26  O   UNL d   1      -4.074   1.346  -0.237  0.00  0.00    -0.384 OA
ATOM     27  H   UNL d   1      -3.664   1.756   0.542  0.00  0.00     0.211 HD
ENDBRANCH   1  26
TORSDOF 5
