REMARK  2 active torsions:
REMARK  status: ('A' for Active; 'I' for Inactive)
REMARK    1  A    between atoms: C_2  and  N_1 
REMARK       I    between atoms: C_3  and  N_1 
REMARK    2  A    between atoms: C_4  and  C_3 
ROOT
ATOM      1  C   UNL d   1       0.455   0.917  -0.863  0.00  0.00     0.119 A 
ATOM      2  N   UNL d   1      -0.601   1.536  -0.282  0.00  0.00    -0.351 N 
ATOM      3  HN  UNL d   1      -0.867   1.341   0.683  1.00  0.00     0.166 HD
ATOM      4  C   UNL d   1       0.784   1.039  -2.235  0.00  0.00     0.018 A 
ATOM      5  C   UNL d   1       0.039   1.977  -2.982  0.00  0.00    -0.021 A 
ATOM      6  C   UNL d   1      -1.282   2.419  -1.036  0.00  0.00     0.090 A 
ATOM      7  C   UNL d   1       1.752   0.268  -2.932  0.00  0.00     0.016 A 
ATOM      8  C   UNL d   1      -0.991   2.688  -2.361  0.00  0.00     0.029 A 
ATOM      9  C   UNL d   1       0.320   2.175  -4.346  0.00  0.00     0.012 A 
ATOM     10  C   UNL d   1       2.009   0.462  -4.289  0.00  0.00     0.001 A 
ATOM     11  C   UNL d   1       1.302   1.425  -4.993  0.00  0.00     0.001 A 
ENDROOT
BRANCH   1  12
ATOM     12  N   UNL d   1       1.161   0.112   0.041  0.00  0.00    -0.308 N 
ATOM     13  C   UNL d   1       2.536   0.138   0.180  0.00  0.00     0.264 C 
ATOM     14  O   UNL d   1       3.276   0.852  -0.492  0.00  0.00    -0.267 OA
ATOM     15  H   UNL d   1       0.645  -0.081   0.888  0.00  0.00     0.170 HD
BRANCH  13  16
ATOM     16  C   UNL d   1       3.071  -0.712   1.239  0.00  0.00     0.072 A 
ATOM     17  S   UNL d   1       2.134  -1.905   2.035  0.00  0.00    -0.097 SA
ATOM     18  C   UNL d   1       3.465  -2.423   2.976  0.00  0.00     0.050 A 
ATOM     19  C   UNL d   1       4.600  -1.692   2.712  0.00  0.00     0.009 A 
ATOM     20  C   UNL d   1       4.373  -0.707   1.710  0.00  0.00     0.025 A 
ENDBRANCH  13  16
ENDBRANCH   1  12
TORSDOF 2
