REMARK  2 active torsions:
REMARK  status: ('A' for Active; 'I' for Inactive)
REMARK    1  A    between atoms: C_10  and  C_8 
REMARK    2  A    between atoms: N_13  and  C_12 
ROOT
ATOM      1  C   UNL d   1       0.749  -0.471  -0.137  0.00  0.00     0.072 A 
ATOM      2  C   UNL d   1       1.297   0.798  -0.103  0.00  0.00     0.088 A 
ATOM      3  C   UNL d   1       1.651  -1.618  -0.252  0.00  0.00     0.256 C 
ATOM      4  N   UNL d   1       2.632   1.019  -0.120  0.00  0.00    -0.358 N 
ATOM      5  N   UNL d   1       2.983  -1.299  -0.238  0.00  0.00    -0.332 N 
ATOM      6  S   UNL d   1       0.115   2.011  -0.024  0.00  0.00    -0.076 SA
ATOM      7  C   UNL d   1      -0.684  -0.436  -0.060  0.00  0.00    -0.026 A 
ATOM      8  C   UNL d   1       3.451  -0.077   0.363  0.00  0.00     0.219 C 
ATOM      9  C   UNL d   1      -1.149   0.859  -0.008  0.00  0.00    -0.008 A 
ATOM     10  O   UNL d   1       1.268  -2.777  -0.359  0.00  0.00    -0.267 OA
ATOM     11  C   UNL d   1      -1.580  -1.625  -0.045  0.00  0.00     0.041 C 
ATOM     12  C   UNL d   1      -2.572   1.282   0.074  0.00  0.00     0.047 C 
ATOM     13  C   UNL d   1      -3.075  -1.318   0.063  0.00  0.00     0.005 C 
ATOM     14  C   UNL d   1      -3.565   0.128  -0.099  0.00  0.00     0.005 C 
ATOM     15  H   UNL d   1       2.967   1.942   0.146  0.00  0.00     0.162 HD
ATOM     16  H   UNL d   1       3.597  -2.098  -0.225  0.00  0.00     0.165 HD
ENDROOT
BRANCH   8  17
ATOM     17  C   UNL d   1       4.914   0.157   0.070  0.00  0.00    -0.016 A 
ATOM     18  C   UNL d   1       5.391   0.317  -1.235  0.00  0.00     0.013 A 
ATOM     19  C   UNL d   1       6.760   0.520  -1.484  0.00  0.00     0.030 A 
ATOM     20  C   UNL d   1       7.711   0.582  -0.453  0.00  0.00     0.029 A 
ATOM     21  C   UNL d   1       7.209   0.418   0.849  0.00  0.00     0.030 A 
ATOM     22  C   UNL d   1       5.846   0.206   1.111  0.00  0.00     0.013 A 
BRANCH  20  23
ATOM     23  N   UNL d   1       9.054   0.839  -0.682  0.00  0.00    -0.390 N 
ATOM     24  C   UNL d   1      10.097   0.285   0.179  0.00  0.00     0.149 C 
ATOM     25  C   UNL d   1       9.536   1.387  -1.946  0.00  0.00     0.149 C 
ENDBRANCH  20  23
ENDBRANCH   8  17
TORSDOF 2
