REMARK  5 active torsions:
REMARK  status: ('A' for Active; 'I' for Inactive)
REMARK    1  A    between atoms: C_8  and  C_4 
REMARK    2  A    between atoms: C_10  and  C_7 
REMARK    3  A    between atoms: O_11  and  C_12 
REMARK    4  A    between atoms: C_13  and  O_11 
REMARK    5  A    between atoms: C_18  and  C_13 
ROOT
ATOM      1  N   UNL d   1       1.512   0.498  -0.664  0.00  0.00    -0.337 N 
ATOM      2  HN  UNL d   1       2.326   0.954  -0.253  1.00  0.00     0.167 HD
ATOM      3  N   UNL d   1       0.242  -0.993  -1.761  0.00  0.00    -0.307 N 
ATOM      4  C   UNL d   1       1.473  -0.623  -1.322  0.00  0.00     0.119 A 
ATOM      5  C   UNL d   1       0.198   0.933  -0.648  0.00  0.00     0.103 A 
ATOM      6  C   UNL d   1      -0.652  -0.039  -1.402  0.00  0.00     0.273 A 
ATOM      7  C   UNL d   1      -0.201   2.053  -0.033  0.00  0.00     0.046 C 
ATOM      8  O   UNL d   1      -1.836  -0.002  -1.675  0.00  0.00    -0.266 OA
ATOM      9  H   UNL d   1      -0.004  -1.777  -2.340  0.00  0.00     0.170 HD
ENDROOT
BRANCH   7  10
ATOM     10  C   UNL d   1      -1.585   2.510   0.054  0.00  0.00    -0.034 A 
ATOM     11  C   UNL d   1      -2.374   2.096   1.131  0.00  0.00     0.014 A 
ATOM     12  C   UNL d   1      -3.712   2.487   1.221  0.00  0.00     0.037 A 
ATOM     13  C   UNL d   1      -4.268   3.306   0.238  0.00  0.00     0.069 A 
ATOM     14  C   UNL d   1      -3.468   3.760  -0.812  0.00  0.00     0.037 A 
ATOM     15  C   UNL d   1      -2.137   3.345  -0.920  0.00  0.00     0.014 A 
BRANCH  13  16
ATOM     16  O   UNL d   1      -5.565   3.743   0.225  0.00  0.00    -0.347 OA
BRANCH  16  17
ATOM     17  C   UNL d   1      -6.515   2.854   0.821  0.00  0.00     0.214 C 
BRANCH  17  18
ATOM     18  C   UNL d   1      -7.912   3.426   0.727  0.00  0.00    -0.034 A 
ATOM     19  C   UNL d   1      -9.020   2.569   0.639  0.00  0.00     0.009 A 
ATOM     20  C   UNL d   1     -10.317   3.084   0.657  0.00  0.00     0.001 A 
ATOM     21  C   UNL d   1     -10.521   4.457   0.784  0.00  0.00     0.000 A 
ATOM     22  C   UNL d   1      -9.430   5.317   0.878  0.00  0.00     0.001 A 
ATOM     23  C   UNL d   1      -8.133   4.806   0.843  0.00  0.00     0.009 A 
ENDBRANCH  17  18
ENDBRANCH  16  17
ENDBRANCH  13  16
ENDBRANCH   7  10
BRANCH   4  24
ATOM     24  C   UNL d   1       2.641  -1.467  -1.607  0.00  0.00     0.008 A 
ATOM     25  C   UNL d   1       3.898  -0.861  -1.693  0.00  0.00     0.015 A 
ATOM     26  C   UNL d   1       5.035  -1.644  -1.890  0.00  0.00     0.001 A 
ATOM     27  C   UNL d   1       4.917  -3.030  -1.986  0.00  0.00     0.000 A 
ATOM     28  C   UNL d   1       3.662  -3.635  -1.909  0.00  0.00     0.001 A 
ATOM     29  C   UNL d   1       2.518  -2.855  -1.734  0.00  0.00     0.015 A 
ENDBRANCH   4  24
TORSDOF 5
