REMARK  1 active torsions:
REMARK  status: ('A' for Active; 'I' for Inactive)
REMARK       I    between atoms: C_3  and  N_1 
REMARK       I    between atoms: N_12  and  C_3 
REMARK    1  A    between atoms: C_20  and  N_12 
ROOT
ATOM      1  N   UNL d   1       0.897  -0.628  -0.174  0.00  0.00    -0.205 N 
ATOM      2  C   UNL d   1      -0.433  -1.004  -0.112  0.00  0.00     0.080 C 
ATOM      3  C   UNL d   1       2.047  -1.444  -0.249  0.00  0.00     0.346 C 
ATOM      4  C   UNL d   1      -0.911  -2.300   0.285  0.00  0.00     0.034 C 
ATOM      5  S   UNL d   1      -2.452  -2.856  -0.191  0.00  0.00    -0.087 SA
ATOM      6  C   UNL d   1      -2.423  -4.144   0.940  0.00  0.00     0.022 C 
ATOM      7  N   UNL d   1       1.034   0.737  -0.097  0.00  0.00    -0.301 N 
ATOM      8  HN  UNL d   1       1.879   1.278   0.086  1.00  0.00     0.186 HD
ATOM      9  C   UNL d   1      -3.628  -4.896   1.212  0.00  0.00     0.021 A 
ATOM     10  C   UNL d   1      -0.308  -3.194   1.154  0.00  0.00     0.023 C 
ATOM     11  C   UNL d   1      -1.183  -4.257   1.532  0.00  0.00     0.021 C 
ATOM     12  N   UNL d   1       3.043  -0.904   0.532  0.00  0.00    -0.307 N 
ATOM     13  C   UNL d   1      -1.154   0.153  -0.340  0.00  0.00     0.052 C 
ATOM     14  S   UNL d   1      -3.958  -5.510   2.784  0.00  0.00    -0.101 SA
ATOM     15  C   UNL d   1      -0.202   1.186  -0.320  0.00  0.00     0.110 C 
ATOM     16  O   UNL d   1       2.008  -2.505  -0.855  0.00  0.00    -0.245 OA
ATOM     17  C   UNL d   1      -4.673  -5.160   0.351  0.00  0.00     0.021 A 
ATOM     18  C   UNL d   1      -5.525  -6.016   2.328  0.00  0.00     0.050 A 
ATOM     19  C   UNL d   1      -5.776  -5.784   0.997  0.00  0.00     0.008 A 
ATOM     20  H   UNL d   1       2.776  -0.111   1.109  0.00  0.00     0.170 HD
ENDROOT
BRANCH  12  21
ATOM     21  C   UNL d   1       4.330  -1.432   0.693  0.00  0.00     0.036 A 
ATOM     22  C   UNL d   1       4.947  -2.210  -0.286  0.00  0.00     0.030 A 
ATOM     23  C   UNL d   1       6.280  -2.598  -0.131  0.00  0.00     0.009 A 
ATOM     24  C   UNL d   1       6.995  -2.247   1.020  0.00  0.00    -0.062 A 
ATOM     25  C   UNL d   1       6.349  -1.524   2.027  0.00  0.00     0.009 A 
ATOM     26  C   UNL d   1       8.446  -2.604   1.135  0.00  0.00     0.048 C 
ATOM     27  C   UNL d   1       5.030  -1.101   1.856  0.00  0.00     0.030 A 
ENDBRANCH  12  21
TORSDOF 1
