REMARK  6 active torsions:
REMARK  status: ('A' for Active; 'I' for Inactive)
REMARK       I    between atoms: N_2  and  C_1 
REMARK    1  A    between atoms: C_3  and  C_1 
REMARK    2  A    between atoms: C_5  and  N_2 
REMARK    3  A    between atoms: C_20  and  C_3 
REMARK    4  A    between atoms: S_8  and  C_20 
REMARK    5  A    between atoms: C_21  and  S_8 
REMARK    6  A    between atoms: C_9  and  C_21 
ROOT
ATOM      1  C   UNL d   1       0.895  -0.010  -0.196  0.00  0.00     0.222 C 
ATOM      2  N   UNL d   1       2.277   0.067  -0.136  0.00  0.00    -0.327 N 
ATOM      3  O   UNL d   1       0.236  -0.981  -0.552  0.00  0.00    -0.273 OA
ATOM      4  H   UNL d   1       2.672   0.883   0.316  0.00  0.00     0.169 HD
ENDROOT
BRANCH   1   5
ATOM      5  C   UNL d   1       0.229   1.279   0.245  0.00  0.00     0.113 C 
BRANCH   5   6
ATOM      6  C   UNL d   1      -1.291   1.146   0.237  0.00  0.00     0.083 C 
BRANCH   6   7
ATOM      7  S   UNL d   1      -2.031   2.725   0.765  0.00  0.00    -0.164 SA
BRANCH   7   8
ATOM      8  C   UNL d   1      -3.789   2.251   0.710  0.00  0.00     0.112 C 
BRANCH   8   9
ATOM      9  C   UNL d   1      -4.670   3.411   1.109  0.00  0.00    -0.049 A 
ATOM     10  C   UNL d   1      -5.117   4.330   0.147  0.00  0.00     0.009 A 
ATOM     11  C   UNL d   1      -5.912   5.417   0.520  0.00  0.00     0.024 A 
ATOM     12  C   UNL d   1      -6.261   5.594   1.857  0.00  0.00     0.034 A 
ATOM     13  C   UNL d   1      -5.817   4.698   2.826  0.00  0.00     0.024 A 
ATOM     14 CL   UNL d   1      -7.243   6.931   2.315  0.00  0.00    -0.084 Cl
ATOM     15  C   UNL d   1      -5.021   3.611   2.454  0.00  0.00     0.009 A 
ENDBRANCH   8   9
ENDBRANCH   7   8
ENDBRANCH   6   7
ENDBRANCH   5   6
ENDBRANCH   1   5
BRANCH   2  16
ATOM     16  C   UNL d   1       3.194  -0.924  -0.547  0.00  0.00     0.034 A 
ATOM     17  C   UNL d   1       2.829  -2.045  -1.299  0.00  0.00     0.031 A 
ATOM     18  C   UNL d   1       3.783  -3.000  -1.668  0.00  0.00     0.026 A 
ATOM     19  C   UNL d   1       5.108  -2.839  -1.285  0.00  0.00     0.034 A 
ATOM     20  C   UNL d   1       5.494  -1.721  -0.549  0.00  0.00     0.026 A 
ATOM     21 CL   UNL d   1       6.276  -4.023  -1.723  0.00  0.00    -0.084 Cl
ATOM     22  C   UNL d   1       4.540  -0.761  -0.188  0.00  0.00     0.031 A 
ENDBRANCH   2  16
TORSDOF 6
