REMARK  5 active torsions:
REMARK  status: ('A' for Active; 'I' for Inactive)
REMARK    1  A    between atoms: C_9  and  N_1 
REMARK    2  A    between atoms: C_10  and  C_6 
REMARK       I    between atoms: C_8  and  N_11 
REMARK    3  A    between atoms: C_13  and  C_8 
REMARK    4  A    between atoms: N_11  and  C_10 
REMARK    5  A    between atoms: C_14  and  C_13 
ROOT
ATOM      1  N   UNL d   1      -0.601  -0.527  -0.581  0.00  0.00    -0.197 N 
ATOM      2  N   UNL d   1       0.450   0.204  -1.046  0.00  0.00    -0.280 N 
ATOM      3  HN  UNL d   1       0.707   0.409  -2.011  1.00  0.00     0.189 HD
ATOM      4  N   UNL d   1      -0.650  -0.699   0.768  0.00  0.00    -0.282 N 
ATOM      5  HN  UNL d   1      -1.330  -1.221   1.321  1.00  0.00     0.189 HD
ATOM      6  C   UNL d   1       1.061   0.587   0.082  0.00  0.00     0.069 A 
ATOM      7  C   UNL d   1       0.419  -0.011   1.189  0.00  0.00     0.049 A 
ATOM      8  C   UNL d   1       0.793   0.057   2.619  0.00  0.00     0.072 C 
ENDROOT
BRANCH   6   9
ATOM      9  C   UNL d   1       2.226   1.510   0.058  0.00  0.00     0.183 C 
BRANCH   9  10
ATOM     10  N   UNL d   1       3.450   0.742   0.081  0.00  0.00    -0.355 N 
ATOM     11  C   UNL d   1       4.365   0.874   1.095  0.00  0.00     0.218 C 
ATOM     12  O   UNL d   1       4.200   1.619   2.054  0.00  0.00    -0.274 OA
ATOM     13  H   UNL d   1       3.613   0.097  -0.681  0.00  0.00     0.162 HD
BRANCH  11  14
ATOM     14  C   UNL d   1       5.599   0.002   0.955  0.00  0.00     0.111 C 
BRANCH  14  15
ATOM     15  C   UNL d   1       5.486  -1.386   1.625  0.00  0.00    -0.043 C 
ATOM     16  C   UNL d   1       4.420  -2.254   0.938  0.00  0.00     0.015 C 
ATOM     17  C   UNL d   1       6.850  -2.093   1.496  0.00  0.00     0.015 C 
ATOM     18  C   UNL d   1       5.152  -1.256   3.121  0.00  0.00     0.015 C 
ENDBRANCH  14  15
ENDBRANCH  11  14
ENDBRANCH   9  10
ENDBRANCH   6   9
BRANCH   1  19
ATOM     19  C   UNL d   1      -1.584  -1.052  -1.460  0.00  0.00     0.074 A 
ATOM     20  C   UNL d   1      -1.404  -0.941  -2.848  0.00  0.00     0.033 A 
ATOM     21  C   UNL d   1      -2.367  -1.445  -3.722  0.00  0.00     0.002 A 
ATOM     22  C   UNL d   1      -3.519  -2.047  -3.218  0.00  0.00     0.000 A 
ATOM     23  C   UNL d   1      -3.706  -2.155  -1.839  0.00  0.00     0.002 A 
ATOM     24  C   UNL d   1      -2.739  -1.666  -0.956  0.00  0.00     0.033 A 
ENDBRANCH   1  19
TORSDOF 5
