REMARK  6 active torsions:
REMARK  status: ('A' for Active; 'I' for Inactive)
REMARK    1  A    between atoms: C_6  and  C_2 
REMARK    2  A    between atoms: C_8  and  C_3 
REMARK    3  A    between atoms: C_7  and  C_4 
REMARK    4  A    between atoms: O_11  and  C_6 
REMARK    5  A    between atoms: S_10  and  C_8 
REMARK    6  A    between atoms: C_12  and  S_10 
ROOT
ATOM      1  S   UNL d   1      -1.042   0.013   0.004  0.00  0.00    -0.087 SA
ATOM      2  C   UNL d   1       0.085   1.318  -0.006  0.00  0.00     0.087 A 
ATOM      3  C   UNL d   1       1.402   0.852  -0.058  0.00  0.00    -0.024 A 
ATOM      4  C   UNL d   1       0.168  -1.191  -0.005  0.00  0.00    -0.008 A 
ATOM      5  C   UNL d   1       1.413  -0.595  -0.011  0.00  0.00     0.024 A 
ENDROOT
BRANCH   3   6
ATOM      6  C   UNL d   1       2.680   1.672  -0.080  0.00  0.00     0.119 C 
BRANCH   6   7
ATOM      7  S   UNL d   1       4.000   0.926  -1.140  0.00  0.00    -0.125 SA
BRANCH   7   8
ATOM      8  C   UNL d   1       5.433   1.929  -0.756  0.00  0.00     0.000 A 
ATOM      9  C   UNL d   1       6.704   1.337  -0.768  0.00  0.00     0.018 A 
ATOM     10  C   UNL d   1       7.845   2.083  -0.441  0.00  0.00     0.001 A 
ATOM     11  C   UNL d   1       7.724   3.429  -0.108  0.00  0.00     0.000 A 
ATOM     12  C   UNL d   1       6.473   4.037  -0.141  0.00  0.00     0.001 A 
ATOM     13  C   UNL d   1       5.336   3.296  -0.473  0.00  0.00     0.018 A 
ENDBRANCH   7   8
ENDBRANCH   6   7
ENDBRANCH   3   6
BRANCH   2  14
ATOM     14  C   UNL d   1      -0.522   2.654   0.049  0.00  0.00     0.300 C 
ATOM     15  O   UNL d   1      -1.722   2.900   0.106  0.00  0.00    -0.259 OA
BRANCH  14  16
ATOM     16  O   UNL d   1       0.432   3.634   0.049  0.00  0.00    -0.322 OA
ATOM     17  C   UNL d   1      -0.106   4.965   0.092  0.00  0.00     0.213 C 
ENDBRANCH  14  16
ENDBRANCH   2  14
BRANCH   4  18
ATOM     18  C   UNL d   1      -0.191  -2.683  -0.007  0.00  0.00    -0.018 C 
ATOM     19  C   UNL d   1      -1.004  -3.044  -1.267  0.00  0.00     0.020 C 
ATOM     20  C   UNL d   1       1.085  -3.555  -0.003  0.00  0.00     0.020 C 
ATOM     21  C   UNL d   1      -1.010  -3.054   1.245  0.00  0.00     0.020 C 
ENDBRANCH   4  18
TORSDOF 6
