REMARK  3 active torsions:
REMARK  status: ('A' for Active; 'I' for Inactive)
REMARK    1  A    between atoms: C_13  and  C_2 
REMARK    2  A    between atoms: O_14  and  C_10 
REMARK    3  A    between atoms: C_15  and  O_14 
ROOT
ATOM      1  N   UNL d   1       0.133   0.666  -0.053  0.00  0.00    -0.218 N 
ATOM      2  C   UNL d   1       1.432   1.146  -0.029  0.00  0.00     0.154 A 
ATOM      3  N   UNL d   1       2.256   0.111  -0.123  0.00  0.00    -0.282 N 
ATOM      4  HN  UNL d   1       3.274   0.165  -0.147  1.00  0.00     0.188 HD
ATOM      5  C   UNL d   1       0.250  -0.710  -0.148  0.00  0.00     0.143 A 
ATOM      6  N   UNL d   1      -1.035   1.380   0.013  0.00  0.00    -0.270 N 
ATOM      7  HN  UNL d   1      -1.075   2.397   0.083  1.00  0.00     0.190 HD
ATOM      8  N   UNL d   1       1.517  -1.048  -0.183  0.00  0.00    -0.282 N 
ATOM      9  HN  UNL d   1       1.887  -1.996  -0.244  1.00  0.00     0.188 HD
ATOM     10  C   UNL d   1      -2.080   0.622  -0.021  0.00  0.00     0.163 A 
ATOM     11  C   UNL d   1      -0.937  -1.475  -0.198  0.00  0.00     0.056 A 
ATOM     12  C   UNL d   1      -2.121  -0.850  -0.157  0.00  0.00     0.061 A 
ENDROOT
BRANCH  10  13
ATOM     13  O   UNL d   1      -3.382   1.084   0.092  0.00  0.00    -0.293 OA
BRANCH  13  14
ATOM     14  C   UNL d   1      -3.593   2.373   0.621  0.00  0.00     0.078 A 
ATOM     15  C   UNL d   1      -4.534   3.183  -0.015  0.00  0.00     0.040 A 
ATOM     16  C   UNL d   1      -4.828   4.437   0.522  0.00  0.00     0.045 A 
ATOM     17  C   UNL d   1      -4.184   4.856   1.685  0.00  0.00     0.116 A 
ATOM     18  C   UNL d   1      -3.259   4.042   2.329  0.00  0.00     0.045 A 
ATOM     19  F   UNL d   1      -4.471   6.059   2.198  0.00  0.00    -0.206 F 
ATOM     20  C   UNL d   1      -2.970   2.784   1.805  0.00  0.00     0.040 A 
ENDBRANCH  13  14
ENDBRANCH  10  13
BRANCH   2  21
ATOM     21  C   UNL d   1       1.840   2.553   0.050  0.00  0.00     0.011 A 
ATOM     22  C   UNL d   1       1.056   3.537   0.670  0.00  0.00     0.015 A 
ATOM     23  C   UNL d   1       1.481   4.868   0.722  0.00  0.00     0.001 A 
ATOM     24  C   UNL d   1       2.701   5.233   0.161  0.00  0.00     0.000 A 
ATOM     25  C   UNL d   1       3.500   4.269  -0.448  0.00  0.00     0.001 A 
ATOM     26  C   UNL d   1       3.074   2.938  -0.498  0.00  0.00     0.015 A 
ENDBRANCH   2  21
TORSDOF 3
