REMARK  8 active torsions:
REMARK  status: ('A' for Active; 'I' for Inactive)
REMARK    1  A    between atoms: C_8  and  C_1 
REMARK    2  A    between atoms: C_2  and  C_7 
REMARK    3  A    between atoms: N_3  and  C_12 
REMARK    4  A    between atoms: C_11  and  N_5 
REMARK    5  A    between atoms: O_16  and  C_9 
REMARK    6  A    between atoms: O_17  and  C_10 
REMARK    7  A    between atoms: C_15  and  C_11 
REMARK    8  A    between atoms: C_12  and  C_14 
ROOT
ATOM      1  C   UNL d   1      -0.936   6.595   0.301  0.00  0.00     0.017 A 
ATOM      2  C   UNL d   1       0.265   5.873   0.224  0.00  0.00    -0.040 A 
ATOM      3  C   UNL d   1      -2.144   5.957   0.619  0.00  0.00    -0.040 A 
ATOM      4  C   UNL d   1      -0.961   3.843   0.740  0.00  0.00     0.001 A 
ATOM      5  C   UNL d   1      -2.142   4.576   0.852  0.00  0.00     0.009 A 
ATOM      6  C   UNL d   1       0.236   4.487   0.423  0.00  0.00     0.009 A 
ENDROOT
BRANCH   2   7
ATOM      7  C   UNL d   1       1.567   6.588  -0.035  0.00  0.00     0.158 C 
BRANCH   7   8
ATOM      8  N   UNL d   1       1.907   6.628  -1.462  0.00  0.00    -0.388 N 
ATOM      9  C   UNL d   1       3.008   7.226  -1.798  0.00  0.00     0.014 C 
ATOM     10  C   UNL d   1       3.910   7.952  -0.815  0.00  0.00     0.068 C 
ATOM     11  HN  UNL d   1       1.300   6.201  -2.163  1.00  0.00     0.159 HD
BRANCH   9  12
ATOM     12  C   UNL d   1       3.396   7.232  -3.243  0.00  0.00     0.019 A 
ATOM     13  C   UNL d   1       2.410   7.205  -4.239  0.00  0.00     0.077 A 
ATOM     14  C   UNL d   1       2.758   7.255  -5.588  0.00  0.00     0.037 A 
ATOM     15  C   UNL d   1       4.102   7.300  -5.958  0.00  0.00     0.003 A 
ATOM     16  C   UNL d   1       5.095   7.289  -4.979  0.00  0.00     0.001 A 
ATOM     17  C   UNL d   1       4.745   7.253  -3.625  0.00  0.00     0.016 A 
BRANCH  13  18
ATOM     18  O   UNL d   1       1.073   7.126  -3.953  0.00  0.00    -0.360 OA
ATOM     19  H   UNL d   1       1.004   6.860  -3.006  0.00  0.00     0.217 HD
ENDBRANCH  13  18
ENDBRANCH   9  12
ENDBRANCH   7   8
ENDBRANCH   2   7
BRANCH   3  20
ATOM     20  C   UNL d   1      -3.424   6.748   0.709  0.00  0.00     0.158 C 
BRANCH  20  21
ATOM     21  N   UNL d   1      -3.669   7.268   2.060  0.00  0.00    -0.388 N 
ATOM     22  C   UNL d   1      -4.726   7.994   2.251  0.00  0.00     0.014 C 
ATOM     23  C   UNL d   1      -5.734   8.342   1.166  0.00  0.00     0.068 C 
ATOM     24  HN  UNL d   1      -3.027   7.062   2.826  1.00  0.00     0.159 HD
BRANCH  22  25
ATOM     25  C   UNL d   1      -4.991   8.556   3.631  0.00  0.00     0.019 A 
ATOM     26  C   UNL d   1      -4.119   8.310   4.702  0.00  0.00     0.077 A 
ATOM     27  C   UNL d   1      -4.366   8.849   5.969  0.00  0.00     0.037 A 
ATOM     28  C   UNL d   1      -5.493   9.639   6.186  0.00  0.00     0.003 A 
ATOM     29  C   UNL d   1      -6.372   9.891   5.137  0.00  0.00     0.001 A 
ATOM     30  C   UNL d   1      -6.122   9.354   3.870  0.00  0.00     0.016 A 
BRANCH  26  31
ATOM     31  O   UNL d   1      -2.990   7.543   4.588  0.00  0.00    -0.360 OA
ATOM     32  H   UNL d   1      -2.946   7.235   3.652  0.00  0.00     0.217 HD
ENDBRANCH  26  31
ENDBRANCH  22  25
ENDBRANCH  20  21
ENDBRANCH   3  20
TORSDOF 8
