REMARK  2 active torsions:
REMARK  status: ('A' for Active; 'I' for Inactive)
REMARK    1  A    between atoms: C_9  and  N_1 
REMARK    2  A    between atoms: C_4  and  C_11 
ROOT
ATOM      1  C   UNL d   1       0.155  -0.641   1.045  0.00  0.00     0.102 A 
ATOM      2  C   UNL d   1      -1.324  -1.657   3.205  0.00  0.00     0.009 A 
ATOM      3  C   UNL d   1       0.624  -0.463   2.352  0.00  0.00     0.037 A 
ATOM      4  C   UNL d   1      -1.044  -1.323   0.809  0.00  0.00     0.037 A 
ATOM      5  C   UNL d   1      -0.116  -0.975   3.424  0.00  0.00     0.018 A 
ATOM      6  C   UNL d   1      -1.777  -1.827   1.888  0.00  0.00     0.018 A 
ENDROOT
BRANCH   2   7
ATOM      7  C   UNL d   1      -2.071  -2.188   4.341  0.00  0.00     0.131 A 
ATOM      8  N   UNL d   1      -1.597  -2.533   5.524  0.00  0.00    -0.336 N 
ATOM      9  C   UNL d   1      -2.700  -2.970   6.199  0.00  0.00     0.199 A 
ATOM     10  HN  UNL d   1      -0.633  -2.485   5.855  1.00  0.00     0.168 HD
ATOM     11  N   UNL d   1      -3.846  -2.899   5.522  0.00  0.00    -0.295 N 
ATOM     12  N   UNL d   1      -3.427  -2.395   4.352  0.00  0.00    -0.284 N 
ATOM     13  HN  UNL d   1      -4.789  -3.157   5.814  1.00  0.00     0.187 HD
ATOM     14  H   UNL d   1      -4.101  -2.207   3.621  0.00  0.00     0.188 HD
ENDBRANCH   2   7
BRANCH   1  15
ATOM     15  N   UNL d   1       0.921  -0.113  -0.090  0.00  0.00    -0.116 N 
ATOM     16  O   UNL d   1       1.977   0.488   0.158  0.00  0.00    -0.532 OA
ATOM     17  O   UNL d   1       0.467  -0.296  -1.227  0.00  0.00    -0.532 OA
ENDBRANCH   1  15
TORSDOF 2
