REMARK  5 active torsions:
REMARK  status: ('A' for Active; 'I' for Inactive)
REMARK    1  A    between atoms: C_15  and  C_3 
REMARK    2  A    between atoms: C_16  and  N_5 
REMARK    3  A    between atoms: N_19  and  C_6 
REMARK    4  A    between atoms: C_18  and  C_12 
REMARK    5  A    between atoms: C_17  and  C_15 
ROOT
ATOM      1  C   UNL d   1      -0.999   0.611  -0.101  0.00  0.00     0.142 A 
ATOM      2  C   UNL d   1       1.341  -0.817  -0.034  0.00  0.00     0.057 A 
ATOM      3  C   UNL d   1       3.402   0.160  -0.080  0.00  0.00     0.155 A 
ATOM      4  C   UNL d   1      -1.119  -0.776  -0.032  0.00  0.00     0.046 A 
ATOM      5  N   UNL d   1      -2.264   1.160  -0.030  0.00  0.00    -0.239 N 
ATOM      6  C   UNL d   1       2.754  -1.062   0.026  0.00  0.00     0.080 A 
ATOM      7  C   UNL d   1       1.259   0.569  -0.120  0.00  0.00     0.163 A 
ATOM      8  N   UNL d   1      -3.209   0.201   0.110  0.00  0.00    -0.296 N 
ATOM      9  HN  UNL d   1      -4.208   0.330   0.273  1.00  0.00     0.187 HD
ATOM     10  N   UNL d   1       0.151   1.296  -0.158  0.00  0.00    -0.320 N 
ATOM     11  HN  UNL d   1       0.173   2.314  -0.226  1.00  0.00     0.169 HD
ATOM     12  C   UNL d   1       0.100  -1.523  -0.021  0.00  0.00     0.008 A 
ATOM     13  O   UNL d   1       2.474   1.149  -0.157  0.00  0.00    -0.286 OA
ATOM     14  C   UNL d   1      -2.540  -0.961  -0.014  0.00  0.00     0.037 C 
ATOM     15  C   UNL d   1      -3.369  -2.193  -0.081  0.00  0.00     0.070 C 
ENDROOT
BRANCH   3  16
ATOM     16  C   UNL d   1       4.799   0.543  -0.070  0.00  0.00     0.218 C 
ATOM     17  O   UNL d   1       5.688  -0.157   0.411  0.00  0.00    -0.284 OA
BRANCH  16  18
ATOM     18  C   UNL d   1       5.189   1.856  -0.673  0.00  0.00     0.017 A 
ATOM     19  C   UNL d   1       4.579   2.329  -1.846  0.00  0.00     0.017 A 
ATOM     20  C   UNL d   1       4.987   3.538  -2.415  0.00  0.00     0.020 A 
ATOM     21  C   UNL d   1       6.009   4.272  -1.818  0.00  0.00     0.011 A 
ATOM     22  C   UNL d   1       6.624   3.814  -0.653  0.00  0.00     0.020 A 
ATOM     23 BR   UNL d   1       6.575   5.896  -2.605  0.00  0.00    -0.051 Br
ATOM     24  C   UNL d   1       6.218   2.601  -0.084  0.00  0.00     0.017 A 
ENDBRANCH  16  18
ENDBRANCH   3  16
BRANCH   6  25
ATOM     25  N   UNL d   1       3.389  -2.246   0.148  0.00  0.00    -0.396 N 
ATOM     26  H   UNL d   1       2.924  -3.090   0.476  0.00  0.00     0.156 HD
ATOM     27  H   UNL d   1       4.395  -2.264   0.335  0.00  0.00     0.156 HD
ENDBRANCH   6  25
BRANCH  12  28
ATOM     28  C   UNL d   1       0.089  -2.994   0.017  0.00  0.00    -0.008 A 
ATOM     29  C   UNL d   1       0.814  -3.764  -0.898  0.00  0.00     0.100 A 
ATOM     30  N   UNL d   1       0.860  -5.120  -0.919  0.00  0.00    -0.374 N 
ATOM     31  C   UNL d   1       0.113  -5.766  -0.003  0.00  0.00     0.087 A 
ATOM     32  HN  UNL d   1       1.432  -5.626  -1.596  1.00  0.00     0.164 HD
ATOM     33  C   UNL d   1      -0.655  -5.119   0.945  0.00  0.00     0.018 A 
ATOM     34  C   UNL d   1      -0.643  -3.723   0.968  0.00  0.00     0.015 A 
ENDBRANCH  12  28
BRANCH   5  35
ATOM     35  C   UNL d   1      -2.592   2.541  -0.038  0.00  0.00     0.058 A 
ATOM     36  C   UNL d   1      -1.768   3.465  -0.701  0.00  0.00     0.031 A 
ATOM     37  C   UNL d   1      -2.044   4.828  -0.637  0.00  0.00     0.002 A 
ATOM     38  C   UNL d   1      -3.134   5.280   0.104  0.00  0.00     0.000 A 
ATOM     39  C   UNL d   1      -3.967   4.366   0.751  0.00  0.00     0.002 A 
ATOM     40  C   UNL d   1      -3.714   2.994   0.663  0.00  0.00     0.031 A 
ENDBRANCH   5  35
TORSDOF 5
