REMARK  3 active torsions:
REMARK  status: ('A' for Active; 'I' for Inactive)
REMARK    1  A    between atoms: O_14  and  C_7 
REMARK    2  A    between atoms: C_15  and  O_14 
REMARK    3  A    between atoms: C_24  and  C_15 
ROOT
ATOM      1  C   UNL d   1      -0.615  -1.736  -0.923  0.00  0.00    -0.016 C 
ATOM      2  C   UNL d   1       1.349   1.507   1.481  0.00  0.00    -0.013 C 
ATOM      3  C   UNL d   1      -2.091  -1.437  -1.202  0.00  0.00    -0.068 C 
ATOM      4  C   UNL d   1      -0.002  -0.596  -0.035  0.00  0.00     0.002 C 
ATOM      5  C   UNL d   1       0.292   1.973   0.427  0.00  0.00     0.001 C 
ATOM      6  C   UNL d   1      -0.376   0.853  -0.447  0.00  0.00    -0.004 C 
ATOM      7  C   UNL d   1       0.506   1.545   2.795  0.00  0.00     0.140 C 
ATOM      8  C   UNL d   1      -3.075  -2.344  -1.075  0.00  0.00     0.053 C 
ATOM      9  C   UNL d   1       1.994   0.118   1.301  0.00  0.00     0.012 C 
ATOM     10  C   UNL d   1       1.517  -0.678   0.103  0.00  0.00     0.007 C 
ATOM     11  C   UNL d   1      -0.491  -3.072  -0.121  0.00  0.00     0.022 C 
ATOM     12  C   UNL d   1      -1.892   0.989  -0.632  0.00  0.00     0.010 C 
ATOM     13  C   UNL d   1      -0.638   2.943   1.234  0.00  0.00     0.008 C 
ATOM     14  C   UNL d   1      -2.419  -0.029  -1.635  0.00  0.00     0.035 C 
ATOM     15  C   UNL d   1      -2.797  -3.756  -0.729  0.00  0.00     0.149 C 
ATOM     16  C   UNL d   1      -0.198   2.886   2.705  0.00  0.00     0.034 C 
ATOM     17  O   UNL d   1      -3.734  -4.538  -0.583  0.00  0.00    -0.293 OA
ATOM     18  C   UNL d   1      -1.360  -4.197  -0.655  0.00  0.00     0.084 C 
ATOM     19  C   UNL d   1       0.136  -1.877  -2.262  0.00  0.00     0.020 C 
ATOM     20  C   UNL d   1       2.503   2.544   1.472  0.00  0.00     0.018 C 
ENDROOT
BRANCH   7  21
ATOM     21  O   UNL d   1      -0.526   0.533   2.677  0.00  0.00    -0.315 OA
BRANCH  21  22
ATOM     22  C   UNL d   1      -1.255   0.157   3.747  0.00  0.00     0.258 C 
ATOM     23  O   UNL d   1      -1.017   0.468   4.909  0.00  0.00    -0.265 OA
BRANCH  22  24
ATOM     24  C   UNL d   1      -2.474  -0.618   3.295  0.00  0.00     0.106 C 
ATOM     25  C   UNL d   1      -3.668   0.310   3.164  0.00  0.00     0.015 C 
ENDBRANCH  22  24
ENDBRANCH  21  22
ENDBRANCH   7  21
TORSDOF 3
