REMARK  7 active torsions:
REMARK  status: ('A' for Active; 'I' for Inactive)
REMARK    1  A    between atoms: C_2  and  C_1 
REMARK    2  A    between atoms: N_3  and  C_1 
REMARK       I    between atoms: N_8  and  C_2 
REMARK       I    between atoms: C_4  and  N_3 
REMARK    3  A    between atoms: C_11  and  C_4 
REMARK    4  A    between atoms: C_14  and  C_5 
REMARK    5  A    between atoms: N_6  and  N_8 
REMARK    6  A    between atoms: C_16  and  C_15 
REMARK    7  A    between atoms: O_23  and  C_17 
ROOT
ATOM      1  C   UNL d   1       0.892   0.089   0.000  0.00  0.00     0.086 C 
ATOM      2  C   UNL d   1       2.239   0.093  -0.010  0.00  0.00     0.041 C 
ENDROOT
BRANCH   1   3
ATOM      3  C   UNL d   1       0.058  -0.715  -0.979  0.00  0.00     0.281 C 
ATOM      4  N   UNL d   1       0.726  -1.707  -1.671  0.00  0.00    -0.265 N 
ATOM      5  H   UNL d   1       1.697  -1.911  -1.483  0.00  0.00     0.190 HD
ATOM      6  O   UNL d   1      -1.156  -0.507  -1.032  0.00  0.00    -0.265 OA
BRANCH   4   7
ATOM      7  N   UNL d   1       0.027  -2.576  -2.462  0.00  0.00    -0.308 N 
ATOM      8  C   UNL d   1       0.737  -3.490  -3.041  0.00  0.00     0.120 C 
ATOM      9  HN  UNL d   1      -0.983  -2.508  -2.586  1.00  0.00     0.186 HD
BRANCH   8  10
ATOM     10  C   UNL d   1       0.119  -4.541  -3.862  0.00  0.00    -0.004 A 
ATOM     11  C   UNL d   1       0.920  -5.523  -4.427  0.00  0.00     0.100 A 
ATOM     12  N   UNL d   1       0.437  -6.565  -5.143  0.00  0.00    -0.374 N 
ATOM     13  C   UNL d   1      -0.906  -6.620  -5.300  0.00  0.00     0.087 A 
ATOM     14  HN  UNL d   1       1.053  -7.272  -5.543  1.00  0.00     0.164 HD
ATOM     15  C   UNL d   1      -1.783  -5.677  -4.786  0.00  0.00     0.018 A 
ATOM     16  C   UNL d   1      -1.259  -4.614  -4.054  0.00  0.00     0.015 A 
ENDBRANCH   8  10
ENDBRANCH   4   7
ENDBRANCH   1   3
BRANCH   1  17
ATOM     17  N   UNL d   1       0.143   0.812   0.925  0.00  0.00    -0.220 NA
ATOM     18  C   UNL d   1       0.137   2.201   0.873  0.00  0.00     0.235 C 
ATOM     19  O   UNL d   1       0.713   2.882   0.031  0.00  0.00    -0.274 OA
ATOM     20  H   UNL d   1      -0.805   0.455   1.039  0.00  0.00     0.137 HD
BRANCH  18  21
ATOM     21  C   UNL d   1      -0.703   2.868   1.899  0.00  0.00     0.026 A 
ATOM     22  C   UNL d   1      -0.670   2.435   3.230  0.00  0.00     0.016 A 
ATOM     23  C   UNL d   1      -1.389   3.138   4.204  0.00  0.00     0.001 A 
ATOM     24  C   UNL d   1      -2.142   4.256   3.844  0.00  0.00     0.000 A 
ATOM     25  C   UNL d   1      -2.182   4.679   2.515  0.00  0.00     0.001 A 
ATOM     26  C   UNL d   1      -1.457   3.990   1.541  0.00  0.00     0.016 A 
ENDBRANCH  18  21
ENDBRANCH   1  17
BRANCH   2  27
ATOM     27  C   UNL d   1       3.075   0.609   1.082  0.00  0.00    -0.034 A 
ATOM     28  C   UNL d   1       3.365  -0.232   2.165  0.00  0.00     0.014 A 
ATOM     29  C   UNL d   1       4.164   0.215   3.222  0.00  0.00     0.037 A 
ATOM     30  C   UNL d   1       4.674   1.513   3.206  0.00  0.00     0.068 A 
ATOM     31  C   UNL d   1       4.407   2.343   2.114  0.00  0.00     0.037 A 
ATOM     32  C   UNL d   1       3.607   1.897   1.057  0.00  0.00     0.014 A 
BRANCH  30  33
ATOM     33  O   UNL d   1       5.471   2.054   4.177  0.00  0.00    -0.356 OA
ATOM     34  C   UNL d   1       5.272   1.538   5.489  0.00  0.00     0.210 C 
ENDBRANCH  30  33
ENDBRANCH   2  27
TORSDOF 7
