REMARK  5 active torsions:
REMARK  status: ('A' for Active; 'I' for Inactive)
REMARK    1  A    between atoms: N_2  and  C_1 
REMARK    2  A    between atoms: N_4  and  C_1 
REMARK    3  A    between atoms: C_8  and  N_2 
REMARK    4  A    between atoms: C_3  and  C_6 
REMARK    5  A    between atoms: C_6  and  N_4 
ROOT
ATOM      1  C   UNL d   1       1.022  -0.046  -0.110  0.00  0.00     0.172 C 
ATOM      2  S   UNL d   1       0.424  -0.830  -1.466  0.00  0.00    -0.041 SA
ENDROOT
BRANCH   1   3
ATOM      3  N   UNL d   1       2.287   0.508   0.005  0.00  0.00    -0.333 N 
ATOM      4  H   UNL d   1       2.784   0.288   0.858  0.00  0.00     0.168 HD
BRANCH   3   5
ATOM      5  C   UNL d   1       3.013   1.201  -0.991  0.00  0.00     0.034 A 
ATOM      6  C   UNL d   1       2.380   1.842  -2.062  0.00  0.00     0.031 A 
ATOM      7  C   UNL d   1       3.123   2.550  -3.010  0.00  0.00     0.026 A 
ATOM      8  C   UNL d   1       4.504   2.632  -2.880  0.00  0.00     0.034 A 
ATOM      9  C   UNL d   1       5.146   2.024  -1.802  0.00  0.00     0.026 A 
ATOM     10 CL   UNL d   1       5.421   3.500  -4.048  0.00  0.00    -0.084 Cl
ATOM     11  C   UNL d   1       4.398   1.319  -0.850  0.00  0.00     0.031 A 
ENDBRANCH   3   5
ENDBRANCH   1   3
BRANCH   1  12
ATOM     12  N   UNL d   1       0.308   0.124   1.060  0.00  0.00    -0.363 N 
ATOM     13  H   UNL d   1       0.786   0.551   1.842  0.00  0.00     0.162 HD
BRANCH  12  14
ATOM     14  C   UNL d   1      -1.132  -0.038   1.185  0.00  0.00     0.162 C 
BRANCH  14  15
ATOM     15  C   UNL d   1      -1.662   0.717   2.376  0.00  0.00    -0.019 A 
ATOM     16  C   UNL d   1      -1.857   0.122   3.632  0.00  0.00     0.042 A 
ATOM     17 CL   UNL d   1      -1.504  -1.542   3.922  0.00  0.00    -0.084 Cl
ATOM     18  C   UNL d   1      -2.340   0.879   4.706  0.00  0.00     0.024 A 
ATOM     19  C   UNL d   1      -2.623   2.234   4.543  0.00  0.00     0.002 A 
ATOM     20  C   UNL d   1      -2.421   2.841   3.307  0.00  0.00     0.001 A 
ATOM     21  C   UNL d   1      -1.942   2.090   2.234  0.00  0.00     0.010 A 
ENDBRANCH  14  15
ENDBRANCH  12  14
ENDBRANCH   1  12
TORSDOF 5
