REMARK  2 active torsions:
REMARK  status: ('A' for Active; 'I' for Inactive)
REMARK    1  A    between atoms: C_7  and  N_1 
REMARK    2  A    between atoms: C_9  and  C_2 
ROOT
ATOM      1  N   UNL d   1       0.954  -0.706  -0.016  0.00  0.00    -0.271 N 
ATOM      2  C   UNL d   1       0.920   0.675  -0.004  0.00  0.00     0.139 A 
ATOM      3  N   UNL d   1      -0.282   1.184   0.027  0.00  0.00    -0.282 N 
ATOM      4  HN  UNL d   1      -0.539   2.170   0.059  1.00  0.00     0.188 HD
ATOM      5  C   UNL d   1      -0.388  -1.076  -0.000  0.00  0.00     0.199 A 
ATOM      6  N   UNL d   1      -1.111   0.112   0.008  0.00  0.00    -0.274 N 
ATOM      7  S   UNL d   1      -1.165  -2.543   0.096  0.00  0.00    -0.039 SA
ATOM      8  H   UNL d   1      -2.118   0.202   0.070  0.00  0.00     0.189 HD
ENDROOT
BRANCH   2   9
ATOM      9  C   UNL d   1       2.103   1.561  -0.066  0.00  0.00     0.013 A 
ATOM     10  C   UNL d   1       3.208   1.274  -0.868  0.00  0.00     0.032 A 
ATOM     11  C   UNL d   1       4.305   2.112  -0.782  0.00  0.00     0.088 A 
ATOM     12  N   UNL d   1       4.340   3.223  -0.016  0.00  0.00    -0.375 N 
ATOM     13  C   UNL d   1       3.225   3.521   0.685  0.00  0.00     0.088 A 
ATOM     14  HN  UNL d   1       5.171   3.811   0.031  1.00  0.00     0.164 HD
ATOM     15  C   UNL d   1       2.092   2.729   0.694  0.00  0.00     0.032 A 
ENDBRANCH   2   9
BRANCH   1  16
ATOM     16  C   UNL d   1       2.074  -1.577   0.073  0.00  0.00     0.043 A 
ATOM     17  C   UNL d   1       3.203  -1.241   0.838  0.00  0.00     0.030 A 
ATOM     18  C   UNL d   1       4.345  -2.047   0.845  0.00  0.00     0.002 A 
ATOM     19  C   UNL d   1       4.362  -3.237   0.126  0.00  0.00     0.000 A 
ATOM     20  C   UNL d   1       3.239  -3.615  -0.601  0.00  0.00     0.002 A 
ATOM     21  C   UNL d   1       2.111  -2.788  -0.635  0.00  0.00     0.030 A 
ENDBRANCH   1  16
TORSDOF 2
