REMARK  7 active torsions:
REMARK  status: ('A' for Active; 'I' for Inactive)
REMARK    1  A    between atoms: C_2  and  S_1 
REMARK    2  A    between atoms: N_4  and  S_1 
REMARK    3  A    between atoms: C_16  and  N_4 
REMARK       I    between atoms: C_6  and  N_12 
REMARK    4  A    between atoms: C_14  and  C_6 
REMARK    5  A    between atoms: N_7  and  C_13 
REMARK    6  A    between atoms: C_17  and  C_8 
REMARK    7  A    between atoms: N_12  and  C_17 
ROOT
ATOM      1  C   UNL d   1       2.762  -0.072  -0.033  0.00  0.00     0.120 A 
ATOM      2  S   UNL d   1       3.497  -1.444   0.678  0.00  0.00    -0.080 SA
ATOM      3  C   UNL d   1       3.700   0.784  -0.573  0.00  0.00     0.034 A 
ATOM      4  C   UNL d   1       5.072  -0.897   0.276  0.00  0.00     0.002 A 
ATOM      5  C   UNL d   1       5.031   0.302  -0.405  0.00  0.00     0.018 A 
ENDROOT
BRANCH   1   6
ATOM      6  S   UNL d   1       0.980  -0.038  -0.051  0.00  0.00     0.269 S 
ATOM      7  O   UNL d   1       0.630   1.352  -0.301  0.00  0.00    -0.200 OA
ATOM      8  O   UNL d   1       0.526  -0.717   1.140  0.00  0.00    -0.200 OA
BRANCH   6   9
ATOM      9  N   UNL d   1       0.506  -0.977  -1.363  0.00  0.00    -0.280 N 
ATOM     10  H   UNL d   1      -0.362  -1.492  -1.230  0.00  0.00     0.179 HD
BRANCH   9  11
ATOM     11  C   UNL d   1       0.860  -0.546  -2.665  0.00  0.00     0.042 A 
ATOM     12  C   UNL d   1       1.976  -1.131  -3.251  0.00  0.00     0.032 A 
ATOM     13  C   UNL d   1       2.391  -0.729  -4.518  0.00  0.00     0.031 A 
ATOM     14  C   UNL d   1       1.710   0.260  -5.243  0.00  0.00     0.030 A 
ATOM     15  C   UNL d   1       0.582   0.831  -4.631  0.00  0.00     0.031 A 
ATOM     16  C   UNL d   1       0.151   0.432  -3.353  0.00  0.00     0.032 A 
BRANCH  14  17
ATOM     17  N   UNL d   1       2.165   0.656  -6.484  0.00  0.00    -0.381 N 
ATOM     18  C   UNL d   1       2.021   2.025  -6.974  0.00  0.00     0.123 C 
ATOM     19  C   UNL d   1       3.381   2.508  -7.489  0.00  0.00     0.020 C 
ATOM     20  C   UNL d   1       3.986   1.541  -8.507  0.00  0.00     0.003 C 
ATOM     21  C   UNL d   1       4.022   0.111  -7.968  0.00  0.00     0.020 C 
ATOM     22  C   UNL d   1       2.648  -0.322  -7.462  0.00  0.00     0.123 C 
ENDBRANCH  14  17
ENDBRANCH   9  11
ENDBRANCH   6   9
ENDBRANCH   1   6
BRANCH   4  23
ATOM     23  C   UNL d   1       6.278  -1.687   0.676  0.00  0.00     0.169 C 
BRANCH  23  24
ATOM     24  N   UNL d   1       6.549  -2.696  -0.321  0.00  0.00    -0.352 N 
ATOM     25  C   UNL d   1       7.458  -2.501  -1.334  0.00  0.00     0.251 C 
ATOM     26  O   UNL d   1       8.066  -1.452  -1.521  0.00  0.00    -0.268 OA
ATOM     27  H   UNL d   1       5.931  -3.496  -0.353  0.00  0.00     0.163 HD
BRANCH  25  28
ATOM     28  C   UNL d   1       7.678  -3.662  -2.238  0.00  0.00     0.032 A 
ATOM     29  C   UNL d   1       7.968  -3.430  -3.588  0.00  0.00     0.018 A 
ATOM     30  C   UNL d   1       8.188  -4.506  -4.453  0.00  0.00     0.025 A 
ATOM     31  C   UNL d   1       8.134  -5.812  -3.963  0.00  0.00     0.034 A 
ATOM     32  C   UNL d   1       7.868  -6.051  -2.615  0.00  0.00     0.025 A 
ATOM     33 CL   UNL d   1       8.403  -7.137  -5.026  0.00  0.00    -0.084 Cl
ATOM     34  C   UNL d   1       7.642  -4.977  -1.750  0.00  0.00     0.018 A 
ENDBRANCH  25  28
ENDBRANCH  23  24
ENDBRANCH   4  23
TORSDOF 7
