REMARK  4 active torsions:
REMARK  status: ('A' for Active; 'I' for Inactive)
REMARK       I    between atoms: N_3  and  C_1 
REMARK       I    between atoms: N_9  and  C_1 
REMARK    1  A    between atoms: C_2  and  C_4 
REMARK    2  A    between atoms: C_6  and  N_5 
REMARK    3  A    between atoms: C_21  and  N_9 
REMARK    4  A    between atoms: C_12  and  C_13 
ROOT
ATOM      1  C   UNL d   1       0.917   0.020  -0.244  0.00  0.00     0.322 C 
ATOM      2  N   UNL d   1       0.337   1.220  -0.643  0.00  0.00    -0.332 N 
ATOM      3  N   UNL d   1      -1.625   2.680  -2.260  0.00  0.00    -0.366 N 
ATOM      4  N   UNL d   1       0.548  -0.452   0.993  0.00  0.00    -0.309 N 
ATOM      5  O   UNL d   1       1.743  -0.532  -0.971  0.00  0.00    -0.247 OA
ATOM      6  C   UNL d   1      -0.791   1.954  -0.026  0.00  0.00     0.147 C 
ATOM      7  C   UNL d   1      -2.022   2.174  -0.943  0.00  0.00     0.144 C 
ATOM      8  C   UNL d   1       0.327   1.443  -3.132  0.00  0.00     0.040 C 
ATOM      9  C   UNL d   1       0.949   1.867  -1.806  0.00  0.00     0.129 C 
ATOM     10  C   UNL d   1      -1.176   1.681  -3.227  0.00  0.00     0.126 C 
ATOM     11  H   UNL d   1      -0.105   0.094   1.523  0.00  0.00     0.170 HD
ENDROOT
BRANCH   4  12
ATOM     12  C   UNL d   1       1.167  -1.498   1.718  0.00  0.00     0.036 A 
ATOM     13  C   UNL d   1       2.234  -2.256   1.243  0.00  0.00     0.030 A 
ATOM     14  C   UNL d   1       2.909  -3.147   2.085  0.00  0.00     0.010 A 
ATOM     15  C   UNL d   1       2.535  -3.321   3.427  0.00  0.00    -0.051 A 
ATOM     16  C   UNL d   1       1.392  -2.632   3.861  0.00  0.00     0.010 A 
ATOM     17  C   UNL d   1       0.722  -1.731   3.022  0.00  0.00     0.030 A 
BRANCH  15  18
ATOM     18  C   UNL d   1       3.401  -4.183   4.360  0.00  0.00    -0.024 C 
ATOM     19  C   UNL d   1       2.868  -4.247   5.808  0.00  0.00     0.019 C 
ATOM     20  C   UNL d   1       3.493  -5.628   3.829  0.00  0.00     0.019 C 
ATOM     21  C   UNL d   1       4.825  -3.583   4.427  0.00  0.00     0.019 C 
ENDBRANCH  15  18
ENDBRANCH   4  12
BRANCH   3  22
ATOM     22  C   UNL d   1      -2.061   3.912  -2.697  0.00  0.00     0.102 A 
ATOM     23  N   UNL d   1      -3.179   4.448  -2.162  0.00  0.00    -0.352 N 
ATOM     24  C   UNL d   1      -3.606   5.652  -2.614  0.00  0.00     0.106 A 
ATOM     25  HN  UNL d   1      -3.693   3.956  -1.431  1.00  0.00     0.166 HD
ATOM     26  C   UNL d   1      -2.949   6.404  -3.572  0.00  0.00     0.063 A 
ATOM     27  C   UNL d   1      -1.772   5.868  -4.094  0.00  0.00     0.021 A 
ATOM     28  C   UNL d   1      -1.338   4.619  -3.660  0.00  0.00     0.049 A 
BRANCH  26  29
ATOM     29  C   UNL d   1      -3.472   7.730  -4.018  0.00  0.00     0.418 C 
ATOM     30  F   UNL d   1      -4.657   8.074  -3.440  0.00  0.00    -0.166 F 
ATOM     31  F   UNL d   1      -2.613   8.750  -3.740  0.00  0.00    -0.166 F 
ATOM     32  F   UNL d   1      -3.686   7.781  -5.362  0.00  0.00    -0.166 F 
ENDBRANCH  26  29
ENDBRANCH   3  22
TORSDOF 4
