REMARK  4 active torsions:
REMARK  status: ('A' for Active; 'I' for Inactive)
REMARK    1  A    between atoms: C_8  and  N_2 
REMARK    2  A    between atoms: S_4  and  C_9 
REMARK    3  A    between atoms: C_7  and  S_4 
REMARK    4  A    between atoms: C_9  and  C_8 
ROOT
ATOM      1  C   UNL d   1       2.380  -2.133  -0.002  0.00  0.00     0.160 C 
ENDROOT
BRANCH   1   2
ATOM      2  N   UNL d   1       1.139  -1.371   0.247  0.00  0.00    -0.236 N 
ATOM      3  S   UNL d   1       1.311   0.142   0.997  0.00  0.00     0.268 S 
ATOM      4  C   UNL d   1      -0.307   0.643   0.607  0.00  0.00     0.095 A 
ATOM      5  O   UNL d   1       1.408  -0.055   2.422  0.00  0.00    -0.200 OA
ATOM      6  O   UNL d   1       2.233   0.945   0.231  0.00  0.00    -0.200 OA
ATOM      7  C   UNL d   1      -0.937  -0.313  -0.174  0.00  0.00     0.056 A 
ATOM      8  C   UNL d   1      -0.919   1.825   0.989  0.00  0.00     0.026 A 
ATOM      9  C   UNL d   1      -2.234  -0.105  -0.621  0.00  0.00     0.018 A 
ATOM     10  C   UNL d   1      -0.093  -1.492  -0.449  0.00  0.00     0.269 A 
ATOM     11  C   UNL d   1      -2.879   1.081  -0.252  0.00  0.00     0.001 A 
ATOM     12  C   UNL d   1      -2.227   2.037   0.549  0.00  0.00     0.002 A 
ATOM     13  O   UNL d   1      -0.408  -2.424  -1.163  0.00  0.00    -0.266 OA
ENDBRANCH   1   2
BRANCH   1  14
ATOM     14  C   UNL d   1       2.174  -3.642   0.030  0.00  0.00     0.167 C 
BRANCH  14  15
ATOM     15  S   UNL d   1       3.749  -4.441  -0.221  0.00  0.00     0.178 S 
ATOM     16  O   UNL d   1       4.239  -4.128  -1.548  0.00  0.00    -0.223 OA
ATOM     17  O   UNL d   1       4.558  -4.117   0.941  0.00  0.00    -0.223 OA
BRANCH  15  18
ATOM     18  C   UNL d   1       3.473  -6.199  -0.170  0.00  0.00     0.081 A 
ATOM     19  C   UNL d   1       2.644  -6.858  -1.082  0.00  0.00     0.057 A 
ATOM     20  C   UNL d   1       2.459  -8.244  -0.974  0.00  0.00     0.049 A 
ATOM     21 CL   UNL d   1       1.843  -6.083  -2.397  0.00  0.00    -0.083 Cl
ATOM     22  C   UNL d   1       3.132  -8.970   0.006  0.00  0.00     0.035 A 
ATOM     23  C   UNL d   1       4.004  -8.329   0.880  0.00  0.00     0.025 A 
ATOM     24 CL   UNL d   1       2.894 -10.669   0.128  0.00  0.00    -0.084 Cl
ATOM     25  C   UNL d   1       4.172  -6.945   0.797  0.00  0.00     0.027 A 
ENDBRANCH  15  18
ENDBRANCH  14  15
ENDBRANCH   1  14
TORSDOF 4
