REMARK  6 active torsions:
REMARK  status: ('A' for Active; 'I' for Inactive)
REMARK    1  A    between atoms: C_2  and  C_1 
REMARK    2  A    between atoms: O_8  and  C_1 
REMARK    3  A    between atoms: N_4  and  C_7 
REMARK    4  A    between atoms: C_9  and  N_4 
REMARK    5  A    between atoms: C_10  and  C_9 
REMARK    6  A    between atoms: O_18  and  C_11 
ROOT
ATOM      1  N   UNL d   1      -1.775  -3.897  -3.050  0.00  0.00    -0.289 NA
ATOM      2  H   UNL d   1      -2.047  -3.456  -3.924  0.00  0.00     0.128 HD
ENDROOT
BRANCH   1   3
ATOM      3  C   UNL d   1      -1.164  -3.003  -2.163  0.00  0.00     0.008 A 
ATOM      4  C   UNL d   1      -1.344  -1.624  -2.359  0.00  0.00     0.024 A 
ATOM      5  C   UNL d   1      -0.809  -0.683  -1.470  0.00  0.00     0.020 A 
ATOM      6  C   UNL d   1      -0.123  -1.114  -0.332  0.00  0.00     0.037 A 
ATOM      7  C   UNL d   1       0.047  -2.481  -0.109  0.00  0.00     0.020 A 
ATOM      8  C   UNL d   1      -0.482  -3.413  -1.011  0.00  0.00     0.024 A 
BRANCH   6   9
ATOM      9  C   UNL d   1       0.458  -0.163   0.648  0.00  0.00     0.176 C 
ATOM     10  O   UNL d   1       1.482  -0.392   1.266  0.00  0.00    -0.646 OA
BRANCH   9  11
ATOM     11  O   UNL d   1      -0.279   0.955   0.822  0.00  0.00    -0.773 OA
ATOM     12  H   UNL d   1      -1.165   0.927   0.418  0.00  0.00     0.167 HD
ENDBRANCH   9  11
ENDBRANCH   6   9
ENDBRANCH   1   3
BRANCH   1  13
ATOM     13  C   UNL d   1      -1.128  -5.185  -3.283  0.00  0.00     0.131 C 
BRANCH  13  14
ATOM     14  C   UNL d   1      -1.882  -5.951  -4.346  0.00  0.00    -0.045 A 
ATOM     15  C   UNL d   1      -1.563  -5.803  -5.703  0.00  0.00     0.011 A 
ATOM     16  C   UNL d   1      -2.253  -6.528  -6.684  0.00  0.00     0.037 A 
ATOM     17  C   UNL d   1      -3.275  -7.405  -6.321  0.00  0.00     0.068 A 
ATOM     18  C   UNL d   1      -3.607  -7.540  -4.971  0.00  0.00     0.037 A 
ATOM     19  C   UNL d   1      -2.924  -6.817  -3.991  0.00  0.00     0.011 A 
BRANCH  17  20
ATOM     20  O   UNL d   1      -4.020  -8.174  -7.172  0.00  0.00    -0.356 OA
ATOM     21  C   UNL d   1      -3.721  -8.076  -8.559  0.00  0.00     0.210 C 
ENDBRANCH  17  20
ENDBRANCH  13  14
ENDBRANCH   1  13
TORSDOF 6
