REMARK  4 active torsions:
REMARK  status: ('A' for Active; 'I' for Inactive)
REMARK    1  A    between atoms: C_6  and  N_1 
REMARK    2  A    between atoms: C_5  and  C_6 
REMARK       I    between atoms: N_14  and  C_5 
REMARK    3  A    between atoms: C_7  and  C_13 
REMARK    4  A    between atoms: N_8  and  N_14 
ROOT
ATOM      1  C   UNL d   1       2.556   2.894  -0.444  0.00  0.00     0.254 C 
ATOM      2  N   UNL d   1       3.598   2.328  -1.169  0.00  0.00    -0.269 N 
ATOM      3  O   UNL d   1       2.670   3.725   0.454  0.00  0.00    -0.270 OA
ATOM      4  H   UNL d   1       3.413   1.392  -1.544  0.00  0.00     0.190 HD
ENDROOT
BRANCH   1   5
ATOM      5  C   UNL d   1       1.184   2.333  -0.876  0.00  0.00     0.236 C 
BRANCH   5   6
ATOM      6  N   UNL d   1       0.733   1.129  -0.154  0.00  0.00    -0.307 N 
ATOM      7  C   UNL d   1       1.637   0.058  -0.104  0.00  0.00     0.234 C 
ATOM      8  C   UNL d   1       1.319  -1.002   0.918  0.00  0.00     0.182 C 
ATOM      9  O   UNL d   1       2.653  -0.002  -0.801  0.00  0.00    -0.272 OA
ATOM     10  S   UNL d   1      -0.116  -1.912   0.353  0.00  0.00    -0.118 SA
ATOM     11  C   UNL d   1      -1.170  -0.494   0.074  0.00  0.00     0.028 A 
ATOM     12  C   UNL d   1      -0.691   0.833  -0.088  0.00  0.00     0.054 A 
ATOM     13  C   UNL d   1      -2.543  -0.780  -0.009  0.00  0.00     0.021 A 
ATOM     14  C   UNL d   1      -1.656   1.841  -0.262  0.00  0.00     0.031 A 
ATOM     15  C   UNL d   1      -3.025   1.546  -0.331  0.00  0.00     0.002 A 
ATOM     16  C   UNL d   1      -3.467   0.236  -0.219  0.00  0.00     0.002 A 
ENDBRANCH   5   6
ENDBRANCH   1   5
BRANCH   2  17
ATOM     17  N   UNL d   1       4.902   2.672  -0.934  0.00  0.00    -0.308 N 
ATOM     18  C   UNL d   1       5.763   1.877  -1.498  0.00  0.00     0.126 C 
ATOM     19  HN  UNL d   1       5.173   3.477  -0.370  1.00  0.00     0.186 HD
BRANCH  18  20
ATOM     20  C   UNL d   1       7.181   2.090  -1.369  0.00  0.00     0.021 A 
ATOM     21  S   UNL d   1       8.255   1.058  -2.211  0.00  0.00    -0.101 SA
ATOM     22  C   UNL d   1       9.624   1.895  -1.616  0.00  0.00     0.050 A 
ATOM     23  C   UNL d   1       9.271   2.934  -0.783  0.00  0.00     0.008 A 
ATOM     24  C   UNL d   1       7.857   3.047  -0.641  0.00  0.00     0.021 A 
ENDBRANCH  18  20
ENDBRANCH   2  17
TORSDOF 4
