REMARK  2 active torsions:
REMARK  status: ('A' for Active; 'I' for Inactive)
REMARK    1  A    between atoms: C_3  and  C_1 
REMARK       I    between atoms: N_2  and  C_3 
REMARK       I    between atoms: C_5  and  N_2 
REMARK       I    between atoms: N_10  and  C_5 
REMARK    2  A    between atoms: C_13  and  N_10 
ROOT
ATOM      1  N   UNL d   1       5.250   0.577  -0.459  0.00  0.00    -0.174 NA
ATOM      2  C   UNL d   1       5.906   1.450   0.385  0.00  0.00     0.257 C 
ATOM      3  C   UNL d   1       4.051   0.036  -0.083  0.00  0.00     0.305 C 
ATOM      4  N   UNL d   1       3.077   0.948   0.232  0.00  0.00    -0.313 N 
ATOM      5  O   UNL d   1       3.945  -1.186  -0.081  0.00  0.00    -0.253 OA
ATOM      6  O   UNL d   1       5.362   2.398   0.946  0.00  0.00    -0.272 OA
ATOM      7  H   UNL d   1       5.856  -0.169  -0.782  0.00  0.00     0.141 HD
ATOM      8  H   UNL d   1       3.364   1.920   0.177  0.00  0.00     0.170 HD
ENDROOT
BRANCH   4   9
ATOM      9  C   UNL d   1       1.739   0.690   0.591  0.00  0.00     0.037 A 
ATOM     10  C   UNL d   1       1.228  -0.593   0.816  0.00  0.00     0.056 A 
ATOM     11  C   UNL d   1      -0.118  -0.764   1.154  0.00  0.00     0.074 A 
ATOM     12 CL   UNL d   1      -0.725  -2.351   1.439  0.00  0.00    -0.081 Cl
ATOM     13  C   UNL d   1      -0.956   0.341   1.262  0.00  0.00     0.138 A 
ATOM     14  C   UNL d   1      -0.461   1.622   1.045  0.00  0.00     0.046 A 
ATOM     15  F   UNL d   1      -2.252   0.195   1.575  0.00  0.00    -0.204 F 
ATOM     16  C   UNL d   1       0.886   1.796   0.718  0.00  0.00     0.032 A 
ENDBRANCH   4   9
BRANCH   2  17
ATOM     17  C   UNL d   1       7.340   1.193   0.470  0.00  0.00     0.115 A 
ATOM     18  N   UNL d   1       7.947   0.278  -0.391  0.00  0.00    -0.288 N 
ATOM     19  N   UNL d   1       9.245   0.175  -0.165  0.00  0.00    -0.061 NA
ATOM     20  HN  UNL d   1       7.449  -0.249  -1.108  1.00  0.00     0.183 HD
ATOM     21  S   UNL d   1       9.766   1.146   1.093  0.00  0.00    -0.010 SA
ATOM     22  C   UNL d   1       8.200   1.782   1.381  0.00  0.00     0.101 A 
ENDBRANCH   2  17
TORSDOF 2
