REMARK  1 active torsions:
REMARK  status: ('A' for Active; 'I' for Inactive)
REMARK       I    between atoms: C_2  and  N_1 
REMARK    1  A    between atoms: C_3  and  C_2 
ROOT
ATOM      1  N   UNL d   1       0.379  -1.479   0.687  0.00  0.00    -0.311 N 
ATOM      2  C   UNL d   1       0.473  -2.051   1.963  0.00  0.00     0.260 C 
ATOM      3  C   UNL d   1      -0.673  -0.640   0.243  0.00  0.00     0.064 A 
ATOM      4  N   UNL d   1       0.866   1.276   0.053  0.00  0.00    -0.325 N 
ATOM      5  C   UNL d   1      -0.425   0.728  -0.005  0.00  0.00     0.061 A 
ATOM      6  C   UNL d   1       2.035   0.650  -0.304  0.00  0.00     0.223 C 
ATOM      7  C   UNL d   1       1.426  -1.789  -0.288  0.00  0.00     0.142 C 
ATOM      8  C   UNL d   1       1.914  -0.618  -1.110  0.00  0.00     0.123 C 
ATOM      9  O   UNL d   1       1.333  -2.896   2.221  0.00  0.00    -0.267 OA
ATOM     10  O   UNL d   1       3.119   1.183  -0.075  0.00  0.00    -0.273 OA
ATOM     11  C   UNL d   1      -1.982  -1.129   0.189  0.00  0.00     0.032 A 
ATOM     12  C   UNL d   1      -1.498   1.602  -0.195  0.00  0.00     0.032 A 
ATOM     13  C   UNL d   1      -3.040  -0.261  -0.093  0.00  0.00     0.002 A 
ATOM     14  C   UNL d   1      -2.799   1.103  -0.262  0.00  0.00     0.002 A 
ATOM     15  H   UNL d   1       0.983   2.250   0.310  0.00  0.00     0.169 HD
ENDROOT
BRANCH   2  16
ATOM     16  C   UNL d   1      -0.369  -1.571   3.098  0.00  0.00     0.054 A 
ATOM     17  C   UNL d   1      -0.865  -2.451   4.078  0.00  0.00     0.051 A 
ATOM     18  C   UNL d   1      -1.587  -1.957   5.175  0.00  0.00     0.048 A 
ATOM     19 CL   UNL d   1      -0.659  -4.167   4.010  0.00  0.00    -0.083 Cl
ATOM     20  C   UNL d   1      -1.833  -0.593   5.292  0.00  0.00     0.035 A 
ATOM     21  C   UNL d   1      -1.328   0.294   4.352  0.00  0.00     0.025 A 
ATOM     22 CL   UNL d   1      -2.754   0.003   6.617  0.00  0.00    -0.084 Cl
ATOM     23  C   UNL d   1      -0.568  -0.191   3.284  0.00  0.00     0.020 A 
ENDBRANCH   2  16
TORSDOF 1
