REMARK  8 active torsions:
REMARK  status: ('A' for Active; 'I' for Inactive)
REMARK    1  A    between atoms: C_14  and  N_1 
REMARK    2  A    between atoms: C_17  and  C_2 
REMARK    3  A    between atoms: S_16  and  C_5 
REMARK    4  A    between atoms: C_21  and  C_10 
REMARK    5  A    between atoms: C_11  and  C_19 
REMARK    6  A    between atoms: C_13  and  C_25 
REMARK    7  A    between atoms: C_18  and  C_14 
REMARK    8  A    between atoms: C_25  and  S_16 
ROOT
ATOM      1  N   UNL d   1      -0.264  -1.226  -0.041  0.00  0.00    -0.305 N 
ATOM      2  C   UNL d   1       0.953  -0.562  -0.121  0.00  0.00     0.135 A 
ATOM      3  N   UNL d   1       0.704   0.740  -0.097  0.00  0.00    -0.283 N 
ATOM      4  HN  UNL d   1       1.409   1.476  -0.097  1.00  0.00     0.188 HD
ATOM      5  C   UNL d   1      -1.220  -0.240  -0.053  0.00  0.00     0.163 A 
ATOM      6  N   UNL d   1      -0.650   0.938  -0.070  0.00  0.00    -0.278 N 
ATOM      7  HN  UNL d   1      -1.127   1.840  -0.064  1.00  0.00     0.189 HD
ENDROOT
BRANCH   5   8
ATOM      8  S   UNL d   1      -2.925  -0.524  -0.038  0.00  0.00    -0.086 SA
BRANCH   8   9
ATOM      9  C   UNL d   1      -3.536   1.055  -0.710  0.00  0.00     0.140 C 
BRANCH   9  10
ATOM     10  C   UNL d   1      -5.031   1.038  -0.791  0.00  0.00     0.026 A 
ATOM     11  N   UNL d   1      -5.649   0.614  -1.964  0.00  0.00    -0.352 N 
ATOM     12  C   UNL d   1      -6.964   0.630  -1.835  0.00  0.00     0.084 A 
ATOM     13  HN  UNL d   1      -5.153   0.329  -2.808  1.00  0.00     0.166 HD
ATOM     14  S   UNL d   1      -7.522   1.216  -0.311  0.00  0.00    -0.081 SA
ATOM     15  C   UNL d   1      -5.907   1.417   0.208  0.00  0.00     0.077 A 
BRANCH  12  16
ATOM     16  C   UNL d   1      -7.912   0.240  -2.896  0.00  0.00    -0.002 A 
ATOM     17  C   UNL d   1      -9.191  -0.273  -2.622  0.00  0.00     0.014 A 
ATOM     18  C   UNL d   1     -10.061  -0.628  -3.659  0.00  0.00     0.001 A 
ATOM     19  C   UNL d   1      -9.665  -0.480  -4.986  0.00  0.00     0.000 A 
ATOM     20  C   UNL d   1      -8.397   0.015  -5.277  0.00  0.00     0.001 A 
ATOM     21  C   UNL d   1      -7.526   0.366  -4.241  0.00  0.00     0.014 A 
ENDBRANCH  12  16
ENDBRANCH   9  10
ENDBRANCH   8   9
ENDBRANCH   5   8
BRANCH   1  22
ATOM     22  C   UNL d   1      -0.509  -2.657  -0.008  0.00  0.00     0.198 C 
BRANCH  22  23
ATOM     23  C   UNL d   1       0.170  -3.358   1.110  0.00  0.00     0.070 A 
ATOM     24  O   UNL d   1       0.579  -4.632   0.835  0.00  0.00    -0.325 OA
ATOM     25  C   UNL d   1       1.152  -5.122   1.964  0.00  0.00     0.142 A 
ATOM     26  C   UNL d   1       1.120  -4.181   2.965  0.00  0.00     0.027 A 
ATOM     27  C   UNL d   1       0.479  -3.042   2.418  0.00  0.00     0.036 A 
ENDBRANCH  22  23
ENDBRANCH   1  22
BRANCH   2  28
ATOM     28  C   UNL d   1       2.308  -1.129  -0.145  0.00  0.00     0.009 A 
ATOM     29  C   UNL d   1       2.643  -2.295  -0.843  0.00  0.00     0.016 A 
ATOM     30  C   UNL d   1       3.945  -2.810  -0.799  0.00  0.00     0.017 A 
ATOM     31  C   UNL d   1       4.954  -2.153  -0.083  0.00  0.00     0.048 A 
ATOM     32  C   UNL d   1       4.638  -0.957   0.573  0.00  0.00     0.017 A 
ATOM     33  C   UNL d   1       3.333  -0.454   0.539  0.00  0.00     0.016 A 
BRANCH  31  34
ATOM     34  C   UNL d   1       6.344  -2.738  -0.029  0.00  0.00     0.417 C 
ATOM     35  F   UNL d   1       7.231  -1.978   0.672  0.00  0.00    -0.166 F 
ATOM     36  F   UNL d   1       6.365  -3.968   0.556  0.00  0.00    -0.166 F 
ATOM     37  F   UNL d   1       6.890  -2.904  -1.265  0.00  0.00    -0.166 F 
ENDBRANCH  31  34
ENDBRANCH   2  28
TORSDOF 8
