REMARK  8 active torsions:
REMARK  status: ('A' for Active; 'I' for Inactive)
REMARK    1  A    between atoms: C_8  and  C_1 
REMARK    2  A    between atoms: C_14  and  N_2 
REMARK    3  A    between atoms: S_13  and  C_5 
REMARK       I    between atoms: C_9  and  N_11 
REMARK    4  A    between atoms: C_10  and  C_9 
REMARK    5  A    between atoms: N_11  and  N_15 
REMARK    6  A    between atoms: C_12  and  C_19 
REMARK       I    between atoms: N_15  and  C_12 
REMARK    7  A    between atoms: C_19  and  S_13 
REMARK    8  A    between atoms: O_24  and  C_16 
ROOT
ATOM      1  C   UNL d   1      -0.066  -1.342  -0.026  0.00  0.00     0.142 A 
ATOM      2  N   UNL d   1       1.220  -0.805  -0.244  0.00  0.00    -0.275 N 
ATOM      3  N   UNL d   1      -0.929  -0.344   0.067  0.00  0.00    -0.282 N 
ATOM      4  HN  UNL d   1      -1.930  -0.444   0.240  1.00  0.00     0.188 HD
ATOM      5  C   UNL d   1       0.992   0.568  -0.272  0.00  0.00     0.168 A 
ATOM      6  N   UNL d   1      -0.279   0.833  -0.105  0.00  0.00    -0.278 N 
ATOM      7  HN  UNL d   1      -0.704   1.760  -0.104  1.00  0.00     0.189 HD
ENDROOT
BRANCH   5   8
ATOM      8  S   UNL d   1       2.135   1.837  -0.577  0.00  0.00    -0.083 SA
BRANCH   8   9
ATOM      9  C   UNL d   1       1.510   2.555  -2.114  0.00  0.00     0.186 C 
BRANCH   9  10
ATOM     10  C   UNL d   1       0.300   3.472  -2.027  0.00  0.00     0.245 C 
ATOM     11  N   UNL d   1      -0.427   3.503  -0.859  0.00  0.00    -0.267 N 
ATOM     12  H   UNL d   1      -0.348   2.754  -0.167  0.00  0.00     0.190 HD
ATOM     13  O   UNL d   1      -0.035   4.158  -2.996  0.00  0.00    -0.271 OA
BRANCH  11  14
ATOM     14  N   UNL d   1      -1.639   4.210  -0.866  0.00  0.00    -0.260 N 
ATOM     15  C   UNL d   1      -2.204   4.579   0.350  0.00  0.00     0.343 C 
ATOM     16  O   UNL d   1      -1.736   4.215   1.433  0.00  0.00    -0.262 OA
ATOM     17  H   UNL d   1      -1.910   4.647  -1.747  0.00  0.00     0.190 HD
BRANCH  15  18
ATOM     18  C   UNL d   1      -3.446   5.473   0.210  0.00  0.00     0.473 C 
ATOM     19  F   UNL d   1      -3.805   5.657  -1.095  0.00  0.00    -0.162 F 
ATOM     20  F   UNL d   1      -4.540   4.960   0.837  0.00  0.00    -0.162 F 
ATOM     21  F   UNL d   1      -3.249   6.719   0.724  0.00  0.00    -0.162 F 
ENDBRANCH  15  18
ENDBRANCH  11  14
ENDBRANCH   9  10
ENDBRANCH   8   9
ENDBRANCH   5   8
BRANCH   2  22
ATOM     22  C   UNL d   1       2.461  -1.504  -0.399  0.00  0.00     0.043 A 
ATOM     23  C   UNL d   1       2.506  -2.758  -1.027  0.00  0.00     0.030 A 
ATOM     24  C   UNL d   1       3.702  -3.482  -1.083  0.00  0.00     0.002 A 
ATOM     25  C   UNL d   1       4.872  -2.948  -0.549  0.00  0.00     0.000 A 
ATOM     26  C   UNL d   1       4.848  -1.689   0.041  0.00  0.00     0.002 A 
ATOM     27  C   UNL d   1       3.649  -0.973   0.125  0.00  0.00     0.030 A 
ENDBRANCH   2  22
BRANCH   1  28
ATOM     28  C   UNL d   1      -0.452  -2.749   0.182  0.00  0.00     0.043 A 
ATOM     29  C   UNL d   1      -1.630  -3.313  -0.351  0.00  0.00     0.082 A 
ATOM     30  C   UNL d   1      -1.945  -4.658  -0.099  0.00  0.00     0.038 A 
ATOM     31  C   UNL d   1      -1.110  -5.459   0.677  0.00  0.00     0.003 A 
ATOM     32  C   UNL d   1       0.025  -4.907   1.251  0.00  0.00     0.001 A 
ATOM     33  C   UNL d   1       0.334  -3.562   1.026  0.00  0.00     0.018 A 
BRANCH  29  34
ATOM     34  O   UNL d   1      -2.630  -2.647  -1.013  0.00  0.00    -0.355 OA
ATOM     35  C   UNL d   1      -2.254  -1.926  -2.178  0.00  0.00     0.210 C 
ENDBRANCH  29  34
ENDBRANCH   1  28
TORSDOF 8
