REMARK  3 active torsions:
REMARK  status: ('A' for Active; 'I' for Inactive)
REMARK    1  A    between atoms: O_2  and  S_1 
REMARK    2  A    between atoms: C_5  and  S_1 
REMARK    3  A    between atoms: C_3  and  O_2 
ROOT
ATOM      1  C   UNL d   1       0.759  -2.544  -0.177  0.00  0.00     0.107 A 
ATOM      2  C   UNL d   1       1.382  -3.618   0.490  0.00  0.00     0.052 A 
ATOM      3  C   UNL d   1       1.680  -4.845  -0.190  0.00  0.00    -0.007 A 
ATOM      4  C   UNL d   1       0.374  -2.702  -1.507  0.00  0.00     0.040 A 
ATOM      5  C   UNL d   1       1.302  -4.949  -1.554  0.00  0.00    -0.025 A 
ATOM      6  C   UNL d   1       0.651  -3.885  -2.185  0.00  0.00     0.015 A 
ATOM      7  I   UNL d   1       1.863  -3.364   2.552  0.00  0.00    -0.041 I 
ATOM      8  C   UNL d   1       2.329  -5.980   0.368  0.00  0.00     0.013 A 
ATOM      9  C   UNL d   1       1.565  -6.115  -2.290  0.00  0.00     0.012 A 
ATOM     10  C   UNL d   1       2.586  -7.135  -0.380  0.00  0.00     0.001 A 
ATOM     11  C   UNL d   1       2.206  -7.203  -1.709  0.00  0.00     0.001 A 
ENDROOT
BRANCH   1  12
ATOM     12  O   UNL d   1       0.486  -1.373   0.502  0.00  0.00    -0.228 OA
BRANCH  12  13
ATOM     13  S   UNL d   1       0.790   0.069  -0.211  0.00  0.00     0.303 S 
ATOM     14  O   UNL d   1      -0.215   0.307  -1.234  0.00  0.00    -0.193 OA
ATOM     15  O   UNL d   1       2.203   0.153  -0.532  0.00  0.00    -0.193 OA
BRANCH  13  16
ATOM     16  C   UNL d   1       0.492   1.275   1.068  0.00  0.00     0.086 A 
ATOM     17  C   UNL d   1       1.386   1.384   2.136  0.00  0.00     0.026 A 
ATOM     18  C   UNL d   1       1.202   2.396   3.082  0.00  0.00     0.008 A 
ATOM     19  C   UNL d   1       0.138   3.303   2.961  0.00  0.00    -0.062 A 
ATOM     20  C   UNL d   1      -0.750   3.180   1.886  0.00  0.00     0.008 A 
ATOM     21  C   UNL d   1      -0.032   4.404   3.969  0.00  0.00     0.048 C 
ATOM     22  C   UNL d   1      -0.575   2.171   0.939  0.00  0.00     0.026 A 
ENDBRANCH  13  16
ENDBRANCH  12  13
ENDBRANCH   1  12
TORSDOF 3
