REMARK  1 active torsions:
REMARK  status: ('A' for Active; 'I' for Inactive)
REMARK    1  A    between atoms: C_9  and  N_6 
ROOT
ATOM      1  C   UNL d   1      -0.710  -1.167  -0.125  0.00  0.00     0.114 C 
ATOM      2  C   UNL d   1       0.697  -0.580  -0.377  0.00  0.00     0.275 C 
ATOM      3  N   UNL d   1       0.543   0.791  -0.258  0.00  0.00    -0.316 N 
ATOM      4  C   UNL d   1      -1.609  -0.010  -0.112  0.00  0.00     0.023 A 
ATOM      5  C   UNL d   1      -0.812   1.132  -0.159  0.00  0.00     0.049 A 
ATOM      6  N   UNL d   1      -1.099  -2.380   0.117  0.00  0.00    -0.351 N 
ATOM      7  HN  UNL d   1      -2.093  -2.563   0.248  1.00  0.00     0.166 HD
ATOM      8  O   UNL d   1       1.712  -1.190  -0.643  0.00  0.00    -0.265 OA
ATOM      9  C   UNL d   1       1.623   1.735  -0.310  0.00  0.00     0.159 C 
ATOM     10  C   UNL d   1      -2.988   0.051  -0.033  0.00  0.00     0.016 A 
ATOM     11  C   UNL d   1      -1.377   2.393  -0.127  0.00  0.00     0.031 A 
ATOM     12  C   UNL d   1      -3.571   1.321  -0.016  0.00  0.00     0.001 A 
ATOM     13  C   UNL d   1      -2.773   2.481  -0.060  0.00  0.00     0.002 A 
ENDROOT
BRANCH   6  14
ATOM     14  C   UNL d   1      -0.193  -3.451   0.203  0.00  0.00     0.032 A 
ATOM     15  C   UNL d   1       0.977  -3.405   0.966  0.00  0.00     0.030 A 
ATOM     16  C   UNL d   1       1.863  -4.484   0.995  0.00  0.00     0.009 A 
ATOM     17  C   UNL d   1       1.552  -5.673   0.331  0.00  0.00    -0.062 A 
ATOM     18  C   UNL d   1       0.340  -5.761  -0.361  0.00  0.00     0.009 A 
ATOM     19  C   UNL d   1       2.528  -6.810   0.355  0.00  0.00     0.048 C 
ATOM     20  C   UNL d   1      -0.520  -4.657  -0.424  0.00  0.00     0.030 A 
ENDBRANCH   6  14
TORSDOF 1
