REMARK  9 active torsions:
REMARK  status: ('A' for Active; 'I' for Inactive)
REMARK    1  A    between atoms: N_2  and  C_1 
REMARK    2  A    between atoms: N_4  and  C_1 
REMARK    3  A    between atoms: C_3  and  N_2 
REMARK    4  A    between atoms: C_6  and  C_3 
REMARK    5  A    between atoms: C_7  and  C_3 
REMARK    6  A    between atoms: C_8  and  N_4 
REMARK    7  A    between atoms: C_10  and  C_6 
REMARK    8  A    between atoms: O_15  and  C_9 
REMARK    9  A    between atoms: C_18  and  O_15 
ROOT
ATOM      1  N   UNL d   1       0.194  -0.668  -0.857  0.00  0.00    -0.358 N 
ATOM      2  H   UNL d   1      -0.767  -0.495  -1.102  0.00  0.00     0.162 HD
ENDROOT
BRANCH   1   3
ATOM      3  C   UNL d   1       0.503  -0.088   0.330  0.00  0.00     0.172 C 
ATOM      4  S   UNL d   1      -0.791   0.470   1.240  0.00  0.00    -0.041 SA
BRANCH   3   5
ATOM      5  N   UNL d   1       1.828   0.076   0.616  0.00  0.00    -0.333 N 
ATOM      6  H   UNL d   1       2.339   0.580  -0.098  0.00  0.00     0.168 HD
BRANCH   5   7
ATOM      7  C   UNL d   1       2.373   0.106   1.919  0.00  0.00     0.034 A 
ATOM      8  C   UNL d   1       1.922  -0.784   2.895  0.00  0.00     0.032 A 
ATOM      9  C   UNL d   1       2.428  -0.726   4.195  0.00  0.00     0.039 A 
ATOM     10  C   UNL d   1       3.389   0.225   4.529  0.00  0.00     0.068 A 
ATOM     11  C   UNL d   1       3.892   1.064   3.533  0.00  0.00     0.039 A 
ATOM     12  C   UNL d   1       3.399   0.998   2.224  0.00  0.00     0.032 A 
BRANCH  10  13
ATOM     13  O   UNL d   1       3.907   0.420   5.783  0.00  0.00    -0.352 OA
BRANCH  13  14
ATOM     14  C   UNL d   1       3.273  -0.303   6.840  0.00  0.00     0.171 C 
ATOM     15  C   UNL d   1       3.866   0.146   8.162  0.00  0.00     0.034 C 
ENDBRANCH  13  14
ENDBRANCH  10  13
ENDBRANCH   5   7
ENDBRANCH   3   5
ENDBRANCH   1   3
BRANCH   1  16
ATOM     16  C   UNL d   1       0.916  -1.657  -1.676  0.00  0.00     0.121 C 
BRANCH  16  17
ATOM     17  C   UNL d   1       1.933  -2.555  -0.901  0.00  0.00     0.068 C 
BRANCH  17  18
ATOM     18  C   UNL d   1       1.463  -3.570   0.121  0.00  0.00    -0.056 A 
ATOM     19  C   UNL d   1       0.124  -3.776   0.463  0.00  0.00     0.007 A 
ATOM     20  C   UNL d   1      -0.249  -4.813   1.324  0.00  0.00     0.001 A 
ATOM     21  C   UNL d   1       0.719  -5.637   1.888  0.00  0.00     0.000 A 
ATOM     22  C   UNL d   1       2.063  -5.411   1.607  0.00  0.00     0.001 A 
ATOM     23  C   UNL d   1       2.432  -4.386   0.732  0.00  0.00     0.007 A 
ENDBRANCH  17  18
ENDBRANCH  16  17
BRANCH  16  24
ATOM     24  C   UNL d   1      -0.044  -2.495  -2.553  0.00  0.00    -0.035 A 
ATOM     25  C   UNL d   1      -1.444  -2.488  -2.402  0.00  0.00     0.009 A 
ATOM     26  C   UNL d   1      -2.274  -3.320  -3.156  0.00  0.00     0.001 A 
ATOM     27  C   UNL d   1      -1.721  -4.191  -4.086  0.00  0.00     0.000 A 
ATOM     28  C   UNL d   1      -0.342  -4.217  -4.266  0.00  0.00     0.001 A 
ATOM     29  C   UNL d   1       0.486  -3.371  -3.518  0.00  0.00     0.009 A 
ENDBRANCH  16  24
ENDBRANCH   1  16
TORSDOF 9
