REMARK  2 active torsions:
REMARK  status: ('A' for Active; 'I' for Inactive)
REMARK    1  A    between atoms: C_14  and  N_6 
REMARK    2  A    between atoms: C_15  and  C_14 
ROOT
ATOM      1  C   UNL d   1       1.186   0.938   0.010  0.00  0.00     0.102 A 
ATOM      2  C   UNL d   1       0.718  -0.344   0.076  0.00  0.00     0.069 A 
ATOM      3  S   UNL d   1      -0.065   2.076  -0.053  0.00  0.00    -0.064 SA
ATOM      4  C   UNL d   1      -0.709  -0.445   0.029  0.00  0.00     0.032 A 
ATOM      5  C   UNL d   1       2.582   1.263  -0.018  0.00  0.00     0.268 A 
ATOM      6  N   UNL d   1       3.396   0.137   0.046  0.00  0.00    -0.305 N 
ATOM      7  C   UNL d   1      -1.250   0.842  -0.016  0.00  0.00     0.088 A 
ATOM      8  N   UNL d   1       1.588  -1.440   0.168  0.00  0.00    -0.350 N 
ATOM      9  HN  UNL d   1       1.258  -2.402   0.244  1.00  0.00     0.166 HD
ATOM     10  C   UNL d   1       2.847  -1.130   0.149  0.00  0.00     0.187 A 
ATOM     11  N   UNL d   1      -2.556   1.174  -0.038  0.00  0.00    -0.354 N 
ATOM     12  HN  UNL d   1      -2.878   2.141  -0.070  1.00  0.00     0.166 HD
ATOM     13  C   UNL d   1      -1.627  -1.528   0.020  0.00  0.00    -0.045 A 
ATOM     14  O   UNL d   1       3.028   2.406  -0.115  0.00  0.00    -0.266 OA
ATOM     15  C   UNL d   1      -2.994  -1.201   0.004  0.00  0.00     0.032 A 
ATOM     16  C   UNL d   1      -3.402   0.128  -0.016  0.00  0.00     0.006 A 
ATOM     17  C   UNL d   1      -1.252  -2.984   0.016  0.00  0.00     0.049 C 
ATOM     18  C   UNL d   1      -4.872   0.441  -0.014  0.00  0.00     0.068 C 
ENDROOT
BRANCH   6  19
ATOM     19  C   UNL d   1       4.844   0.298  -0.051  0.00  0.00     0.173 C 
BRANCH  19  20
ATOM     20  C   UNL d   1       5.498   0.480   1.301  0.00  0.00    -0.018 A 
ATOM     21  C   UNL d   1       6.029  -0.583   2.050  0.00  0.00     0.042 A 
ATOM     22 CL   UNL d   1       6.124  -2.193   1.433  0.00  0.00    -0.084 Cl
ATOM     23  C   UNL d   1       6.520  -0.368   3.343  0.00  0.00     0.024 A 
ATOM     24  C   UNL d   1       6.504   0.909   3.900  0.00  0.00     0.002 A 
ATOM     25  C   UNL d   1       6.027   1.981   3.154  0.00  0.00     0.001 A 
ATOM     26  C   UNL d   1       5.533   1.770   1.866  0.00  0.00     0.010 A 
ENDBRANCH  19  20
ENDBRANCH   6  19
TORSDOF 2
