REMARK  6 active torsions:
REMARK  status: ('A' for Active; 'I' for Inactive)
REMARK    1  A    between atoms: C_9  and  C_1 
REMARK    2  A    between atoms: N_6  and  N_2 
REMARK    3  A    between atoms: C_7  and  N_6 
REMARK    4  A    between atoms: C_8  and  C_10 
REMARK    5  A    between atoms: O_19  and  C_9 
REMARK    6  A    between atoms: C_24  and  O_19 
ROOT
ATOM      1  N   UNL d   1       2.059  -1.413   0.290  0.00  0.00    -0.274 N 
ATOM      2  C   UNL d   1       2.503  -2.263  -0.809  0.00  0.00     0.180 C 
ENDROOT
BRANCH   1   3
ATOM      3  N   UNL d   1       0.950  -0.612  -0.001  0.00  0.00    -0.261 N 
ATOM      4  C   UNL d   1       0.941   0.755  -0.255  0.00  0.00     0.047 C 
ATOM      5  C   UNL d   1      -0.370   1.208  -0.121  0.00  0.00     0.065 C 
ATOM      6  C   UNL d   1       2.174   1.571  -0.480  0.00  0.00     0.071 C 
ATOM      7  C   UNL d   1      -1.183   0.049  -0.038  0.00  0.00     0.046 C 
ATOM      8  C   UNL d   1      -0.361  -1.056   0.012  0.00  0.00     0.031 C 
ATOM      9  C   UNL d   1      -0.750  -2.486   0.113  0.00  0.00     0.070 C 
BRANCH   5  10
ATOM     10  C   UNL d   1      -0.791   2.604  -0.023  0.00  0.00     0.295 C 
ATOM     11  O   UNL d   1      -0.021   3.551  -0.051  0.00  0.00    -0.259 OA
BRANCH  10  12
ATOM     12  O   UNL d   1      -2.128   2.704   0.238  0.00  0.00    -0.318 OA
BRANCH  12  13
ATOM     13  C   UNL d   1      -2.548   3.941   0.828  0.00  0.00     0.174 C 
ATOM     14  C   UNL d   1      -2.447   3.804   2.338  0.00  0.00     0.034 C 
ENDBRANCH  12  13
ENDBRANCH  10  12
ENDBRANCH   5  10
ENDBRANCH   1   3
BRANCH   1  15
ATOM     15  C   UNL d   1       3.102  -1.004   1.157  0.00  0.00     0.122 A 
ATOM     16  C   UNL d   1       2.853  -0.087   2.181  0.00  0.00     0.066 A 
ATOM     17  C   UNL d   1       3.915   0.517   2.865  0.00  0.00     0.052 A 
ATOM     18  C   UNL d   1       5.213   0.095   2.584  0.00  0.00     0.033 A 
ATOM     19  C   UNL d   1       5.382  -0.892   1.634  0.00  0.00     0.090 A 
ATOM     20  N   UNL d   1       4.366  -1.433   0.927  0.00  0.00    -0.351 N 
ATOM     21  HN  UNL d   1       4.548  -2.155   0.230  1.00  0.00     0.166 HD
BRANCH  17  22
ATOM     22  C   UNL d   1       3.675   1.651   3.824  0.00  0.00     0.417 C 
ATOM     23  F   UNL d   1       2.366   2.008   3.934  0.00  0.00    -0.166 F 
ATOM     24  F   UNL d   1       4.095   1.365   5.086  0.00  0.00    -0.166 F 
ATOM     25  F   UNL d   1       4.338   2.783   3.458  0.00  0.00    -0.166 F 
ENDBRANCH  17  22
ENDBRANCH   1  15
TORSDOF 6
