REMARK  7 active torsions:
REMARK  status: ('A' for Active; 'I' for Inactive)
REMARK    1  A    between atoms: C_3  and  N_1 
REMARK    2  A    between atoms: C_9  and  N_2 
REMARK    3  A    between atoms: C_10  and  C_3 
REMARK    4  A    between atoms: C_11  and  C_3 
REMARK    5  A    between atoms: C_4  and  C_5 
REMARK    6  A    between atoms: C_12  and  C_4 
REMARK    7  A    between atoms: C_5  and  C_9 
ROOT
ATOM      1  N   UNL d   1      -1.494   0.052   0.284  0.00  0.00     0.105 N 
ATOM      2  N   UNL d   1       1.497  -0.006  -0.310  0.00  0.00     0.092 N 
ATOM      3  C   UNL d   1      -0.782  -1.141  -0.241  0.00  0.00     0.304 C 
ATOM      4  C   UNL d   1      -0.726   1.244  -0.168  0.00  0.00     0.304 C 
ATOM      5  C   UNL d   1       0.727  -1.205   0.102  0.00  0.00     0.302 C 
ATOM      6  C   UNL d   1       0.786   1.198   0.173  0.00  0.00     0.302 C 
ENDROOT
BRANCH   1   7
ATOM      7  C   UNL d   1      -1.635   0.034   1.773  0.00  0.00     0.289 C 
BRANCH   7   8
ATOM      8  C   UNL d   1      -2.377   1.267   2.305  0.00  0.00    -0.021 A 
ATOM      9  C   UNL d   1      -3.682   1.573   1.886  0.00  0.00     0.010 A 
ATOM     10  C   UNL d   1      -4.351   2.687   2.396  0.00  0.00     0.001 A 
ATOM     11  C   UNL d   1      -3.721   3.516   3.322  0.00  0.00     0.000 A 
ATOM     12  C   UNL d   1      -2.421   3.236   3.736  0.00  0.00     0.001 A 
ATOM     13  C   UNL d   1      -1.753   2.118   3.234  0.00  0.00     0.010 A 
ENDBRANCH   7   8
BRANCH   7  14
ATOM     14  C   UNL d   1      -2.269  -1.240   2.350  0.00  0.00    -0.021 A 
ATOM     15  C   UNL d   1      -1.813  -1.729   3.587  0.00  0.00     0.010 A 
ATOM     16  C   UNL d   1      -2.352  -2.890   4.140  0.00  0.00     0.001 A 
ATOM     17  C   UNL d   1      -3.358  -3.579   3.467  0.00  0.00     0.000 A 
ATOM     18  C   UNL d   1      -3.838  -3.096   2.251  0.00  0.00     0.001 A 
ATOM     19  C   UNL d   1      -3.310  -1.927   1.703  0.00  0.00     0.010 A 
ENDBRANCH   7  14
ENDBRANCH   1   7
BRANCH   2  20
ATOM     20  C   UNL d   1       1.688  -0.020  -1.776  0.00  0.00     0.280 C 
BRANCH  20  21
ATOM     21  C   UNL d   1       2.608   1.094  -2.273  0.00  0.00     0.114 C 
BRANCH  21  22
ATOM     22  C   UNL d   1       2.782   1.028  -3.776  0.00  0.00     0.161 C 
ATOM     23  O   UNL d   1       2.305   0.123  -4.457  0.00  0.00    -0.292 OA
BRANCH  22  24
ATOM     24  C   UNL d   1       3.552   2.120  -4.442  0.00  0.00     0.010 A 
ATOM     25  C   UNL d   1       4.132   3.173  -3.722  0.00  0.00     0.015 A 
ATOM     26  C   UNL d   1       4.830   4.178  -4.394  0.00  0.00     0.001 A 
ATOM     27  C   UNL d   1       4.956   4.138  -5.781  0.00  0.00     0.000 A 
ATOM     28  C   UNL d   1       4.381   3.093  -6.503  0.00  0.00     0.001 A 
ATOM     29  C   UNL d   1       3.681   2.089  -5.838  0.00  0.00     0.015 A 
ENDBRANCH  22  24
ENDBRANCH  21  22
ENDBRANCH  20  21
ENDBRANCH   2  20
TORSDOF 7
