REMARK  6 active torsions:
REMARK  status: ('A' for Active; 'I' for Inactive)
REMARK    1  A    between atoms: C_12  and  N_1 
REMARK    2  A    between atoms: C_7  and  C_2 
REMARK    3  A    between atoms: O_11  and  C_7 
REMARK    4  A    between atoms: N_8  and  O_11 
REMARK    5  A    between atoms: C_14  and  C_10 
REMARK    6  A    between atoms: N_15  and  C_10 
ROOT
ATOM      1  C   UNL d   1      -1.347   0.895   0.386  0.00  0.00     0.319 C 
ATOM      2  O   UNL d   1      -2.422   1.295   0.819  0.00  0.00    -0.257 OA
ENDROOT
BRANCH   1   3
ATOM      3  C   UNL d   1      -0.192   1.762   0.159  0.00  0.00     0.089 C 
ATOM      4  C   UNL d   1      -0.172   3.158   0.164  0.00  0.00     0.049 C 
ATOM      5  N   UNL d   1       1.151   3.532  -0.043  0.00  0.00    -0.260 N 
ATOM      6  C   UNL d   1      -1.308   4.117   0.257  0.00  0.00     0.071 C 
ATOM      7  N   UNL d   1       1.926   2.454  -0.321  0.00  0.00    -0.297 N 
ATOM      8  C   UNL d   1       1.154   1.392  -0.093  0.00  0.00     0.041 C 
ATOM      9  HN  UNL d   1       2.896   2.457  -0.639  1.00  0.00     0.187 HD
ATOM     10  C   UNL d   1       1.764   0.036  -0.139  0.00  0.00     0.071 C 
BRANCH   5  11
ATOM     11  C   UNL d   1       1.758   4.823  -0.029  0.00  0.00     0.056 A 
ATOM     12  C   UNL d   1       2.906   5.037  -0.809  0.00  0.00     0.031 A 
ATOM     13  C   UNL d   1       3.514   6.293  -0.845  0.00  0.00     0.002 A 
ATOM     14  C   UNL d   1       3.005   7.335  -0.074  0.00  0.00     0.000 A 
ATOM     15  C   UNL d   1       1.894   7.119   0.740  0.00  0.00     0.002 A 
ATOM     16  C   UNL d   1       1.269   5.868   0.763  0.00  0.00     0.031 A 
ENDBRANCH   5  11
ENDBRANCH   1   3
BRANCH   1  17
ATOM     17  O   UNL d   1      -1.093  -0.413   0.047  0.00  0.00    -0.193 OA
BRANCH  17  18
ATOM     18  N   UNL d   1      -1.503  -1.235   1.116  0.00  0.00    -0.246 N 
ATOM     19  C   UNL d   1      -1.279  -2.490   0.873  0.00  0.00     0.109 C 
ATOM     20  HN  UNL d   1      -1.925  -0.886   1.977  1.00  0.00     0.196 HD
BRANCH  19  21
ATOM     21  C   UNL d   1      -1.484  -3.446   2.004  0.00  0.00     0.004 A 
ATOM     22  C   UNL d   1      -2.398  -3.138   3.016  0.00  0.00     0.015 A 
ATOM     23  C   UNL d   1      -2.529  -3.986   4.116  0.00  0.00     0.001 A 
ATOM     24  C   UNL d   1      -1.742  -5.135   4.210  0.00  0.00     0.000 A 
ATOM     25  C   UNL d   1      -0.828  -5.442   3.200  0.00  0.00     0.001 A 
ATOM     26  C   UNL d   1      -0.699  -4.600   2.094  0.00  0.00     0.015 A 
ENDBRANCH  19  21
BRANCH  19  27
ATOM     27  N   UNL d   1      -0.857  -2.978  -0.346  0.00  0.00    -0.286 NA
ATOM     28  H   UNL d   1      -1.038  -2.323  -1.101  0.00  0.00     0.125 HD
ATOM     29  H   UNL d   1      -1.192  -3.908  -0.571  0.00  0.00     0.125 HD
ENDBRANCH  19  27
ENDBRANCH  17  18
ENDBRANCH   1  17
TORSDOF 6
