REMARK  3 active torsions:
REMARK  status: ('A' for Active; 'I' for Inactive)
REMARK    1  A    between atoms: O_2  and  S_1 
REMARK    2  A    between atoms: C_3  and  S_1 
REMARK    3  A    between atoms: C_4  and  O_2 
ROOT
ATOM      1  S   UNL d   1      -1.172  -1.024  -0.058  0.00  0.00     0.299 S 
ATOM      2  O   UNL d   1      -1.902  -2.273   0.029  0.00  0.00    -0.193 OA
ATOM      3  O   UNL d   1      -1.625   0.059  -0.905  0.00  0.00    -0.193 OA
ENDROOT
BRANCH   1   4
ATOM      4  O   UNL d   1       0.381  -1.365  -0.420  0.00  0.00    -0.256 OA
BRANCH   4   5
ATOM      5  C   UNL d   1       0.718  -1.930  -1.675  0.00  0.00     0.098 C 
ATOM      6  C   UNL d   1       2.236  -2.088  -1.724  0.00  0.00     0.008 C 
ATOM      7  C   UNL d   1       2.720  -2.617  -2.864  0.00  0.00    -0.023 C 
ATOM      8  C   UNL d   1       1.664  -2.963  -3.891  0.00  0.00     0.008 C 
ATOM      9  C   UNL d   1       0.689  -3.954  -3.221  0.00  0.00     0.012 C 
ATOM     10  C   UNL d   1       0.888  -1.666  -4.202  0.00  0.00     0.012 C 
ATOM     11  C   UNL d   1       0.140  -3.351  -1.907  0.00  0.00     0.044 C 
ATOM     12  C   UNL d   1       0.348  -1.044  -2.894  0.00  0.00     0.044 C 
ENDBRANCH   4   5
ENDBRANCH   1   4
BRANCH   1  13
ATOM     13  C   UNL d   1      -1.139  -0.354   1.588  0.00  0.00     0.086 A 
ATOM     14  C   UNL d   1      -0.023   0.344   2.052  0.00  0.00     0.026 A 
ATOM     15  C   UNL d   1      -0.053   0.893   3.337  0.00  0.00     0.008 A 
ATOM     16  C   UNL d   1      -1.185   0.743   4.155  0.00  0.00    -0.062 A 
ATOM     17  C   UNL d   1      -2.288   0.025   3.677  0.00  0.00     0.008 A 
ATOM     18  C   UNL d   1      -1.212   1.362   5.522  0.00  0.00     0.048 C 
ATOM     19  C   UNL d   1      -2.266  -0.527   2.398  0.00  0.00     0.026 A 
ENDBRANCH   1  13
TORSDOF 3
