REMARK  3 active torsions:
REMARK  status: ('A' for Active; 'I' for Inactive)
REMARK    1  A    between atoms: C_12  and  N_7 
REMARK    2  A    between atoms: C_11  and  C_12 
REMARK    3  A    between atoms: O_23  and  C_20 
ROOT
ATOM      1  C   UNL d   1       0.223  -0.664   0.088  0.00  0.00     0.145 A 
ATOM      2  C   UNL d   1       0.213   0.700   0.041  0.00  0.00     0.149 A 
ATOM      3  N   UNL d   1      -0.938  -1.398   0.039  0.00  0.00    -0.287 N 
ATOM      4  N   UNL d   1      -2.143   0.666  -0.004  0.00  0.00    -0.269 N 
ATOM      5  C   UNL d   1      -2.169  -0.739   0.001  0.00  0.00     0.332 A 
ATOM      6  C   UNL d   1      -0.990   1.452  -0.061  0.00  0.00     0.282 A 
ATOM      7  N   UNL d   1       1.531   1.070   0.096  0.00  0.00    -0.331 N 
ATOM      8  N   UNL d   1       1.487  -1.159   0.160  0.00  0.00    -0.336 N 
ATOM      9  HN  UNL d   1       1.773  -2.137   0.203  1.00  0.00     0.168 HD
ATOM     10  C   UNL d   1       2.260  -0.092   0.163  0.00  0.00     0.185 A 
ATOM     11  O   UNL d   1      -3.229  -1.369  -0.035  0.00  0.00    -0.246 OA
ATOM     12  O   UNL d   1      -1.013   2.672  -0.204  0.00  0.00    -0.265 OA
ATOM     13  C   UNL d   1      -0.928  -2.846   0.027  0.00  0.00     0.163 C 
ATOM     14  C   UNL d   1      -3.403   1.383  -0.016  0.00  0.00     0.164 C 
ENDROOT
BRANCH   7  15
ATOM     15  C   UNL d   1       2.090   2.412  -0.002  0.00  0.00     0.170 C 
BRANCH  15  16
ATOM     16  C   UNL d   1       2.265   3.058   1.351  0.00  0.00    -0.015 A 
ATOM     17  C   UNL d   1       3.438   2.947   2.111  0.00  0.00     0.042 A 
ATOM     18  C   UNL d   1       3.521   3.529   3.380  0.00  0.00     0.027 A 
ATOM     19 CL   UNL d   1       4.841   2.128   1.525  0.00  0.00    -0.084 Cl
ATOM     20  C   UNL d   1       2.440   4.238   3.912  0.00  0.00     0.038 A 
ATOM     21  C   UNL d   1       1.276   4.386   3.166  0.00  0.00     0.068 A 
ATOM     22  C   UNL d   1       1.200   3.801   1.897  0.00  0.00     0.047 A 
BRANCH  21  23
ATOM     23  O   UNL d   1       0.153   5.065   3.546  0.00  0.00    -0.356 OA
ATOM     24  C   UNL d   1       0.170   5.677   4.829  0.00  0.00     0.210 C 
ENDBRANCH  21  23
ENDBRANCH  15  16
ENDBRANCH   7  15
TORSDOF 3
