REMARK  5 active torsions:
REMARK  status: ('A' for Active; 'I' for Inactive)
REMARK    1  A    between atoms: N_2  and  C_1 
REMARK    2  A    between atoms: N_3  and  C_1 
REMARK    3  A    between atoms: C_4  and  N_2 
REMARK    4  A    between atoms: C_7  and  N_3 
REMARK    5  A    between atoms: S_8  and  C_6 
ROOT
ATOM      1  C   UNL d   1       0.750   0.082   0.844  0.00  0.00     0.176 C 
ATOM      2  S   UNL d   1      -0.311  -1.177   0.563  0.00  0.00    -0.041 SA
ENDROOT
BRANCH   1   3
ATOM      3  N   UNL d   1       0.314   1.336   0.470  0.00  0.00    -0.332 N 
ATOM      4  H   UNL d   1      -0.696   1.426   0.442  0.00  0.00     0.168 HD
BRANCH   3   5
ATOM      5  C   UNL d   1       1.051   2.510   0.198  0.00  0.00     0.051 A 
ATOM      6  C   UNL d   1       0.438   3.767   0.373  0.00  0.00     0.026 A 
ATOM      7  C   UNL d   1       1.168   4.931   0.097  0.00  0.00     0.021 A 
ATOM      8  C   UNL d   1       2.480   4.853  -0.374  0.00  0.00     0.002 A 
ATOM      9  C   UNL d   1       3.074   3.611  -0.573  0.00  0.00     0.002 A 
ATOM     10  C   UNL d   1       2.363   2.444  -0.292  0.00  0.00     0.031 A 
BRANCH   6  11
ATOM     11  S   UNL d   1      -1.184   3.947   1.121  0.00  0.00    -0.132 SA
ATOM     12  C   UNL d   1      -2.237   3.663  -0.324  0.00  0.00     0.095 C 
ENDBRANCH   6  11
ENDBRANCH   3   5
ENDBRANCH   1   3
BRANCH   1  13
ATOM     13  N   UNL d   1       1.940   0.086   1.532  0.00  0.00    -0.333 N 
ATOM     14  H   UNL d   1       2.214   1.024   1.801  0.00  0.00     0.168 HD
BRANCH  13  15
ATOM     15  C   UNL d   1       2.704  -0.922   2.150  0.00  0.00     0.034 A 
ATOM     16  C   UNL d   1       2.575  -2.292   1.927  0.00  0.00     0.031 A 
ATOM     17  C   UNL d   1       3.371  -3.204   2.632  0.00  0.00     0.026 A 
ATOM     18  C   UNL d   1       4.310  -2.748   3.553  0.00  0.00     0.034 A 
ATOM     19  C   UNL d   1       4.474  -1.384   3.764  0.00  0.00     0.026 A 
ATOM     20 CL   UNL d   1       5.273  -3.871   4.430  0.00  0.00    -0.084 Cl
ATOM     21  C   UNL d   1       3.679  -0.478   3.060  0.00  0.00     0.031 A 
ENDBRANCH  13  15
ENDBRANCH   1  13
TORSDOF 5
