REMARK  1 active torsions:
REMARK  status: ('A' for Active; 'I' for Inactive)
REMARK    1  A    between atoms: N_11  and  C_4 
ROOT
ATOM      1  N   UNL d   1       1.615   1.049   0.004  0.00  0.00    -0.334 N 
ATOM      2  HN  UNL d   1       1.878   2.034   0.004  1.00  0.00     0.168 HD
ATOM      3  C   UNL d   1       0.305   0.583   0.003  0.00  0.00     0.073 A 
ATOM      4  C   UNL d   1       2.468   0.054   0.004  0.00  0.00     0.145 A 
ATOM      5  C   UNL d   1       0.184  -0.809   0.002  0.00  0.00     0.038 A 
ATOM      6  S   UNL d   1       1.754  -1.511   0.002  0.00  0.00    -0.052 SA
ATOM      7  C   UNL d   1      -0.894   1.331   0.003  0.00  0.00     0.063 A 
ATOM      8  C   UNL d   1      -1.066  -1.456   0.002  0.00  0.00     0.045 A 
ATOM      9  C   UNL d   1      -2.147   0.720   0.002  0.00  0.00     0.050 A 
ATOM     10  C   UNL d   1      -2.219  -0.665   0.001  0.00  0.00     0.037 A 
ATOM     11 CL   UNL d   1      -0.732   3.033   0.004  0.00  0.00    -0.082 Cl
ATOM     12 CL   UNL d   1      -3.760  -1.435   0.001  0.00  0.00    -0.084 Cl
ENDROOT
BRANCH   4  13
ATOM     13  N   UNL d   1       3.810   0.167   0.005  0.00  0.00    -0.375 N 
ATOM     14  C   UNL d   1       4.475   1.444   0.002  0.00  0.00     0.148 C 
ATOM     15  H   UNL d   1       4.389  -0.663   0.002  0.00  0.00     0.161 HD
ENDBRANCH   4  13
TORSDOF 1
