REMARK  4 active torsions:
REMARK  status: ('A' for Active; 'I' for Inactive)
REMARK    1  A    between atoms: C_7  and  N_1 
REMARK    2  A    between atoms: S_6  and  C_4 
REMARK    3  A    between atoms: C_12  and  S_6 
REMARK    4  A    between atoms: C_14  and  C_7 
ROOT
ATOM      1  N   UNL d   1      -0.070   0.769  -0.126  0.00  0.00    -0.283 N 
ATOM      2  C   UNL d   1      -1.150  -0.045   0.071  0.00  0.00     0.241 C 
ATOM      3  C   UNL d   1       1.090   0.070  -0.265  0.00  0.00     0.228 C 
ATOM      4  C   UNL d   1      -0.714  -1.485  -0.101  0.00  0.00     0.153 C 
ATOM      5  C   UNL d   1       0.806  -1.395  -0.146  0.00  0.00     0.128 C 
ATOM      6  O   UNL d   1      -2.280   0.318   0.366  0.00  0.00    -0.272 OA
ATOM      7  O   UNL d   1       2.211   0.540  -0.395  0.00  0.00    -0.273 OA
ENDROOT
BRANCH   1   8
ATOM      8  C   UNL d   1      -0.119   2.213  -0.031  0.00  0.00     0.173 C 
BRANCH   8   9
ATOM      9  C   UNL d   1      -0.583   2.867  -1.308  0.00  0.00    -0.037 A 
ATOM     10  C   UNL d   1      -1.933   3.177  -1.498  0.00  0.00     0.026 A 
ATOM     11  C   UNL d   1      -2.314   3.800  -2.676  0.00  0.00     0.088 A 
ATOM     12  N   UNL d   1      -1.455   4.125  -3.665  0.00  0.00    -0.375 N 
ATOM     13  C   UNL d   1      -0.158   3.804  -3.470  0.00  0.00     0.088 A 
ATOM     14  HN  UNL d   1      -1.769   4.590  -4.517  1.00  0.00     0.164 HD
ATOM     15  C   UNL d   1       0.321   3.180  -2.328  0.00  0.00     0.026 A 
ENDBRANCH   8   9
ENDBRANCH   1   8
BRANCH   4  16
ATOM     16  S   UNL d   1      -1.434  -2.165  -1.640  0.00  0.00    -0.115 SA
BRANCH  16  17
ATOM     17  C   UNL d   1      -0.788  -3.829  -1.581  0.00  0.00     0.001 A 
ATOM     18  C   UNL d   1      -1.136  -4.713  -0.555  0.00  0.00     0.020 A 
ATOM     19  C   UNL d   1      -0.599  -6.005  -0.526  0.00  0.00     0.025 A 
ATOM     20  C   UNL d   1       0.280  -6.414  -1.526  0.00  0.00     0.034 A 
ATOM     21  C   UNL d   1       0.620  -5.546  -2.561  0.00  0.00     0.025 A 
ATOM     22 CL   UNL d   1       0.947  -7.999  -1.486  0.00  0.00    -0.084 Cl
ATOM     23  C   UNL d   1       0.081  -4.257  -2.591  0.00  0.00     0.020 A 
ENDBRANCH  16  17
ENDBRANCH   4  16
TORSDOF 4
