REMARK  5 active torsions:
REMARK  status: ('A' for Active; 'I' for Inactive)
REMARK    1  A    between atoms: N_2  and  S_1 
REMARK    2  A    between atoms: C_5  and  S_1 
REMARK    3  A    between atoms: N_4  and  N_2 
REMARK    4  A    between atoms: C_3  and  N_4 
REMARK    5  A    between atoms: C_10  and  C_3 
ROOT
ATOM      1  N   UNL d   1       0.998  -1.808   2.059  0.00  0.00    -0.274 N 
ATOM      2  H   UNL d   1       1.703  -2.294   1.491  0.00  0.00     0.189 HD
ENDROOT
BRANCH   1   3
ATOM      3  C   UNL d   1       0.213  -2.594   2.872  0.00  0.00     0.141 C 
ATOM      4  N   UNL d   1      -0.732  -2.087   3.612  0.00  0.00    -0.383 N 
ATOM      5  H   UNL d   1      -0.667  -1.071   3.512  0.00  0.00     0.157 HD
ATOM      6  HN  UNL d   1      -1.403  -2.603   4.181  1.00  0.00     0.157 HD
BRANCH   3   7
ATOM      7  C   UNL d   1       0.493  -4.069   2.889  0.00  0.00     0.077 A 
ATOM      8  N   UNL d   1       1.482  -4.475   2.045  0.00  0.00    -0.363 N 
ATOM      9  C   UNL d   1       1.754  -5.799   2.040  0.00  0.00     0.088 A 
ATOM     10  HN  UNL d   1       1.988  -3.818   1.450  1.00  0.00     0.165 HD
ATOM     11  C   UNL d   1       1.097  -6.729   2.834  0.00  0.00     0.017 A 
ATOM     12  C   UNL d   1       0.095  -6.280   3.689  0.00  0.00     0.004 A 
ATOM     13  C   UNL d   1      -0.219  -4.924   3.720  0.00  0.00     0.033 A 
ENDBRANCH   3   7
ENDBRANCH   1   3
BRANCH   1  14
ATOM     14  N   UNL d   1       0.364  -0.609   1.435  0.00  0.00    -0.221 N 
ATOM     15  H   UNL d   1      -0.645  -0.494   1.556  0.00  0.00     0.200 HD
BRANCH  14  16
ATOM     16  S   UNL d   1       0.965  -0.133  -0.088  0.00  0.00     0.276 S 
ATOM     17  O   UNL d   1       0.548  -1.145  -1.036  0.00  0.00    -0.199 OA
ATOM     18  O   UNL d   1       2.356   0.233   0.061  0.00  0.00    -0.199 OA
BRANCH  16  19
ATOM     19  C   UNL d   1       0.041   1.348  -0.416  0.00  0.00     0.081 A 
ATOM     20  C   UNL d   1       0.266   2.482   0.372  0.00  0.00     0.027 A 
ATOM     21  C   UNL d   1      -0.441   3.657   0.103  0.00  0.00     0.025 A 
ATOM     22  C   UNL d   1      -1.355   3.694  -0.952  0.00  0.00     0.034 A 
ATOM     23  C   UNL d   1      -1.565   2.567  -1.748  0.00  0.00     0.025 A 
ATOM     24 CL   UNL d   1      -2.227   5.141  -1.276  0.00  0.00    -0.084 Cl
ATOM     25  C   UNL d   1      -0.864   1.388  -1.482  0.00  0.00     0.027 A 
ENDBRANCH  16  19
ENDBRANCH  14  16
ENDBRANCH   1  14
TORSDOF 5
