REMARK  5 active torsions:
REMARK  status: ('A' for Active; 'I' for Inactive)
REMARK    1  A    between atoms: C_3  and  C_1 
REMARK       I    between atoms: C_2  and  N_6 
REMARK       I    between atoms: N_7  and  C_2 
REMARK    2  A    between atoms: N_6  and  C_16 
REMARK    3  A    between atoms: C_17  and  N_7 
REMARK    4  A    between atoms: C_8  and  O_11 
REMARK    5  A    between atoms: O_11  and  C_12 
ROOT
ATOM      1  N   UNL d   1      -0.895  -3.229  -4.949  0.00  0.00    -0.344 N 
ATOM      2  HN  UNL d   1      -0.632  -3.116  -5.928  1.00  0.00     0.167 HD
ATOM      3  C   UNL d   1      -0.902  -2.184  -4.091  0.00  0.00     0.148 A 
ATOM      4  C   UNL d   1      -1.593  -4.664  -3.114  0.00  0.00     0.051 A 
ATOM      5  C   UNL d   1      -1.255  -4.434  -4.445  0.00  0.00     0.119 A 
ATOM      6  C   UNL d   1      -1.157  -2.315  -2.738  0.00  0.00     0.059 A 
ATOM      7  C   UNL d   1      -1.509  -3.573  -2.251  0.00  0.00     0.035 A 
ENDROOT
BRANCH   4   8
ATOM      8  N   UNL d   1      -2.038  -5.954  -2.731  0.00  0.00    -0.307 N 
ATOM      9  C   UNL d   1      -2.342  -6.354  -1.440  0.00  0.00     0.325 C 
ATOM     10  N   UNL d   1      -2.896  -7.624  -1.411  0.00  0.00    -0.309 N 
ATOM     11  O   UNL d   1      -2.140  -5.666  -0.451  0.00  0.00    -0.247 OA
ATOM     12  H   UNL d   1      -2.929  -8.137  -2.276  0.00  0.00     0.170 HD
ATOM     13  H   UNL d   1      -2.107  -6.646  -3.462  0.00  0.00     0.170 HD
BRANCH  10  14
ATOM     14  C   UNL d   1      -3.321  -8.317  -0.253  0.00  0.00     0.036 A 
ATOM     15  C   UNL d   1      -3.395  -7.734   1.019  0.00  0.00     0.032 A 
ATOM     16  C   UNL d   1      -3.760  -8.492   2.135  0.00  0.00     0.044 A 
ATOM     17  C   UNL d   1      -4.064  -9.834   1.978  0.00  0.00     0.116 A 
ATOM     18  C   UNL d   1      -4.035 -10.426   0.722  0.00  0.00     0.044 A 
ATOM     19  F   UNL d   1      -4.390 -10.566   3.050  0.00  0.00    -0.206 F 
ATOM     20  C   UNL d   1      -3.671  -9.667  -0.396  0.00  0.00     0.032 A 
ENDBRANCH  10  14
ENDBRANCH   4   8
BRANCH   3  21
ATOM     21  O   UNL d   1      -0.646  -0.893  -4.538  0.00  0.00    -0.294 OA
BRANCH  21  22
ATOM     22  C   UNL d   1      -0.904  -0.576  -5.851  0.00  0.00     0.078 A 
ATOM     23  C   UNL d   1      -1.903  -1.168  -6.630  0.00  0.00     0.053 A 
ATOM     24  C   UNL d   1      -2.052  -0.830  -7.982  0.00  0.00     0.050 A 
ATOM     25  C   UNL d   1      -1.246   0.183  -8.520  0.00  0.00     0.016 A 
ATOM     26  C   UNL d   1      -0.302   0.834  -7.723  0.00  0.00     0.004 A 
ATOM     27  C   UNL d   1      -0.129   0.451  -6.393  0.00  0.00     0.037 A 
BRANCH  24  28
ATOM     28  C   UNL d   1      -3.025  -1.581  -8.854  0.00  0.00     0.417 C 
ATOM     29  F   UNL d   1      -3.771  -2.503  -8.182  0.00  0.00    -0.166 F 
ATOM     30  F   UNL d   1      -2.402  -2.268  -9.852  0.00  0.00    -0.166 F 
ATOM     31  F   UNL d   1      -3.920  -0.760  -9.470  0.00  0.00    -0.166 F 
ENDBRANCH  24  28
ENDBRANCH  21  22
ENDBRANCH   3  21
TORSDOF 5
