REMARK  4 active torsions:
REMARK  status: ('A' for Active; 'I' for Inactive)
REMARK    1  A    between atoms: C_7  and  C_1 
REMARK    2  A    between atoms: C_3  and  C_19 
REMARK       I    between atoms: N_18  and  C_7 
REMARK    3  A    between atoms: O_24  and  C_9 
REMARK    4  A    between atoms: N_11  and  N_18 
ROOT
ATOM      1  C   UNL d   1      -0.019  -0.955  -0.184  0.00  0.00     0.271 C 
ATOM      2  N   UNL d   1      -1.092  -1.447   0.536  0.00  0.00    -0.266 N 
ATOM      3  O   UNL d   1      -0.082   0.178  -0.668  0.00  0.00    -0.266 OA
ATOM      4  H   UNL d   1      -1.909  -0.838   0.562  0.00  0.00     0.190 HD
ENDROOT
BRANCH   1   5
ATOM      5  C   UNL d   1       1.284  -1.680  -0.222  0.00  0.00     0.048 A 
ATOM      6  C   UNL d   1       1.474  -3.066  -0.450  0.00  0.00     0.008 A 
ATOM      7  C   UNL d   1       2.771  -3.564  -0.214  0.00  0.00     0.043 A 
ATOM      8  C   UNL d   1       0.485  -3.980  -0.896  0.00  0.00     0.033 C 
ATOM      9  C   UNL d   1       2.993  -4.934  -0.263  0.00  0.00     0.031 C 
ATOM     10  N   UNL d   1       3.824  -2.776   0.060  0.00  0.00    -0.359 N 
ATOM     11  C   UNL d   1       1.975  -5.838  -0.576  0.00  0.00     0.021 C 
ATOM     12  C   UNL d   1       0.725  -5.351  -0.915  0.00  0.00     0.011 C 
ATOM     13 BR   UNL d   1      -0.669  -6.546  -1.358  0.00  0.00    -0.051 Br
ATOM     14  C   UNL d   1       3.646  -1.443   0.133  0.00  0.00     0.006 A 
ATOM     15  HN  UNL d   1       4.747  -3.182   0.212  1.00  0.00     0.166 HD
ATOM     16  C   UNL d   1       2.395  -0.864   0.040  0.00  0.00     0.042 A 
ATOM     17  C   UNL d   1       4.863  -0.594   0.346  0.00  0.00     0.068 C 
ENDBRANCH   1   5
BRANCH   2  18
ATOM     18  N   UNL d   1      -1.284  -2.744   0.844  0.00  0.00    -0.308 N 
ATOM     19  C   UNL d   1      -2.189  -3.093   1.707  0.00  0.00     0.121 C 
ATOM     20  HN  UNL d   1      -0.713  -3.460   0.396  1.00  0.00     0.186 HD
BRANCH  19  21
ATOM     21  C   UNL d   1      -2.980  -2.292   2.664  0.00  0.00     0.017 A 
ATOM     22  C   UNL d   1      -3.510  -1.018   2.446  0.00  0.00     0.099 A 
ATOM     23  C   UNL d   1      -4.139  -0.343   3.501  0.00  0.00     0.069 A 
ATOM     24 CL   UNL d   1      -4.756   1.252   3.265  0.00  0.00    -0.081 Cl
ATOM     25  C   UNL d   1      -4.270  -0.936   4.755  0.00  0.00     0.050 A 
ATOM     26  C   UNL d   1      -3.787  -2.227   4.949  0.00  0.00     0.036 A 
ATOM     27  C   UNL d   1      -3.151  -2.907   3.914  0.00  0.00     0.039 A 
ATOM     28 CL   UNL d   1      -3.953  -2.982   6.484  0.00  0.00    -0.084 Cl
BRANCH  22  29
ATOM     29  O   UNL d   1      -3.441  -0.434   1.208  0.00  0.00    -0.358 OA
ATOM     30  H   UNL d   1      -3.904   0.428   1.255  0.00  0.00     0.217 HD
ENDBRANCH  22  29
ENDBRANCH  19  21
ENDBRANCH   2  18
TORSDOF 4
