REMARK  5 active torsions:
REMARK  status: ('A' for Active; 'I' for Inactive)
REMARK    1  A    between atoms: O_5  and  N_1 
REMARK    2  A    between atoms: C_3  and  O_5 
REMARK    3  A    between atoms: C_9  and  C_3 
REMARK    4  A    between atoms: C_4  and  C_7 
REMARK    5  A    between atoms: O_18  and  C_16 
ROOT
ATOM      1  C   UNL d   1       3.130   1.122   0.530  0.00  0.00    -0.011 A 
ATOM      2  C   UNL d   1       4.356   1.520  -0.018  0.00  0.00     0.025 A 
ATOM      3  C   UNL d   1       5.094   2.576   0.550  0.00  0.00    -0.025 A 
ATOM      4  C   UNL d   1       4.588   3.250   1.681  0.00  0.00    -0.023 A 
ATOM      5  C   UNL d   1       5.330   4.307   2.239  0.00  0.00     0.049 A 
ATOM      6  C   UNL d   1       2.626   1.802   1.643  0.00  0.00     0.014 A 
ATOM      7  C   UNL d   1       3.351   2.853   2.217  0.00  0.00     0.013 A 
ATOM      8  C   UNL d   1       6.325   2.980   0.011  0.00  0.00     0.015 A 
ATOM      9  C   UNL d   1       6.557   4.702   1.694  0.00  0.00     0.069 A 
ATOM     10  C   UNL d   1       7.052   4.033   0.578  0.00  0.00     0.037 A 
ENDROOT
BRANCH   1  11
ATOM     11  C   UNL d   1       2.332   0.004  -0.065  0.00  0.00     0.039 C 
ATOM     12  N   UNL d   1       1.035   0.041   0.038  0.00  0.00    -0.261 N 
ATOM     13  HN  UNL d   1       0.527   0.785   0.517  1.00  0.00     0.194 HD
ATOM     14  C   UNL d   1       3.067  -1.122  -0.762  0.00  0.00     0.071 C 
BRANCH  12  15
ATOM     15  O   UNL d   1       0.408  -1.059  -0.585  0.00  0.00    -0.199 OA
BRANCH  15  16
ATOM     16  C   UNL d   1      -0.960  -0.934  -0.501  0.00  0.00     0.288 C 
ATOM     17  O   UNL d   1      -1.564  -0.009   0.040  0.00  0.00    -0.262 OA
BRANCH  16  18
ATOM     18  C   UNL d   1      -1.689  -2.123  -1.149  0.00  0.00     0.039 C 
ATOM     19  C   UNL d   1      -0.760  -3.071  -1.921  0.00  0.00     0.025 C 
ATOM     20  C   UNL d   1      -2.395  -2.906  -0.033  0.00  0.00     0.025 C 
ATOM     21  C   UNL d   1      -2.740  -1.569  -2.126  0.00  0.00     0.025 C 
ENDBRANCH  16  18
ENDBRANCH  15  16
ENDBRANCH  12  15
ENDBRANCH   1  11
BRANCH   9  22
ATOM     22  O   UNL d   1       7.165   5.745   2.338  0.00  0.00    -0.356 OA
ATOM     23  C   UNL d   1       8.410   6.191   1.811  0.00  0.00     0.210 C 
ENDBRANCH   9  22
TORSDOF 5
