REMARK  8 active torsions:
REMARK  status: ('A' for Active; 'I' for Inactive)
REMARK    1  A    between atoms: C_9  and  S_1 
REMARK    2  A    between atoms: N_16  and  S_1 
REMARK    3  A    between atoms: C_2  and  C_4 
REMARK    4  A    between atoms: N_3  and  C_7 
REMARK       I    between atoms: C_4  and  N_8 
REMARK    5  A    between atoms: O_13  and  C_6 
REMARK    6  A    between atoms: N_8  and  C_21 
REMARK    7  A    between atoms: C_22  and  O_13 
REMARK    8  A    between atoms: O_30  and  C_23 
ROOT
ATOM      1  C   UNL d   1       0.239  -5.514   3.389  0.00  0.00     0.068 A 
ATOM      2  C   UNL d   1       1.398  -5.256   2.630  0.00  0.00     0.056 A 
ATOM      3  C   UNL d   1      -0.689  -6.467   2.932  0.00  0.00     0.091 A 
ATOM      4  C   UNL d   1       1.603  -5.905   1.407  0.00  0.00     0.104 A 
ATOM      5  C   UNL d   1      -0.471  -7.101   1.696  0.00  0.00     0.041 A 
ATOM      6  C   UNL d   1       0.666  -6.827   0.933  0.00  0.00     0.039 A 
ENDROOT
BRANCH   1   7
ATOM      7  C   UNL d   1       0.120  -4.700   4.632  0.00  0.00     0.259 C 
ATOM      8  N   UNL d   1      -1.128  -4.176   4.895  0.00  0.00    -0.323 N 
ATOM      9  H   UNL d   1      -1.884  -4.467   4.288  0.00  0.00     0.169 HD
ATOM     10  O   UNL d   1       1.143  -4.527   5.286  0.00  0.00    -0.267 OA
BRANCH   8  11
ATOM     11  C   UNL d   1      -1.481  -3.304   5.946  0.00  0.00     0.035 A 
ATOM     12  C   UNL d   1      -0.556  -2.715   6.812  0.00  0.00     0.031 A 
ATOM     13  C   UNL d   1      -0.970  -1.772   7.759  0.00  0.00     0.027 A 
ATOM     14  C   UNL d   1      -2.320  -1.434   7.855  0.00  0.00     0.074 A 
ATOM     15  C   UNL d   1      -3.264  -2.055   7.036  0.00  0.00     0.027 A 
ATOM     16  C   UNL d   1      -2.840  -2.985   6.082  0.00  0.00     0.031 A 
BRANCH  14  17
ATOM     17  S   UNL d   1      -2.816  -0.148   8.960  0.00  0.00     0.239 S 
ATOM     18  O   UNL d   1      -4.259  -0.082   8.996  0.00  0.00    -0.206 OA
ATOM     19  O   UNL d   1      -1.991   1.012   8.718  0.00  0.00    -0.206 OA
BRANCH  17  20
ATOM     20  N   UNL d   1      -2.362  -0.743  10.462  0.00  0.00    -0.225 NA
ATOM     21  H   UNL d   1      -3.192  -0.855  11.045  0.00  0.00     0.136 HD
ATOM     22  H   UNL d   1      -1.659  -0.125  10.871  0.00  0.00     0.136 HD
ENDBRANCH  17  20
ENDBRANCH  14  17
ENDBRANCH   8  11
ENDBRANCH   1   7
BRANCH   3  23
ATOM     23  O   UNL d   1      -1.891  -6.809   3.508  0.00  0.00    -0.310 OA
BRANCH  23  24
ATOM     24  C   UNL d   1      -1.990  -7.048   4.856  0.00  0.00     0.076 A 
ATOM     25  C   UNL d   1      -3.237  -6.745   5.413  0.00  0.00     0.040 A 
ATOM     26  C   UNL d   1      -3.426  -6.807   6.794  0.00  0.00     0.039 A 
ATOM     27  C   UNL d   1      -2.369  -7.190   7.619  0.00  0.00     0.068 A 
ATOM     28  C   UNL d   1      -1.160  -7.597   7.050  0.00  0.00     0.039 A 
ATOM     29  C   UNL d   1      -0.967  -7.536   5.665  0.00  0.00     0.040 A 
BRANCH  27  30
ATOM     30  O   UNL d   1      -2.434  -7.233   8.984  0.00  0.00    -0.356 OA
ATOM     31  C   UNL d   1      -3.240  -6.212   9.570  0.00  0.00     0.210 C 
ENDBRANCH  27  30
ENDBRANCH  23  24
ENDBRANCH   3  23
BRANCH   4  32
ATOM     32  N   UNL d   1       2.794  -5.595   0.605  0.00  0.00    -0.116 N 
ATOM     33  O   UNL d   1       3.587  -4.753   1.048  0.00  0.00    -0.532 OA
ATOM     34  O   UNL d   1       2.930  -6.190  -0.474  0.00  0.00    -0.532 OA
ENDBRANCH   4  32
TORSDOF 8
