REMARK  4 active torsions:
REMARK  status: ('A' for Active; 'I' for Inactive)
REMARK    1  A    between atoms: S_8  and  C_1 
REMARK    2  A    between atoms: C_13  and  S_8 
REMARK    3  A    between atoms: C_9  and  C_13 
REMARK    4  A    between atoms: O_15  and  C_9 
ROOT
ATOM      1  C   UNL d   1      -3.124   0.179   0.024  0.00  0.00     0.113 A 
ATOM      2  N   UNL d   1      -2.413   1.282  -0.007  0.00  0.00    -0.344 N 
ATOM      3  HN  UNL d   1      -2.794   2.228  -0.024  1.00  0.00     0.167 HD
ATOM      4  S   UNL d   1      -2.247  -1.288   0.022  0.00  0.00    -0.063 SA
ATOM      5  C   UNL d   1      -0.770  -0.402  -0.008  0.00  0.00     0.035 A 
ATOM      6  C   UNL d   1      -1.065   0.964  -0.013  0.00  0.00     0.050 A 
ATOM      7  C   UNL d   1       0.552  -0.879  -0.018  0.00  0.00     0.045 A 
ATOM      8  C   UNL d   1       0.001   1.888  -0.019  0.00  0.00     0.032 A 
ATOM      9  C   UNL d   1       1.585   0.061  -0.022  0.00  0.00     0.035 A 
ATOM     10  C   UNL d   1       1.322   1.426  -0.020  0.00  0.00     0.026 A 
ATOM     11 CL   UNL d   1       3.219  -0.485  -0.024  0.00  0.00    -0.084 Cl
ENDROOT
BRANCH   1  12
ATOM     12  S   UNL d   1      -4.874   0.226   0.089  0.00  0.00    -0.095 SA
BRANCH  12  13
ATOM     13  C   UNL d   1      -5.184   1.789  -0.785  0.00  0.00     0.192 C 
BRANCH  13  14
ATOM     14  C   UNL d   1      -4.697   1.734  -2.217  0.00  0.00     0.268 C 
ATOM     15  O   UNL d   1      -4.606   0.727  -2.906  0.00  0.00    -0.264 OA
BRANCH  14  16
ATOM     16  O   UNL d   1      -4.434   2.998  -2.666  0.00  0.00    -0.326 OA
ATOM     17  C   UNL d   1      -3.954   3.040  -4.011  0.00  0.00     0.213 C 
ENDBRANCH  14  16
ENDBRANCH  13  14
ENDBRANCH  12  13
ENDBRANCH   1  12
TORSDOF 4
