REMARK  6 active torsions:
REMARK  status: ('A' for Active; 'I' for Inactive)
REMARK    1  A    between atoms: C_6  and  C_1 
REMARK    2  A    between atoms: N_11  and  C_2 
REMARK    3  A    between atoms: C_10  and  C_6 
REMARK    4  A    between atoms: C_14  and  N_7 
REMARK    5  A    between atoms: C_20  and  C_14 
REMARK    6  A    between atoms: O_21  and  C_17 
ROOT
ATOM      1  C   UNL d   1       1.378  -1.534  -0.069  0.00  0.00     0.056 C 
ATOM      2  C   UNL d   1       2.477  -0.682  -0.058  0.00  0.00     0.083 C 
ATOM      3  C   UNL d   1       0.151  -0.773  -0.136  0.00  0.00    -0.025 C 
ATOM      4  C   UNL d   1       0.367   0.585  -0.009  0.00  0.00     0.020 C 
ATOM      5  S   UNL d   1       2.013   0.968   0.053  0.00  0.00    -0.074 SA
ATOM      6  N   UNL d   1      -2.045   1.048   0.373  0.00  0.00     0.097 N 
ATOM      7  C   UNL d   1      -0.716   1.629   0.043  0.00  0.00     0.319 C 
ATOM      8  C   UNL d   1      -1.251  -1.307  -0.243  0.00  0.00     0.071 C 
ATOM      9  C   UNL d   1      -2.270  -0.162  -0.456  0.00  0.00     0.278 C 
ENDROOT
BRANCH   1  10
ATOM     10  C   UNL d   1       1.417  -3.003  -0.076  0.00  0.00     0.195 C 
ATOM     11  O   UNL d   1       0.604  -3.658  -0.728  0.00  0.00    -0.287 OA
BRANCH  10  12
ATOM     12  C   UNL d   1       2.409  -3.757   0.748  0.00  0.00     0.015 A 
ATOM     13  C   UNL d   1       2.709  -5.076   0.375  0.00  0.00     0.018 A 
ATOM     14  C   UNL d   1       3.634  -5.832   1.105  0.00  0.00     0.037 A 
ATOM     15  C   UNL d   1       4.263  -5.277   2.217  0.00  0.00     0.068 A 
ATOM     16  C   UNL d   1       3.964  -3.969   2.596  0.00  0.00     0.037 A 
ATOM     17  C   UNL d   1       3.021  -3.219   1.886  0.00  0.00     0.018 A 
BRANCH  15  18
ATOM     18  O   UNL d   1       5.210  -5.904   2.979  0.00  0.00    -0.356 OA
ATOM     19  C   UNL d   1       5.068  -7.316   3.085  0.00  0.00     0.210 C 
ENDBRANCH  15  18
ENDBRANCH  10  12
ENDBRANCH   1  10
BRANCH   2  20
ATOM     20  N   UNL d   1       3.794  -0.983  -0.114  0.00  0.00    -0.393 N 
ATOM     21  H   UNL d   1       4.121  -1.880  -0.456  0.00  0.00     0.156 HD
ATOM     22  H   UNL d   1       4.453  -0.225  -0.283  0.00  0.00     0.156 HD
ENDBRANCH   2  20
BRANCH   6  23
ATOM     23  C   UNL d   1      -2.143   0.789   1.822  0.00  0.00     0.311 C 
BRANCH  23  24
ATOM     24  C   UNL d   1      -3.479   0.238   2.278  0.00  0.00    -0.030 A 
ATOM     25  C   UNL d   1      -3.555  -1.027   2.882  0.00  0.00     0.009 A 
ATOM     26  C   UNL d   1      -4.776  -1.521   3.346  0.00  0.00     0.001 A 
ATOM     27  C   UNL d   1      -5.932  -0.756   3.217  0.00  0.00     0.000 A 
ATOM     28  C   UNL d   1      -5.872   0.498   2.611  0.00  0.00     0.001 A 
ATOM     29  C   UNL d   1      -4.653   0.992   2.141  0.00  0.00     0.009 A 
ENDBRANCH  23  24
ENDBRANCH   6  23
TORSDOF 6
