REMARK  5 active torsions:
REMARK  status: ('A' for Active; 'I' for Inactive)
REMARK    1  A    between atoms: C_7  and  C_1 
REMARK    2  A    between atoms: C_2  and  C_5 
REMARK    3  A    between atoms: C_3  and  C_6 
REMARK       I    between atoms: C_4  and  N_9 
REMARK    4  A    between atoms: C_8  and  C_4 
REMARK    5  A    between atoms: N_9  and  C_17 
ROOT
ATOM      1  C   UNL d   1       2.203   5.707   0.016  0.00  0.00     0.070 A 
ATOM      2  N   UNL d   1       2.498   5.149  -3.498  0.00  0.00    -0.191 NA
ATOM      3  C   UNL d   1       2.178   5.049  -2.385  0.00  0.00     0.100 C 
ATOM      4  C   UNL d   1       1.766   4.875  -1.022  0.00  0.00     0.059 A 
ATOM      5  C   UNL d   1       1.769   5.432   1.333  0.00  0.00     0.047 A 
ATOM      6  C   UNL d   1       0.935   4.350   1.631  0.00  0.00     0.035 A 
ATOM      7  C   UNL d   1       0.899   3.809  -0.734  0.00  0.00     0.026 A 
ATOM      8  C   UNL d   1       0.488   3.550   0.579  0.00  0.00     0.031 A 
ENDROOT
BRANCH   1   9
ATOM      9  C   UNL d   1       3.113   6.898  -0.176  0.00  0.00     0.419 C 
ATOM     10  F   UNL d   1       3.596   7.056  -1.434  0.00  0.00    -0.166 F 
ATOM     11  F   UNL d   1       4.210   6.839   0.630  0.00  0.00    -0.166 F 
ATOM     12  F   UNL d   1       2.487   8.068   0.130  0.00  0.00    -0.166 F 
ENDBRANCH   1   9
BRANCH   6  13
ATOM     13  N   UNL d   1       0.529   4.005   2.943  0.00  0.00    -0.323 N 
ATOM     14  C   UNL d   1       0.908   4.652   4.108  0.00  0.00     0.256 C 
ATOM     15  O   UNL d   1       1.643   5.632   4.174  0.00  0.00    -0.267 OA
ATOM     16  H   UNL d   1      -0.027   3.165   3.025  0.00  0.00     0.169 HD
BRANCH  14  17
ATOM     17  C   UNL d   1       0.391   4.114   5.402  0.00  0.00     0.034 A 
ATOM     18  C   UNL d   1       1.106   4.457   6.561  0.00  0.00     0.033 A 
ATOM     19  C   UNL d   1       0.644   4.111   7.838  0.00  0.00     0.049 A 
ATOM     20  C   UNL d   1      -0.549   3.383   7.944  0.00  0.00     0.032 A 
ATOM     21  C   UNL d   1      -1.286   3.029   6.799  0.00  0.00     0.049 A 
ATOM     22  C   UNL d   1      -0.801   3.391   5.525  0.00  0.00     0.033 A 
BRANCH  19  23
ATOM     23  C   UNL d   1       1.409   4.572   9.057  0.00  0.00     0.417 C 
ATOM     24  F   UNL d   1       0.778   4.285  10.228  0.00  0.00    -0.166 F 
ATOM     25  F   UNL d   1       2.642   4.004   9.143  0.00  0.00    -0.166 F 
ATOM     26  F   UNL d   1       1.611   5.918   9.062  0.00  0.00    -0.166 F 
ENDBRANCH  19  23
BRANCH  21  27
ATOM     27  C   UNL d   1      -2.611   2.310   6.926  0.00  0.00     0.417 C 
ATOM     28  F   UNL d   1      -3.063   2.225   8.207  0.00  0.00    -0.166 F 
ATOM     29  F   UNL d   1      -3.597   2.926   6.219  0.00  0.00    -0.166 F 
ATOM     30  F   UNL d   1      -2.553   1.035   6.457  0.00  0.00    -0.166 F 
ENDBRANCH  21  27
ENDBRANCH  14  17
ENDBRANCH   6  13
TORSDOF 5
