REMARK  7 active torsions:
REMARK  status: ('A' for Active; 'I' for Inactive)
REMARK    1  A    between atoms: C_8  and  N_1 
REMARK    2  A    between atoms: S_11  and  C_2 
REMARK    3  A    between atoms: C_10  and  C_7 
REMARK    4  A    between atoms: C_16  and  C_10 
REMARK    5  A    between atoms: S_13  and  C_12 
REMARK    6  A    between atoms: C_14  and  C_16 
REMARK    7  A    between atoms: O_22  and  C_15 
ROOT
ATOM      1  N   UNL d   1      -0.233  -1.248  -0.029  0.00  0.00    -0.279 N 
ATOM      2  C   UNL d   1       0.989  -0.587   0.019  0.00  0.00     0.164 A 
ATOM      3  N   UNL d   1       0.812   0.711  -0.018  0.00  0.00    -0.278 N 
ATOM      4  HN  UNL d   1       1.546   1.418   0.025  1.00  0.00     0.189 HD
ATOM      5  N   UNL d   1      -0.525   0.949  -0.125  0.00  0.00    -0.286 N 
ATOM      6  HN  UNL d   1      -0.962   1.868  -0.190  1.00  0.00     0.188 HD
ATOM      7  C   UNL d   1      -1.163  -0.208  -0.129  0.00  0.00     0.105 A 
ENDROOT
BRANCH   7   8
ATOM      8  C   UNL d   1      -2.656  -0.336  -0.100  0.00  0.00     0.083 C 
BRANCH   8   9
ATOM      9  C   UNL d   1      -3.343   1.027   0.083  0.00  0.00     0.046 C 
BRANCH   9  10
ATOM     10  C   UNL d   1      -4.850   0.929   0.141  0.00  0.00    -0.058 A 
ATOM     11  C   UNL d   1      -5.483   0.308   1.229  0.00  0.00     0.010 A 
ATOM     12  C   UNL d   1      -6.874   0.249   1.298  0.00  0.00     0.037 A 
ATOM     13  C   UNL d   1      -7.641   0.814   0.287  0.00  0.00     0.065 A 
ATOM     14  C   UNL d   1      -7.036   1.438  -0.799  0.00  0.00     0.037 A 
ATOM     15  C   UNL d   1      -5.641   1.493  -0.871  0.00  0.00     0.010 A 
BRANCH  13  16
ATOM     16  O   UNL d   1      -8.997   0.745   0.402  0.00  0.00    -0.361 OA
ATOM     17  H   UNL d   1      -9.397   1.232  -0.336  0.00  0.00     0.217 HD
ENDBRANCH  13  16
ENDBRANCH   9  10
ENDBRANCH   8   9
ENDBRANCH   7   8
BRANCH   1  18
ATOM     18  C   UNL d   1      -0.488  -2.651   0.017  0.00  0.00     0.044 A 
ATOM     19  C   UNL d   1      -1.500  -3.213  -0.774  0.00  0.00     0.048 A 
ATOM     20  C   UNL d   1      -1.740  -4.592  -0.758  0.00  0.00     0.002 A 
ATOM     21  C   UNL d   1      -0.930  -5.418   0.027  0.00  0.00     0.018 A 
ATOM     22  C   UNL d   1       0.074  -4.868   0.822  0.00  0.00     0.004 A 
ATOM     23  C   UNL d   1       0.286  -3.490   0.831  0.00  0.00     0.030 A 
BRANCH  20  24
ATOM     24  S   UNL d   1      -3.002  -5.358  -1.766  0.00  0.00    -0.134 SA
ATOM     25  C   UNL d   1      -4.393  -4.219  -1.515  0.00  0.00     0.095 C 
ENDBRANCH  20  24
ENDBRANCH   1  18
BRANCH   2  26
ATOM     26  S   UNL d   1       2.568  -1.305  -0.077  0.00  0.00    -0.105 SA
ATOM     27  H   UNL d   1       2.242  -2.469  -0.654  0.00  0.00     0.110 HD
ENDBRANCH   2  26
TORSDOF 7
