REMARK  1 active torsions:
REMARK  status: ('A' for Active; 'I' for Inactive)
REMARK    1  A    between atoms: O_21  and  C_11 
ROOT
ATOM      1  C   UNL d   1      -0.563  -1.570  -0.928  0.00  0.00    -0.013 C 
ATOM      2  C   UNL d   1       1.619   1.603   1.425  0.00  0.00    -0.009 C 
ATOM      3  C   UNL d   1      -2.036  -1.225  -1.161  0.00  0.00    -0.067 C 
ATOM      4  C   UNL d   1       0.109  -0.469  -0.019  0.00  0.00     0.003 C 
ATOM      5  C   UNL d   1       0.505   2.075   0.434  0.00  0.00     0.001 C 
ATOM      6  C   UNL d   1      -0.220   0.988  -0.426  0.00  0.00    -0.004 C 
ATOM      7  C   UNL d   1      -3.038  -2.123  -1.059  0.00  0.00     0.059 C 
ATOM      8  C   UNL d   1      -0.446  -2.938  -0.180  0.00  0.00     0.055 C 
ATOM      9  C   UNL d   1      -1.393  -3.987  -0.672  0.00  0.00    -0.016 C 
ATOM     10  C   UNL d   1      -2.810  -3.567  -0.817  0.00  0.00     0.177 C 
ATOM     11  C   UNL d   1       0.938   1.784   2.828  0.00  0.00     0.062 C 
ATOM     12  C   UNL d   1       2.212   0.192   1.218  0.00  0.00     0.013 C 
ATOM     13  C   UNL d   1       1.630  -0.608   0.066  0.00  0.00     0.007 C 
ATOM     14  C   UNL d   1      -1.736   1.185  -0.573  0.00  0.00     0.010 C 
ATOM     15  C   UNL d   1      -0.381   3.052   1.262  0.00  0.00     0.009 C 
ATOM     16  C   UNL d   1      -2.338   0.197  -1.562  0.00  0.00     0.035 C 
ATOM     17  C   UNL d   1       0.213   3.120   2.669  0.00  0.00     0.038 C 
ATOM     18  O   UNL d   1      -3.753  -4.347  -0.768  0.00  0.00    -0.288 OA
ATOM     19  C   UNL d   1      -1.055  -5.254  -0.953  0.00  0.00     0.023 C 
ATOM     20  C   UNL d   1       0.130  -1.693  -2.304  0.00  0.00     0.021 C 
ATOM     21  C   UNL d   1       2.821   2.591   1.275  0.00  0.00     0.018 C 
ATOM     22  C   UNL d   1      -0.087   0.715   3.245  0.00  0.00     0.046 C 
ENDROOT
BRANCH  11  23
ATOM     23  O   UNL d   1       1.901   1.883   3.871  0.00  0.00    -0.389 OA
ATOM     24  H   UNL d   1       2.239   0.989   4.052  0.00  0.00     0.210 HD
ENDBRANCH  11  23
TORSDOF 1
