REMARK  3 active torsions:
REMARK  status: ('A' for Active; 'I' for Inactive)
REMARK    1  A    between atoms: C_8  and  C_4 
REMARK    2  A    between atoms: C_9  and  C_5 
REMARK    3  A    between atoms: O_14  and  N_10 
ROOT
ATOM      1  N   UNL d   1       1.333  -1.217  -0.069  0.00  0.00    -0.334 N 
ATOM      2  HN  UNL d   1       1.394  -2.234  -0.123  1.00  0.00     0.168 HD
ATOM      3  C   UNL d   1       0.264  -0.480  -0.002  0.00  0.00     0.147 A 
ATOM      4  C   UNL d   1       1.892   1.017  -0.028  0.00  0.00     0.081 A 
ATOM      5  C   UNL d   1       2.374  -0.295  -0.052  0.00  0.00     0.073 A 
ATOM      6  N   UNL d   1       0.540   0.841   0.040  0.00  0.00    -0.324 N 
ATOM      7  S   UNL d   1      -1.417  -0.828   0.005  0.00  0.00    -0.092 SA
ATOM      8  C   UNL d   1      -0.584   1.749   0.138  0.00  0.00     0.142 C 
ATOM      9  C   UNL d   1      -1.833   0.945  -0.237  0.00  0.00     0.102 C 
ENDROOT
BRANCH   5  10
ATOM     10  C   UNL d   1       3.766  -0.727  -0.046  0.00  0.00    -0.007 A 
ATOM     11  C   UNL d   1       4.771  -0.011   0.621  0.00  0.00     0.014 A 
ATOM     12  C   UNL d   1       6.094  -0.462   0.614  0.00  0.00     0.001 A 
ATOM     13  C   UNL d   1       6.424  -1.649  -0.034  0.00  0.00     0.000 A 
ATOM     14  C   UNL d   1       5.432  -2.388  -0.674  0.00  0.00     0.001 A 
ATOM     15  C   UNL d   1       4.112  -1.929  -0.680  0.00  0.00     0.014 A 
ENDBRANCH   5  10
BRANCH   4  16
ATOM     16  C   UNL d   1       2.583   2.272  -0.067  0.00  0.00     0.145 C 
ATOM     17  N   UNL d   1       2.030   3.349   0.396  0.00  0.00    -0.278 N 
ATOM     18  HN  UNL d   1       1.088   3.414   0.782  1.00  0.00     0.193 HD
BRANCH  17  19
ATOM     19  O   UNL d   1       2.938   4.410   0.278  0.00  0.00    -0.290 OA
ATOM     20  H   UNL d   1       2.492   5.129   0.763  0.00  0.00     0.244 HD
ENDBRANCH  17  19
ENDBRANCH   4  16
TORSDOF 3
