REMARK  4 active torsions:
REMARK  status: ('A' for Active; 'I' for Inactive)
REMARK    1  A    between atoms: C_5  and  N_1 
REMARK    2  A    between atoms: C_7  and  C_5 
REMARK       I    between atoms: N_14  and  C_7 
REMARK    3  A    between atoms: C_9  and  C_13 
REMARK    4  A    between atoms: N_10  and  N_14 
ROOT
ATOM      1  C   UNL d   1       3.678  -2.236   0.068  0.00  0.00     0.255 C 
ATOM      2  N   UNL d   1       4.380  -1.078  -0.216  0.00  0.00    -0.269 N 
ATOM      3  O   UNL d   1       4.219  -3.281   0.443  0.00  0.00    -0.270 OA
ATOM      4  H   UNL d   1       3.887  -0.248  -0.556  0.00  0.00     0.190 HD
ENDROOT
BRANCH   1   5
ATOM      5  C   UNL d   1       2.176  -2.229  -0.133  0.00  0.00     0.251 C 
BRANCH   5   6
ATOM      6  N   UNL d   1       1.501  -0.960  -0.336  0.00  0.00    -0.265 N 
ATOM      7  N   UNL d   1       2.130   0.107  -0.873  0.00  0.00    -0.019 NA
ATOM      8  N   UNL d   1       1.283   1.125  -0.859  0.00  0.00    -0.282 N 
ATOM      9  C   UNL d   1       0.082   0.672  -0.386  0.00  0.00     0.074 A 
ATOM     10  HN  UNL d   1       1.491   2.080  -1.151  1.00  0.00     0.184 HD
ATOM     11  C   UNL d   1       0.180  -0.680  -0.080  0.00  0.00     0.077 A 
ATOM     12  C   UNL d   1      -1.134   1.342  -0.191  0.00  0.00     0.033 A 
ATOM     13  C   UNL d   1      -0.905  -1.436   0.379  0.00  0.00     0.033 A 
ATOM     14  C   UNL d   1      -2.118  -0.756   0.552  0.00  0.00     0.002 A 
ATOM     15  C   UNL d   1      -2.230   0.611   0.284  0.00  0.00     0.002 A 
ENDBRANCH   5   6
ENDBRANCH   1   5
BRANCH   2  16
ATOM     16  N   UNL d   1       5.735  -1.038  -0.051  0.00  0.00    -0.308 N 
ATOM     17  C   UNL d   1       6.316   0.073  -0.369  0.00  0.00     0.126 C 
ATOM     18  HN  UNL d   1       6.259  -1.838   0.303  1.00  0.00     0.186 HD
BRANCH  17  19
ATOM     19  C   UNL d   1       7.745   0.214  -0.224  0.00  0.00     0.021 A 
ATOM     20  S   UNL d   1       8.500   1.674  -0.698  0.00  0.00    -0.101 SA
ATOM     21  C   UNL d   1      10.047   1.091  -0.251  0.00  0.00     0.050 A 
ATOM     22  C   UNL d   1       9.990  -0.189   0.253  0.00  0.00     0.008 A 
ATOM     23  C   UNL d   1       8.659  -0.696   0.268  0.00  0.00     0.021 A 
ENDBRANCH  17  19
ENDBRANCH   2  16
TORSDOF 4
