REMARK  3 active torsions:
REMARK  status: ('A' for Active; 'I' for Inactive)
REMARK    1  A    between atoms: N_10  and  N_12 
REMARK    2  A    between atoms: C_14  and  C_16 
REMARK    3  A    between atoms: O_19  and  C_15 
ROOT
ATOM      1  N   UNL d   1       1.818  -1.035   0.272  0.00  0.00    -0.333 N 
ATOM      2  HN  UNL d   1       2.229  -1.928  -0.001  1.00  0.00     0.168 HD
ATOM      3  C   UNL d   1       0.472  -0.843   0.575  0.00  0.00     0.073 A 
ATOM      4  C   UNL d   1       2.488   0.090   0.385  0.00  0.00     0.164 A 
ATOM      5  C   UNL d   1       0.135   0.466   0.927  0.00  0.00     0.038 A 
ATOM      6  S   UNL d   1       1.538   1.446   0.872  0.00  0.00    -0.050 SA
ATOM      7  C   UNL d   1      -0.577  -1.790   0.570  0.00  0.00     0.063 A 
ATOM      8  C   UNL d   1      -1.177   0.847   1.262  0.00  0.00     0.045 A 
ATOM      9  C   UNL d   1      -1.888  -1.445   0.897  0.00  0.00     0.050 A 
ATOM     10  N   UNL d   1       3.823   0.195   0.141  0.00  0.00    -0.280 N 
ATOM     11  C   UNL d   1      -2.174  -0.131   1.238  0.00  0.00     0.037 A 
ATOM     12 CL   UNL d   1      -0.156  -3.391   0.139  0.00  0.00    -0.082 Cl
ATOM     13 CL   UNL d   1      -3.788   0.313   1.641  0.00  0.00    -0.084 Cl
ATOM     14  H   UNL d   1       4.285  -0.660  -0.160  0.00  0.00     0.189 HD
ENDROOT
BRANCH  10  15
ATOM     15  N   UNL d   1       4.491   1.374   0.206  0.00  0.00    -0.309 N 
ATOM     16  C   UNL d   1       5.757   1.354  -0.058  0.00  0.00     0.121 C 
ATOM     17  HN  UNL d   1       4.015   2.241   0.453  1.00  0.00     0.186 HD
BRANCH  16  18
ATOM     18  C   UNL d   1       6.531   2.614  -0.016  0.00  0.00     0.014 A 
ATOM     19  C   UNL d   1       5.938   3.837   0.332  0.00  0.00     0.077 A 
ATOM     20  C   UNL d   1       6.692   5.007   0.346  0.00  0.00     0.037 A 
ATOM     21  C   UNL d   1       8.043   4.965   0.003  0.00  0.00     0.003 A 
ATOM     22  C   UNL d   1       8.640   3.751  -0.345  0.00  0.00     0.001 A 
ATOM     23  C   UNL d   1       7.888   2.573  -0.352  0.00  0.00     0.015 A 
BRANCH  19  24
ATOM     24  O   UNL d   1       4.617   3.967   0.667  0.00  0.00    -0.360 OA
ATOM     25  H   UNL d   1       4.203   3.079   0.586  0.00  0.00     0.217 HD
ENDBRANCH  19  24
ENDBRANCH  16  18
ENDBRANCH  10  15
TORSDOF 3
