REMARK  2 active torsions:
REMARK  status: ('A' for Active; 'I' for Inactive)
REMARK       I    between atoms: C_9  and  N_12 
REMARK       I    between atoms: N_15  and  C_9 
REMARK    1  A    between atoms: N_12  and  C_10 
REMARK    2  A    between atoms: C_19  and  N_15 
ROOT
ATOM      1  C   UNL d   1      -5.041  -0.505  -0.417  0.00  0.00     0.325 C 
ATOM      2  N   UNL d   1      -3.848  -1.199  -0.313  0.00  0.00    -0.309 N 
ATOM      3  N   UNL d   1      -4.854   0.860  -0.248  0.00  0.00    -0.309 N 
ATOM      4  O   UNL d   1      -6.130  -1.022  -0.635  0.00  0.00    -0.247 OA
ATOM      5  H   UNL d   1      -3.035  -0.656  -0.064  0.00  0.00     0.170 HD
ATOM      6  H   UNL d   1      -3.946   1.224  -0.490  0.00  0.00     0.170 HD
ENDROOT
BRANCH   2   7
ATOM      7  C   UNL d   1      -3.663  -2.596  -0.474  0.00  0.00     0.038 A 
ATOM      8  C   UNL d   1      -4.734  -3.477  -0.726  0.00  0.00     0.062 A 
ATOM      9  C   UNL d   1      -4.413  -4.841  -0.934  0.00  0.00     0.069 A 
ATOM     10  C   UNL d   1      -2.992  -5.315  -0.867  0.00  0.00     0.067 A 
ATOM     11  N   UNL d   1      -5.287  -5.823  -1.206  0.00  0.00    -0.310 N 
ATOM     12  N   UNL d   1      -2.859  -6.629  -1.105  0.00  0.00    -0.310 N 
ATOM     13  C   UNL d   1      -1.944  -4.412  -0.580  0.00  0.00     0.035 A 
ATOM     14  S   UNL d   1      -4.391  -7.210  -1.387  0.00  0.00     0.068 SA
ATOM     15  HN  UNL d   1      -1.991  -7.165  -1.113  1.00  0.00     0.176 HD
ATOM     16  C   UNL d   1      -2.322  -3.066  -0.388  0.00  0.00     0.032 A 
ATOM     17  HN  UNL d   1      -6.300  -5.736  -1.285  1.00  0.00     0.176 HD
ENDBRANCH   2   7
BRANCH   3  18
ATOM     18  C   UNL d   1      -5.895   1.803  -0.084  0.00  0.00     0.037 A 
ATOM     19  C   UNL d   1      -7.185   1.435   0.320  0.00  0.00     0.042 A 
ATOM     20  C   UNL d   1      -8.205   2.400   0.494  0.00  0.00    -0.017 A 
ATOM     21  C   UNL d   1      -9.573   2.239   0.896  0.00  0.00     0.020 A 
ATOM     22  C   UNL d   1      -7.894   3.739   0.259  0.00  0.00     0.015 A 
ATOM     23  C   UNL d   1     -10.253   3.432   0.958  0.00  0.00     0.051 A 
ATOM     24  S   UNL d   1      -9.262   4.753   0.526  0.00  0.00    -0.101 SA
ATOM     25  C   UNL d   1      -6.600   4.130  -0.139  0.00  0.00     0.022 A 
ATOM     26  C   UNL d   1      -5.611   3.150  -0.295  0.00  0.00     0.031 A 
ENDBRANCH   3  18
TORSDOF 2
