REMARK  5 active torsions:
REMARK  status: ('A' for Active; 'I' for Inactive)
REMARK    1  A    between atoms: C_6  and  C_1 
REMARK    2  A    between atoms: C_3  and  C_6 
REMARK    3  A    between atoms: C_15  and  C_4 
REMARK    4  A    between atoms: N_7  and  C_12 
REMARK    5  A    between atoms: C_17  and  C_9 
ROOT
ATOM      1  C   UNL d   1      -0.752  -3.567  -1.096  0.00  0.00     0.096 C 
ATOM      2  C   UNL d   1      -0.665  -4.910  -0.975  0.00  0.00     0.038 C 
ATOM      3  C   UNL d   1      -1.706  -3.055  -2.023  0.00  0.00     0.103 C 
ATOM      4  N   UNL d   1      -2.513  -2.675  -2.765  0.00  0.00    -0.191 NA
ENDROOT
BRANCH   1   5
ATOM      5  C   UNL d   1       0.158  -2.634  -0.353  0.00  0.00     0.205 C 
ATOM      6  O   UNL d   1       1.244  -3.011   0.080  0.00  0.00    -0.286 OA
BRANCH   5   7
ATOM      7  C   UNL d   1      -0.274  -1.246  -0.205  0.00  0.00     0.048 A 
ATOM      8  C   UNL d   1      -1.581  -0.677  -0.107  0.00  0.00     0.056 A 
ATOM      9  C   UNL d   1      -1.432   0.689   0.032  0.00  0.00     0.086 A 
ATOM     10  O   UNL d   1      -0.106   0.995   0.060  0.00  0.00    -0.314 OA
ATOM     11  C   UNL d   1       0.591  -0.169  -0.064  0.00  0.00     0.064 A 
ATOM     12  C   UNL d   1       2.063  -0.015  -0.036  0.00  0.00     0.077 C 
BRANCH   9  13
ATOM     13  C   UNL d   1      -2.365   1.800   0.169  0.00  0.00    -0.002 A 
ATOM     14  C   UNL d   1      -1.980   3.003   0.779  0.00  0.00     0.014 A 
ATOM     15  C   UNL d   1      -2.902   4.036   0.966  0.00  0.00     0.001 A 
ATOM     16  C   UNL d   1      -4.218   3.885   0.534  0.00  0.00     0.000 A 
ATOM     17  C   UNL d   1      -4.610   2.706  -0.096  0.00  0.00     0.001 A 
ATOM     18  C   UNL d   1      -3.689   1.671  -0.278  0.00  0.00     0.014 A 
ENDBRANCH   9  13
ENDBRANCH   5   7
ENDBRANCH   1   5
BRANCH   2  19
ATOM     19  C   UNL d   1       0.222  -5.682  -0.101  0.00  0.00    -0.035 A 
ATOM     20  C   UNL d   1      -0.215  -6.056   1.176  0.00  0.00     0.014 A 
ATOM     21  C   UNL d   1       0.600  -6.839   1.998  0.00  0.00     0.037 A 
ATOM     22  C   UNL d   1       1.858  -7.249   1.537  0.00  0.00     0.102 A 
ATOM     23  C   UNL d   1       2.310  -6.867   0.267  0.00  0.00     0.037 A 
ATOM     24  C   UNL d   1       1.487  -6.084  -0.548  0.00  0.00     0.014 A 
BRANCH  22  25
ATOM     25  N   UNL d   1       2.700  -8.104   2.384  0.00  0.00    -0.116 N 
ATOM     26  O   UNL d   1       2.254  -8.436   3.491  0.00  0.00    -0.532 OA
ATOM     27  O   UNL d   1       3.801  -8.455   1.936  0.00  0.00    -0.532 OA
ENDBRANCH  22  25
ENDBRANCH   2  19
TORSDOF 5
