REMARK  1 active torsions:
REMARK  status: ('A' for Active; 'I' for Inactive)
REMARK    1  A    between atoms: C_5  and  C_2 
ROOT
ATOM      1  C   UNL d   1      -0.285   0.625   0.476  0.00  0.00     0.150 A 
ATOM      2  C   UNL d   1       1.019   0.597   0.028  0.00  0.00     0.124 A 
ATOM      3  N   UNL d   1      -0.899  -0.589   0.261  0.00  0.00    -0.336 N 
ATOM      4  HN  UNL d   1      -1.855  -0.865   0.488  1.00  0.00     0.168 HD
ATOM      5  C   UNL d   1      -0.976   1.718   1.079  0.00  0.00     0.120 C 
ATOM      6  C   UNL d   1       0.044  -1.303  -0.308  0.00  0.00     0.235 A 
ATOM      7  N   UNL d   1      -1.502   2.627   1.576  0.00  0.00    -0.190 NA
ATOM      8  O   UNL d   1       1.228  -0.658  -0.495  0.00  0.00    -0.302 OA
ENDROOT
BRANCH   2   9
ATOM      9  C   UNL d   1       2.159   1.500   0.005  0.00  0.00     0.002 A 
ATOM     10  C   UNL d   1       3.099   1.438  -1.035  0.00  0.00     0.038 A 
ATOM     11  C   UNL d   1       4.206   2.287  -1.038  0.00  0.00     0.035 A 
ATOM     12 CL   UNL d   1       5.350   2.195  -2.321  0.00  0.00    -0.084 Cl
ATOM     13  C   UNL d   1       4.397   3.207  -0.011  0.00  0.00     0.024 A 
ATOM     14  C   UNL d   1       3.468   3.284   1.025  0.00  0.00     0.003 A 
ATOM     15  C   UNL d   1       2.356   2.437   1.031  0.00  0.00     0.014 A 
ENDBRANCH   2   9
TORSDOF 1
