REMARK  2 active torsions:
REMARK  status: ('A' for Active; 'I' for Inactive)
REMARK    1  A    between atoms: C_9  and  C_8 
REMARK    2  A    between atoms: O_15  and  C_9 
ROOT
ATOM      1  C   UNL d   1      -1.260  -0.750  -0.020  0.00  0.00     0.050 A 
ATOM      2  C   UNL d   1       0.001  -1.502  -0.022  0.00  0.00     0.198 A 
ATOM      3  O   UNL d   1      -0.031   1.358  -0.024  0.00  0.00    -0.307 OA
ATOM      4  C   UNL d   1       1.244  -0.719  -0.011  0.00  0.00     0.051 A 
ATOM      5  C   UNL d   1       1.163   0.674  -0.013  0.00  0.00     0.112 A 
ATOM      6  C   UNL d   1      -1.202   0.641  -0.020  0.00  0.00     0.090 A 
ATOM      7  C   UNL d   1      -2.490  -1.416  -0.008  0.00  0.00     0.036 A 
ATOM      8  C   UNL d   1      -3.678  -0.676  -0.001  0.00  0.00     0.038 A 
ATOM      9  O   UNL d   1       0.015  -2.725  -0.038  0.00  0.00    -0.286 OA
ATOM     10  C   UNL d   1       2.349   1.417  -0.004  0.00  0.00     0.068 A 
ATOM     11  C   UNL d   1      -2.387   1.379  -0.004  0.00  0.00     0.039 A 
ATOM     12  C   UNL d   1      -3.624   0.725   0.015  0.00  0.00     0.021 A 
ATOM     13  C   UNL d   1       2.483  -1.370  -0.002  0.00  0.00     0.018 A 
ATOM     14 CL   UNL d   1       2.326   3.144  -0.005  0.00  0.00    -0.081 Cl
ATOM     15  C   UNL d   1       3.658  -0.622   0.004  0.00  0.00     0.003 A 
ATOM     16  C   UNL d   1       3.591   0.772   0.004  0.00  0.00     0.027 A 
ENDROOT
BRANCH   8  17
ATOM     17  C   UNL d   1      -4.961  -1.423   0.053  0.00  0.00     0.176 C 
ATOM     18  O   UNL d   1      -5.066  -2.514   0.584  0.00  0.00    -0.646 OA
BRANCH  17  19
ATOM     19  O   UNL d   1      -5.986  -0.801  -0.564  0.00  0.00    -0.773 OA
ATOM     20  H   UNL d   1      -5.747  -0.031  -1.111  0.00  0.00     0.167 HD
ENDBRANCH  17  19
ENDBRANCH   8  17
TORSDOF 2
