REMARK  3 active torsions:
REMARK  status: ('A' for Active; 'I' for Inactive)
REMARK    1  A    between atoms: C_8  and  C_1 
REMARK    2  A    between atoms: N_9  and  N_2 
REMARK    3  A    between atoms: C_13  and  N_9 
ROOT
ATOM      1  C   UNL d   1       0.948  -0.051  -0.044  0.00  0.00     0.155 C 
ATOM      2  N   UNL d   1       0.299  -1.182  -0.011  0.00  0.00    -0.288 N 
ATOM      3  HN  UNL d   1      -0.720  -1.183   0.033  1.00  0.00     0.188 HD
ATOM      4  C   UNL d   1       2.391  -0.080  -0.086  0.00  0.00     0.121 C 
ATOM      5  N   UNL d   1       3.548  -0.179  -0.095  0.00  0.00    -0.190 NA
ENDROOT
BRANCH   1   6
ATOM      6  C   UNL d   1       0.285   1.271  -0.048  0.00  0.00     0.071 A 
ATOM      7  N   UNL d   1       1.101   2.355  -0.072  0.00  0.00    -0.363 N 
ATOM      8  C   UNL d   1       0.510   3.570  -0.085  0.00  0.00     0.088 A 
ATOM      9  HN  UNL d   1       2.116   2.257  -0.080  1.00  0.00     0.165 HD
ATOM     10  C   UNL d   1      -0.861   3.757  -0.072  0.00  0.00     0.017 A 
ATOM     11  C   UNL d   1      -1.681   2.633  -0.045  0.00  0.00     0.004 A 
ATOM     12  C   UNL d   1      -1.103   1.365  -0.033  0.00  0.00     0.032 A 
ENDBRANCH   1   6
BRANCH   2  13
ATOM     13  N   UNL d   1       0.982  -2.364  -0.035  0.00  0.00    -0.300 N 
ATOM     14  H   UNL d   1       1.923  -2.439   0.364  0.00  0.00     0.187 HD
BRANCH  13  15
ATOM     15  C   UNL d   1       0.243  -3.564   0.056  0.00  0.00     0.049 A 
ATOM     16  C   UNL d   1      -1.154  -3.578   0.006  0.00  0.00     0.055 A 
ATOM     17  C   UNL d   1      -1.867  -4.779   0.050  0.00  0.00     0.042 A 
ATOM     18 CL   UNL d   1      -3.593  -4.691   0.016  0.00  0.00    -0.084 Cl
ATOM     19  C   UNL d   1      -1.196  -6.008   0.117  0.00  0.00    -0.040 A 
ATOM     20  C   UNL d   1       0.206  -6.001   0.114  0.00  0.00     0.011 A 
ATOM     21  C   UNL d   1      -1.939  -7.311   0.185  0.00  0.00     0.050 C 
ATOM     22  C   UNL d   1       0.914  -4.793   0.075  0.00  0.00     0.031 A 
ENDBRANCH  13  15
ENDBRANCH   2  13
TORSDOF 3
