REMARK  8 active torsions:
REMARK  status: ('A' for Active; 'I' for Inactive)
REMARK    1  A    between atoms: C_7  and  N_1 
REMARK    2  A    between atoms: S_17  and  C_2 
REMARK    3  A    between atoms: C_16  and  C_8 
REMARK    4  A    between atoms: C_9  and  C_11 
REMARK    5  A    between atoms: C_10  and  C_12 
REMARK    6  A    between atoms: C_26  and  C_16 
REMARK    7  A    between atoms: C_24  and  C_26 
REMARK    8  A    between atoms: O_31  and  C_25 
ROOT
ATOM      1  N   UNL d   1      -0.228  -1.252  -0.019  0.00  0.00    -0.279 N 
ATOM      2  C   UNL d   1       0.999  -0.590  -0.007  0.00  0.00     0.164 A 
ATOM      3  N   UNL d   1       0.822   0.709  -0.077  0.00  0.00    -0.278 N 
ATOM      4  HN  UNL d   1       1.557   1.416  -0.064  1.00  0.00     0.189 HD
ATOM      5  N   UNL d   1      -0.512   0.946  -0.169  0.00  0.00    -0.286 N 
ATOM      6  HN  UNL d   1      -0.946   1.865  -0.254  1.00  0.00     0.188 HD
ATOM      7  C   UNL d   1      -1.154  -0.205  -0.132  0.00  0.00     0.105 A 
ENDROOT
BRANCH   1   8
ATOM      8  C   UNL d   1      -0.490  -2.660   0.074  0.00  0.00     0.044 A 
ATOM      9  C   UNL d   1       0.349  -3.505   0.817  0.00  0.00     0.046 A 
ATOM     10  C   UNL d   1       0.131  -4.896   0.864  0.00  0.00     0.050 A 
ATOM     11  C   UNL d   1      -0.991  -5.430   0.215  0.00  0.00     0.032 A 
ATOM     12  C   UNL d   1      -1.873  -4.601  -0.491  0.00  0.00     0.050 A 
ATOM     13  C   UNL d   1      -1.593  -3.225  -0.581  0.00  0.00     0.046 A 
BRANCH  10  14
ATOM     14  C   UNL d   1       1.081  -5.817   1.601  0.00  0.00     0.417 C 
ATOM     15  F   UNL d   1       2.144  -5.170   2.147  0.00  0.00    -0.166 F 
ATOM     16  F   UNL d   1       0.473  -6.482   2.618  0.00  0.00    -0.166 F 
ATOM     17  F   UNL d   1       1.603  -6.771   0.782  0.00  0.00    -0.166 F 
ENDBRANCH  10  14
BRANCH  12  18
ATOM     18  C   UNL d   1      -3.107  -5.191  -1.139  0.00  0.00     0.417 C 
ATOM     19  F   UNL d   1      -3.881  -4.265  -1.768  0.00  0.00    -0.166 F 
ATOM     20  F   UNL d   1      -2.806  -6.131  -2.073  0.00  0.00    -0.166 F 
ATOM     21  F   UNL d   1      -3.917  -5.803  -0.232  0.00  0.00    -0.166 F 
ENDBRANCH  12  18
ENDBRANCH   1   8
BRANCH   2  22
ATOM     22  S   UNL d   1       2.588  -1.286  -0.086  0.00  0.00    -0.105 SA
ATOM     23  H   UNL d   1       2.290  -2.481  -0.610  0.00  0.00     0.110 HD
ENDBRANCH   2  22
BRANCH   7  24
ATOM     24  C   UNL d   1      -2.650  -0.311  -0.086  0.00  0.00     0.083 C 
BRANCH  24  25
ATOM     25  C   UNL d   1      -3.327   1.062   0.065  0.00  0.00     0.046 C 
BRANCH  25  26
ATOM     26  C   UNL d   1      -4.835   0.975   0.144  0.00  0.00    -0.058 A 
ATOM     27  C   UNL d   1      -5.457   0.355   1.238  0.00  0.00     0.010 A 
ATOM     28  C   UNL d   1      -6.849   0.299   1.323  0.00  0.00     0.037 A 
ATOM     29  C   UNL d   1      -7.625   0.871   0.324  0.00  0.00     0.065 A 
ATOM     30  C   UNL d   1      -7.032   1.497  -0.766  0.00  0.00     0.037 A 
ATOM     31  C   UNL d   1      -5.638   1.547  -0.856  0.00  0.00     0.010 A 
BRANCH  29  32
ATOM     32  O   UNL d   1      -8.981   0.802   0.455  0.00  0.00    -0.361 OA
ATOM     33  H   UNL d   1      -9.388   1.266  -0.293  0.00  0.00     0.217 HD
ENDBRANCH  29  32
ENDBRANCH  25  26
ENDBRANCH  24  25
ENDBRANCH   7  24
TORSDOF 8
