REMARK  3 active torsions:
REMARK  status: ('A' for Active; 'I' for Inactive)
REMARK       I    between atoms: N_2  and  C_1 
REMARK       I    between atoms: N_6  and  C_1 
REMARK    1  A    between atoms: C_9  and  N_2 
REMARK    2  A    between atoms: C_3  and  C_8 
REMARK    3  A    between atoms: C_8  and  N_6 
ROOT
ATOM      1  C   UNL d   1       1.027  -0.029  -0.128  0.00  0.00     0.320 C 
ATOM      2  N   UNL d   1       0.450  -0.912   0.757  0.00  0.00    -0.309 N 
ATOM      3  N   UNL d   1       0.125   0.508  -1.014  0.00  0.00    -0.342 N 
ATOM      4  O   UNL d   1       2.218   0.264  -0.172  0.00  0.00    -0.247 OA
ATOM      5  H   UNL d   1      -0.479  -1.230   0.532  0.00  0.00     0.170 HD
ATOM      6  H   UNL d   1      -0.861   0.412  -0.840  0.00  0.00     0.164 HD
ENDROOT
BRANCH   2   7
ATOM      7  C   UNL d   1       1.124  -1.575   1.811  0.00  0.00     0.036 A 
ATOM      8  C   UNL d   1       2.398  -1.202   2.253  0.00  0.00     0.031 A 
ATOM      9  C   UNL d   1       3.040  -1.902   3.278  0.00  0.00     0.026 A 
ATOM     10  C   UNL d   1       2.403  -2.978   3.881  0.00  0.00     0.034 A 
ATOM     11  C   UNL d   1       1.125  -3.353   3.472  0.00  0.00     0.026 A 
ATOM     12 CL   UNL d   1       3.197  -3.842   5.139  0.00  0.00    -0.084 Cl
ATOM     13  C   UNL d   1       0.483  -2.649   2.443  0.00  0.00     0.031 A 
ENDBRANCH   2   7
BRANCH   3  14
ATOM     14  C   UNL d   1       0.558   1.499  -1.976  0.00  0.00     0.129 C 
BRANCH  14  15
ATOM     15  C   UNL d   1       0.132   1.097  -3.352  0.00  0.00     0.003 A 
ATOM     16  C   UNL d   1       0.592  -0.200  -3.974  0.00  0.00     0.007 A 
ATOM     17  C   UNL d   1       1.145   1.103  -4.473  0.00  0.00     0.007 A 
ENDBRANCH  14  15
ENDBRANCH   3  14
TORSDOF 3
