REMARK  7 active torsions:
REMARK  status: ('A' for Active; 'I' for Inactive)
REMARK    1  A    between atoms: C_7  and  C_1 
REMARK    2  A    between atoms: C_9  and  N_2 
REMARK    3  A    between atoms: C_8  and  C_5 
REMARK       I    between atoms: C_10  and  N_14 
REMARK    4  A    between atoms: C_11  and  C_10 
REMARK    5  A    between atoms: C_12  and  C_13 
REMARK    6  A    between atoms: O_26  and  C_12 
REMARK    7  A    between atoms: N_14  and  C_25 
ROOT
ATOM      1  C   UNL d   1       1.785   1.784   0.278  0.00  0.00     0.057 A 
ATOM      2  C   UNL d   1       2.367   1.905  -0.989  0.00  0.00     0.034 A 
ATOM      3  C   UNL d   1       2.287   2.541   1.339  0.00  0.00     0.034 A 
ATOM      4  C   UNL d   1       4.066   3.394  -0.079  0.00  0.00     0.035 A 
ATOM      5  C   UNL d   1       3.515   2.690  -1.159  0.00  0.00     0.032 A 
ATOM      6  C   UNL d   1       3.415   3.344   1.155  0.00  0.00     0.032 A 
ENDROOT
BRANCH   1   7
ATOM      7  N   UNL d   1       0.685   0.907   0.468  0.00  0.00    -0.251 N 
ATOM      8  C   UNL d   1       0.333   0.162   1.570  0.00  0.00     0.142 C 
ATOM      9  C   UNL d   1      -0.948  -0.296   1.334  0.00  0.00     0.072 C 
ATOM     10  C   UNL d   1      -1.266   0.118   0.020  0.00  0.00     0.134 C 
ATOM     11  N   UNL d   1      -0.215   0.747  -0.538  0.00  0.00    -0.289 N 
ATOM     12  HN  UNL d   1      -0.115   1.041  -1.510  1.00  0.00     0.187 HD
BRANCH   8  13
ATOM     13  C   UNL d   1       1.227  -0.114   2.708  0.00  0.00     0.434 C 
ATOM     14  F   UNL d   1       2.542  -0.004   2.419  0.00  0.00    -0.165 F 
ATOM     15  F   UNL d   1       0.968   0.715   3.749  0.00  0.00    -0.165 F 
ATOM     16  F   UNL d   1       1.047  -1.379   3.168  0.00  0.00    -0.165 F 
ENDBRANCH   8  13
BRANCH  10  17
ATOM     17  C   UNL d   1      -2.571  -0.131  -0.693  0.00  0.00     0.434 C 
ATOM     18  F   UNL d   1      -2.685   0.527  -1.875  0.00  0.00    -0.165 F 
ATOM     19  F   UNL d   1      -2.756  -1.453  -0.953  0.00  0.00    -0.165 F 
ATOM     20  F   UNL d   1      -3.628   0.259   0.073  0.00  0.00    -0.165 F 
ENDBRANCH  10  17
ENDBRANCH   1   7
BRANCH   4  21
ATOM     21  N   UNL d   1       5.281   4.084  -0.294  0.00  0.00    -0.324 N 
ATOM     22  C   UNL d   1       6.011   4.770   0.654  0.00  0.00     0.245 C 
ATOM     23  O   UNL d   1       5.686   5.016   1.808  0.00  0.00    -0.268 OA
ATOM     24  H   UNL d   1       5.677   3.993  -1.220  0.00  0.00     0.169 HD
BRANCH  22  25
ATOM     25  C   UNL d   1       7.338   5.205   0.149  0.00  0.00     0.081 C 
ATOM     26  C   UNL d   1       8.177   5.806   1.007  0.00  0.00     0.086 C 
BRANCH  26  27
ATOM     27  C   UNL d   1       9.510   6.213   0.544  0.00  0.00     0.165 C 
ATOM     28  O   UNL d   1       9.923   6.017  -0.583  0.00  0.00    -0.647 OA
BRANCH  27  29
ATOM     29  O   UNL d   1      10.222   6.823   1.505  0.00  0.00    -0.773 OA
ATOM     30  H   UNL d   1       9.774   6.924   2.365  0.00  0.00     0.167 HD
ENDBRANCH  27  29
ENDBRANCH  26  27
ENDBRANCH  22  25
ENDBRANCH   4  21
TORSDOF 7
