REMARK  10 active torsions:
REMARK  status: ('A' for Active; 'I' for Inactive)
REMARK    1  A    between atoms: N_4  and  C_1 
REMARK       I    between atoms: C_9  and  N_4 
REMARK    2  A    between atoms: C_7  and  C_5 
REMARK    3  A    between atoms: C_10  and  C_7 
REMARK    4  A    between atoms: C_17  and  C_9 
REMARK    5  A    between atoms: O_16  and  C_10 
REMARK    6  A    between atoms: C_11  and  C_18 
REMARK    7  A    between atoms: O_15  and  C_11 
REMARK    8  A    between atoms: C_20  and  O_16 
REMARK    9  A    between atoms: C_19  and  C_17 
REMARK   10  A    between atoms: C_18  and  C_19 
ROOT
ATOM      1  C   UNL d   1       0.191  -1.180   0.043  0.00  0.00     0.151 A 
ATOM      2  N   UNL d   1       1.399  -0.666  -0.029  0.00  0.00    -0.339 N 
ATOM      3  HN  UNL d   1       2.264  -1.203  -0.085  1.00  0.00     0.168 HD
ATOM      4  C   UNL d   1       1.315   0.725  -0.014  0.00  0.00     0.027 A 
ATOM      5  S   UNL d   1      -1.095  -0.058  -0.010  0.00  0.00    -0.064 SA
ATOM      6  C   UNL d   1       0.026   1.224   0.011  0.00  0.00     0.078 A 
ENDROOT
BRANCH   1   7
ATOM      7  N   UNL d   1      -0.034  -2.539   0.076  0.00  0.00    -0.307 N 
ATOM      8  C   UNL d   1      -1.206  -3.111   0.511  0.00  0.00     0.223 C 
ATOM      9  O   UNL d   1      -2.154  -2.525   1.030  0.00  0.00    -0.273 OA
ATOM     10  H   UNL d   1       0.792  -3.103  -0.059  0.00  0.00     0.171 HD
BRANCH   8  11
ATOM     11  C   UNL d   1      -1.265  -4.613   0.328  0.00  0.00     0.103 C 
BRANCH  11  12
ATOM     12  C   UNL d   1      -2.715  -5.080   0.115  0.00  0.00     0.019 C 
BRANCH  12  13
ATOM     13  C   UNL d   1      -3.342  -4.535  -1.174  0.00  0.00     0.110 C 
BRANCH  13  14
ATOM     14  C   UNL d   1      -2.633  -5.044  -2.407  0.00  0.00     0.139 C 
ATOM     15  O   UNL d   1      -2.054  -6.114  -2.481  0.00  0.00    -0.650 OA
BRANCH  14  16
ATOM     16  O   UNL d   1      -2.706  -4.189  -3.451  0.00  0.00    -0.776 OA
ATOM     17  H   UNL d   1      -3.199  -3.366  -3.267  0.00  0.00     0.167 HD
ENDBRANCH  14  16
ENDBRANCH  13  14
ENDBRANCH  12  13
ENDBRANCH  11  12
ENDBRANCH   8  11
ENDBRANCH   1   7
BRANCH   4  18
ATOM     18  C   UNL d   1       2.565   1.538  -0.003  0.00  0.00     0.168 C 
BRANCH  18  19
ATOM     19  C   UNL d   1       2.701   2.388  -1.244  0.00  0.00     0.264 C 
ATOM     20  O   UNL d   1       1.880   2.496  -2.144  0.00  0.00    -0.265 OA
BRANCH  19  21
ATOM     21  O   UNL d   1       3.923   2.999  -1.230  0.00  0.00    -0.322 OA
BRANCH  21  22
ATOM     22  C   UNL d   1       4.362   3.494  -2.503  0.00  0.00     0.174 C 
ATOM     23  C   UNL d   1       5.087   2.362  -3.208  0.00  0.00     0.034 C 
ENDBRANCH  21  22
ENDBRANCH  19  21
ENDBRANCH  18  19
ENDBRANCH   4  18
TORSDOF 10
