REMARK  2 active torsions:
REMARK  status: ('A' for Active; 'I' for Inactive)
REMARK    1  A    between atoms: C_8  and  C_3 
REMARK    2  A    between atoms: O_13  and  C_8 
ROOT
ATOM      1  N   UNL d   1      -0.096  -0.727   0.011  0.00  0.00    -0.293 N 
ATOM      2  C   UNL d   1       1.139  -1.318   0.010  0.00  0.00     0.268 A 
ATOM      3  C   UNL d   1       2.295  -0.400   0.013  0.00  0.00     0.121 A 
ATOM      4  C   UNL d   1      -0.222   0.631  -0.010  0.00  0.00     0.149 A 
ATOM      5  N   UNL d   1       0.759   1.465  -0.010  0.00  0.00    -0.345 N 
ATOM      6  HN  UNL d   1       0.611   2.474  -0.020  1.00  0.00     0.167 HD
ATOM      7  C   UNL d   1       2.020   0.914   0.005  0.00  0.00     0.114 A 
ATOM      8  S   UNL d   1      -1.883   1.122  -0.044  0.00  0.00    -0.092 SA
ATOM      9  O   UNL d   1       1.322  -2.535   0.003  0.00  0.00    -0.267 OA
ATOM     10  C   UNL d   1      -1.318  -1.495  -0.025  0.00  0.00     0.145 A 
ATOM     11  C   UNL d   1      -2.522  -0.570   0.027  0.00  0.00     0.103 A 
ENDROOT
BRANCH   3  12
ATOM     12  C   UNL d   1       3.699  -0.851   0.014  0.00  0.00     0.183 C 
ATOM     13  O   UNL d   1       4.651  -0.084   0.013  0.00  0.00    -0.646 OA
BRANCH  12  14
ATOM     14  O   UNL d   1       3.864  -2.192   0.014  0.00  0.00    -0.772 OA
ATOM     15  H   UNL d   1       3.026  -2.715   0.011  0.00  0.00     0.167 HD
ENDBRANCH  12  14
ENDBRANCH   3  12
TORSDOF 2
