REMARK  2 active torsions:
REMARK  status: ('A' for Active; 'I' for Inactive)
REMARK    1  A    between atoms: C_15  and  N_3 
REMARK    2  A    between atoms: C_16  and  C_9 
ROOT
ATOM      1  C   UNL d   1       1.475  -0.602  -0.088  0.00  0.00     0.137 A 
ATOM      2  C   UNL d   1       1.502   0.775  -0.020  0.00  0.00     0.025 A 
ATOM      3  N   UNL d   1       2.780  -1.042   0.061  0.00  0.00    -0.239 N 
ATOM      4  N   UNL d   1       3.622   0.010   0.280  0.00  0.00    -0.296 N 
ATOM      5  HN  UNL d   1       4.615  -0.030   0.508  1.00  0.00     0.187 HD
ATOM      6  C   UNL d   1      -0.978   0.691  -0.224  0.00  0.00     0.023 A 
ATOM      7  N   UNL d   1       0.320  -1.321  -0.188  0.00  0.00    -0.343 N 
ATOM      8  C   UNL d   1      -0.909  -0.663  -0.255  0.00  0.00     0.022 A 
ATOM      9  C   UNL d   1       0.242   1.591  -0.076  0.00  0.00     0.097 A 
ATOM     10  C   UNL d   1       2.865   1.106   0.132  0.00  0.00     0.033 A 
ATOM     11  C   UNL d   1      -2.291   1.374  -0.312  0.00  0.00     0.159 C 
ATOM     12  C   UNL d   1      -2.167  -1.499  -0.299  0.00  0.00     0.067 C 
ATOM     13  C   UNL d   1      -3.331  -0.845   0.483  0.00  0.00    -0.036 C 
ATOM     14  C   UNL d   1      -3.553   0.601  -0.003  0.00  0.00     0.092 C 
ATOM     15  O   UNL d   1      -2.343   2.553  -0.662  0.00  0.00    -0.293 OA
ATOM     16  C   UNL d   1       3.497   2.448   0.185  0.00  0.00     0.070 C 
ATOM     17  C   UNL d   1      -3.036  -0.871   1.998  0.00  0.00     0.015 C 
ATOM     18  C   UNL d   1      -4.628  -1.640   0.244  0.00  0.00     0.015 C 
ATOM     19  H   UNL d   1       0.296  -2.333  -0.077  0.00  0.00     0.167 HD
ENDROOT
BRANCH   9  20
ATOM     20  C   UNL d   1       0.208   2.359   1.236  0.00  0.00    -0.029 A 
ATOM     21  C   UNL d   1       0.172   3.751   1.229  0.00  0.00     0.095 A 
ATOM     22  N   UNL d   1       0.139   4.519   2.342  0.00  0.00    -0.375 N 
ATOM     23  C   UNL d   1       0.109   3.871   3.525  0.00  0.00     0.087 A 
ATOM     24  HN  UNL d   1       0.136   5.537   2.290  1.00  0.00     0.164 HD
ATOM     25  C   UNL d   1       0.115   2.493   3.651  0.00  0.00     0.018 A 
ATOM     26  C   UNL d   1       0.168   1.731   2.490  0.00  0.00     0.011 A 
ENDBRANCH   9  20
BRANCH   3  27
ATOM     27  C   UNL d   1       3.303  -2.358  -0.004  0.00  0.00     0.058 A 
ATOM     28  C   UNL d   1       2.711  -3.330  -0.819  0.00  0.00     0.031 A 
ATOM     29  C   UNL d   1       3.274  -4.606  -0.896  0.00  0.00     0.002 A 
ATOM     30  C   UNL d   1       4.410  -4.921  -0.149  0.00  0.00     0.000 A 
ATOM     31  C   UNL d   1       5.001  -3.955   0.663  0.00  0.00     0.002 A 
ATOM     32  C   UNL d   1       4.462  -2.669   0.722  0.00  0.00     0.031 A 
ENDBRANCH   3  27
TORSDOF 2
