REMARK  5 active torsions:
REMARK  status: ('A' for Active; 'I' for Inactive)
REMARK    1  A    between atoms: C_12  and  N_3 
REMARK    2  A    between atoms: O_14  and  C_12 
REMARK    3  A    between atoms: C_17  and  O_14 
REMARK    4  A    between atoms: O_15  and  C_16 
REMARK    5  A    between atoms: C_16  and  C_17 
ROOT
ATOM      1  C   UNL d   1       0.316  -0.704  -0.001  0.00  0.00     0.146 A 
ATOM      2  C   UNL d   1       0.211   0.673  -0.006  0.00  0.00     0.144 A 
ATOM      3  N   UNL d   1       1.503   1.119  -0.021  0.00  0.00    -0.305 N 
ATOM      4  N   UNL d   1       1.625  -1.112   0.009  0.00  0.00    -0.345 N 
ATOM      5  HN  UNL d   1       1.983  -2.067   0.025  1.00  0.00     0.167 HD
ATOM      6  N   UNL d   1      -0.917   1.427   0.001  0.00  0.00    -0.336 N 
ATOM      7  HN  UNL d   1      -0.917   2.447   0.008  1.00  0.00     0.168 HD
ATOM      8  C   UNL d   1      -0.906  -1.483   0.003  0.00  0.00     0.277 A 
ATOM      9  C   UNL d   1       2.314   0.011  -0.007  0.00  0.00     0.187 A 
ATOM     10  N   UNL d   1      -2.037  -0.679  -0.002  0.00  0.00    -0.318 N 
ATOM     11  C   UNL d   1      -1.997   0.704  -0.002  0.00  0.00     0.185 A 
ATOM     12  O   UNL d   1      -0.983  -2.706   0.011  0.00  0.00    -0.266 OA
ATOM     13  H   UNL d   1      -2.917  -1.172  -0.003  0.00  0.00     0.169 HD
ENDROOT
BRANCH   3  14
ATOM     14  C   UNL d   1       1.969   2.490   0.002  0.00  0.00     0.301 C 
BRANCH  14  15
ATOM     15  O   UNL d   1       2.789   2.700  -1.146  0.00  0.00    -0.369 OA
BRANCH  15  16
ATOM     16  C   UNL d   1       3.311   4.027  -1.183  0.00  0.00     0.196 C 
BRANCH  16  17
ATOM     17  C   UNL d   1       4.155   4.199  -2.441  0.00  0.00     0.190 C 
BRANCH  17  18
ATOM     18  O   UNL d   1       4.692   5.514  -2.497  0.00  0.00    -0.399 OA
ATOM     19  H   UNL d   1       5.213   5.571  -3.317  0.00  0.00     0.209 HD
ENDBRANCH  17  18
ENDBRANCH  16  17
ENDBRANCH  15  16
ENDBRANCH  14  15
ENDBRANCH   3  14
TORSDOF 5
