REMARK  4 active torsions:
REMARK  status: ('A' for Active; 'I' for Inactive)
REMARK    1  A    between atoms: C_8  and  C_3 
REMARK    2  A    between atoms: C_9  and  C_4 
REMARK    3  A    between atoms: C_10  and  C_5 
REMARK    4  A    between atoms: O_16  and  C_13 
ROOT
ATOM      1  N   UNL d   1      -1.336  -0.038  -0.019  0.00  0.00    -0.355 N 
ATOM      2  HN  UNL d   1      -2.355  -0.072  -0.021  1.00  0.00     0.166 HD
ATOM      3  C   UNL d   1      -0.686   1.150  -0.023  0.00  0.00     0.043 A 
ATOM      4  C   UNL d   1      -0.607  -1.182  -0.013  0.00  0.00     0.043 A 
ATOM      5  C   UNL d   1       1.482   0.055  -0.007  0.00  0.00    -0.022 A 
ATOM      6  C   UNL d   1       0.708   1.220  -0.017  0.00  0.00     0.042 A 
ATOM      7  C   UNL d   1       0.788  -1.160  -0.012  0.00  0.00     0.042 A 
ENDROOT
BRANCH   3   8
ATOM      8  C   UNL d   1      -1.533   2.362  -0.048  0.00  0.00    -0.009 A 
ATOM      9  C   UNL d   1      -1.126   3.569   0.552  0.00  0.00     0.016 A 
ATOM     10  C   UNL d   1      -1.917   4.723   0.497  0.00  0.00     0.037 A 
ATOM     11  C   UNL d   1      -3.149   4.695  -0.150  0.00  0.00     0.068 A 
ATOM     12  C   UNL d   1      -3.571   3.514  -0.757  0.00  0.00     0.037 A 
ATOM     13  C   UNL d   1      -2.780   2.360  -0.696  0.00  0.00     0.016 A 
BRANCH  11  14
ATOM     14  O   UNL d   1      -3.992   5.763  -0.281  0.00  0.00    -0.356 OA
ATOM     15  C   UNL d   1      -3.925   6.724   0.768  0.00  0.00     0.210 C 
ENDBRANCH  11  14
ENDBRANCH   3   8
BRANCH   4  16
ATOM     16  C   UNL d   1      -1.374  -2.447   0.031  0.00  0.00    -0.009 A 
ATOM     17  C   UNL d   1      -0.893  -3.632  -0.557  0.00  0.00     0.013 A 
ATOM     18  C   UNL d   1      -1.603  -4.834  -0.467  0.00  0.00     0.001 A 
ATOM     19  C   UNL d   1      -2.819  -4.875   0.206  0.00  0.00     0.000 A 
ATOM     20  C   UNL d   1      -3.329  -3.715   0.781  0.00  0.00     0.001 A 
ATOM     21  C   UNL d   1      -2.614  -2.515   0.692  0.00  0.00     0.013 A 
ENDBRANCH   4  16
BRANCH   5  22
ATOM     22  C   UNL d   1       2.963   0.110   0.027  0.00  0.00    -0.026 A 
ATOM     23  C   UNL d   1       3.677   1.146  -0.601  0.00  0.00     0.012 A 
ATOM     24  C   UNL d   1       5.073   1.218  -0.539  0.00  0.00     0.001 A 
ATOM     25  C   UNL d   1       5.790   0.239   0.144  0.00  0.00     0.000 A 
ATOM     26  C   UNL d   1       5.113  -0.806   0.760  0.00  0.00     0.001 A 
ATOM     27  C   UNL d   1       3.717  -0.866   0.708  0.00  0.00     0.012 A 
ENDBRANCH   5  22
TORSDOF 4
