REMARK  7 active torsions:
REMARK  status: ('A' for Active; 'I' for Inactive)
REMARK    1  A    between atoms: C_6  and  C_4 
REMARK    2  A    between atoms: C_11  and  C_4 
REMARK    3  A    between atoms: C_8  and  C_6 
REMARK    4  A    between atoms: C_9  and  C_8 
REMARK    5  A    between atoms: C_15  and  C_8 
REMARK    6  A    between atoms: C_10  and  C_9 
REMARK    7  A    between atoms: C_14  and  C_10 
ROOT
ATOM      1  C   UNL d   1      -2.536   2.626   0.117  0.00  0.00     0.022 C 
ENDROOT
BRANCH   1   2
ATOM      2  C   UNL d   1      -2.447   1.162   0.111  0.00  0.00    -0.003 C 
ATOM      3  C   UNL d   1      -1.845   0.372  -0.806  0.00  0.00     0.086 C 
ATOM      4  C   UNL d   1      -1.196   0.783  -2.089  0.00  0.00     0.265 C 
ATOM      5  S   UNL d   1      -1.663  -1.368  -0.669  0.00  0.00    -0.054 SA
ATOM      6  N   UNL d   1      -0.433  -0.240  -2.582  0.00  0.00    -0.307 N 
ATOM      7  O   UNL d   1      -1.343   1.844  -2.676  0.00  0.00    -0.267 OA
ATOM      8  C   UNL d   1      -0.551  -1.463  -2.004  0.00  0.00     0.146 C 
ATOM      9  H   UNL d   1       0.087  -0.117  -3.436  0.00  0.00     0.170 HD
ATOM     10  S   UNL d   1       0.252  -2.810  -2.532  0.00  0.00    -0.052 SA
BRANCH   2  11
ATOM     11  C   UNL d   1      -3.232   0.498   1.192  0.00  0.00    -0.024 A 
ATOM     12  C   UNL d   1      -2.627   0.113   2.392  0.00  0.00     0.013 A 
ATOM     13  C   UNL d   1      -3.401  -0.437   3.416  0.00  0.00     0.007 A 
ATOM     14  C   UNL d   1      -4.788  -0.583   3.266  0.00  0.00    -0.062 A 
ATOM     15  C   UNL d   1      -5.389  -0.200   2.063  0.00  0.00     0.007 A 
ATOM     16  C   UNL d   1      -5.609  -1.132   4.394  0.00  0.00     0.048 C 
ATOM     17  C   UNL d   1      -4.617   0.334   1.031  0.00  0.00     0.013 A 
ENDBRANCH   2  11
ENDBRANCH   1   2
BRANCH   1  18
ATOM     18  C   UNL d   1      -1.588   3.589   0.090  0.00  0.00    -0.040 C 
BRANCH  18  19
ATOM     19  C   UNL d   1      -0.114   3.381  -0.166  0.00  0.00     0.123 C 
BRANCH  19  20
ATOM     20  C   UNL d   1       0.791   2.954   0.994  0.00  0.00     0.163 C 
ATOM     21  O   UNL d   1       0.385   2.691   2.118  0.00  0.00    -0.292 OA
BRANCH  20  22
ATOM     22  C   UNL d   1       2.262   2.870   0.687  0.00  0.00     0.010 A 
ATOM     23  C   UNL d   1       2.744   2.946  -0.628  0.00  0.00     0.015 A 
ATOM     24  C   UNL d   1       4.116   2.966  -0.886  0.00  0.00     0.007 A 
ATOM     25  C   UNL d   1       5.035   2.905   0.165  0.00  0.00    -0.062 A 
ATOM     26  C   UNL d   1       4.559   2.777   1.476  0.00  0.00     0.007 A 
ATOM     27  C   UNL d   1       6.500   3.034  -0.131  0.00  0.00     0.048 C 
ATOM     28  C   UNL d   1       3.182   2.755   1.736  0.00  0.00     0.015 A 
ENDBRANCH  20  22
ENDBRANCH  19  20
ENDBRANCH  18  19
BRANCH  18  29
ATOM     29  C   UNL d   1      -2.027   5.010   0.282  0.00  0.00    -0.029 A 
ATOM     30  C   UNL d   1      -1.254   5.913   1.029  0.00  0.00     0.012 A 
ATOM     31  C   UNL d   1      -1.663   7.241   1.207  0.00  0.00     0.001 A 
ATOM     32  C   UNL d   1      -2.860   7.687   0.654  0.00  0.00     0.000 A 
ATOM     33  C   UNL d   1      -3.641   6.811  -0.091  0.00  0.00     0.001 A 
ATOM     34  C   UNL d   1      -3.221   5.491  -0.287  0.00  0.00     0.012 A 
ENDBRANCH  18  29
ENDBRANCH   1  18
TORSDOF 7
