REMARK  4 active torsions:
REMARK  status: ('A' for Active; 'I' for Inactive)
REMARK    1  A    between atoms: O_6  and  S_1 
REMARK    2  A    between atoms: C_11  and  S_1 
REMARK    3  A    between atoms: C_3  and  C_12 
REMARK    4  A    between atoms: C_15  and  O_6 
ROOT
ATOM      1  C   UNL d   1       1.631   0.475  -5.372  0.00  0.00    -0.008 A 
ATOM      2  C   UNL d   1       2.610   0.524  -4.370  0.00  0.00     0.016 A 
ATOM      3  C   UNL d   1       0.346   0.034  -5.032  0.00  0.00     0.016 A 
ATOM      4  C   UNL d   1       1.048  -0.360  -2.746  0.00  0.00     0.089 A 
ATOM      5  C   UNL d   1       0.053  -0.372  -3.725  0.00  0.00     0.039 A 
ATOM      6  C   UNL d   1       2.317   0.121  -3.063  0.00  0.00     0.039 A 
ENDROOT
BRANCH   4   7
ATOM      7  O   UNL d   1       0.681  -0.846  -1.517  0.00  0.00    -0.229 OA
BRANCH   7   8
ATOM      8  S   UNL d   1       1.789  -1.401  -0.451  0.00  0.00     0.303 S 
ATOM      9  O   UNL d   1       2.257  -0.287   0.356  0.00  0.00    -0.193 OA
ATOM     10  O   UNL d   1       2.733  -2.261  -1.143  0.00  0.00    -0.193 OA
BRANCH   8  11
ATOM     11  C   UNL d   1       0.832  -2.444   0.626  0.00  0.00     0.086 A 
ATOM     12  C   UNL d   1       1.102  -3.815   0.690  0.00  0.00     0.026 A 
ATOM     13  C   UNL d   1       0.356  -4.621   1.548  0.00  0.00     0.002 A 
ATOM     14  C   UNL d   1      -0.651  -4.058   2.334  0.00  0.00     0.000 A 
ATOM     15  C   UNL d   1      -0.915  -2.688   2.267  0.00  0.00     0.002 A 
ATOM     16  C   UNL d   1      -0.173  -1.873   1.412  0.00  0.00     0.026 A 
ENDBRANCH   8  11
ENDBRANCH   7   8
ENDBRANCH   4   7
BRANCH   1  17
ATOM     17  C   UNL d   1       1.933   0.835  -6.751  0.00  0.00     0.063 A 
ATOM     18  N   UNL d   1       1.236   0.264  -7.812  0.00  0.00    -0.292 N 
ATOM     19  N   UNL d   1       1.670   0.700  -8.983  0.00  0.00    -0.061 NA
ATOM     20  HN  UNL d   1       0.480  -0.412  -7.700  1.00  0.00     0.183 HD
ATOM     21  S   UNL d   1       2.907   1.815  -8.842  0.00  0.00    -0.010 SA
ATOM     22  C   UNL d   1       2.905   1.746  -7.128  0.00  0.00     0.096 A 
ENDBRANCH   1  17
TORSDOF 4
