REMARK  3 active torsions:
REMARK  status: ('A' for Active; 'I' for Inactive)
REMARK    1  A    between atoms: C_10  and  C_3 
REMARK    2  A    between atoms: C_7  and  C_4 
REMARK    3  A    between atoms: C_11  and  C_12 
ROOT
ATOM      1  N   UNL d   1       1.251  -0.524   0.470  0.00  0.00    -0.349 N 
ATOM      2  HN  UNL d   1       2.031  -1.023   0.899  1.00  0.00     0.166 HD
ATOM      3  C   UNL d   1       0.176  -1.100  -0.037  0.00  0.00     0.084 A 
ATOM      4  C   UNL d   1       1.173   0.855   0.337  0.00  0.00     0.050 A 
ATOM      5  S   UNL d   1      -0.997   0.000  -0.665  0.00  0.00    -0.081 SA
ATOM      6  C   UNL d   1       0.023   1.314  -0.272  0.00  0.00     0.082 A 
ENDROOT
BRANCH   3   7
ATOM      7  C   UNL d   1      -0.067  -2.553  -0.059  0.00  0.00    -0.002 A 
ATOM      8  C   UNL d   1       0.459  -3.367   0.949  0.00  0.00     0.015 A 
ATOM      9  C   UNL d   1       0.246  -4.755   0.944  0.00  0.00     0.009 A 
ATOM     10  C   UNL d   1      -0.487  -5.383  -0.081  0.00  0.00    -0.051 A 
ATOM     11  C   UNL d   1      -1.008  -4.557  -1.089  0.00  0.00     0.009 A 
ATOM     12  C   UNL d   1      -0.801  -3.172  -1.080  0.00  0.00     0.015 A 
BRANCH  10  13
ATOM     13  C   UNL d   1      -0.674  -6.910  -0.090  0.00  0.00    -0.024 C 
ATOM     14  C   UNL d   1      -1.475  -7.429  -1.308  0.00  0.00     0.019 C 
ATOM     15  C   UNL d   1       0.707  -7.599  -0.128  0.00  0.00     0.019 C 
ATOM     16  C   UNL d   1      -1.431  -7.359   1.177  0.00  0.00     0.019 C 
ENDBRANCH  10  13
ENDBRANCH   3   7
BRANCH   4  17
ATOM     17  C   UNL d   1       2.253   1.725   0.787  0.00  0.00    -0.006 A 
ATOM     18  C   UNL d   1       3.575   1.258   0.759  0.00  0.00     0.059 A 
ATOM     19  C   UNL d   1       4.615   2.090   1.168  0.00  0.00     0.155 A 
ATOM     20  F   UNL d   1       5.876   1.637   1.121  0.00  0.00    -0.203 F 
ATOM     21  C   UNL d   1       4.355   3.379   1.614  0.00  0.00     0.154 A 
ATOM     22  C   UNL d   1       3.050   3.855   1.661  0.00  0.00     0.046 A 
ATOM     23  F   UNL d   1       5.358   4.176   2.004  0.00  0.00    -0.203 F 
ATOM     24  C   UNL d   1       2.000   3.030   1.249  0.00  0.00     0.017 A 
ENDBRANCH   4  17
TORSDOF 3
