REMARK  1 active torsions:
REMARK  status: ('A' for Active; 'I' for Inactive)
REMARK    1  A    between atoms: C_12  and  C_5 
ROOT
ATOM      1  C   UNL d   1      -0.227   0.694  -0.014  0.00  0.00     0.037 A 
ATOM      2  C   UNL d   1      -0.078  -0.681  -0.012  0.00  0.00     0.089 A 
ATOM      3  C   UNL d   1      -1.607   1.074  -0.011  0.00  0.00     0.037 A 
ATOM      4  S   UNL d   1      -1.576  -1.484  -0.026  0.00  0.00    -0.071 SA
ATOM      5  C   UNL d   1      -2.466  -0.014   0.004  0.00  0.00     0.018 A 
ATOM      6  N   UNL d   1       1.091  -1.378  -0.007  0.00  0.00    -0.346 N 
ATOM      7  HN  UNL d   1       1.127  -2.397  -0.003  1.00  0.00     0.167 HD
ATOM      8  C   UNL d   1       0.995   1.470  -0.013  0.00  0.00     0.114 A 
ATOM      9  N   UNL d   1       2.157   0.735  -0.011  0.00  0.00    -0.343 N 
ATOM     10  C   UNL d   1       2.152  -0.640  -0.006  0.00  0.00     0.182 A 
ATOM     11  S   UNL d   1       0.982   3.128  -0.018  0.00  0.00    -0.059 SA
ATOM     12  H   UNL d   1       3.032   1.240  -0.013  0.00  0.00     0.167 HD
ENDROOT
BRANCH   5  13
ATOM     13  C   UNL d   1      -3.940  -0.030   0.021  0.00  0.00    -0.019 A 
ATOM     14  C   UNL d   1      -4.668   0.977  -0.630  0.00  0.00     0.013 A 
ATOM     15  C   UNL d   1      -6.067   0.985  -0.602  0.00  0.00     0.001 A 
ATOM     16  C   UNL d   1      -6.758  -0.014   0.079  0.00  0.00     0.000 A 
ATOM     17  C   UNL d   1      -6.053  -1.023   0.728  0.00  0.00     0.001 A 
ATOM     18  C   UNL d   1      -4.656  -1.029   0.701  0.00  0.00     0.013 A 
ENDBRANCH   5  13
TORSDOF 1
