REMARK  3 active torsions:
REMARK  status: ('A' for Active; 'I' for Inactive)
REMARK    1  A    between atoms: C_10  and  C_2 
REMARK       I    between atoms: C_5  and  N_7 
REMARK    2  A    between atoms: C_9  and  C_5 
REMARK    3  A    between atoms: N_7  and  C_14 
ROOT
ATOM      1  C   UNL d   1       2.976  -0.898   0.254  0.00  0.00    -0.008 A 
ATOM      2  C   UNL d   1       4.085  -1.065   1.094  0.00  0.00     0.016 A 
ATOM      3  C   UNL d   1       2.760  -1.856  -0.744  0.00  0.00     0.016 A 
ATOM      4  C   UNL d   1       4.782  -3.057  -0.119  0.00  0.00     0.034 A 
ATOM      5  C   UNL d   1       3.654  -2.921  -0.927  0.00  0.00     0.030 A 
ATOM      6  C   UNL d   1       4.977  -2.131   0.910  0.00  0.00     0.030 A 
ENDROOT
BRANCH   4   7
ATOM      7  N   UNL d   1       5.762  -4.061  -0.289  0.00  0.00    -0.327 N 
ATOM      8  C   UNL d   1       5.805  -5.036  -1.275  0.00  0.00     0.229 C 
ATOM      9  O   UNL d   1       4.945  -5.203  -2.136  0.00  0.00    -0.272 OA
ATOM     10  H   UNL d   1       6.538  -4.026   0.360  0.00  0.00     0.169 HD
BRANCH   8  11
ATOM     11  C   UNL d   1       7.068  -5.931  -1.232  0.00  0.00     0.030 C 
ATOM     12  C   UNL d   1       7.159  -6.675   0.108  0.00  0.00     0.025 C 
ATOM     13  C   UNL d   1       6.986  -6.972  -2.365  0.00  0.00     0.025 C 
ATOM     14  C   UNL d   1       8.328  -5.078  -1.448  0.00  0.00     0.025 C 
ENDBRANCH   8  11
ENDBRANCH   4   7
BRANCH   1  15
ATOM     15  C   UNL d   1       2.107   0.266   0.422  0.00  0.00     0.063 A 
ATOM     16  N   UNL d   1       2.249   1.118   1.517  0.00  0.00    -0.292 N 
ATOM     17  N   UNL d   1       1.405   2.134   1.476  0.00  0.00    -0.061 NA
ATOM     18  HN  UNL d   1       2.928   0.973   2.265  1.00  0.00     0.183 HD
ATOM     19  S   UNL d   1       0.420   2.104   0.127  0.00  0.00    -0.010 SA
ATOM     20  C   UNL d   1       1.122   0.656  -0.472  0.00  0.00     0.096 A 
ENDBRANCH   1  15
TORSDOF 3
