REMARK  1 active torsions:
REMARK  status: ('A' for Active; 'I' for Inactive)
REMARK    1  A    between atoms: C_8  and  C_7 
ROOT
ATOM      1  C   UNL d   1      -1.261   0.126  -0.097  0.00  0.00     0.116 C 
ATOM      2  C   UNL d   1      -0.661  -1.179   0.209  0.00  0.00     0.302 C 
ATOM      3  C   UNL d   1      -0.517   1.343   0.244  0.00  0.00     0.302 C 
ATOM      4  O   UNL d   1       0.683  -1.169   0.330  0.00  0.00    -0.280 OA
ATOM      5  O   UNL d   1       0.823   1.210   0.242  0.00  0.00    -0.280 OA
ATOM      6  C   UNL d   1       1.398  -0.032  -0.161  0.00  0.00     0.175 C 
ATOM      7  C   UNL d   1      -2.445   0.115  -0.738  0.00  0.00     0.042 C 
ATOM      8  O   UNL d   1      -1.045   2.402   0.558  0.00  0.00    -0.259 OA
ATOM      9  O   UNL d   1      -1.313  -2.210   0.334  0.00  0.00    -0.259 OA
ATOM     10  C   UNL d   1       1.536  -0.093  -1.685  0.00  0.00     0.080 C 
ATOM     11  C   UNL d   1       2.788  -0.073   0.474  0.00  0.00     0.080 C 
ENDROOT
BRANCH   7  12
ATOM     12  C   UNL d   1      -3.065   1.284  -1.254  0.00  0.00     0.006 A 
ATOM     13  S   UNL d   1      -2.804   1.729  -2.894  0.00  0.00    -0.095 SA
ATOM     14  C   UNL d   1      -3.832   3.088  -2.773  0.00  0.00    -0.021 A 
ATOM     15  C   UNL d   1      -4.080   3.965  -3.953  0.00  0.00     0.056 C 
ATOM     16  C   UNL d   1      -4.355   3.215  -1.504  0.00  0.00     0.015 A 
ATOM     17  C   UNL d   1      -3.919   2.175  -0.633  0.00  0.00     0.020 A 
ENDBRANCH   7  12
TORSDOF 1
