REMARK  6 active torsions:
REMARK  status: ('A' for Active; 'I' for Inactive)
REMARK    1  A    between atoms: C_19  and  N_1 
REMARK    2  A    between atoms: C_3  and  N_13 
REMARK    3  A    between atoms: C_20  and  N_4 
REMARK    4  A    between atoms: S_16  and  C_7 
REMARK       I    between atoms: N_13  and  C_17 
REMARK    5  A    between atoms: C_25  and  S_16 
REMARK    6  A    between atoms: C_17  and  C_25 
ROOT
ATOM      1  S   UNL d   1      -2.715  -1.009   1.265  0.00  0.00    -0.083 SA
ENDROOT
BRANCH   1   2
ATOM      2  C   UNL d   1      -1.144  -0.997   0.535  0.00  0.00     0.168 C 
ATOM      3  N   UNL d   1      -0.132  -0.057   0.713  0.00  0.00    -0.274 N 
ATOM      4  C   UNL d   1       0.857  -0.500  -0.174  0.00  0.00     0.146 C 
ATOM      5  N   UNL d   1       0.524  -1.681  -0.659  0.00  0.00    -0.282 N 
ATOM      6  C   UNL d   1       1.999   0.226  -0.668  0.00  0.00     0.050 A 
ATOM      7  N   UNL d   1      -0.730  -1.983  -0.228  0.00  0.00    -0.278 N 
ATOM      8  HN  UNL d   1       1.108  -2.268  -1.255  1.00  0.00     0.188 HD
ATOM      9  HN  UNL d   1      -1.257  -2.826  -0.457  1.00  0.00     0.189 HD
ATOM     10  S   UNL d   1       3.457  -0.594  -1.057  0.00  0.00    -0.098 SA
ATOM     11  C   UNL d   1       2.100   1.576  -0.953  0.00  0.00     0.023 A 
ATOM     12  C   UNL d   1       4.218   0.850  -1.565  0.00  0.00     0.050 A 
ATOM     13  C   UNL d   1       3.386   1.939  -1.450  0.00  0.00     0.009 A 
BRANCH   3  14
ATOM     14  C   UNL d   1      -0.068   1.079   1.584  0.00  0.00     0.043 A 
ATOM     15  C   UNL d   1      -1.209   1.813   1.930  0.00  0.00     0.030 A 
ATOM     16  C   UNL d   1      -1.111   2.924   2.775  0.00  0.00     0.002 A 
ATOM     17  C   UNL d   1       0.125   3.326   3.272  0.00  0.00     0.000 A 
ATOM     18  C   UNL d   1       1.267   2.607   2.937  0.00  0.00     0.002 A 
ATOM     19  C   UNL d   1       1.171   1.482   2.112  0.00  0.00     0.030 A 
ENDBRANCH   3  14
ENDBRANCH   1   2
BRANCH   1  20
ATOM     20  C   UNL d   1      -3.639  -1.909  -0.019  0.00  0.00     0.185 C 
BRANCH  20  21
ATOM     21  C   UNL d   1      -5.126  -1.581   0.030  0.00  0.00     0.233 C 
ATOM     22  N   UNL d   1      -5.900  -2.615  -0.493  0.00  0.00    -0.311 N 
ATOM     23  H   UNL d   1      -5.456  -3.508  -0.686  0.00  0.00     0.170 HD
ATOM     24  O   UNL d   1      -5.575  -0.535   0.488  0.00  0.00    -0.272 OA
BRANCH  22  25
ATOM     25  C   UNL d   1      -7.287  -2.594  -0.388  0.00  0.00     0.132 C 
ATOM     26  N   UNL d   1      -8.060  -3.729  -0.160  0.00  0.00    -0.240 N 
ATOM     27  N   UNL d   1      -9.387  -3.463  -0.297  0.00  0.00    -0.297 N 
ATOM     28  C   UNL d   1      -9.452  -2.125  -0.359  0.00  0.00     0.026 C 
ATOM     29  HN  UNL d   1     -10.158  -4.129  -0.343  1.00  0.00     0.187 HD
ATOM     30  C   UNL d   1      -8.173  -1.543  -0.461  0.00  0.00     0.076 C 
ATOM     31  C   UNL d   1     -10.762  -1.433  -0.299  0.00  0.00     0.070 C 
BRANCH  26  32
ATOM     32  C   UNL d   1      -7.630  -5.009   0.287  0.00  0.00     0.058 A 
ATOM     33  C   UNL d   1      -6.441  -5.151   1.029  0.00  0.00     0.031 A 
ATOM     34  C   UNL d   1      -6.024  -6.408   1.459  0.00  0.00     0.002 A 
ATOM     35  C   UNL d   1      -6.794  -7.532   1.174  0.00  0.00     0.000 A 
ATOM     36  C   UNL d   1      -7.995  -7.393   0.476  0.00  0.00     0.002 A 
ATOM     37  C   UNL d   1      -8.421  -6.137   0.047  0.00  0.00     0.031 A 
ENDBRANCH  26  32
ENDBRANCH  22  25
ENDBRANCH  20  21
ENDBRANCH   1  20
TORSDOF 6
