REMARK  4 active torsions:
REMARK  status: ('A' for Active; 'I' for Inactive)
REMARK    1  A    between atoms: N_16  and  N_9 
REMARK    2  A    between atoms: C_18  and  C_10 
REMARK    3  A    between atoms: C_30  and  C_14 
REMARK    4  A    between atoms: C_33  and  C_25 
ROOT
ATOM      1  C   UNL d   1       1.070   0.771   0.038  0.00  0.00     0.175 A 
ATOM      2  C   UNL d   1       0.773  -0.562   0.052  0.00  0.00     0.088 A 
ATOM      3  C   UNL d   1      -0.628  -0.701   0.034  0.00  0.00     0.058 A 
ATOM      4  C   UNL d   1       2.401   1.303   0.058  0.00  0.00     0.303 A 
ATOM      5  C   UNL d   1      -1.112   0.615   0.016  0.00  0.00     0.162 A 
ATOM      6  O   UNL d   1      -0.069   1.510   0.010  0.00  0.00    -0.285 OA
ATOM      7  N   UNL d   1       1.759  -1.550   0.081  0.00  0.00    -0.347 N 
ATOM      8  HN  UNL d   1       1.550  -2.548   0.065  1.00  0.00     0.167 HD
ATOM      9  N   UNL d   1       3.354   0.263   0.177  0.00  0.00    -0.214 N 
ATOM     10  C   UNL d   1      -1.584  -1.728   0.051  0.00  0.00     0.017 A 
ATOM     11  N   UNL d   1      -2.401   1.009   0.011  0.00  0.00    -0.335 N 
ATOM     12  HN  UNL d   1      -2.676   1.991  -0.004  1.00  0.00     0.168 HD
ATOM     13  C   UNL d   1       2.969  -1.076   0.130  0.00  0.00     0.211 A 
ATOM     14  C   UNL d   1      -3.302  -0.003   0.029  0.00  0.00     0.045 A 
ATOM     15  C   UNL d   1      -2.932  -1.351   0.062  0.00  0.00     0.045 A 
ATOM     16  O   UNL d   1       2.661   2.499  -0.037  0.00  0.00    -0.263 OA
ENDROOT
BRANCH   9  17
ATOM     17  N   UNL d   1       4.729   0.469   0.201  0.00  0.00    -0.301 N 
ATOM     18  C   UNL d   1       5.160   1.533   0.800  0.00  0.00     0.119 C 
ATOM     19  HN  UNL d   1       5.372  -0.190  -0.237  1.00  0.00     0.186 HD
BRANCH  18  20
ATOM     20  C   UNL d   1       6.590   1.899   0.840  0.00  0.00    -0.017 A 
ATOM     21  C   UNL d   1       7.572   1.105   0.235  0.00  0.00     0.052 A 
ATOM     22  C   UNL d   1       8.877   1.548   0.314  0.00  0.00     0.105 A 
ATOM     23  O   UNL d   1       9.966   0.920  -0.207  0.00  0.00    -0.323 OA
ATOM     24  C   UNL d   1       9.211   2.721   0.954  0.00  0.00     0.105 A 
ATOM     25  C   UNL d   1      11.024   1.803   0.224  0.00  0.00     0.352 A 
ATOM     26  O   UNL d   1      10.545   2.978   0.909  0.00  0.00    -0.323 OA
ATOM     27  C   UNL d   1       8.264   3.516   1.561  0.00  0.00     0.040 A 
ATOM     28  C   UNL d   1       6.934   3.094   1.506  0.00  0.00     0.016 A 
ENDBRANCH  18  20
ENDBRANCH   9  17
BRANCH  10  29
ATOM     29  C   UNL d   1      -1.188  -3.124   0.076  0.00  0.00     0.086 A 
ATOM     30  O   UNL d   1      -2.045  -3.967   0.732  0.00  0.00    -0.322 OA
ATOM     31  C   UNL d   1      -1.510  -5.214   0.676  0.00  0.00     0.142 A 
ATOM     32  C   UNL d   1      -0.324  -5.197  -0.016  0.00  0.00     0.027 A 
ATOM     33  C   UNL d   1      -0.132  -3.857  -0.427  0.00  0.00     0.040 A 
ENDBRANCH  10  29
BRANCH  14  34
ATOM     34  C   UNL d   1      -4.734   0.390   0.040  0.00  0.00    -0.009 A 
ATOM     35  C   UNL d   1      -5.731  -0.417  -0.548  0.00  0.00     0.013 A 
ATOM     36  C   UNL d   1      -7.088  -0.083  -0.475  0.00  0.00     0.001 A 
ATOM     37  C   UNL d   1      -7.482   1.080   0.176  0.00  0.00     0.000 A 
ATOM     38  C   UNL d   1      -6.519   1.912   0.741  0.00  0.00     0.001 A 
ATOM     39  C   UNL d   1      -5.162   1.572   0.670  0.00  0.00     0.013 A 
ENDBRANCH  14  34
TORSDOF 4
