REMARK  5 active torsions:
REMARK  status: ('A' for Active; 'I' for Inactive)
REMARK    1  A    between atoms: N_2  and  C_1 
REMARK    2  A    between atoms: N_3  and  C_1 
REMARK    3  A    between atoms: C_5  and  N_3 
REMARK    4  A    between atoms: C_6  and  N_4 
REMARK    5  A    between atoms: O_20  and  C_14 
ROOT
ATOM      1  N   UNL d   1       0.723   0.662  -1.225  0.00  0.00    -0.355 N 
ATOM      2  N   UNL d   1      -0.383   1.117  -3.834  0.00  0.00    -0.376 N 
ATOM      3  C   UNL d   1       1.284  -0.011  -2.421  0.00  0.00     0.145 C 
ATOM      4  C   UNL d   1      -0.654   1.145  -1.404  0.00  0.00     0.145 C 
ATOM      5  C   UNL d   1       1.039   0.735  -3.750  0.00  0.00     0.143 C 
ATOM      6  C   UNL d   1      -0.811   1.954  -2.699  0.00  0.00     0.143 C 
ENDROOT
BRANCH   1   7
ATOM      7  C   UNL d   1       1.139   0.155   0.002  0.00  0.00     0.174 C 
ATOM      8  S   UNL d   1       0.164  -0.621   1.122  0.00  0.00    -0.041 SA
BRANCH   7   9
ATOM      9  N   UNL d   1       2.485   0.231   0.247  0.00  0.00    -0.332 N 
ATOM     10  H   UNL d   1       2.861  -0.460   0.894  0.00  0.00     0.168 HD
BRANCH   9  11
ATOM     11  C   UNL d   1       3.356   1.290  -0.102  0.00  0.00     0.056 A 
ATOM     12  C   UNL d   1       4.745   1.092  -0.046  0.00  0.00     0.062 A 
ATOM     13  C   UNL d   1       5.624   2.131  -0.340  0.00  0.00     0.050 A 
ATOM     14 CL   UNL d   1       5.409  -0.458   0.340  0.00  0.00    -0.082 Cl
ATOM     15  C   UNL d   1       5.120   3.392  -0.665  0.00  0.00     0.035 A 
ATOM     16  C   UNL d   1       3.742   3.610  -0.710  0.00  0.00     0.026 A 
ATOM     17 CL   UNL d   1       6.198   4.686  -1.001  0.00  0.00    -0.084 Cl
ATOM     18  C   UNL d   1       2.868   2.561  -0.430  0.00  0.00     0.033 A 
ENDBRANCH   9  11
ENDBRANCH   7   9
ENDBRANCH   1   7
BRANCH   2  19
ATOM     19  C   UNL d   1      -0.979   1.296  -5.081  0.00  0.00     0.064 A 
ATOM     20  C   UNL d   1      -1.098   0.260  -6.037  0.00  0.00     0.094 A 
ATOM     21  C   UNL d   1      -1.830   0.448  -7.221  0.00  0.00     0.039 A 
ATOM     22  C   UNL d   1      -2.453   1.663  -7.490  0.00  0.00     0.003 A 
ATOM     23  C   UNL d   1      -2.306   2.713  -6.597  0.00  0.00     0.002 A 
ATOM     24  C   UNL d   1      -1.577   2.528  -5.418  0.00  0.00     0.032 A 
BRANCH  20  25
ATOM     25  O   UNL d   1      -0.488  -0.968  -5.958  0.00  0.00    -0.354 OA
ATOM     26  C   UNL d   1      -0.844  -1.742  -4.822  0.00  0.00     0.210 C 
ENDBRANCH  20  25
ENDBRANCH   2  19
TORSDOF 5
