REMARK  8 active torsions:
REMARK  status: ('A' for Active; 'I' for Inactive)
REMARK    1  A    between atoms: O_16  and  C_1 
REMARK       I    between atoms: C_2  and  N_5 
REMARK    2  A    between atoms: C_8  and  C_2 
REMARK    3  A    between atoms: O_19  and  C_3 
REMARK    4  A    between atoms: O_20  and  C_4 
REMARK    5  A    between atoms: N_5  and  N_7 
REMARK    6  A    between atoms: C_6  and  C_17 
REMARK       I    between atoms: N_7  and  C_6 
REMARK    7  A    between atoms: C_21  and  C_11 
REMARK    8  A    between atoms: C_17  and  C_21 
ROOT
ATOM      1  C   UNL d   1      -5.191  -0.398  -0.308  0.00  0.00     0.236 C 
ATOM      2  N   UNL d   1      -5.524   0.781  -0.932  0.00  0.00    -0.267 N 
ATOM      3  O   UNL d   1      -6.047  -1.118   0.218  0.00  0.00    -0.272 OA
ATOM      4  H   UNL d   1      -4.901   1.302  -1.549  0.00  0.00     0.190 HD
ENDROOT
BRANCH   1   5
ATOM      5  C   UNL d   1      -3.731  -0.803  -0.355  0.00  0.00     0.109 C 
BRANCH   5   6
ATOM      6  C   UNL d   1      -2.762   0.365  -0.184  0.00  0.00     0.048 C 
BRANCH   6   7
ATOM      7  C   UNL d   1      -1.322  -0.063  -0.032  0.00  0.00    -0.052 A 
ATOM      8  C   UNL d   1      -0.655  -0.739  -1.058  0.00  0.00     0.047 A 
ATOM      9  C   UNL d   1       0.694  -1.105  -0.936  0.00  0.00     0.104 A 
ATOM     10  C   UNL d   1       1.412  -0.760   0.222  0.00  0.00     0.135 A 
ATOM     11  C   UNL d   1       0.770   0.010   1.217  0.00  0.00     0.104 A 
ATOM     12  C   UNL d   1      -0.599   0.293   1.109  0.00  0.00     0.047 A 
BRANCH   9  13
ATOM     13  O   UNL d   1       1.182  -1.701  -2.072  0.00  0.00    -0.353 OA
ATOM     14  C   UNL d   1       2.156  -2.719  -1.897  0.00  0.00     0.210 C 
ENDBRANCH   9  13
BRANCH  10  15
ATOM     15  O   UNL d   1       2.760  -1.021   0.267  0.00  0.00    -0.351 OA
ATOM     16  C   UNL d   1       3.210  -1.703   1.439  0.00  0.00     0.210 C 
ENDBRANCH  10  15
BRANCH  11  17
ATOM     17  O   UNL d   1       1.546   0.500   2.241  0.00  0.00    -0.353 OA
ATOM     18  C   UNL d   1       1.040   1.631   2.944  0.00  0.00     0.210 C 
ENDBRANCH  11  17
ENDBRANCH   6   7
ENDBRANCH   5   6
ENDBRANCH   1   5
BRANCH   2  19
ATOM     19  N   UNL d   1      -6.876   1.140  -0.993  0.00  0.00    -0.263 N 
ATOM     20  C   UNL d   1      -7.225   2.245  -1.743  0.00  0.00     0.270 C 
ATOM     21  O   UNL d   1      -6.378   2.932  -2.315  0.00  0.00    -0.266 OA
ATOM     22  H   UNL d   1      -7.511   0.578  -0.431  0.00  0.00     0.190 HD
BRANCH  20  23
ATOM     23  C   UNL d   1      -8.676   2.590  -1.844  0.00  0.00     0.033 A 
ATOM     24  C   UNL d   1      -9.700   1.706  -1.472  0.00  0.00     0.019 A 
ATOM     25  C   UNL d   1     -11.042   2.075  -1.634  0.00  0.00     0.025 A 
ATOM     26  C   UNL d   1     -11.366   3.320  -2.171  0.00  0.00     0.034 A 
ATOM     27  C   UNL d   1     -10.359   4.206  -2.545  0.00  0.00     0.025 A 
ATOM     28 CL   UNL d   1     -13.015   3.756  -2.386  0.00  0.00    -0.084 Cl
ATOM     29  C   UNL d   1      -9.019   3.842  -2.382  0.00  0.00     0.019 A 
ENDBRANCH  20  23
ENDBRANCH   2  19
TORSDOF 8
