REMARK  5 active torsions:
REMARK  status: ('A' for Active; 'I' for Inactive)
REMARK    1  A    between atoms: C_5  and  N_1 
REMARK    2  A    between atoms: O_6  and  N_2 
REMARK    3  A    between atoms: C_4  and  O_6 
REMARK    4  A    between atoms: C_12  and  C_4 
REMARK    5  A    between atoms: C_8  and  C_10 
ROOT
ATOM      1  N   UNL d   1      -2.636  -4.005  -3.566  0.00  0.00    -0.261 N 
ATOM      2  HN  UNL d   1      -3.050  -4.774  -4.093  1.00  0.00     0.194 HD
ATOM      3  C   UNL d   1      -1.636  -4.157  -2.749  0.00  0.00     0.039 C 
ATOM      4  C   UNL d   1      -1.001  -3.023  -1.967  0.00  0.00     0.071 C 
ENDROOT
BRANCH   1   5
ATOM      5  O   UNL d   1      -3.093  -2.676  -3.650  0.00  0.00    -0.195 OA
BRANCH   5   6
ATOM      6  C   UNL d   1      -4.117  -2.595  -4.553  0.00  0.00     0.315 C 
ATOM      7  O   UNL d   1      -4.590  -3.494  -5.236  0.00  0.00    -0.257 OA
BRANCH   6   8
ATOM      8  C   UNL d   1      -4.575  -1.186  -4.669  0.00  0.00     0.041 A 
ATOM      9  C   UNL d   1      -4.486  -0.277  -3.607  0.00  0.00     0.017 A 
ATOM     10  C   UNL d   1      -4.935   1.036  -3.773  0.00  0.00     0.001 A 
ATOM     11  C   UNL d   1      -5.471   1.446  -4.995  0.00  0.00     0.000 A 
ATOM     12  C   UNL d   1      -5.575   0.541  -6.050  0.00  0.00     0.001 A 
ATOM     13  C   UNL d   1      -5.135  -0.774  -5.887  0.00  0.00     0.017 A 
ENDBRANCH   6   8
ENDBRANCH   5   6
ENDBRANCH   1   5
BRANCH   3  14
ATOM     14  C   UNL d   1      -1.078  -5.543  -2.554  0.00  0.00    -0.012 A 
ATOM     15  C   UNL d   1      -1.648  -6.619  -3.257  0.00  0.00     0.016 A 
ATOM     16  C   UNL d   1      -1.181  -7.926  -3.073  0.00  0.00     0.037 A 
ATOM     17  C   UNL d   1      -0.133  -8.164  -2.178  0.00  0.00     0.102 A 
ATOM     18  C   UNL d   1       0.456  -7.102  -1.481  0.00  0.00     0.037 A 
ATOM     19  C   UNL d   1      -0.016  -5.797  -1.673  0.00  0.00     0.016 A 
BRANCH  17  20
ATOM     20  N   UNL d   1       0.349  -9.535  -1.959  0.00  0.00    -0.116 N 
ATOM     21  O   UNL d   1       1.274  -9.696  -1.151  0.00  0.00    -0.532 OA
ATOM     22  O   UNL d   1      -0.198 -10.448  -2.594  0.00  0.00    -0.532 OA
ENDBRANCH  17  20
ENDBRANCH   3  14
TORSDOF 5
