REMARK  9 active torsions:
REMARK  status: ('A' for Active; 'I' for Inactive)
REMARK    1  A    between atoms: C_4  and  C_1 
REMARK    2  A    between atoms: N_5  and  C_2 
REMARK    3  A    between atoms: C_12  and  C_4 
REMARK       I    between atoms: C_10  and  N_5 
REMARK       I    between atoms: C_8  and  N_7 
REMARK    4  A    between atoms: O_23  and  C_8 
REMARK    5  A    between atoms: C_28  and  C_9 
REMARK    6  A    between atoms: C_17  and  C_10 
REMARK    7  A    between atoms: N_11  and  C_17 
REMARK    8  A    between atoms: C_29  and  O_23 
REMARK    9  A    between atoms: O_27  and  C_24 
ROOT
ATOM      1  C   UNL d   1       1.338   0.598   1.363  0.00  0.00     0.050 C 
ATOM      2  C   UNL d   1       0.184   1.112   0.793  0.00  0.00     0.091 C 
ATOM      3  S   UNL d   1      -0.827  -0.091   0.130  0.00  0.00    -0.076 SA
ATOM      4  C   UNL d   1       1.448  -0.803   1.023  0.00  0.00     0.033 C 
ATOM      5  C   UNL d   1       0.392  -1.275   0.275  0.00  0.00    -0.015 C 
ENDROOT
BRANCH   2   6
ATOM      6  N   UNL d   1      -0.343   2.371   0.600  0.00  0.00    -0.319 N 
ATOM      7  C   UNL d   1       0.455   3.469   0.382  0.00  0.00     0.251 C 
ATOM      8  O   UNL d   1       1.685   3.446   0.336  0.00  0.00    -0.271 OA
ATOM      9  H   UNL d   1      -1.287   2.437   0.230  0.00  0.00     0.169 HD
BRANCH   7  10
ATOM     10  C   UNL d   1      -0.276   4.782   0.112  0.00  0.00     0.375 C 
BRANCH  10  11
ATOM     11  N   UNL d   1      -1.760   4.719   0.132  0.00  0.00     0.100 N 
ATOM     12  C   UNL d   1      -2.345   4.652   1.508  0.00  0.00     0.293 C 
ATOM     13  C   UNL d   1      -2.392   5.964   2.336  0.00  0.00     0.158 C 
ATOM     14  N   UNL d   1      -2.856   7.082   1.519  0.00  0.00    -0.325 N 
ATOM     15  C   UNL d   1      -2.107   7.236   0.280  0.00  0.00     0.158 C 
ATOM     16  C   UNL d   1      -4.187   7.479   1.587  0.00  0.00     0.362 C 
ATOM     17  C   UNL d   1      -2.282   5.945  -0.550  0.00  0.00     0.293 C 
ATOM     18  O   UNL d   1      -4.982   7.091   2.428  0.00  0.00    -0.238 OA
BRANCH  16  19
ATOM     19  O   UNL d   1      -4.502   8.325   0.568  0.00  0.00    -0.304 OA
BRANCH  19  20
ATOM     20  C   UNL d   1      -5.876   8.683   0.377  0.00  0.00     0.176 C 
ATOM     21  C   UNL d   1      -6.091  10.132   0.769  0.00  0.00     0.034 C 
ENDBRANCH  19  20
ENDBRANCH  16  19
ENDBRANCH  10  11
ENDBRANCH   7  10
ENDBRANCH   2   6
BRANCH   1  22
ATOM     22  C   UNL d   1       2.385   1.276   2.142  0.00  0.00     0.195 C 
ATOM     23  O   UNL d   1       3.538   0.843   2.151  0.00  0.00    -0.287 OA
BRANCH  22  24
ATOM     24  C   UNL d   1       2.085   2.433   3.032  0.00  0.00     0.015 A 
ATOM     25  C   UNL d   1       3.099   3.379   3.251  0.00  0.00     0.018 A 
ATOM     26  C   UNL d   1       2.873   4.499   4.059  0.00  0.00     0.037 A 
ATOM     27  C   UNL d   1       1.634   4.674   4.673  0.00  0.00     0.068 A 
ATOM     28  C   UNL d   1       0.633   3.716   4.481  0.00  0.00     0.037 A 
ATOM     29  C   UNL d   1       0.855   2.594   3.675  0.00  0.00     0.018 A 
BRANCH  27  30
ATOM     30  O   UNL d   1       1.275   5.715   5.484  0.00  0.00    -0.356 OA
ATOM     31  C   UNL d   1       2.242   6.735   5.698  0.00  0.00     0.210 C 
ENDBRANCH  27  30
ENDBRANCH  22  24
ENDBRANCH   1  22
BRANCH   5  32
ATOM     32  C   UNL d   1       0.256  -2.611  -0.387  0.00  0.00     0.042 C 
ATOM     33  C   UNL d   1       0.981  -2.618  -1.728  0.00  0.00     0.010 C 
ENDBRANCH   5  32
TORSDOF 9
