REMARK  6 active torsions:
REMARK  status: ('A' for Active; 'I' for Inactive)
REMARK    1  A    between atoms: C_6  and  C_1 
REMARK    2  A    between atoms: C_7  and  C_2 
REMARK    3  A    between atoms: C_12  and  N_3 
REMARK       I    between atoms: N_11  and  C_7 
REMARK    4  A    between atoms: N_8  and  C_13 
REMARK    5  A    between atoms: C_10  and  C_14 
REMARK    6  A    between atoms: C_30  and  N_11 
ROOT
ATOM      1  C   UNL d   1       1.088  -0.591  -0.426  0.00  0.00     0.157 A 
ATOM      2  C   UNL d   1      -0.157  -1.116  -0.065  0.00  0.00     0.082 A 
ATOM      3  N   UNL d   1       1.047   0.768  -0.124  0.00  0.00    -0.251 N 
ATOM      4  N   UNL d   1      -0.145   1.114   0.420  0.00  0.00    -0.303 N 
ATOM      5  HN  UNL d   1      -0.425   2.032   0.765  1.00  0.00     0.186 HD
ATOM      6  C   UNL d   1      -0.869   0.005   0.408  0.00  0.00     0.127 A 
ENDROOT
BRANCH   2   7
ATOM      7  C   UNL d   1      -0.759  -2.453  -0.121  0.00  0.00     0.259 C 
ATOM      8  N   UNL d   1       0.087  -3.512  -0.354  0.00  0.00    -0.323 N 
ATOM      9  H   UNL d   1       1.082  -3.336  -0.353  0.00  0.00     0.169 HD
ATOM     10  O   UNL d   1      -1.971  -2.556   0.054  0.00  0.00    -0.267 OA
BRANCH   8  11
ATOM     11  C   UNL d   1      -0.271  -4.833  -0.705  0.00  0.00     0.035 A 
ATOM     12  C   UNL d   1      -1.588  -5.277  -0.824  0.00  0.00     0.030 A 
ATOM     13  C   UNL d   1      -1.865  -6.548  -1.338  0.00  0.00     0.018 A 
ATOM     14  C   UNL d   1      -0.828  -7.399  -1.740  0.00  0.00     0.048 A 
ATOM     15  C   UNL d   1       0.496  -6.983  -1.543  0.00  0.00     0.018 A 
ATOM     16  C   UNL d   1       0.770  -5.713  -1.027  0.00  0.00     0.030 A 
BRANCH  14  17
ATOM     17  C   UNL d   1      -1.121  -8.721  -2.403  0.00  0.00     0.417 C 
ATOM     18  F   UNL d   1      -2.444  -8.922  -2.658  0.00  0.00    -0.166 F 
ATOM     19  F   UNL d   1      -0.491  -8.845  -3.605  0.00  0.00    -0.166 F 
ATOM     20  F   UNL d   1      -0.716  -9.785  -1.658  0.00  0.00    -0.166 F 
ENDBRANCH  14  17
ENDBRANCH   8  11
ENDBRANCH   2   7
BRANCH   1  21
ATOM     21  C   UNL d   1       2.303  -1.221  -0.961  0.00  0.00     0.435 C 
ATOM     22  F   UNL d   1       2.300  -2.570  -0.810  0.00  0.00    -0.165 F 
ATOM     23  F   UNL d   1       2.447  -0.995  -2.288  0.00  0.00    -0.165 F 
ATOM     24  F   UNL d   1       3.435  -0.806  -0.344  0.00  0.00    -0.165 F 
ENDBRANCH   1  21
BRANCH   3  25
ATOM     25  C   UNL d   1       2.053   1.785  -0.194  0.00  0.00     0.057 A 
ATOM     26  C   UNL d   1       3.100   1.765  -1.124  0.00  0.00     0.034 A 
ATOM     27  C   UNL d   1       4.156   2.678  -1.018  0.00  0.00     0.038 A 
ATOM     28  C   UNL d   1       4.150   3.635   0.003  0.00  0.00     0.103 A 
ATOM     29  C   UNL d   1       3.060   3.735   0.872  0.00  0.00     0.038 A 
ATOM     30  C   UNL d   1       2.009   2.821   0.760  0.00  0.00     0.034 A 
BRANCH  28  31
ATOM     31  N   UNL d   1       5.311   4.515   0.184  0.00  0.00    -0.116 N 
ATOM     32  O   UNL d   1       5.234   5.400   1.048  0.00  0.00    -0.532 OA
ATOM     33  O   UNL d   1       6.305   4.306  -0.525  0.00  0.00    -0.532 OA
ENDBRANCH  28  31
ENDBRANCH   3  25
TORSDOF 6
