REMARK  4 active torsions:
REMARK  status: ('A' for Active; 'I' for Inactive)
REMARK    1  A    between atoms: C_10  and  C_1 
REMARK    2  A    between atoms: C_5  and  C_2 
REMARK    3  A    between atoms: N_6  and  C_3 
REMARK       I    between atoms: C_8  and  N_6 
REMARK    4  A    between atoms: C_9  and  C_8 
ROOT
ATOM      1  C   UNL d   1       1.309   0.958  -0.201  0.00  0.00     0.023 A 
ATOM      2  C   UNL d   1       0.016   1.418   0.035  0.00  0.00     0.102 A 
ATOM      3  C   UNL d   1       1.351  -0.483  -0.351  0.00  0.00     0.053 A 
ATOM      4  S   UNL d   1      -1.124   0.136  -0.014  0.00  0.00    -0.094 SA
ATOM      5  C   UNL d   1       0.089  -1.026  -0.284  0.00  0.00     0.081 A 
ENDROOT
BRANCH   3   6
ATOM      6  N   UNL d   1       2.531  -1.213  -0.518  0.00  0.00    -0.324 N 
ATOM      7  C   UNL d   1       2.615  -2.581  -0.745  0.00  0.00     0.255 C 
ATOM      8  O   UNL d   1       1.663  -3.276  -1.099  0.00  0.00    -0.270 OA
ATOM      9  H   UNL d   1       3.398  -0.695  -0.423  0.00  0.00     0.169 HD
BRANCH   7  10
ATOM     10  C   UNL d   1       4.019  -3.188  -0.588  0.00  0.00     0.270 C 
ATOM     11 CL   UNL d   1       5.145  -2.087   0.253  0.00  0.00    -0.098 Cl
ATOM     12 CL   UNL d   1       3.903  -4.710   0.330  0.00  0.00    -0.098 Cl
ENDBRANCH   7  10
ENDBRANCH   3   6
BRANCH   1  13
ATOM     13  C   UNL d   1       2.444   1.879  -0.302  0.00  0.00    -0.022 A 
ATOM     14  C   UNL d   1       3.549   1.748   0.549  0.00  0.00     0.012 A 
ATOM     15  C   UNL d   1       4.646   2.603   0.414  0.00  0.00     0.001 A 
ATOM     16  C   UNL d   1       4.638   3.607  -0.553  0.00  0.00     0.000 A 
ATOM     17  C   UNL d   1       3.537   3.754  -1.393  0.00  0.00     0.001 A 
ATOM     18  C   UNL d   1       2.449   2.886  -1.278  0.00  0.00     0.012 A 
ENDBRANCH   1  13
BRANCH   2  19
ATOM     19  C   UNL d   1      -0.492   2.806   0.277  0.00  0.00     0.424 C 
ATOM     20  F   UNL d   1       0.409   3.593   0.919  0.00  0.00    -0.166 F 
ATOM     21  F   UNL d   1      -0.796   3.432  -0.891  0.00  0.00    -0.166 F 
ATOM     22  F   UNL d   1      -1.619   2.833   1.037  0.00  0.00    -0.166 F 
ENDBRANCH   2  19
TORSDOF 4
