REMARK  6 active torsions:
REMARK  status: ('A' for Active; 'I' for Inactive)
REMARK    1  A    between atoms: C_2  and  C_1 
REMARK       I    between atoms: N_5  and  C_1 
REMARK       I    between atoms: C_3  and  N_6 
REMARK       I    between atoms: N_4  and  C_3 
REMARK    2  A    between atoms: C_7  and  N_4 
REMARK    3  A    between atoms: C_12  and  N_5 
REMARK    4  A    between atoms: N_6  and  C_13 
REMARK    5  A    between atoms: O_14  and  C_8 
REMARK    6  A    between atoms: O_20  and  C_11 
ROOT
ATOM      1  C   UNL d   1      -1.318  -0.208   1.159  0.00  0.00     0.035 A 
ATOM      2  C   UNL d   1      -4.140  -0.363   1.243  0.00  0.00     0.036 A 
ATOM      3  C   UNL d   1      -2.084   0.087   0.031  0.00  0.00     0.032 A 
ATOM      4  C   UNL d   1      -1.984  -0.541   2.344  0.00  0.00     0.032 A 
ATOM      5  C   UNL d   1      -3.386  -0.628   2.385  0.00  0.00     0.032 A 
ATOM      6  C   UNL d   1      -3.479   0.016   0.074  0.00  0.00     0.032 A 
ENDROOT
BRANCH   2   7
ATOM      7  N   UNL d   1      -5.534  -0.511   1.151  0.00  0.00    -0.309 N 
ATOM      8  C   UNL d   1      -6.427  -0.865   2.145  0.00  0.00     0.325 C 
ATOM      9  N   UNL d   1      -7.631  -1.239   1.567  0.00  0.00    -0.306 N 
ATOM     10  O   UNL d   1      -6.188  -0.897   3.345  0.00  0.00    -0.247 OA
ATOM     11  H   UNL d   1      -7.556  -1.649   0.648  0.00  0.00     0.171 HD
ATOM     12  H   UNL d   1      -5.956  -0.268   0.268  0.00  0.00     0.170 HD
BRANCH   9  13
ATOM     13  C   UNL d   1      -8.770  -1.626   2.300  0.00  0.00     0.069 A 
ATOM     14  C   UNL d   1      -9.560  -2.699   1.857  0.00  0.00     0.095 A 
ATOM     15  C   UNL d   1     -10.772  -2.981   2.495  0.00  0.00     0.039 A 
ATOM     16  C   UNL d   1     -11.191  -2.210   3.581  0.00  0.00     0.003 A 
ATOM     17  C   UNL d   1     -10.395  -1.161   4.038  0.00  0.00     0.002 A 
ATOM     18  C   UNL d   1      -9.182  -0.876   3.407  0.00  0.00     0.032 A 
BRANCH  14  19
ATOM     19  O   UNL d   1      -9.248  -3.492   0.781  0.00  0.00    -0.354 OA
ATOM     20  C   UNL d   1      -7.969  -4.126   0.867  0.00  0.00     0.210 C 
ENDBRANCH  14  19
ENDBRANCH   9  13
ENDBRANCH   2   7
BRANCH   1  21
ATOM     21  N   UNL d   1       0.097  -0.175   1.171  0.00  0.00    -0.323 N 
ATOM     22  C   UNL d   1       0.921   0.017   0.075  0.00  0.00     0.259 C 
ATOM     23  O   UNL d   1       0.550   0.124  -1.098  0.00  0.00    -0.267 OA
ATOM     24  H   UNL d   1       0.525  -0.278   2.082  0.00  0.00     0.169 HD
BRANCH  22  25
ATOM     25  C   UNL d   1       2.383   0.153   0.321  0.00  0.00     0.065 A 
ATOM     26  C   UNL d   1       3.157   0.881  -0.601  0.00  0.00     0.081 A 
ATOM     27  C   UNL d   1       4.521   1.083  -0.393  0.00  0.00     0.037 A 
ATOM     28  C   UNL d   1       5.137   0.531   0.727  0.00  0.00     0.003 A 
ATOM     29  C   UNL d   1       4.392  -0.230   1.628  0.00  0.00     0.001 A 
ATOM     30  C   UNL d   1       3.020  -0.424   1.428  0.00  0.00     0.020 A 
BRANCH  26  31
ATOM     31  O   UNL d   1       2.643   1.438  -1.744  0.00  0.00    -0.360 OA
ATOM     32  H   UNL d   1       1.734   1.076  -1.865  0.00  0.00     0.217 HD
ENDBRANCH  26  31
ENDBRANCH  22  25
ENDBRANCH   1  21
TORSDOF 6
