REMARK  2 active torsions:
REMARK  status: ('A' for Active; 'I' for Inactive)
REMARK       I    between atoms: C_2  and  N_3 
REMARK    1  A    between atoms: C_9  and  C_2 
REMARK    2  A    between atoms: N_3  and  C_4 
ROOT
ATOM      1  C   UNL d   1      -0.366   0.881   2.168  0.00  0.00     0.109 A 
ATOM      2  C   UNL d   1      -0.562   2.213   2.570  0.00  0.00     0.058 A 
ATOM      3  C   UNL d   1      -0.330   0.449   0.803  0.00  0.00     0.105 C 
ATOM      4  N   UNL d   1      -0.212   0.072  -0.291  0.00  0.00    -0.191 NA
ATOM      5  C   UNL d   1      -0.015  -0.068   3.140  0.00  0.00     0.139 A 
ATOM      6  F   UNL d   1       0.213  -1.343   2.790  0.00  0.00    -0.204 F 
ATOM      7  C   UNL d   1      -0.356   2.558   3.920  0.00  0.00     0.031 A 
ATOM      8  C   UNL d   1      -0.007   1.599   4.871  0.00  0.00     0.005 A 
ATOM      9  C   UNL d   1       0.159   0.278   4.478  0.00  0.00     0.044 A 
ENDROOT
BRANCH   2  10
ATOM     10  N   UNL d   1      -0.884   3.303   1.728  0.00  0.00    -0.325 N 
ATOM     11  C   UNL d   1      -1.685   3.284   0.596  0.00  0.00     0.226 C 
ATOM     12  O   UNL d   1      -2.358   2.331   0.227  0.00  0.00    -0.273 OA
ATOM     13  H   UNL d   1      -0.701   4.221   2.111  0.00  0.00     0.169 HD
BRANCH  11  14
ATOM     14  C   UNL d   1      -1.683   4.640  -0.117  0.00  0.00     0.078 C 
ATOM     15  C   UNL d   1      -2.289   4.582  -1.523  0.00  0.00     0.014 C 
ATOM     16  C   UNL d   1      -2.163   5.941  -2.217  0.00  0.00     0.001 C 
ATOM     17  C   UNL d   1      -2.774   7.072  -1.392  0.00  0.00     0.000 C 
ATOM     18  C   UNL d   1      -2.271   7.081   0.049  0.00  0.00     0.001 C 
ATOM     19  C   UNL d   1      -2.411   5.712   0.708  0.00  0.00     0.014 C 
ENDBRANCH  11  14
ENDBRANCH   2  10
TORSDOF 2
