REMARK  3 active torsions:
REMARK  status: ('A' for Active; 'I' for Inactive)
REMARK    1  A    between atoms: C_8  and  N_1 
REMARK    2  A    between atoms: N_4  and  C_9 
REMARK    3  A    between atoms: O_18  and  C_6 
ROOT
ATOM      1  N   UNL d   1       1.116  -0.774   0.084  0.00  0.00    -0.219 N 
ATOM      2  N   UNL d   1       1.106   0.519   0.600  0.00  0.00    -0.270 N 
ATOM      3  HN  UNL d   1       1.928   0.928   1.044  1.00  0.00     0.190 HD
ATOM      4  C   UNL d   1      -0.006  -1.350  -0.538  0.00  0.00     0.267 A 
ATOM      5  C   UNL d   1       0.007   1.166   0.484  0.00  0.00     0.155 A 
ATOM      6  C   UNL d   1      -1.233  -0.512  -0.577  0.00  0.00     0.080 A 
ATOM      7  C   UNL d   1      -1.252   0.723  -0.078  0.00  0.00     0.063 A 
ATOM      8  O   UNL d   1      -0.100  -2.481  -1.009  0.00  0.00    -0.266 OA
ENDROOT
BRANCH   1   9
ATOM      9  C   UNL d   1       2.353  -1.476   0.287  0.00  0.00     0.060 A 
ATOM     10  C   UNL d   1       2.702  -2.613  -0.460  0.00  0.00     0.034 A 
ATOM     11  C   UNL d   1       3.874  -3.333  -0.192  0.00  0.00     0.038 A 
ATOM     12  C   UNL d   1       4.718  -2.919   0.841  0.00  0.00     0.103 A 
ATOM     13  C   UNL d   1       4.420  -1.767   1.573  0.00  0.00     0.038 A 
ATOM     14  C   UNL d   1       3.253  -1.048   1.283  0.00  0.00     0.034 A 
BRANCH  12  15
ATOM     15  N   UNL d   1       5.912  -3.708   1.169  0.00  0.00    -0.116 N 
ATOM     16  O   UNL d   1       6.141  -4.718   0.488  0.00  0.00    -0.532 OA
ATOM     17  O   UNL d   1       6.616  -3.321   2.112  0.00  0.00    -0.532 OA
ENDBRANCH  12  15
ENDBRANCH   1   9
BRANCH   5  18
ATOM     18  O   UNL d   1      -0.064   2.431   0.914  0.00  0.00    -0.345 OA
ATOM     19  H   UNL d   1       0.813   2.683   1.250  0.00  0.00     0.219 HD
ENDBRANCH   5  18
TORSDOF 3
