REMARK  3 active torsions:
REMARK  status: ('A' for Active; 'I' for Inactive)
REMARK    1  A    between atoms: C_8  and  C_7 
REMARK    2  A    between atoms: C_17  and  C_11 
REMARK    3  A    between atoms: O_18  and  C_17 
ROOT
ATOM      1  C   UNL d   1      -1.259   0.139  -0.075  0.00  0.00     0.117 C 
ATOM      2  C   UNL d   1      -0.662  -1.168   0.227  0.00  0.00     0.302 C 
ATOM      3  C   UNL d   1      -0.509   1.349   0.287  0.00  0.00     0.302 C 
ATOM      4  O   UNL d   1       0.684  -1.162   0.331  0.00  0.00    -0.280 OA
ATOM      5  O   UNL d   1       0.832   1.219   0.241  0.00  0.00    -0.280 OA
ATOM      6  C   UNL d   1       1.400  -0.027  -0.160  0.00  0.00     0.175 C 
ATOM      7  C   UNL d   1      -2.462   0.128  -0.681  0.00  0.00     0.061 C 
ATOM      8  O   UNL d   1      -1.032   2.386   0.671  0.00  0.00    -0.259 OA
ATOM      9  O   UNL d   1      -1.317  -2.192   0.362  0.00  0.00    -0.259 OA
ATOM     10  C   UNL d   1       1.538  -0.090  -1.684  0.00  0.00     0.080 C 
ATOM     11  C   UNL d   1       2.790  -0.080   0.475  0.00  0.00     0.080 C 
ENDROOT
BRANCH   7  12
ATOM     12  C   UNL d   1      -3.093   1.290  -1.199  0.00  0.00     0.077 A 
ATOM     13  O   UNL d   1      -2.402   2.342  -1.757  0.00  0.00    -0.313 OA
ATOM     14  C   UNL d   1      -3.297   3.286  -2.155  0.00  0.00     0.077 A 
ATOM     15  C   UNL d   1      -4.577   2.849  -1.914  0.00  0.00     0.038 A 
ATOM     16  C   UNL d   1      -4.448   1.571  -1.317  0.00  0.00     0.040 A 
BRANCH  14  17
ATOM     17  C   UNL d   1      -2.726   4.526  -2.728  0.00  0.00     0.229 C 
BRANCH  17  18
ATOM     18  O   UNL d   1      -1.909   4.158  -3.834  0.00  0.00    -0.394 OA
ATOM     19  H   UNL d   1      -1.302   3.478  -3.491  0.00  0.00     0.209 HD
ENDBRANCH  17  18
ENDBRANCH  14  17
ENDBRANCH   7  12
TORSDOF 3
