REMARK  4 active torsions:
REMARK  status: ('A' for Active; 'I' for Inactive)
REMARK    1  A    between atoms: C_4  and  C_3 
REMARK    2  A    between atoms: C_13  and  C_5 
REMARK    3  A    between atoms: O_14  and  C_13 
REMARK    4  A    between atoms: C_15  and  O_14 
ROOT
ATOM      1  N   UNL d   1      -0.117   0.469  -1.094  0.00  0.00    -0.321 N 
ATOM      2  HN  UNL d   1      -0.104   0.822  -2.051  1.00  0.00     0.169 HD
ATOM      3  C   UNL d   1      -0.506  -0.710  -0.657  0.00  0.00     0.182 A 
ATOM      4  C   UNL d   1       0.270   1.108   0.060  0.00  0.00     0.128 A 
ATOM      5  N   UNL d   1       0.150   0.372   1.174  0.00  0.00    -0.245 N 
ATOM      6  HN  UNL d   1       0.376   0.634   2.134  1.00  0.00     0.196 HD
ATOM      7  O   UNL d   1      -0.359  -0.839   0.701  0.00  0.00    -0.217 OA
ENDROOT
BRANCH   4   8
ATOM      8  C   UNL d   1       0.651   2.549   0.075  0.00  0.00     0.254 C 
BRANCH   8   9
ATOM      9  O   UNL d   1       2.070   2.742   0.012  0.00  0.00    -0.344 OA
BRANCH   9  10
ATOM     10  C   UNL d   1       2.486   4.045   0.094  0.00  0.00     0.069 A 
ATOM     11  C   UNL d   1       3.781   4.230   0.585  0.00  0.00     0.038 A 
ATOM     12  C   UNL d   1       4.314   5.516   0.715  0.00  0.00     0.026 A 
ATOM     13  C   UNL d   1       3.554   6.619   0.336  0.00  0.00     0.034 A 
ATOM     14  C   UNL d   1       2.271   6.444  -0.176  0.00  0.00     0.026 A 
ATOM     15 CL   UNL d   1       4.201   8.204   0.495  0.00  0.00    -0.084 Cl
ATOM     16  C   UNL d   1       1.738   5.157  -0.301  0.00  0.00     0.038 A 
ENDBRANCH   9  10
ENDBRANCH   8   9
ENDBRANCH   4   8
BRANCH   3  17
ATOM     17  C   UNL d   1      -1.087  -1.762  -1.540  0.00  0.00     0.024 A 
ATOM     18  C   UNL d   1      -1.588  -2.954  -1.062  0.00  0.00     0.065 A 
ATOM     19  S   UNL d   1      -2.217  -3.933  -2.318  0.00  0.00    -0.113 SA
ATOM     20  C   UNL d   1      -1.811  -2.771  -3.507  0.00  0.00     0.050 A 
ATOM     21  C   UNL d   1      -1.214  -1.657  -2.958  0.00  0.00     0.023 A 
ENDBRANCH   3  17
TORSDOF 4
