REMARK  1 active torsions:
REMARK  status: ('A' for Active; 'I' for Inactive)
REMARK    1  A    between atoms: C_2  and  C_1 
REMARK       I    between atoms: N_6  and  C_2 
ROOT
ATOM      1  C   UNL d   1      -1.449  -0.194  -0.072  0.00  0.00     0.049 A 
ATOM      2  C   UNL d   1      -0.635  -1.338  -0.036  0.00  0.00     0.022 A 
ATOM      3  C   UNL d   1      -0.823   1.073  -0.090  0.00  0.00     0.025 A 
ATOM      4  C   UNL d   1       0.762  -1.202   0.012  0.00  0.00     0.020 A 
ATOM      5  C   UNL d   1       0.574   1.208  -0.058  0.00  0.00    -0.061 A 
ATOM      6  I   UNL d   1      -1.309  -3.332  -0.140  0.00  0.00    -0.043 I 
ATOM      7  C   UNL d   1       1.360   0.058  -0.001  0.00  0.00     0.008 A 
ATOM      8  C   UNL d   1       1.234   2.555  -0.126  0.00  0.00     0.048 C 
ENDROOT
BRANCH   1   9
ATOM      9  C   UNL d   1      -2.947  -0.168  -0.137  0.00  0.00     0.252 C 
ATOM     10  O   UNL d   1      -3.511   0.762  -0.704  0.00  0.00    -0.268 OA
ATOM     11  N   UNL d   1      -3.629  -1.183   0.492  0.00  0.00    -0.361 N 
ATOM     12  C   UNL d   1      -5.065  -1.323   0.423  0.00  0.00     0.149 C 
ATOM     13  H   UNL d   1      -3.104  -1.940   0.909  0.00  0.00     0.162 HD
ENDBRANCH   1   9
TORSDOF 1
