REMARK  4 active torsions:
REMARK  status: ('A' for Active; 'I' for Inactive)
REMARK    1  A    between atoms: O_21  and  C_5 
REMARK    2  A    between atoms: C_20  and  C_8 
REMARK    3  A    between atoms: C_16  and  C_25 
REMARK    4  A    between atoms: C_25  and  O_21 
ROOT
ATOM      1  N   UNL d   1      -1.034   7.036   0.450  0.00  0.00    -0.277 N 
ATOM      2  HN  UNL d   1      -1.879   7.575   0.639  1.00  0.00     0.189 HD
ATOM      3  C   UNL d   1       0.166   7.520   0.192  0.00  0.00     0.174 A 
ATOM      4  O   UNL d   1       1.097   6.529  -0.011  0.00  0.00    -0.275 OA
ATOM      5  N   UNL d   1      -0.927   5.664   0.414  0.00  0.00    -0.279 N 
ATOM      6  HN  UNL d   1      -1.674   4.988   0.575  1.00  0.00     0.189 HD
ATOM      7  C   UNL d   1       0.331   5.396   0.132  0.00  0.00     0.165 A 
ENDROOT
BRANCH   7   8
ATOM      8  C   UNL d   1       1.010   4.079   0.065  0.00  0.00     0.262 C 
BRANCH   8   9
ATOM      9  O   UNL d   1       0.996   3.636  -1.293  0.00  0.00    -0.339 OA
BRANCH   9  10
ATOM     10  C   UNL d   1       1.561   2.413  -1.580  0.00  0.00     0.118 A 
ATOM     11  C   UNL d   1       1.496   2.048  -2.949  0.00  0.00     0.176 A 
ATOM     12  N   UNL d   1       2.050   0.838  -3.309  0.00  0.00    -0.230 N 
ATOM     13  N   UNL d   1       1.003   2.633  -4.022  0.00  0.00    -0.281 N 
ATOM     14  N   UNL d   1       2.669  -0.074  -2.507  0.00  0.00    -0.296 N 
ATOM     15  C   UNL d   1       1.857   0.735  -4.655  0.00  0.00     0.225 A 
ATOM     16  C   UNL d   1       2.709   0.288  -1.262  0.00  0.00     0.025 A 
ATOM     17  HN  UNL d   1       3.060  -0.951  -2.851  1.00  0.00     0.187 HD
ATOM     18  C   UNL d   1       2.149   1.563  -0.718  0.00  0.00     0.067 A 
ATOM     19  C   UNL d   1       3.380  -0.644  -0.282  0.00  0.00     0.070 C 
ATOM     20  N   UNL d   1       1.231   1.802  -5.102  0.00  0.00    -0.293 N 
ATOM     21  HN  UNL d   1       0.963   1.983  -6.069  1.00  0.00     0.187 HD
ATOM     22  HN  UNL d   1       0.536   3.540  -4.051  1.00  0.00     0.188 HD
ENDBRANCH   9  10
ENDBRANCH   8   9
ENDBRANCH   7   8
BRANCH   3  23
ATOM     23  C   UNL d   1       0.599   8.910   0.091  0.00  0.00     0.018 A 
ATOM     24  C   UNL d   1      -0.338   9.934   0.314  0.00  0.00     0.028 A 
ATOM     25  C   UNL d   1      -0.004  11.291   0.159  0.00  0.00    -0.025 A 
ATOM     26  C   UNL d   1      -0.956  12.306   0.351  0.00  0.00     0.012 A 
ATOM     27  C   UNL d   1       1.311  11.638  -0.220  0.00  0.00    -0.026 A 
ATOM     28  C   UNL d   1      -0.621  13.646   0.151  0.00  0.00     0.001 A 
ATOM     29  C   UNL d   1       0.670  13.988  -0.237  0.00  0.00     0.001 A 
ATOM     30  C   UNL d   1       1.633  12.992  -0.416  0.00  0.00     0.012 A 
ATOM     31  C   UNL d   1       2.259  10.618  -0.405  0.00  0.00     0.013 A 
ATOM     32  C   UNL d   1       1.908   9.271  -0.249  0.00  0.00     0.017 A 
ENDBRANCH   3  23
TORSDOF 4
