REMARK  7 active torsions:
REMARK  status: ('A' for Active; 'I' for Inactive)
REMARK    1  A    between atoms: C_4  and  S_1 
REMARK    2  A    between atoms: C_5  and  S_1 
REMARK    3  A    between atoms: S_2  and  C_3 
REMARK    4  A    between atoms: C_11  and  S_2 
REMARK    5  A    between atoms: C_3  and  C_6 
REMARK    6  A    between atoms: C_6  and  C_4 
REMARK    7  A    between atoms: O_17  and  C_6 
ROOT
ATOM      1  C   UNL d   1       1.108  -1.842  -2.034  0.00  0.00     0.146 C 
ENDROOT
BRANCH   1   2
ATOM      2  C   UNL d   1       2.627  -1.694  -1.974  0.00  0.00     0.178 C 
BRANCH   2   3
ATOM      3  S   UNL d   1       3.192  -0.136  -1.361  0.00  0.00     0.177 S 
ATOM      4  O   UNL d   1       2.559   0.917  -2.130  0.00  0.00    -0.223 OA
ATOM      5  O   UNL d   1       3.088  -0.174   0.084  0.00  0.00    -0.223 OA
BRANCH   3   6
ATOM      6  C   UNL d   1       4.923  -0.143  -1.781  0.00  0.00     0.059 A 
ATOM      7  C   UNL d   1       5.327   0.319  -3.037  0.00  0.00     0.023 A 
ATOM      8  C   UNL d   1       6.684   0.319  -3.365  0.00  0.00     0.002 A 
ATOM      9  C   UNL d   1       7.627  -0.134  -2.440  0.00  0.00     0.000 A 
ATOM     10  C   UNL d   1       7.219  -0.582  -1.183  0.00  0.00     0.002 A 
ATOM     11  C   UNL d   1       5.863  -0.586  -0.847  0.00  0.00     0.023 A 
ENDBRANCH   3   6
ENDBRANCH   2   3
ENDBRANCH   1   2
BRANCH   1  12
ATOM     12  C   UNL d   1       0.399  -1.808  -0.683  0.00  0.00     0.178 C 
BRANCH  12  13
ATOM     13  S   UNL d   1      -1.387  -1.868  -0.808  0.00  0.00     0.177 S 
ATOM     14  O   UNL d   1      -1.821  -0.811  -1.698  0.00  0.00    -0.223 OA
ATOM     15  O   UNL d   1      -1.920  -1.961   0.540  0.00  0.00    -0.223 OA
BRANCH  13  16
ATOM     16  C   UNL d   1      -1.752  -3.429  -1.586  0.00  0.00     0.059 A 
ATOM     17  C   UNL d   1      -1.530  -4.613  -0.874  0.00  0.00     0.025 A 
ATOM     18  C   UNL d   1      -1.709  -5.841  -1.514  0.00  0.00     0.020 A 
ATOM     19  C   UNL d   1      -2.123  -5.875  -2.847  0.00  0.00     0.011 A 
ATOM     20  C   UNL d   1      -2.389  -4.693  -3.541  0.00  0.00     0.020 A 
ATOM     21 BR   UNL d   1      -2.310  -7.538  -3.726  0.00  0.00    -0.051 Br
ATOM     22  C   UNL d   1      -2.211  -3.461  -2.906  0.00  0.00     0.025 A 
ENDBRANCH  13  16
ENDBRANCH  12  13
ENDBRANCH   1  12
BRANCH   1  23
ATOM     23  O   UNL d   1       0.890  -3.110  -2.674  0.00  0.00    -0.394 OA
ATOM     24  H   UNL d   1       1.213  -3.834  -2.107  0.00  0.00     0.210 HD
ENDBRANCH   1  23
TORSDOF 7
