REMARK  1 active torsions:
REMARK  status: ('A' for Active; 'I' for Inactive)
REMARK    1  A    between atoms: S_14  and  C_11 
ROOT
ATOM      1  C   UNL d   1      -0.764   1.208  -0.006  0.00  0.00     0.086 A 
ATOM      2  C   UNL d   1      -1.452  -0.015  -0.004  0.00  0.00     0.074 A 
ATOM      3  N   UNL d   1      -1.503   2.339  -0.008  0.00  0.00    -0.296 N 
ATOM      4  HN  UNL d   1      -1.033   3.245  -0.009  1.00  0.00     0.187 HD
ATOM      5  N   UNL d   1      -2.803  -0.057  -0.005  0.00  0.00    -0.333 N 
ATOM      6  HN  UNL d   1      -3.297  -0.949  -0.004  1.00  0.00     0.168 HD
ATOM      7  C   UNL d   1      -0.729  -1.218  -0.003  0.00  0.00     0.004 A 
ATOM      8  C   UNL d   1       0.645   1.231  -0.005  0.00  0.00     0.005 A 
ATOM      9  C   UNL d   1       0.688  -1.224  -0.003  0.00  0.00    -0.012 A 
ATOM     10  C   UNL d   1       1.388   0.023  -0.003  0.00  0.00    -0.012 A 
ATOM     11  C   UNL d   1      -3.479   1.097  -0.008  0.00  0.00     0.159 A 
ATOM     12  N   UNL d   1      -2.874   2.291  -0.009  0.00  0.00    -0.279 N 
ATOM     13  HN  UNL d   1      -3.423   3.150  -0.011  1.00  0.00     0.189 HD
ATOM     14  C   UNL d   1      -1.418  -2.455  -0.001  0.00  0.00     0.014 A 
ATOM     15  C   UNL d   1       1.343   2.462  -0.006  0.00  0.00     0.014 A 
ATOM     16  C   UNL d   1       1.333  -2.491  -0.003  0.00  0.00     0.013 A 
ATOM     17  C   UNL d   1       2.805   0.126  -0.002  0.00  0.00     0.013 A 
ATOM     18  C   UNL d   1       2.736   2.526  -0.005  0.00  0.00     0.001 A 
ATOM     19  C   UNL d   1       0.628  -3.696  -0.001  0.00  0.00     0.001 A 
ATOM     20  C   UNL d   1      -0.754  -3.678  -0.000  0.00  0.00     0.001 A 
ATOM     21  C   UNL d   1       3.469   1.354  -0.002  0.00  0.00     0.001 A 
ENDROOT
BRANCH  11  22
ATOM     22  S   UNL d   1      -5.247   0.954  -0.010  0.00  0.00    -0.097 SA
ATOM     23  C   UNL d   1      -5.737   2.692  -0.018  0.00  0.00     0.099 C 
ENDBRANCH  11  22
TORSDOF 1
