REMARK  2 active torsions:
REMARK  status: ('A' for Active; 'I' for Inactive)
REMARK    1  A    between atoms: N_12  and  N_6 
REMARK    2  A    between atoms: C_14  and  N_12 
ROOT
ATOM      1  S   UNL d   1      -1.272   1.704   0.133  0.00  0.00     0.180 S 
ATOM      2  C   UNL d   1       0.144   0.657   0.068  0.00  0.00     0.071 A 
ATOM      3  C   UNL d   1       0.025  -0.734  -0.032  0.00  0.00     0.011 A 
ATOM      4  C   UNL d   1      -1.299  -1.448  -0.048  0.00  0.00     0.038 C 
ATOM      5  C   UNL d   1      -2.611   0.643  -0.365  0.00  0.00     0.115 C 
ATOM      6  N   UNL d   1      -1.330  -2.696  -0.420  0.00  0.00    -0.304 N 
ATOM      7  HN  UNL d   1      -0.477  -3.169  -0.721  1.00  0.00     0.186 HD
ATOM      8  C   UNL d   1      -2.514  -0.656   0.417  0.00  0.00     0.079 C 
ATOM      9  O   UNL d   1      -1.095   2.710  -0.896  0.00  0.00    -0.222 OA
ATOM     10  O   UNL d   1      -1.446   2.060   1.526  0.00  0.00    -0.222 OA
ATOM     11  C   UNL d   1       1.397   1.287   0.090  0.00  0.00     0.026 A 
ATOM     12  C   UNL d   1       1.205  -1.493  -0.104  0.00  0.00     0.038 A 
ATOM     13  C   UNL d   1       2.456  -0.867  -0.073  0.00  0.00     0.035 A 
ATOM     14  C   UNL d   1       2.556   0.520   0.022  0.00  0.00     0.025 A 
ATOM     15 CL   UNL d   1       3.890  -1.813  -0.148  0.00  0.00    -0.084 Cl
ATOM     16  C   UNL d   1      -3.950   1.337  -0.152  0.00  0.00     0.027 C 
ENDROOT
BRANCH   6  17
ATOM     17  N   UNL d   1      -2.515  -3.358  -0.400  0.00  0.00    -0.301 N 
ATOM     18  H   UNL d   1      -3.368  -2.873  -0.667  0.00  0.00     0.187 HD
BRANCH  17  19
ATOM     19  C   UNL d   1      -2.560  -4.719  -0.789  0.00  0.00     0.051 A 
ATOM     20  C   UNL d   1      -1.413  -5.477  -1.050  0.00  0.00     0.054 A 
ATOM     21  C   UNL d   1      -1.517  -6.838  -1.355  0.00  0.00     0.037 A 
ATOM     22 CL   UNL d   1      -0.096  -7.747  -1.700  0.00  0.00    -0.084 Cl
ATOM     23  C   UNL d   1      -2.755  -7.473  -1.379  0.00  0.00     0.048 A 
ATOM     24  C   UNL d   1      -3.895  -6.733  -1.090  0.00  0.00     0.037 A 
ATOM     25  C   UNL d   1      -3.803  -5.372  -0.791  0.00  0.00     0.054 A 
ATOM     26 CL   UNL d   1      -5.436  -7.500  -1.091  0.00  0.00    -0.084 Cl
ENDBRANCH  17  19
ENDBRANCH   6  17
TORSDOF 2
