REMARK  5 active torsions:
REMARK  status: ('A' for Active; 'I' for Inactive)
REMARK    1  A    between atoms: C_2  and  C_1 
REMARK    2  A    between atoms: C_13  and  N_3 
REMARK    3  A    between atoms: C_15  and  C_4 
REMARK    4  A    between atoms: C_14  and  N_5 
REMARK    5  A    between atoms: O_33  and  C_24 
ROOT
ATOM      1  C   UNL d   1      -0.267   1.228  -0.033  0.00  0.00     0.057 C 
ATOM      2  C   UNL d   1       1.068   0.842  -0.061  0.00  0.00     0.082 C 
ATOM      3  N   UNL d   1       1.018  -0.566  -0.045  0.00  0.00    -0.255 N 
ATOM      4  N   UNL d   1      -0.248  -1.032  -0.213  0.00  0.00    -0.303 N 
ATOM      5  HN  UNL d   1      -0.542  -1.996  -0.373  1.00  0.00     0.186 HD
ATOM      6  C   UNL d   1      -1.016   0.045  -0.124  0.00  0.00     0.125 C 
ENDROOT
BRANCH   1   7
ATOM      7  C   UNL d   1      -0.831   2.603  -0.001  0.00  0.00     0.152 C 
ATOM      8  N   UNL d   1      -2.020   3.009   0.589  0.00  0.00    -0.224 N 
ATOM      9  N   UNL d   1      -2.339   4.226   0.093  0.00  0.00     0.001 NA
ATOM     10  N   UNL d   1      -1.270   4.628  -0.579  0.00  0.00    -0.007 NA
ATOM     11  N   UNL d   1      -0.316   3.644  -0.625  0.00  0.00    -0.269 N 
ATOM     12  HN  UNL d   1       0.607   3.705  -1.056  1.00  0.00     0.185 HD
BRANCH   8  13
ATOM     13  C   UNL d   1      -2.760   2.421   1.641  0.00  0.00     0.056 A 
ATOM     14  C   UNL d   1      -2.129   1.582   2.574  0.00  0.00     0.034 A 
ATOM     15  C   UNL d   1      -2.863   1.008   3.617  0.00  0.00     0.039 A 
ATOM     16  C   UNL d   1      -4.228   1.260   3.733  0.00  0.00     0.068 A 
ATOM     17  C   UNL d   1      -4.844   2.132   2.831  0.00  0.00     0.039 A 
ATOM     18  C   UNL d   1      -4.115   2.723   1.794  0.00  0.00     0.034 A 
BRANCH  16  19
ATOM     19  O   UNL d   1      -5.046   0.747   4.702  0.00  0.00    -0.356 OA
ATOM     20  C   UNL d   1      -4.596  -0.452   5.325  0.00  0.00     0.210 C 
ENDBRANCH  16  19
ENDBRANCH   8  13
ENDBRANCH   1   7
BRANCH   2  21
ATOM     21  C   UNL d   1       2.294   1.660  -0.070  0.00  0.00    -0.006 A 
ATOM     22  C   UNL d   1       2.389   2.810   0.732  0.00  0.00     0.015 A 
ATOM     23  C   UNL d   1       3.560   3.572   0.768  0.00  0.00     0.024 A 
ATOM     24  C   UNL d   1       4.668   3.172   0.029  0.00  0.00     0.034 A 
ATOM     25  C   UNL d   1       4.595   2.044  -0.783  0.00  0.00     0.024 A 
ATOM     26 CL   UNL d   1       6.131   4.067   0.128  0.00  0.00    -0.084 Cl
ATOM     27  C   UNL d   1       3.404   1.314  -0.857  0.00  0.00     0.015 A 
ENDBRANCH   2  21
BRANCH   3  28
ATOM     28  C   UNL d   1       2.054  -1.530   0.159  0.00  0.00     0.057 A 
ATOM     29  C   UNL d   1       3.192  -1.239   0.925  0.00  0.00     0.033 A 
ATOM     30  C   UNL d   1       4.206  -2.192   1.060  0.00  0.00     0.026 A 
ATOM     31  C   UNL d   1       4.076  -3.439   0.451  0.00  0.00     0.034 A 
ATOM     32  C   UNL d   1       2.930  -3.757  -0.271  0.00  0.00     0.026 A 
ATOM     33 CL   UNL d   1       5.345  -4.592   0.595  0.00  0.00    -0.084 Cl
ATOM     34  C   UNL d   1       1.910  -2.810  -0.404  0.00  0.00     0.033 A 
ENDBRANCH   3  28
TORSDOF 5
