REMARK  6 active torsions:
REMARK  status: ('A' for Active; 'I' for Inactive)
REMARK    1  A    between atoms: N_9  and  C_3 
REMARK    2  A    between atoms: C_13  and  C_4 
REMARK    3  A    between atoms: C_8  and  C_10 
REMARK    4  A    between atoms: C_10  and  C_12 
REMARK    5  A    between atoms: O_19  and  C_10 
REMARK    6  A    between atoms: C_12  and  N_11 
ROOT
ATOM      1  N   UNL d   1       0.044  -2.373   0.532  0.00  0.00    -0.260 NA
ATOM      2  N   UNL d   1       0.322  -5.506   0.863  0.00  0.00     0.092 N 
ATOM      3  C   UNL d   1       0.184  -3.353  -0.577  0.00  0.00     0.128 C 
ATOM      4  C   UNL d   1      -0.328  -4.767  -0.232  0.00  0.00     0.287 C 
ATOM      5  C   UNL d   1       0.294  -3.649   2.674  0.00  0.00     0.045 C 
ATOM      6  C   UNL d   1       0.903  -2.659   1.697  0.00  0.00     0.099 C 
ATOM      7  C   UNL d   1      -0.126  -5.028   2.165  0.00  0.00     0.273 C 
ENDROOT
BRANCH   1   8
ATOM      8  C   UNL d   1       0.208  -1.076   0.101  0.00  0.00     0.143 A 
ATOM      9  N   UNL d   1       0.997  -0.698  -0.881  0.00  0.00    -0.325 N 
ATOM     10  C   UNL d   1       1.050   0.699  -0.930  0.00  0.00     0.123 A 
ATOM     11  HN  UNL d   1       1.495  -1.327  -1.511  1.00  0.00     0.169 HD
ATOM     12  N   UNL d   1       0.278   1.391  -0.083  0.00  0.00    -0.309 N 
ATOM     13  S   UNL d   1      -0.543   0.286   0.853  0.00  0.00     0.018 SA
ATOM     14  HN  UNL d   1       0.205   2.407  -0.022  1.00  0.00     0.176 HD
BRANCH  10  15
ATOM     15  C   UNL d   1       1.962   1.361  -1.870  0.00  0.00     0.009 A 
ATOM     16  C   UNL d   1       2.648   0.619  -2.843  0.00  0.00     0.015 A 
ATOM     17  C   UNL d   1       3.527   1.245  -3.731  0.00  0.00     0.001 A 
ATOM     18  C   UNL d   1       3.734   2.622  -3.654  0.00  0.00     0.000 A 
ATOM     19  C   UNL d   1       3.066   3.373  -2.690  0.00  0.00     0.001 A 
ATOM     20  C   UNL d   1       2.186   2.746  -1.802  0.00  0.00     0.015 A 
ENDBRANCH  10  15
ENDBRANCH   1   8
BRANCH   2  21
ATOM     21  C   UNL d   1       1.758  -5.721   0.649  0.00  0.00     0.313 C 
BRANCH  21  22
ATOM     22  C   UNL d   1       2.560  -6.439   1.747  0.00  0.00     0.253 C 
BRANCH  22  23
ATOM     23  C   UNL d   1       2.190  -7.922   1.905  0.00  0.00     0.414 C 
ATOM     24  F   UNL d   1       1.106  -8.303   1.207  0.00  0.00    -0.168 F 
ATOM     25  F   UNL d   1       3.222  -8.697   1.475  0.00  0.00    -0.168 F 
ATOM     26  F   UNL d   1       1.980  -8.236   3.205  0.00  0.00    -0.168 F 
ENDBRANCH  22  23
BRANCH  22  27
ATOM     27  O   UNL d   1       3.966  -6.261   1.432  0.00  0.00    -0.385 OA
ATOM     28  H   UNL d   1       4.244  -7.026   0.893  0.00  0.00     0.210 HD
ENDBRANCH  22  27
ENDBRANCH  21  22
ENDBRANCH   2  21
TORSDOF 6
