REMARK  6 active torsions:
REMARK  status: ('A' for Active; 'I' for Inactive)
REMARK    1  A    between atoms: C_16  and  N_1 
REMARK    2  A    between atoms: C_17  and  C_2 
REMARK       I    between atoms: N_3  and  C_12 
REMARK    3  A    between atoms: S_15  and  C_6 
REMARK    4  A    between atoms: C_12  and  C_18 
REMARK    5  A    between atoms: C_18  and  S_15 
REMARK    6  A    between atoms: C_22  and  C_16 
ROOT
ATOM      1  N   UNL d   1      -0.232  -1.137   0.125  0.00  0.00    -0.306 N 
ATOM      2  C   UNL d   1       1.022  -0.550  -0.014  0.00  0.00     0.135 A 
ATOM      3  N   UNL d   1       0.849   0.762  -0.062  0.00  0.00    -0.283 N 
ATOM      4  HN  UNL d   1       1.591   1.451  -0.186  1.00  0.00     0.188 HD
ATOM      5  C   UNL d   1      -1.121  -0.086   0.187  0.00  0.00     0.163 A 
ATOM      6  N   UNL d   1      -0.477   1.050   0.082  0.00  0.00    -0.278 N 
ATOM      7  HN  UNL d   1      -0.892   1.981   0.103  1.00  0.00     0.189 HD
ENDROOT
BRANCH   5   8
ATOM      8  S   UNL d   1      -2.837  -0.223   0.417  0.00  0.00    -0.083 SA
BRANCH   8   9
ATOM      9  C   UNL d   1      -3.182   1.435   1.130  0.00  0.00     0.186 C 
BRANCH   9  10
ATOM     10  C   UNL d   1      -4.620   1.574   1.667  0.00  0.00     0.238 C 
ATOM     11  N   UNL d   1      -5.128   2.900   1.768  0.00  0.00    -0.279 N 
ATOM     12  C   UNL d   1      -6.555   3.169   1.876  0.00  0.00     0.059 A 
ATOM     13  C   UNL d   1      -4.284   4.066   1.912  0.00  0.00     0.059 A 
ATOM     14  C   UNL d   1      -7.119   4.367   1.384  0.00  0.00     0.033 A 
ATOM     15  C   UNL d   1      -7.432   2.272   2.508  0.00  0.00     0.031 A 
ATOM     16  C   UNL d   1      -8.483   4.656   1.550  0.00  0.00     0.021 A 
ATOM     17  S   UNL d   1      -6.144   5.549   0.478  0.00  0.00    -0.086 SA
ATOM     18  C   UNL d   1      -9.319   3.756   2.202  0.00  0.00     0.002 A 
ATOM     19  C   UNL d   1      -8.793   2.562   2.675  0.00  0.00     0.002 A 
ATOM     20  C   UNL d   1      -4.636   5.320   1.379  0.00  0.00     0.033 A 
ATOM     21  C   UNL d   1      -3.810   6.441   1.563  0.00  0.00     0.021 A 
ATOM     22  C   UNL d   1      -2.638   6.339   2.303  0.00  0.00     0.002 A 
ATOM     23  C   UNL d   1      -2.298   5.123   2.880  0.00  0.00     0.002 A 
ATOM     24  C   UNL d   1      -3.121   4.006   2.699  0.00  0.00     0.031 A 
ATOM     25  O   UNL d   1      -5.284   0.561   1.910  0.00  0.00    -0.272 OA
ENDBRANCH   9  10
ENDBRANCH   8   9
ENDBRANCH   5   8
BRANCH   1  26
ATOM     26  C   UNL d   1      -0.559  -2.553   0.084  0.00  0.00     0.171 C 
BRANCH  26  27
ATOM     27  C   UNL d   1      -0.471  -3.249   1.428  0.00  0.00    -0.040 A 
ATOM     28  C   UNL d   1      -0.777  -2.608   2.638  0.00  0.00     0.009 A 
ATOM     29  C   UNL d   1      -0.656  -3.279   3.856  0.00  0.00     0.001 A 
ATOM     30  C   UNL d   1      -0.241  -4.608   3.885  0.00  0.00     0.000 A 
ATOM     31  C   UNL d   1       0.037  -5.271   2.694  0.00  0.00     0.001 A 
ATOM     32  C   UNL d   1      -0.088  -4.603   1.474  0.00  0.00     0.009 A 
ENDBRANCH  26  27
ENDBRANCH   1  26
BRANCH   2  33
ATOM     33  C   UNL d   1       2.342  -1.185  -0.139  0.00  0.00     0.012 A 
ATOM     34  C   UNL d   1       3.313  -0.564  -0.936  0.00  0.00     0.032 A 
ATOM     35  C   UNL d   1       4.579  -1.123  -1.026  0.00  0.00     0.088 A 
ATOM     36  N   UNL d   1       4.942  -2.253  -0.389  0.00  0.00    -0.375 N 
ATOM     37  C   UNL d   1       4.010  -2.826   0.396  0.00  0.00     0.088 A 
ATOM     38  HN  UNL d   1       5.874  -2.653  -0.496  1.00  0.00     0.164 HD
ATOM     39  C   UNL d   1       2.724  -2.330   0.560  0.00  0.00     0.032 A 
ENDBRANCH   2  33
TORSDOF 6
