REMARK  4 active torsions:
REMARK  status: ('A' for Active; 'I' for Inactive)
REMARK    1  A    between atoms: C_6  and  N_1 
REMARK    2  A    between atoms: C_11  and  C_5 
REMARK    3  A    between atoms: O_14  and  C_7 
REMARK    4  A    between atoms: O_15  and  C_12 
ROOT
ATOM      1  N   UNL d   1       0.928  -0.684   0.132  0.00  0.00    -0.294 N 
ATOM      2  C   UNL d   1       0.819   0.586   0.801  0.00  0.00     0.183 A 
ATOM      3  N   UNL d   1      -0.549   0.903   0.762  0.00  0.00    -0.331 N 
ATOM      4  C   UNL d   1      -0.356  -1.001  -0.309  0.00  0.00     0.130 A 
ATOM      5  C   UNL d   1      -1.237  -0.061   0.073  0.00  0.00     0.060 A 
ATOM      6  S   UNL d   1       1.915   1.652   1.450  0.00  0.00    -0.040 SA
ATOM      7  H   UNL d   1      -0.938   1.736   1.175  0.00  0.00     0.168 HD
ENDROOT
BRANCH   1   8
ATOM      8  C   UNL d   1       2.102  -1.491  -0.029  0.00  0.00     0.074 A 
ATOM      9  C   UNL d   1       2.284  -2.413  -1.089  0.00  0.00     0.098 A 
ATOM     10  C   UNL d   1       3.482  -3.150  -1.191  0.00  0.00     0.075 A 
ATOM     11  C   UNL d   1       4.487  -3.034  -0.233  0.00  0.00     0.070 A 
ATOM     12  C   UNL d   1       4.293  -2.175   0.838  0.00  0.00     0.039 A 
ATOM     13  C   UNL d   1       3.122  -1.422   0.939  0.00  0.00     0.036 A 
BRANCH   9  14
ATOM     14  O   UNL d   1       1.313  -2.510  -2.063  0.00  0.00    -0.354 OA
ATOM     15  C   UNL d   1       1.266  -3.730  -2.801  0.00  0.00     0.210 C 
ENDBRANCH   9  14
BRANCH  11  16
ATOM     16  O   UNL d   1       5.677  -3.705  -0.229  0.00  0.00    -0.356 OA
ATOM     17  C   UNL d   1       5.934  -4.565  -1.332  0.00  0.00     0.210 C 
ENDBRANCH  11  16
ENDBRANCH   1   8
BRANCH   5  18
ATOM     18  C   UNL d   1      -2.684   0.003  -0.155  0.00  0.00    -0.008 A 
ATOM     19  C   UNL d   1      -3.427  -1.163  -0.398  0.00  0.00     0.014 A 
ATOM     20  C   UNL d   1      -4.807  -1.105  -0.606  0.00  0.00     0.001 A 
ATOM     21  C   UNL d   1      -5.469   0.119  -0.568  0.00  0.00     0.000 A 
ATOM     22  C   UNL d   1      -4.752   1.285  -0.323  0.00  0.00     0.001 A 
ATOM     23  C   UNL d   1      -3.370   1.228  -0.121  0.00  0.00     0.014 A 
ENDBRANCH   5  18
TORSDOF 4
