REMARK  3 active torsions:
REMARK  status: ('A' for Active; 'I' for Inactive)
REMARK    1  A    between atoms: C_6  and  N_2 
REMARK    2  A    between atoms: C_9  and  C_6 
REMARK    3  A    between atoms: C_11  and  C_9 
ROOT
ATOM      1  S   UNL d   1       1.536   0.485  -0.521  0.00  0.00     0.269 S 
ATOM      2  N   UNL d   1       1.210  -1.156  -0.386  0.00  0.00    -0.230 N 
ATOM      3  C   UNL d   1      -0.172  -1.452  -0.336  0.00  0.00     0.269 A 
ATOM      4  C   UNL d   1      -0.931  -0.194  -0.243  0.00  0.00     0.056 A 
ATOM      5  C   UNL d   1      -0.131   0.937  -0.340  0.00  0.00     0.095 A 
ATOM      6  O   UNL d   1       2.264   0.932   0.645  0.00  0.00    -0.200 OA
ATOM      7  O   UNL d   1       1.956   0.763  -1.874  0.00  0.00    -0.200 OA
ATOM      8  O   UNL d   1      -0.674  -2.558  -0.370  0.00  0.00    -0.266 OA
ATOM      9  C   UNL d   1      -2.291  -0.078  -0.006  0.00  0.00     0.018 A 
ATOM     10  C   UNL d   1      -0.632   2.217  -0.209  0.00  0.00     0.026 A 
ATOM     11  C   UNL d   1      -2.825   1.207   0.136  0.00  0.00     0.001 A 
ATOM     12  C   UNL d   1      -2.001   2.345   0.031  0.00  0.00     0.002 A 
ENDROOT
BRANCH   2  13
ATOM     13  C   UNL d   1       2.337  -2.038  -0.105  0.00  0.00     0.229 C 
BRANCH  13  14
ATOM     14  C   UNL d   1       1.946  -3.462   0.219  0.00  0.00     0.178 C 
ATOM     15  O   UNL d   1       1.583  -3.774   1.355  0.00  0.00    -0.290 OA
BRANCH  14  16
ATOM     16  C   UNL d   1       2.061  -4.513  -0.836  0.00  0.00     0.011 A 
ATOM     17  C   UNL d   1       2.308  -4.209  -2.180  0.00  0.00     0.016 A 
ATOM     18  C   UNL d   1       2.548  -5.235  -3.099  0.00  0.00     0.007 A 
ATOM     19  C   UNL d   1       2.514  -6.574  -2.696  0.00  0.00    -0.062 A 
ATOM     20  C   UNL d   1       2.201  -6.878  -1.367  0.00  0.00     0.007 A 
ATOM     21  C   UNL d   1       2.897  -7.660  -3.658  0.00  0.00     0.048 C 
ATOM     22  C   UNL d   1       1.970  -5.855  -0.445  0.00  0.00     0.016 A 
ENDBRANCH  14  16
ENDBRANCH  13  14
ENDBRANCH   2  13
TORSDOF 3
