REMARK  7 active torsions:
REMARK  status: ('A' for Active; 'I' for Inactive)
REMARK    1  A    between atoms: C_5  and  C_1 
REMARK    2  A    between atoms: C_8  and  C_2 
REMARK       I    between atoms: N_14  and  C_8 
REMARK    3  A    between atoms: O_19  and  C_9 
REMARK    4  A    between atoms: O_21  and  C_11 
REMARK    5  A    between atoms: C_22  and  N_14 
REMARK    6  A    between atoms: C_16  and  C_24 
REMARK    7  A    between atoms: C_24  and  C_22 
ROOT
ATOM      1  C   UNL d   1       0.363  -2.663  -0.327  0.00  0.00     0.256 C 
ATOM      2  O   UNL d   1      -0.490  -3.527  -0.508  0.00  0.00    -0.267 OA
ATOM      3  N   UNL d   1       1.703  -2.976  -0.167  0.00  0.00    -0.356 N 
ATOM      4  H   UNL d   1       2.306  -2.274   0.240  0.00  0.00     0.162 HD
ENDROOT
BRANCH   1   5
ATOM      5  C   UNL d   1       0.021  -1.264  -0.187  0.00  0.00     0.092 A 
ATOM      6  C   UNL d   1      -1.153  -0.692   0.420  0.00  0.00     0.085 A 
ATOM      7  N   UNL d   1      -1.096   0.648   0.349  0.00  0.00    -0.259 N 
ATOM      8  O   UNL d   1       0.047   0.963  -0.338  0.00  0.00    -0.241 OA
ATOM      9  HN  UNL d   1      -1.774   1.306   0.733  1.00  0.00     0.195 HD
ATOM     10  C   UNL d   1       0.725  -0.169  -0.651  0.00  0.00     0.090 A 
ATOM     11  C   UNL d   1       1.971   0.057  -1.409  0.00  0.00     0.080 C 
BRANCH   6  12
ATOM     12  C   UNL d   1      -2.248  -1.351   1.149  0.00  0.00     0.015 A 
ATOM     13  C   UNL d   1      -3.595  -0.952   1.050  0.00  0.00     0.046 A 
ATOM     14 CL   UNL d   1      -4.152   0.279  -0.034  0.00  0.00    -0.083 Cl
ATOM     15  C   UNL d   1      -4.582  -1.577   1.830  0.00  0.00     0.025 A 
ATOM     16  C   UNL d   1      -4.249  -2.616   2.696  0.00  0.00     0.002 A 
ATOM     17  C   UNL d   1      -2.927  -3.033   2.792  0.00  0.00     0.001 A 
ATOM     18  C   UNL d   1      -1.937  -2.400   2.035  0.00  0.00     0.015 A 
ENDBRANCH   6  12
ENDBRANCH   1   5
BRANCH   3  19
ATOM     19  C   UNL d   1       2.107  -4.372  -0.100  0.00  0.00     0.127 C 
BRANCH  19  20
ATOM     20  C   UNL d   1       3.623  -4.561  -0.105  0.00  0.00     0.058 C 
BRANCH  20  21
ATOM     21  C   UNL d   1       4.004  -6.023  -0.063  0.00  0.00    -0.054 A 
ATOM     22  C   UNL d   1       4.160  -6.689   1.165  0.00  0.00     0.046 A 
ATOM     23  C   UNL d   1       4.505  -8.051   1.224  0.00  0.00     0.102 A 
ATOM     24  C   UNL d   1       4.665  -8.761   0.022  0.00  0.00     0.101 A 
ATOM     25  C   UNL d   1       4.518  -8.094  -1.201  0.00  0.00     0.040 A 
ATOM     26  C   UNL d   1       4.182  -6.740  -1.248  0.00  0.00     0.010 A 
BRANCH  23  27
ATOM     27  O   UNL d   1       4.723  -8.725   2.395  0.00  0.00    -0.353 OA
ATOM     28  C   UNL d   1       4.619  -8.005   3.616  0.00  0.00     0.210 C 
ENDBRANCH  23  27
BRANCH  24  29
ATOM     29  O   UNL d   1       5.020 -10.078  -0.123  0.00  0.00    -0.353 OA
ATOM     30  C   UNL d   1       4.555 -10.981   0.871  0.00  0.00     0.210 C 
ENDBRANCH  24  29
ENDBRANCH  20  21
ENDBRANCH  19  20
ENDBRANCH   3  19
TORSDOF 7
