REMARK  4 active torsions:
REMARK  status: ('A' for Active; 'I' for Inactive)
REMARK    1  A    between atoms: S_11  and  C_1 
REMARK    2  A    between atoms: C_8  and  C_4 
REMARK    3  A    between atoms: C_10  and  C_13 
REMARK    4  A    between atoms: C_16  and  S_11 
ROOT
ATOM      1  C   UNL d   1      -0.973  -1.506   0.010  0.00  0.00     0.095 A 
ATOM      2  N   UNL d   1      -1.115  -0.819   1.166  0.00  0.00    -0.332 N 
ATOM      3  HN  UNL d   1      -1.050  -1.302   2.062  1.00  0.00     0.168 HD
ATOM      4  C   UNL d   1      -1.345   0.515   1.126  0.00  0.00     0.192 A 
ATOM      5  C   UNL d   1      -1.062  -0.825  -1.199  0.00  0.00     0.065 A 
ATOM      6  N   UNL d   1      -1.450   1.236  -0.006  0.00  0.00    -0.337 N 
ATOM      7  HN  UNL d   1      -1.629   2.240   0.005  1.00  0.00     0.167 HD
ATOM      8  C   UNL d   1      -1.302   0.545  -1.160  0.00  0.00     0.054 A 
ATOM      9  S   UNL d   1      -0.921  -1.371  -2.828  0.00  0.00    -0.097 SA
ATOM     10  C   UNL d   1      -1.364   1.124  -2.461  0.00  0.00     0.038 A 
ATOM     11  C   UNL d   1      -1.173   0.195  -3.458  0.00  0.00     0.053 A 
ENDROOT
BRANCH   1  12
ATOM     12  S   UNL d   1      -0.598  -3.234   0.100  0.00  0.00    -0.071 SA
BRANCH  12  13
ATOM     13  C   UNL d   1      -2.230  -3.950   0.093  0.00  0.00     0.007 A 
ATOM     14  C   UNL d   1      -2.613  -4.790  -0.960  0.00  0.00     0.035 A 
ATOM     15  C   UNL d   1      -3.876  -5.406  -0.966  0.00  0.00     0.049 A 
ATOM     16  C   UNL d   1      -4.750  -5.172   0.106  0.00  0.00     0.016 A 
ATOM     17  C   UNL d   1      -4.370  -4.341   1.160  0.00  0.00     0.002 A 
ATOM     18  C   UNL d   1      -3.114  -3.735   1.154  0.00  0.00     0.019 A 
BRANCH  15  19
ATOM     19  C   UNL d   1      -4.300  -6.314  -2.094  0.00  0.00     0.417 C 
ATOM     20  F   UNL d   1      -3.363  -6.445  -3.074  0.00  0.00    -0.166 F 
ATOM     21  F   UNL d   1      -4.576  -7.579  -1.669  0.00  0.00    -0.166 F 
ATOM     22  F   UNL d   1      -5.430  -5.876  -2.716  0.00  0.00    -0.166 F 
ENDBRANCH  15  19
ENDBRANCH  12  13
ENDBRANCH   1  12
BRANCH   4  23
ATOM     23  C   UNL d   1      -1.492   1.271   2.454  0.00  0.00     0.449 C 
ATOM     24  F   UNL d   1      -1.379   0.478   3.562  0.00  0.00    -0.163 F 
ATOM     25  F   UNL d   1      -0.554   2.253   2.616  0.00  0.00    -0.163 F 
ATOM     26  F   UNL d   1      -2.703   1.894   2.580  0.00  0.00    -0.163 F 
ENDBRANCH   4  23
TORSDOF 4
