REMARK  4 active torsions:
REMARK  status: ('A' for Active; 'I' for Inactive)
REMARK    1  A    between atoms: C_2  and  C_1 
REMARK    2  A    between atoms: O_3  and  C_1 
REMARK    3  A    between atoms: C_5  and  O_3 
REMARK    4  A    between atoms: C_6  and  C_4 
ROOT
ATOM      1  O   UNL d   1       0.231  -0.806  -0.743  0.00  0.00    -0.274 OA
ENDROOT
BRANCH   1   2
ATOM      2  C   UNL d   1       0.974  -0.028   0.128  0.00  0.00     0.300 C 
ATOM      3  O   UNL d   1       0.584   0.486   1.164  0.00  0.00    -0.259 OA
BRANCH   2   4
ATOM      4  C   UNL d   1       2.278   0.253  -0.528  0.00  0.00     0.061 A 
ATOM      5  C   UNL d   1       2.955  -0.648  -1.364  0.00  0.00     0.050 A 
ATOM      6 CL   UNL d   1       2.538  -2.322  -1.514  0.00  0.00    -0.083 Cl
ATOM      7  C   UNL d   1       4.060  -0.212  -2.105  0.00  0.00     0.025 A 
ATOM      8  C   UNL d   1       4.521   1.099  -1.983  0.00  0.00     0.002 A 
ATOM      9  C   UNL d   1       3.898   1.976  -1.098  0.00  0.00     0.001 A 
ATOM     10  C   UNL d   1       2.782   1.556  -0.373  0.00  0.00     0.019 A 
ENDBRANCH   2   4
ENDBRANCH   1   2
BRANCH   1  11
ATOM     11  C   UNL d   1      -1.164  -0.801  -0.618  0.00  0.00     0.093 A 
ATOM     12  C   UNL d   1      -1.940   0.323  -0.930  0.00  0.00     0.043 A 
ATOM     13  C   UNL d   1      -3.334   0.183  -0.982  0.00  0.00     0.018 A 
ATOM     14  C   UNL d   1      -3.930  -1.056  -0.725  0.00  0.00     0.001 A 
ATOM     15  C   UNL d   1      -3.143  -2.163  -0.406  0.00  0.00     0.003 A 
ATOM     16  C   UNL d   1      -1.756  -2.039  -0.357  0.00  0.00     0.038 A 
BRANCH  12  17
ATOM     17  C   UNL d   1      -1.315   1.624  -1.293  0.00  0.00     0.158 C 
ATOM     18  O   UNL d   1      -0.271   1.654  -1.940  0.00  0.00    -0.293 OA
ATOM     19  C   UNL d   1      -1.997   2.899  -0.870  0.00  0.00     0.097 C 
ENDBRANCH  12  17
ENDBRANCH   1  11
TORSDOF 4
