REMARK  5 active torsions:
REMARK  status: ('A' for Active; 'I' for Inactive)
REMARK    1  A    between atoms: N_2  and  C_1 
REMARK    2  A    between atoms: C_7  and  C_3 
REMARK    3  A    between atoms: N_6  and  C_4 
REMARK    4  A    between atoms: C_5  and  C_14 
REMARK    5  A    between atoms: O_17  and  C_7 
ROOT
ATOM      1  C   UNL d   1      -1.849   2.492  -0.608  0.00  0.00     0.120 C 
ATOM      2  C   UNL d   1      -0.997   2.645   0.426  0.00  0.00     0.040 C 
ATOM      3  C   UNL d   1      -1.886   3.393  -1.711  0.00  0.00     0.105 C 
ATOM      4  N   UNL d   1      -1.903   4.142  -2.595  0.00  0.00    -0.191 NA
ENDROOT
BRANCH   1   5
ATOM      5  C   UNL d   1      -2.777   1.331  -0.589  0.00  0.00     0.303 C 
ATOM      6  O   UNL d   1      -2.853   0.523   0.325  0.00  0.00    -0.258 OA
BRANCH   5   7
ATOM      7  O   UNL d   1      -3.514   1.301  -1.730  0.00  0.00    -0.322 OA
ATOM      8  C   UNL d   1      -4.433   0.213  -1.834  0.00  0.00     0.213 C 
ENDBRANCH   5   7
ENDBRANCH   1   5
BRANCH   2   9
ATOM      9  C   UNL d   1      -0.023   3.741   0.504  0.00  0.00    -0.032 A 
ATOM     10  C   UNL d   1       1.289   3.550   0.088  0.00  0.00     0.050 A 
ATOM     11  C   UNL d   1       2.181   4.645   0.061  0.00  0.00     0.130 A 
ATOM     12  C   UNL d   1       1.822   5.966   0.411  0.00  0.00     0.063 A 
ATOM     13  C   UNL d   1       0.496   6.088   0.876  0.00  0.00     0.033 A 
ATOM     14  C   UNL d   1      -0.407   5.009   0.927  0.00  0.00     0.014 A 
BRANCH  11  15
ATOM     15  N   UNL d   1       3.547   4.301  -0.275  0.00  0.00    -0.113 N 
ATOM     16  O   UNL d   1       4.394   4.366   0.627  0.00  0.00    -0.532 OA
ATOM     17  O   UNL d   1       3.756   3.900  -1.429  0.00  0.00    -0.532 OA
ENDBRANCH  11  15
BRANCH  12  18
ATOM     18  N   UNL d   1       2.641   7.076   0.309  0.00  0.00    -0.379 N 
ATOM     19  C   UNL d   1       2.415   8.355   0.988  0.00  0.00     0.123 C 
ATOM     20  C   UNL d   1       2.788   9.398  -0.056  0.00  0.00     0.021 C 
ATOM     21  C   UNL d   1       3.948   8.752  -0.786  0.00  0.00     0.021 C 
ATOM     22  C   UNL d   1       3.603   7.260  -0.793  0.00  0.00     0.123 C 
ENDBRANCH  12  18
ENDBRANCH   2   9
TORSDOF 5
