REMARK  3 active torsions:
REMARK  status: ('A' for Active; 'I' for Inactive)
REMARK    1  A    between atoms: C_4  and  C_1 
REMARK    2  A    between atoms: O_9  and  C_2 
REMARK       I    between atoms: N_8  and  C_4 
REMARK    3  A    between atoms: N_11  and  N_8 
ROOT
ATOM      1  C   UNL d   1       2.150  -1.286   0.084  0.00  0.00     0.108 A 
ATOM      2  C   UNL d   1       0.760  -1.347   0.028  0.00  0.00     0.108 A 
ATOM      3  S   UNL d   1       2.727   0.331   0.056  0.00  0.00    -0.092 SA
ATOM      4  C   UNL d   1       0.194  -0.028  -0.017  0.00  0.00     0.052 A 
ATOM      5  C   UNL d   1       1.150   0.963  -0.017  0.00  0.00     0.072 A 
ATOM      6 BR   UNL d   1      -1.637   0.462  -0.057  0.00  0.00    -0.048 Br
ENDROOT
BRANCH   1   7
ATOM      7  C   UNL d   1       3.093  -2.399   0.152  0.00  0.00     0.275 C 
ATOM      8  O   UNL d   1       2.851  -3.549  -0.223  0.00  0.00    -0.266 OA
ATOM      9  N   UNL d   1       4.336  -2.096   0.718  0.00  0.00    -0.289 N 
ATOM     10  H   UNL d   1       4.553  -1.135   0.972  0.00  0.00     0.183 HD
BRANCH   9  11
ATOM     11  N   UNL d   1       5.326  -3.097   0.852  0.00  0.00    -0.247 NA
ATOM     12  H   UNL d   1       5.018  -3.892   0.271  0.00  0.00     0.143 HD
ATOM     13  H   UNL d   1       5.272  -3.464   1.806  0.00  0.00     0.143 HD
ENDBRANCH   9  11
ENDBRANCH   1   7
BRANCH   2  14
ATOM     14  O   UNL d   1       0.207  -2.587   0.061  0.00  0.00    -0.353 OA
ATOM     15  C   UNL d   1      -1.197  -2.707  -0.019  0.00  0.00     0.210 C 
ENDBRANCH   2  14
TORSDOF 3
