REMARK  3 active torsions:
REMARK  status: ('A' for Active; 'I' for Inactive)
REMARK    1  A    between atoms: N_5  and  C_1 
REMARK    2  A    between atoms: C_6  and  N_5 
REMARK    3  A    between atoms: O_13  and  N_7 
ROOT
ATOM      1  C   UNL d   1       0.502   1.508   0.066  0.00  0.00     0.123 A 
ATOM      2  N   UNL d   1       1.833   1.758   0.092  0.00  0.00    -0.351 N 
ATOM      3  HN  UNL d   1       2.184   2.714   0.146  1.00  0.00     0.166 HD
ATOM      4  C   UNL d   1       0.020   0.192   0.007  0.00  0.00     0.055 A 
ATOM      5  C   UNL d   1       0.918  -0.876  -0.023  0.00  0.00     0.031 A 
ATOM      6  C   UNL d   1       2.686   0.707   0.045  0.00  0.00     0.096 A 
ATOM      7 BR   UNL d   1      -1.839  -0.196  -0.006  0.00  0.00    -0.047 Br
ATOM      8  C   UNL d   1       2.287  -0.623   0.000  0.00  0.00    -0.045 A 
ATOM      9  C   UNL d   1       3.295  -1.728  -0.015  0.00  0.00     0.049 C 
ENDROOT
BRANCH   1  10
ATOM     10  N   UNL d   1      -0.399   2.570   0.196  0.00  0.00    -0.336 N 
ATOM     11  H   UNL d   1      -1.297   2.446  -0.247  0.00  0.00     0.168 HD
BRANCH  10  12
ATOM     12  C   UNL d   1      -0.100   3.825   0.615  0.00  0.00     0.205 C 
ATOM     13  N   UNL d   1      -0.953   4.798   0.605  0.00  0.00    -0.265 N 
ATOM     14  HN  UNL d   1      -1.909   4.743   0.254  1.00  0.00     0.194 HD
BRANCH  13  15
ATOM     15  O   UNL d   1      -0.354   5.938   1.155  0.00  0.00    -0.289 OA
ATOM     16  H   UNL d   1      -1.085   6.582   1.147  0.00  0.00     0.244 HD
ENDBRANCH  13  15
ENDBRANCH  10  12
ENDBRANCH   1  10
TORSDOF 3
