REMARK  4 active torsions:
REMARK  status: ('A' for Active; 'I' for Inactive)
REMARK    1  A    between atoms: O_2  and  C_1 
REMARK    2  A    between atoms: C_5  and  C_1 
REMARK    3  A    between atoms: C_3  and  O_2 
REMARK    4  A    between atoms: O_13  and  C_11 
ROOT
ATOM      1  C   UNL d   1       0.103  -0.582   2.290  0.00  0.00     0.107 A 
ATOM      2  C   UNL d   1      -1.100  -0.621   3.016  0.00  0.00     0.076 A 
ATOM      3  N   UNL d   1      -2.161   0.142   2.661  0.00  0.00    -0.363 N 
ATOM      4  HN  UNL d   1      -2.110   0.762   1.852  1.00  0.00     0.165 HD
ATOM      5  C   UNL d   1      -1.163  -1.501   4.118  0.00  0.00    -0.007 A 
ATOM      6  C   UNL d   1       1.226  -1.325   2.669  0.00  0.00     0.040 A 
ATOM      7  C   UNL d   1       1.142  -2.183   3.761  0.00  0.00     0.004 A 
ATOM      8  C   UNL d   1      -3.287   0.065   3.402  0.00  0.00     0.088 A 
ATOM      9  C   UNL d   1      -0.052  -2.287   4.471  0.00  0.00     0.014 A 
ATOM     10  C   UNL d   1      -2.362  -1.577   4.841  0.00  0.00     0.015 A 
ATOM     11  C   UNL d   1      -3.439  -0.777   4.484  0.00  0.00     0.018 A 
ENDROOT
BRANCH   1  12
ATOM     12  O   UNL d   1       0.053   0.190   1.095  0.00  0.00    -0.273 OA
BRANCH  12  13
ATOM     13  C   UNL d   1       0.972   0.028   0.079  0.00  0.00     0.298 C 
ATOM     14  O   UNL d   1       2.189   0.062   0.192  0.00  0.00    -0.259 OA
BRANCH  13  15
ATOM     15  C   UNL d   1       0.267  -0.258  -1.206  0.00  0.00     0.042 A 
ATOM     16  C   UNL d   1       1.053  -0.547  -2.334  0.00  0.00     0.054 A 
ATOM     17  C   UNL d   1       0.453  -0.958  -3.526  0.00  0.00     0.069 A 
ATOM     18  C   UNL d   1      -0.938  -1.068  -3.589  0.00  0.00     0.037 A 
ATOM     19  C   UNL d   1      -1.729  -0.752  -2.485  0.00  0.00     0.004 A 
ATOM     20  C   UNL d   1      -1.130  -0.342  -1.294  0.00  0.00     0.018 A 
BRANCH  17  21
ATOM     21  O   UNL d   1       1.105  -1.295  -4.680  0.00  0.00    -0.356 OA
ATOM     22  C   UNL d   1       2.525  -1.201  -4.670  0.00  0.00     0.210 C 
ENDBRANCH  17  21
ENDBRANCH  13  15
ENDBRANCH  12  13
ENDBRANCH   1  12
TORSDOF 4
