REMARK  3 active torsions:
REMARK  status: ('A' for Active; 'I' for Inactive)
REMARK    1  A    between atoms: C_4  and  N_1 
REMARK    2  A    between atoms: S_7  and  C_4 
REMARK    3  A    between atoms: C_5  and  S_7 
ROOT
ATOM      1  C   UNL d   1       2.335  -2.415  -0.063  0.00  0.00     0.213 C 
ENDROOT
BRANCH   1   2
ATOM      2  N   UNL d   1       1.825  -1.038  -0.098  0.00  0.00    -0.321 N 
ATOM      3  C   UNL d   1       1.113  -0.428   0.942  0.00  0.00     0.147 A 
ATOM      4  S   UNL d   1       0.802   1.279   0.547  0.00  0.00    -0.058 SA
ATOM      5  S   UNL d   1       0.580  -1.107   2.370  0.00  0.00    -0.052 SA
ATOM      6  C   UNL d   1       1.668   1.139  -0.983  0.00  0.00     0.034 A 
ATOM      7  C   UNL d   1       2.140  -0.160  -1.174  0.00  0.00     0.054 A 
ATOM      8  C   UNL d   1       1.900   2.145  -1.910  0.00  0.00     0.021 A 
ATOM      9  C   UNL d   1       2.855  -0.470  -2.325  0.00  0.00     0.031 A 
ATOM     10  C   UNL d   1       3.094   0.536  -3.269  0.00  0.00     0.002 A 
ATOM     11  C   UNL d   1       2.621   1.838  -3.062  0.00  0.00     0.002 A 
ENDBRANCH   1   2
BRANCH   1  12
ATOM     12  S   UNL d   1       4.078  -2.416   0.442  0.00  0.00    -0.073 SA
BRANCH  12  13
ATOM     13  C   UNL d   1       4.529  -4.103   0.135  0.00  0.00     0.146 A 
ATOM     14  N   UNL d   1       3.590  -5.065   0.104  0.00  0.00    -0.341 N 
ATOM     15  C   UNL d   1       4.042  -6.337  -0.030  0.00  0.00     0.009 A 
ATOM     16  HN  UNL d   1       2.595  -4.850   0.178  1.00  0.00     0.167 HD
ATOM     17  C   UNL d   1       3.035  -7.451  -0.019  0.00  0.00     0.068 C 
ATOM     18  C   UNL d   1       5.385  -6.647  -0.141  0.00  0.00     0.049 A 
ATOM     19  C   UNL d   1       6.267  -5.590  -0.119  0.00  0.00     0.009 A 
ATOM     20  N   UNL d   1       5.851  -4.317   0.016  0.00  0.00    -0.341 N 
ATOM     21  C   UNL d   1       7.744  -5.824  -0.208  0.00  0.00     0.068 C 
ATOM     22  HN  UNL d   1       6.515  -3.542   0.029  1.00  0.00     0.167 HD
ENDBRANCH  12  13
ENDBRANCH   1  12
TORSDOF 3
