REMARK  3 active torsions:
REMARK  status: ('A' for Active; 'I' for Inactive)
REMARK       I    between atoms: N_2  and  C_1 
REMARK       I    between atoms: N_7  and  C_1 
REMARK    1  A    between atoms: C_3  and  N_2 
REMARK    2  A    between atoms: C_13  and  N_7 
REMARK    3  A    between atoms: O_16  and  C_8 
ROOT
ATOM      1  C   UNL d   1       0.982   0.081  -0.055  0.00  0.00     0.325 C 
ATOM      2  N   UNL d   1       2.254  -0.464  -0.051  0.00  0.00    -0.303 N 
ATOM      3  N   UNL d   1       0.147  -0.624   0.798  0.00  0.00    -0.307 N 
ATOM      4  O   UNL d   1       0.620   1.021  -0.750  0.00  0.00    -0.247 OA
ATOM      5  H   UNL d   1       2.400  -1.365   0.377  0.00  0.00     0.171 HD
ATOM      6  H   UNL d   1       0.592  -1.149   1.536  0.00  0.00     0.170 HD
ENDROOT
BRANCH   3   7
ATOM      7  C   UNL d   1      -1.263  -0.609   0.779  0.00  0.00     0.051 A 
ATOM      8  C   UNL d   1      -2.038   0.028  -0.189  0.00  0.00     0.119 A 
ATOM      9  N   UNL d   1      -3.393  -0.036  -0.246  0.00  0.00    -0.345 N 
ATOM     10  C   UNL d   1      -4.008  -0.765   0.705  0.00  0.00     0.141 A 
ATOM     11  HN  UNL d   1      -3.921   0.445  -0.975  1.00  0.00     0.167 HD
ATOM     12  C   UNL d   1      -3.333  -1.423   1.718  0.00  0.00     0.058 A 
ATOM     13  C   UNL d   1      -1.940  -1.343   1.755  0.00  0.00     0.035 A 
BRANCH  10  14
ATOM     14  O   UNL d   1      -5.382  -0.897   0.694  0.00  0.00    -0.341 OA
ATOM     15  C   UNL d   1      -5.989  -0.242  -0.417  0.00  0.00     0.211 C 
ENDBRANCH  10  14
ENDBRANCH   3   7
BRANCH   2  16
ATOM     16  C   UNL d   1       3.225  -0.065  -0.940  0.00  0.00     0.077 A 
ATOM     17  S   UNL d   1       4.508  -1.169  -1.099  0.00  0.00    -0.084 SA
ATOM     18  C   UNL d   1       5.220  -0.237  -2.349  0.00  0.00     0.052 A 
ATOM     19  C   UNL d   1       4.519   0.926  -2.585  0.00  0.00     0.010 A 
ATOM     20  C   UNL d   1       3.363   1.032  -1.755  0.00  0.00     0.038 A 
ENDBRANCH   2  16
TORSDOF 3
