REMARK  7 active torsions:
REMARK  status: ('A' for Active; 'I' for Inactive)
REMARK    1  A    between atoms: C_2  and  C_1 
REMARK       I    between atoms: N_3  and  C_1 
REMARK    2  A    between atoms: C_16  and  N_3 
REMARK    3  A    between atoms: O_24  and  C_7 
REMARK    4  A    between atoms: O_14  and  C_8 
REMARK    5  A    between atoms: C_9  and  C_10 
REMARK    6  A    between atoms: O_26  and  C_11 
REMARK    7  A    between atoms: C_20  and  O_14 
ROOT
ATOM      1  N   UNL d   1      -3.337   0.015   2.326  0.00  0.00    -0.344 N 
ATOM      2  HN  UNL d   1      -3.833   0.371   3.143  1.00  0.00     0.167 HD
ATOM      3  C   UNL d   1      -4.002  -0.461   1.255  0.00  0.00     0.148 A 
ATOM      4  C   UNL d   1      -1.249  -0.421   1.177  0.00  0.00     0.050 A 
ATOM      5  C   UNL d   1      -1.987   0.001   2.276  0.00  0.00     0.119 A 
ATOM      6  C   UNL d   1      -3.365  -0.916   0.111  0.00  0.00     0.059 A 
ATOM      7  C   UNL d   1      -1.965  -0.894   0.073  0.00  0.00     0.035 A 
ENDROOT
BRANCH   4   8
ATOM      8  N   UNL d   1       0.163  -0.351   1.109  0.00  0.00    -0.322 N 
ATOM      9  C   UNL d   1       0.996  -0.054   2.172  0.00  0.00     0.256 C 
ATOM     10  O   UNL d   1       0.659   0.022   3.353  0.00  0.00    -0.267 OA
ATOM     11  H   UNL d   1       0.588  -0.585   0.220  0.00  0.00     0.169 HD
BRANCH   9  12
ATOM     12  C   UNL d   1       2.435   0.128   1.855  0.00  0.00     0.035 A 
ATOM     13  C   UNL d   1       3.378  -0.242   2.828  0.00  0.00     0.056 A 
ATOM     14  C   UNL d   1       4.754  -0.125   2.586  0.00  0.00     0.102 A 
ATOM     15  C   UNL d   1       5.177   0.399   1.351  0.00  0.00     0.101 A 
ATOM     16  C   UNL d   1       4.226   0.802   0.401  0.00  0.00     0.040 A 
ATOM     17  C   UNL d   1       2.859   0.684   0.650  0.00  0.00     0.020 A 
BRANCH  14  18
ATOM     18  O   UNL d   1       5.707  -0.522   3.485  0.00  0.00    -0.353 OA
ATOM     19  C   UNL d   1       5.276  -1.097   4.713  0.00  0.00     0.210 C 
ENDBRANCH  14  18
BRANCH  15  20
ATOM     20  O   UNL d   1       6.462   0.533   0.891  0.00  0.00    -0.353 OA
ATOM     21  C   UNL d   1       7.493   0.718   1.850  0.00  0.00     0.210 C 
ENDBRANCH  15  20
ENDBRANCH   9  12
ENDBRANCH   4   8
BRANCH   3  22
ATOM     22  O   UNL d   1      -5.392  -0.474   1.277  0.00  0.00    -0.294 OA
BRANCH  22  23
ATOM     23  C   UNL d   1      -6.001  -0.595   2.510  0.00  0.00     0.077 A 
ATOM     24  C   UNL d   1      -7.175   0.121   2.734  0.00  0.00     0.038 A 
ATOM     25  C   UNL d   1      -7.857  -0.005   3.955  0.00  0.00     0.011 A 
ATOM     26  C   UNL d   1      -7.385  -0.853   4.979  0.00  0.00    -0.050 A 
ATOM     27  C   UNL d   1      -6.200  -1.561   4.724  0.00  0.00     0.011 A 
ATOM     28  C   UNL d   1      -5.531  -1.452   3.503  0.00  0.00     0.038 A 
BRANCH  26  29
ATOM     29  C   UNL d   1      -8.145  -0.999   6.310  0.00  0.00    -0.024 C 
ATOM     30  C   UNL d   1      -7.463  -1.980   7.293  0.00  0.00     0.019 C 
ATOM     31  C   UNL d   1      -8.252   0.366   7.020  0.00  0.00     0.019 C 
ATOM     32  C   UNL d   1      -9.569  -1.538   6.052  0.00  0.00     0.019 C 
ENDBRANCH  26  29
ENDBRANCH  22  23
ENDBRANCH   3  22
TORSDOF 7
