REMARK  0 active torsions:
REMARK  status: ('A' for Active; 'I' for Inactive)
ROOT
ATOM      1  C   UNL d   1       0.300   1.399   0.001  0.00  0.00     0.172 A 
ATOM      2  N   UNL d   1      -0.997   0.992  -0.012  0.00  0.00    -0.338 N 
ATOM      3  N   UNL d   1       1.256   0.438   0.044  0.00  0.00    -0.355 N 
ATOM      4  C   UNL d   1      -0.465  -1.280   0.024  0.00  0.00     0.028 A 
ATOM      5  C   UNL d   1      -1.397  -0.319   0.015  0.00  0.00     0.006 A 
ATOM      6  C   UNL d   1       1.016  -1.000  -0.011  0.00  0.00     0.045 A 
ATOM      7  S   UNL d   1       0.706   3.010  -0.018  0.00  0.00    -0.041 SA
ATOM      8  C   UNL d   1      -2.865  -0.611   0.024  0.00  0.00     0.068 C 
ATOM      9  C   UNL d   1       1.599  -1.556  -1.315  0.00  0.00     0.042 C 
ATOM     10  C   UNL d   1       1.687  -1.659   1.199  0.00  0.00     0.042 C 
ATOM     11  H   UNL d   1      -1.693   1.728  -0.026  0.00  0.00     0.168 HD
ATOM     12  H   UNL d   1       2.213   0.769   0.041  0.00  0.00     0.163 HD
ENDROOT
TORSDOF 0
