REMARK  6 active torsions:
REMARK  status: ('A' for Active; 'I' for Inactive)
REMARK    1  A    between atoms: N_3  and  C_1 
REMARK    2  A    between atoms: N_6  and  C_1 
REMARK    3  A    between atoms: N_2  and  C_9 
REMARK    4  A    between atoms: C_20  and  N_6 
REMARK    5  A    between atoms: O_24  and  C_10 
REMARK    6  A    between atoms: O_23  and  C_11 
ROOT
ATOM      1  N   UNL d   1       0.272  -0.434  -1.218  0.00  0.00    -0.353 N 
ATOM      2  C   UNL d   1      -1.904  -0.520  -2.451  0.00  0.00    -0.031 A 
ATOM      3  C   UNL d   1      -0.891   0.324  -1.717  0.00  0.00     0.164 C 
ATOM      4  C   UNL d   1      -1.451  -1.537  -3.293  0.00  0.00    -0.046 A 
ATOM      5  C   UNL d   1      -3.280  -0.261  -2.364  0.00  0.00     0.049 A 
ATOM      6  C   UNL d   1      -4.215  -1.028  -3.083  0.00  0.00     0.102 A 
ATOM      7  C   UNL d   1      -3.748  -2.056  -3.923  0.00  0.00     0.102 A 
ATOM      8  C   UNL d   1      -2.367  -2.292  -4.025  0.00  0.00     0.047 A 
ATOM      9  C   UNL d   1       0.690  -1.604  -2.030  0.00  0.00     0.130 C 
ATOM     10  C   UNL d   1       0.031  -1.742  -3.404  0.00  0.00     0.059 C 
ENDROOT
BRANCH   1  11
ATOM     11  C   UNL d   1       0.919  -0.180   0.012  0.00  0.00     0.174 C 
ATOM     12  S   UNL d   1       2.427  -0.836   0.411  0.00  0.00    -0.041 SA
BRANCH  11  13
ATOM     13  N   UNL d   1       0.237   0.690   0.854  0.00  0.00    -0.333 N 
ATOM     14  H   UNL d   1      -0.118   1.526   0.411  0.00  0.00     0.168 HD
BRANCH  13  15
ATOM     15  C   UNL d   1       0.213   0.703   2.272  0.00  0.00     0.034 A 
ATOM     16  C   UNL d   1      -0.163   1.890   2.914  0.00  0.00     0.032 A 
ATOM     17  C   UNL d   1      -0.218   1.961   4.312  0.00  0.00     0.038 A 
ATOM     18  C   UNL d   1       0.091   0.829   5.075  0.00  0.00     0.103 A 
ATOM     19  C   UNL d   1       0.437  -0.370   4.449  0.00  0.00     0.038 A 
ATOM     20  C   UNL d   1       0.480  -0.429   3.051  0.00  0.00     0.032 A 
BRANCH  18  21
ATOM     21  N   UNL d   1       0.030   0.892   6.542  0.00  0.00    -0.116 N 
ATOM     22  O   UNL d   1      -0.287   1.978   7.056  0.00  0.00    -0.532 OA
ATOM     23  O   UNL d   1       0.297  -0.134   7.177  0.00  0.00    -0.532 OA
ENDBRANCH  18  21
ENDBRANCH  13  15
ENDBRANCH  11  13
ENDBRANCH   1  11
BRANCH   6  24
ATOM     24  O   UNL d   1      -5.565  -0.815  -3.004  0.00  0.00    -0.353 OA
ATOM     25  C   UNL d   1      -6.045   0.218  -2.154  0.00  0.00     0.210 C 
ENDBRANCH   6  24
BRANCH   7  26
ATOM     26  O   UNL d   1      -4.468  -2.914  -4.714  0.00  0.00    -0.353 OA
ATOM     27  C   UNL d   1      -5.884  -2.820  -4.726  0.00  0.00     0.210 C 
ENDBRANCH   7  26
TORSDOF 6
