REMARK  1 active torsions:
REMARK  status: ('A' for Active; 'I' for Inactive)
REMARK    1  A    between atoms: C_3  and  N_1 
ROOT
ATOM      1  N   UNL d   1      -0.075  -1.072   0.029  0.00  0.00    -0.318 N 
ATOM      2  C   UNL d   1       0.715   0.066   0.260  0.00  0.00     0.224 C 
ATOM      3  O   UNL d   1       1.921   0.159   0.430  0.00  0.00    -0.273 OA
ATOM      4  C   UNL d   1      -1.471  -0.713  -0.074  0.00  0.00     0.133 C 
ATOM      5  C   UNL d   1      -0.205   1.263   0.324  0.00  0.00     0.105 C 
ATOM      6  C   UNL d   1      -1.467   0.775  -0.354  0.00  0.00     0.029 C 
ENDROOT
BRANCH   1   7
ATOM      7  C   UNL d   1       0.368  -2.426   0.047  0.00  0.00     0.037 A 
ATOM      8  C   UNL d   1       1.697  -2.768   0.328  0.00  0.00     0.029 A 
ATOM      9  C   UNL d   1       2.116  -4.104   0.362  0.00  0.00     0.002 A 
ATOM     10  C   UNL d   1       1.213  -5.128   0.102  0.00  0.00     0.000 A 
ATOM     11  C   UNL d   1      -0.109  -4.815  -0.185  0.00  0.00     0.002 A 
ATOM     12  C   UNL d   1      -0.528  -3.479  -0.206  0.00  0.00     0.029 A 
ENDBRANCH   1   7
TORSDOF 1
