REMARK  4 active torsions:
REMARK  status: ('A' for Active; 'I' for Inactive)
REMARK    1  A    between atoms: C_8  and  O_16 
REMARK    2  A    between atoms: O_17  and  C_9 
REMARK    3  A    between atoms: C_18  and  O_16 
REMARK    4  A    between atoms: C_19  and  O_17 
ROOT
ATOM      1  C   UNL d   1      -0.118   1.828   0.377  0.00  0.00    -0.033 C 
ATOM      2  C   UNL d   1      -2.218  -2.143   0.146  0.00  0.00    -0.013 C 
ATOM      3  C   UNL d   1      -0.836   0.594  -0.319  0.00  0.00    -0.001 C 
ATOM      4  C   UNL d   1      -0.737  -1.889   0.565  0.00  0.00     0.001 C 
ATOM      5  C   UNL d   1      -0.051  -0.779  -0.282  0.00  0.00    -0.005 C 
ATOM      6  C   UNL d   1      -0.641   3.204  -0.170  0.00  0.00     0.050 C 
ATOM      7  C   UNL d   1       1.397   1.713   0.007  0.00  0.00     0.001 C 
ATOM      8  C   UNL d   1       0.231   4.414   0.222  0.00  0.00     0.202 C 
ATOM      9  C   UNL d   1      -2.092  -3.349  -0.835  0.00  0.00     0.140 C 
ATOM     10  C   UNL d   1       1.622   4.157  -0.316  0.00  0.00     0.156 C 
ATOM     11  C   UNL d   1      -2.892  -0.896  -0.473  0.00  0.00     0.012 C 
ATOM     12  C   UNL d   1      -2.320   0.407   0.083  0.00  0.00     0.007 C 
ATOM     13  C   UNL d   1       2.294   2.922   0.240  0.00  0.00     0.086 C 
ATOM     14  C   UNL d   1      -0.047  -3.279   0.407  0.00  0.00     0.008 C 
ATOM     15  C   UNL d   1       1.475  -0.733  -0.048  0.00  0.00     0.006 C 
ATOM     16  C   UNL d   1       1.996   0.486   0.668  0.00  0.00     0.006 C 
ATOM     17  C   UNL d   1      -1.099  -4.258  -0.115  0.00  0.00     0.034 C 
ATOM     18  O   UNL d   1       2.178   4.898  -1.117  0.00  0.00    -0.295 OA
ATOM     19  C   UNL d   1      -0.415   1.772   1.895  0.00  0.00     0.016 C 
ATOM     20  C   UNL d   1      -3.034  -2.551   1.400  0.00  0.00     0.018 C 
ENDROOT
BRANCH   8  21
ATOM     21  O   UNL d   1       0.527   4.497   1.626  0.00  0.00    -0.309 OA
BRANCH  21  22
ATOM     22  C   UNL d   1      -0.272   5.216   2.434  0.00  0.00     0.255 C 
ATOM     23  O   UNL d   1      -1.274   5.817   2.088  0.00  0.00    -0.266 OA
ATOM     24  C   UNL d   1       0.254   5.147   3.843  0.00  0.00     0.126 C 
ENDBRANCH  21  22
ENDBRANCH   8  21
BRANCH   9  25
ATOM     25  O   UNL d   1      -1.407  -2.937  -2.041  0.00  0.00    -0.316 OA
BRANCH  25  26
ATOM     26  C   UNL d   1      -2.135  -2.598  -3.131  0.00  0.00     0.255 C 
ATOM     27  O   UNL d   1      -3.313  -2.881  -3.316  0.00  0.00    -0.266 OA
ATOM     28  C   UNL d   1      -1.336  -1.656  -3.985  0.00  0.00     0.126 C 
ENDBRANCH  25  26
ENDBRANCH   9  25
TORSDOF 4
