REMARK  7 active torsions:
REMARK  status: ('A' for Active; 'I' for Inactive)
REMARK       I    between atoms: N_3  and  C_1 
REMARK    1  A    between atoms: C_8  and  C_1 
REMARK    2  A    between atoms: O_5  and  C_2 
REMARK    3  A    between atoms: C_4  and  N_3 
REMARK    4  A    between atoms: C_12  and  O_5 
REMARK    5  A    between atoms: O_21  and  C_13 
REMARK    6  A    between atoms: C_24  and  C_16 
REMARK    7  A    between atoms: C_26  and  C_24 
ROOT
ATOM      1  C   UNL d   1       0.638  -0.817  -3.478  0.00  0.00     0.175 A 
ATOM      2  C   UNL d   1       0.990  -1.302  -2.216  0.00  0.00     0.087 A 
ATOM      3  N   UNL d   1       1.254  -1.198  -4.629  0.00  0.00    -0.345 N 
ATOM      4  HN  UNL d   1       0.933  -0.865  -5.538  1.00  0.00     0.167 HD
ATOM      5  C   UNL d   1       2.109  -2.138  -2.153  0.00  0.00     0.035 A 
ATOM      6  C   UNL d   1       2.306  -2.034  -4.521  0.00  0.00     0.090 A 
ATOM      7  C   UNL d   1       2.781  -2.508  -3.316  0.00  0.00     0.019 A 
ENDROOT
BRANCH   2   8
ATOM      8  N   UNL d   1       0.259  -0.939  -1.051  0.00  0.00    -0.319 N 
ATOM      9  C   UNL d   1       0.203  -1.733   0.083  0.00  0.00     0.256 C 
ATOM     10  O   UNL d   1       0.661  -2.873   0.146  0.00  0.00    -0.267 OA
ATOM     11  H   UNL d   1      -0.396  -0.175  -1.163  0.00  0.00     0.169 HD
BRANCH   9  12
ATOM     12  C   UNL d   1      -0.470  -1.197   1.307  0.00  0.00     0.032 A 
ATOM     13  C   UNL d   1      -1.112   0.041   1.379  0.00  0.00     0.017 A 
ATOM     14  C   UNL d   1      -1.672   0.468   2.594  0.00  0.00     0.008 A 
ATOM     15  C   UNL d   1      -1.591  -0.325   3.749  0.00  0.00    -0.058 A 
ATOM     16  C   UNL d   1      -0.966  -1.571   3.664  0.00  0.00     0.008 A 
ATOM     17  C   UNL d   1      -0.410  -1.997   2.459  0.00  0.00     0.017 A 
BRANCH  15  18
ATOM     18  C   UNL d   1      -2.192   0.143   5.052  0.00  0.00     0.038 C 
BRANCH  18  19
ATOM     19  C   UNL d   1      -1.211   0.208   6.229  0.00  0.00     0.000 C 
ATOM     20  C   UNL d   1      -0.093   1.220   6.023  0.00  0.00     0.005 C 
ENDBRANCH  18  19
ENDBRANCH  15  18
ENDBRANCH   9  12
ENDBRANCH   2   8
BRANCH   1  21
ATOM     21  O   UNL d   1      -0.438   0.071  -3.559  0.00  0.00    -0.292 OA
BRANCH  21  22
ATOM     22  C   UNL d   1      -0.518   0.844  -4.699  0.00  0.00     0.078 A 
ATOM     23  C   UNL d   1      -1.750   0.931  -5.351  0.00  0.00     0.040 A 
ATOM     24  C   UNL d   1      -1.869   1.680  -6.530  0.00  0.00     0.039 A 
ATOM     25  C   UNL d   1      -0.761   2.345  -7.053  0.00  0.00     0.068 A 
ATOM     26  C   UNL d   1       0.455   2.292  -6.372  0.00  0.00     0.039 A 
ATOM     27  C   UNL d   1       0.572   1.565  -5.187  0.00  0.00     0.040 A 
BRANCH  25  28
ATOM     28  O   UNL d   1      -0.717   3.070  -8.214  0.00  0.00    -0.356 OA
ATOM     29  C   UNL d   1      -1.919   3.177  -8.962  0.00  0.00     0.210 C 
ENDBRANCH  25  28
ENDBRANCH  21  22
ENDBRANCH   1  21
TORSDOF 7
