REMARK  4 active torsions:
REMARK  status: ('A' for Active; 'I' for Inactive)
REMARK    1  A    between atoms: O_9  and  N_2 
REMARK    2  A    between atoms: C_4  and  C_8 
REMARK    3  A    between atoms: C_7  and  O_9 
REMARK    4  A    between atoms: C_10  and  C_7 
ROOT
ATOM      1  O   UNL d   1      -2.668   2.098   1.875  0.00  0.00    -0.195 OA
ENDROOT
BRANCH   1   2
ATOM      2  C   UNL d   1      -3.179   2.732   2.976  0.00  0.00     0.315 C 
ATOM      3  O   UNL d   1      -3.040   2.388   4.139  0.00  0.00    -0.257 OA
BRANCH   2   4
ATOM      4  C   UNL d   1      -3.915   3.964   2.566  0.00  0.00     0.042 A 
ATOM      5  C   UNL d   1      -3.965   4.405   1.234  0.00  0.00     0.034 A 
ATOM      6  C   UNL d   1      -4.546   5.644   0.907  0.00  0.00     0.048 A 
ATOM      7  C   UNL d   1      -5.111   6.423   1.929  0.00  0.00     0.016 A 
ATOM      8  C   UNL d   1      -5.089   5.979   3.251  0.00  0.00     0.002 A 
ATOM      9  C   UNL d   1      -4.490   4.759   3.569  0.00  0.00     0.018 A 
BRANCH   6  10
ATOM     10  C   UNL d   1      -4.533   6.160  -0.512  0.00  0.00     0.417 C 
ATOM     11  F   UNL d   1      -3.929   5.313  -1.391  0.00  0.00    -0.166 F 
ATOM     12  F   UNL d   1      -5.784   6.377  -1.002  0.00  0.00    -0.166 F 
ATOM     13  F   UNL d   1      -3.874   7.346  -0.625  0.00  0.00    -0.166 F 
ENDBRANCH   6  10
ENDBRANCH   2   4
ENDBRANCH   1   2
BRANCH   1  14
ATOM     14  N   UNL d   1      -1.305   1.823   2.092  0.00  0.00    -0.265 N 
ATOM     15  C   UNL d   1      -0.815   1.020   1.200  0.00  0.00     0.019 C 
ATOM     16  C   UNL d   1       0.691   0.771   1.177  0.00  0.00     0.034 C 
ATOM     17  C   UNL d   1      -1.584   0.299   0.099  0.00  0.00     0.034 C 
ATOM     18  C   UNL d   1       0.928  -0.737   1.311  0.00  0.00     0.015 C 
ATOM     19  C   UNL d   1       1.203   1.266  -0.185  0.00  0.00     0.015 C 
ATOM     20  C   UNL d   1       0.209  -1.488   0.175  0.00  0.00    -0.013 C 
ATOM     21  C   UNL d   1      -1.304  -1.205   0.267  0.00  0.00     0.015 C 
ATOM     22  C   UNL d   1       0.739  -0.994  -1.182  0.00  0.00     0.009 C 
ATOM     23  C   UNL d   1       0.488   0.517  -1.329  0.00  0.00    -0.013 C 
ATOM     24  C   UNL d   1      -1.026   0.794  -1.242  0.00  0.00     0.015 C 
ATOM     25  HN  UNL d   1      -0.764   2.212   2.864  1.00  0.00     0.194 HD
ENDBRANCH   1  14
TORSDOF 4
