REMARK  4 active torsions:
REMARK  status: ('A' for Active; 'I' for Inactive)
REMARK    1  A    between atoms: N_5  and  C_1 
REMARK    2  A    between atoms: S_8  and  C_1 
REMARK    3  A    between atoms: C_4  and  C_13 
REMARK    4  A    between atoms: C_13  and  S_8 
ROOT
ATOM      1  S   UNL d   1       2.481  -0.186   0.704  0.00  0.00    -0.093 SA
ENDROOT
BRANCH   1   2
ATOM      2  C   UNL d   1       0.901   0.081  -0.047  0.00  0.00     0.137 C 
ATOM      3  S   UNL d   1       0.432   1.653  -0.437  0.00  0.00    -0.053 SA
BRANCH   2   4
ATOM      4  N   UNL d   1       0.172  -1.081  -0.374  0.00  0.00    -0.365 N 
ATOM      5  C   UNL d   1       0.553  -2.446   0.060  0.00  0.00     0.134 C 
ATOM      6  C   UNL d   1      -0.620  -3.265   0.608  0.00  0.00     0.093 C 
ATOM      7  S   UNL d   1      -1.952  -3.484  -0.608  0.00  0.00    -0.166 SA
ATOM      8  C   UNL d   1      -2.180  -1.730  -1.022  0.00  0.00     0.093 C 
ATOM      9  C   UNL d   1      -0.866  -1.065  -1.432  0.00  0.00     0.134 C 
ENDBRANCH   2   4
ENDBRANCH   1   2
BRANCH   1  10
ATOM     10  C   UNL d   1       2.355   0.794   2.226  0.00  0.00     0.160 C 
BRANCH  10  11
ATOM     11  C   UNL d   1       1.282   0.356   3.159  0.00  0.00     0.113 A 
ATOM     12  N   UNL d   1       0.276   1.201   3.563  0.00  0.00    -0.333 N 
ATOM     13  C   UNL d   1      -0.363   0.466   4.436  0.00  0.00     0.260 A 
ATOM     14  HN  UNL d   1       0.079   2.155   3.260  1.00  0.00     0.168 HD
ATOM     15  O   UNL d   1       0.164  -0.774   4.603  0.00  0.00    -0.232 OA
ATOM     16  N   UNL d   1       1.270  -0.848   3.752  0.00  0.00    -0.247 N 
ATOM     17  HN  UNL d   1       1.913  -1.628   3.614  1.00  0.00     0.196 HD
ENDBRANCH  10  11
ENDBRANCH   1  10
TORSDOF 4
