REMARK  4 active torsions:
REMARK  status: ('A' for Active; 'I' for Inactive)
REMARK    1  A    between atoms: N_6  and  C_1 
REMARK    2  A    between atoms: C_2  and  C_5 
REMARK    3  A    between atoms: N_7  and  N_6 
REMARK       I    between atoms: C_8  and  N_7 
REMARK    4  A    between atoms: C_13  and  C_8 
ROOT
ATOM      1  C   UNL d   1      -0.181   1.108   0.170  0.00  0.00     0.122 A 
ATOM      2  N   UNL d   1      -1.416   1.047  -0.419  0.00  0.00    -0.353 N 
ATOM      3  HN  UNL d   1      -1.883   1.898  -0.734  1.00  0.00     0.166 HD
ATOM      4  C   UNL d   1      -1.449  -1.366  -0.180  0.00  0.00     0.065 A 
ATOM      5  C   UNL d   1       0.438  -0.076   0.623  0.00  0.00     0.074 A 
ATOM      6  C   UNL d   1      -0.194  -1.309   0.425  0.00  0.00     0.044 A 
ATOM      7  C   UNL d   1      -2.009  -0.163  -0.578  0.00  0.00     0.105 A 
ATOM      8 CL   UNL d   1       1.918  -0.115   1.522  0.00  0.00    -0.081 Cl
ENDROOT
BRANCH   1   9
ATOM      9  N   UNL d   1       0.382   2.389   0.368  0.00  0.00    -0.181 NA
ATOM     10  C   UNL d   1       1.754   2.613  -0.106  0.00  0.00     0.144 C 
BRANCH   9  11
ATOM     11  N   UNL d   1      -0.509   3.453   0.030  0.00  0.00    -0.280 N 
ATOM     12  C   UNL d   1      -0.292   4.695   0.610  0.00  0.00     0.266 C 
ATOM     13  O   UNL d   1       0.689   4.976   1.299  0.00  0.00    -0.266 OA
ATOM     14  H   UNL d   1      -1.423   3.145  -0.298  0.00  0.00     0.184 HD
BRANCH  12  15
ATOM     15  C   UNL d   1      -1.306   5.752   0.355  0.00  0.00     0.033 A 
ATOM     16  C   UNL d   1      -1.404   6.799   1.285  0.00  0.00     0.017 A 
ATOM     17  C   UNL d   1      -2.276   7.865   1.064  0.00  0.00     0.001 A 
ATOM     18  C   UNL d   1      -3.050   7.897  -0.093  0.00  0.00     0.000 A 
ATOM     19  C   UNL d   1      -2.957   6.861  -1.027  0.00  0.00     0.001 A 
ATOM     20  C   UNL d   1      -2.088   5.788  -0.806  0.00  0.00     0.017 A 
ENDBRANCH  12  15
ENDBRANCH   9  11
ENDBRANCH   1   9
BRANCH   4  21
ATOM     21  C   UNL d   1      -2.196  -2.648  -0.368  0.00  0.00     0.418 C 
ATOM     22  F   UNL d   1      -1.513  -3.744   0.068  0.00  0.00    -0.166 F 
ATOM     23  F   UNL d   1      -3.383  -2.661   0.296  0.00  0.00    -0.166 F 
ATOM     24  F   UNL d   1      -2.495  -2.892  -1.674  0.00  0.00    -0.166 F 
ENDBRANCH   4  21
TORSDOF 4
