REMARK  4 active torsions:
REMARK  status: ('A' for Active; 'I' for Inactive)
REMARK    1  A    between atoms: C_8  and  N_1 
REMARK    2  A    between atoms: C_7  and  C_2 
REMARK    3  A    between atoms: N_12  and  C_9 
REMARK    4  A    between atoms: C_13  and  N_12 
ROOT
ATOM      1  N   UNL d   1       3.774   0.702   0.013  0.00  0.00    -0.225 N 
ATOM      2  C   UNL d   1       3.681  -0.692  -0.057  0.00  0.00     0.139 C 
ATOM      3  N   UNL d   1       5.752  -0.098  -0.138  0.00  0.00    -0.007 NA
ATOM      4  N   UNL d   1       5.074   1.036  -0.176  0.00  0.00     0.001 NA
ATOM      5  N   UNL d   1       4.910  -1.175  -0.050  0.00  0.00    -0.270 N 
ATOM      6  HN  UNL d   1       5.179  -2.157   0.008  1.00  0.00     0.185 HD
ENDROOT
BRANCH   2   7
ATOM      7  C   UNL d   1       2.441  -1.346  -0.252  0.00  0.00     0.068 C 
ATOM      8  C   UNL d   1       2.190  -2.613   0.108  0.00  0.00     0.092 C 
BRANCH   8   9
ATOM      9  N   UNL d   1       2.991  -3.547   0.708  0.00  0.00    -0.366 N 
ATOM     10  H   UNL d   1       3.974  -3.294   0.804  0.00  0.00     0.165 HD
BRANCH   9  11
ATOM     11  C   UNL d   1       2.650  -4.863   1.080  0.00  0.00     0.031 A 
ATOM     12  C   UNL d   1       3.667  -5.810   1.256  0.00  0.00     0.030 A 
ATOM     13  C   UNL d   1       3.374  -7.149   1.551  0.00  0.00     0.009 A 
ATOM     14  C   UNL d   1       2.049  -7.576   1.683  0.00  0.00    -0.062 A 
ATOM     15  C   UNL d   1       1.027  -6.642   1.519  0.00  0.00     0.009 A 
ATOM     16  C   UNL d   1       1.746  -9.021   1.956  0.00  0.00     0.048 C 
ATOM     17  C   UNL d   1       1.326  -5.305   1.221  0.00  0.00     0.030 A 
ENDBRANCH   9  11
ENDBRANCH   8   9
ENDBRANCH   2   7
BRANCH   1  18
ATOM     18  C   UNL d   1       2.802   1.701   0.299  0.00  0.00     0.056 A 
ATOM     19  C   UNL d   1       1.641   1.394   1.024  0.00  0.00     0.033 A 
ATOM     20  C   UNL d   1       0.722   2.400   1.341  0.00  0.00     0.026 A 
ATOM     21  C   UNL d   1       0.956   3.711   0.935  0.00  0.00     0.034 A 
ATOM     22  C   UNL d   1       2.107   4.030   0.218  0.00  0.00     0.026 A 
ATOM     23 CL   UNL d   1      -0.172   4.943   1.343  0.00  0.00    -0.084 Cl
ATOM     24  C   UNL d   1       3.037   3.031  -0.090  0.00  0.00     0.033 A 
ENDBRANCH   1  18
TORSDOF 4
