REMARK  3 active torsions:
REMARK  status: ('A' for Active; 'I' for Inactive)
REMARK       I    between atoms: C_6  and  N_2 
REMARK    1  A    between atoms: C_7  and  C_3 
REMARK    2  A    between atoms: C_12  and  C_6 
REMARK    3  A    between atoms: C_8  and  C_14 
ROOT
ATOM      1  C   UNL d   1       1.008  -0.786   0.110  0.00  0.00     0.049 A 
ATOM      2  N   UNL d   1       3.351  -0.227  -0.257  0.00  0.00    -0.329 N 
ATOM      3  C   UNL d   1       2.414  -1.327   0.147  0.00  0.00     0.245 C 
ATOM      4  C   UNL d   1       0.614   0.528  -0.026  0.00  0.00    -0.019 A 
ATOM      5  N   UNL d   1      -0.117  -1.567   0.133  0.00  0.00    -0.356 N 
ATOM      6  C   UNL d   1       4.671  -0.398  -0.719  0.00  0.00     0.254 C 
ATOM      7  C   UNL d   1      -0.809   0.555  -0.016  0.00  0.00    -0.001 A 
ATOM      8  C   UNL d   1      -1.238  -0.771   0.071  0.00  0.00     0.043 A 
ATOM      9  C   UNL d   1       3.006   1.124   0.259  0.00  0.00     0.132 C 
ATOM     10  C   UNL d   1       1.615   1.617  -0.185  0.00  0.00     0.061 C 
ATOM     11  O   UNL d   1       5.422   0.560  -0.898  0.00  0.00    -0.267 OA
ATOM     12  C   UNL d   1      -1.783   1.571  -0.085  0.00  0.00     0.014 A 
ATOM     13  C   UNL d   1      -2.588  -1.136   0.082  0.00  0.00     0.030 A 
ATOM     14  C   UNL d   1      -3.140   1.223  -0.054  0.00  0.00     0.001 A 
ATOM     15  C   UNL d   1      -3.534  -0.111   0.024  0.00  0.00     0.002 A 
ATOM     16  H   UNL d   1      -0.146  -2.576   0.190  0.00  0.00     0.166 HD
ENDROOT
BRANCH   3  17
ATOM     17  C   UNL d   1       2.780  -2.083   1.455  0.00  0.00     0.413 C 
ATOM     18  F   UNL d   1       1.744  -2.172   2.321  0.00  0.00    -0.168 F 
ATOM     19  F   UNL d   1       3.141  -3.361   1.161  0.00  0.00    -0.168 F 
ATOM     20  F   UNL d   1       3.814  -1.519   2.116  0.00  0.00    -0.168 F 
ENDBRANCH   3  17
BRANCH   6  21
ATOM     21  C   UNL d   1       5.277  -1.748  -0.942  0.00  0.00     0.033 C 
ATOM     22  C   UNL d   1       4.587  -2.836  -1.482  0.00  0.00     0.033 C 
ATOM     23  C   UNL d   1       5.139  -4.129  -1.462  0.00  0.00     0.048 C 
ATOM     24  C   UNL d   1       6.479  -4.288  -1.091  0.00  0.00     0.016 C 
ATOM     25  C   UNL d   1       7.231  -3.183  -0.701  0.00  0.00     0.002 C 
ATOM     26  C   UNL d   1       6.625  -1.927  -0.598  0.00  0.00     0.017 C 
BRANCH  23  27
ATOM     27  C   UNL d   1       4.281  -5.328  -1.788  0.00  0.00     0.417 C 
ATOM     28  F   UNL d   1       2.959  -5.011  -1.918  0.00  0.00    -0.166 F 
ATOM     29  F   UNL d   1       4.639  -5.942  -2.941  0.00  0.00    -0.166 F 
ATOM     30  F   UNL d   1       4.330  -6.280  -0.814  0.00  0.00    -0.166 F 
ENDBRANCH  23  27
ENDBRANCH   6  21
TORSDOF 3
