REMARK  9 active torsions:
REMARK  status: ('A' for Active; 'I' for Inactive)
REMARK    1  A    between atoms: C_2  and  N_1 
REMARK    2  A    between atoms: C_3  and  O_15 
REMARK       I    between atoms: N_12  and  C_3 
REMARK    3  A    between atoms: S_14  and  C_5 
REMARK    4  A    between atoms: C_17  and  N_12 
REMARK    5  A    between atoms: C_18  and  S_14 
REMARK    6  A    between atoms: O_15  and  C_19 
REMARK    7  A    between atoms: C_20  and  C_17 
REMARK    8  A    between atoms: C_19  and  C_18 
REMARK    9  A    between atoms: C_21  and  C_20 
ROOT
ATOM      1  C   UNL d   1       0.225   1.734   1.732  0.00  0.00     0.121 A 
ATOM      2  N   UNL d   1       0.279   5.513  -1.314  0.00  0.00    -0.191 NA
ATOM      3  C   UNL d   1      -0.801   0.874   1.313  0.00  0.00     0.033 A 
ATOM      4  C   UNL d   1       0.058   4.516  -0.761  0.00  0.00     0.099 C 
ATOM      5  C   UNL d   1       0.525   2.932   1.058  0.00  0.00     0.060 A 
ATOM      6  C   UNL d   1      -0.216   3.286  -0.072  0.00  0.00     0.047 A 
ATOM      7  C   UNL d   1      -1.527   1.248   0.171  0.00  0.00     0.022 A 
ATOM      8  C   UNL d   1      -1.236   2.438  -0.515  0.00  0.00     0.024 A 
ENDROOT
BRANCH   1   9
ATOM      9  N   UNL d   1       1.024   1.423   2.900  0.00  0.00    -0.114 N 
ATOM     10  O   UNL d   1       1.714   0.396   2.858  0.00  0.00    -0.532 OA
ATOM     11  O   UNL d   1       1.010   2.249   3.822  0.00  0.00    -0.532 OA
ENDBRANCH   1   9
BRANCH   3  12
ATOM     12  S   UNL d   1      -1.362  -0.562   2.224  0.00  0.00    -0.125 SA
BRANCH  12  13
ATOM     13  C   UNL d   1      -0.492  -1.900   1.324  0.00  0.00     0.106 C 
BRANCH  13  14
ATOM     14  C   UNL d   1      -1.021  -3.268   1.783  0.00  0.00     0.191 C 
BRANCH  14  15
ATOM     15  O   UNL d   1      -0.329  -4.387   1.190  0.00  0.00    -0.303 OA
BRANCH  15  16
ATOM     16  C   UNL d   1      -0.470  -4.528  -0.147  0.00  0.00     0.360 C 
ATOM     17  O   UNL d   1      -1.099  -3.771  -0.875  0.00  0.00    -0.239 OA
ATOM     18  N   UNL d   1       0.219  -5.583  -0.666  0.00  0.00    -0.337 N 
ATOM     19  H   UNL d   1       0.185  -5.584  -1.677  0.00  0.00     0.164 HD
BRANCH  18  20
ATOM     20  C   UNL d   1       0.421  -6.863  -0.015  0.00  0.00     0.125 C 
BRANCH  20  21
ATOM     21  C   UNL d   1      -0.618  -7.890  -0.488  0.00  0.00     0.019 C 
BRANCH  21  22
ATOM     22  C   UNL d   1      -0.516  -8.183  -1.992  0.00  0.00    -0.003 C 
ATOM     23  C   UNL d   1      -1.535  -9.216  -2.447  0.00  0.00     0.005 C 
ENDBRANCH  21  22
ENDBRANCH  20  21
ENDBRANCH  18  20
ENDBRANCH  15  16
ENDBRANCH  14  15
ENDBRANCH  13  14
ENDBRANCH  12  13
ENDBRANCH   3  12
TORSDOF 9
