REMARK  7 active torsions:
REMARK  status: ('A' for Active; 'I' for Inactive)
REMARK       I    between atoms: N_3  and  C_1 
REMARK    1  A    between atoms: C_5  and  C_1 
REMARK    2  A    between atoms: C_8  and  C_2 
REMARK       I    between atoms: C_7  and  N_3 
REMARK    3  A    between atoms: C_6  and  C_4 
REMARK       I    between atoms: N_14  and  C_7 
REMARK    4  A    between atoms: O_26  and  C_8 
REMARK    5  A    between atoms: C_12  and  O_19 
REMARK    6  A    between atoms: C_24  and  N_14 
REMARK    7  A    between atoms: O_19  and  C_25 
ROOT
ATOM      1  C   UNL d   1       3.235   0.831   0.927  0.00  0.00     0.036 C 
ATOM      2  C   UNL d   1       4.635  -0.514  -1.100  0.00  0.00     0.077 C 
ATOM      3  C   UNL d   1       2.991   1.118  -0.417  0.00  0.00     0.032 C 
ATOM      4  C   UNL d   1       4.286  -0.033   1.252  0.00  0.00     0.032 C 
ATOM      5  C   UNL d   1       3.698   0.466  -1.425  0.00  0.00     0.039 C 
ATOM      6  C   UNL d   1       4.979  -0.712   0.238  0.00  0.00     0.039 C 
ENDROOT
BRANCH   1   7
ATOM      7  N   UNL d   1       2.439   1.358   1.967  0.00  0.00    -0.309 N 
ATOM      8  C   UNL d   1       1.170   1.850   1.811  0.00  0.00     0.327 C 
ATOM      9  N   UNL d   1       0.541   2.291   2.948  0.00  0.00    -0.275 N 
ATOM     10  O   UNL d   1       0.526   1.918   0.768  0.00  0.00    -0.247 OA
ATOM     11  C   UNL d   1       0.951   2.296   4.271  0.00  0.00     0.264 C 
ATOM     12  H   UNL d   1      -0.376   2.655   2.715  0.00  0.00     0.173 HD
ATOM     13  O   UNL d   1       2.049   1.876   4.618  0.00  0.00    -0.267 OA
ATOM     14  H   UNL d   1       2.730   1.192   2.927  0.00  0.00     0.170 HD
BRANCH  11  15
ATOM     15  C   UNL d   1      -0.048   2.833   5.249  0.00  0.00     0.092 A 
ATOM     16  C   UNL d   1      -1.004   3.764   4.816  0.00  0.00     0.133 A 
ATOM     17  F   UNL d   1      -1.015   4.195   3.544  0.00  0.00    -0.205 F 
ATOM     18  C   UNL d   1      -1.989   4.267   5.663  0.00  0.00     0.043 A 
ATOM     19  C   UNL d   1      -2.033   3.849   6.985  0.00  0.00     0.005 A 
ATOM     20  C   UNL d   1      -1.083   2.938   7.448  0.00  0.00     0.025 A 
ATOM     21  C   UNL d   1      -0.090   2.430   6.591  0.00  0.00     0.052 A 
ATOM     22 CL   UNL d   1       0.988   1.273   7.286  0.00  0.00    -0.083 Cl
ENDBRANCH  11  15
ENDBRANCH   1   7
BRANCH   2  23
ATOM     23  O   UNL d   1       5.281  -1.282  -2.044  0.00  0.00    -0.294 OA
BRANCH  23  24
ATOM     24  C   UNL d   1       4.547  -1.690  -3.155  0.00  0.00     0.148 A 
ATOM     25  N   UNL d   1       3.211  -1.848  -3.072  0.00  0.00    -0.346 N 
ATOM     26  C   UNL d   1       2.547  -2.135  -4.213  0.00  0.00     0.108 A 
ATOM     27  HN  UNL d   1       2.720  -1.753  -2.183  1.00  0.00     0.167 HD
ATOM     28  C   UNL d   1       3.158  -2.315  -5.452  0.00  0.00     0.070 A 
ATOM     29  C   UNL d   1       4.551  -2.184  -5.522  0.00  0.00     0.069 A 
ATOM     30  C   UNL d   1       5.251  -1.887  -4.331  0.00  0.00     0.073 A 
BRANCH  28  31
ATOM     31  C   UNL d   1       2.238  -2.556  -6.582  0.00  0.00     0.295 C 
ATOM     32  O   UNL d   1       1.181  -1.964  -6.704  0.00  0.00    -0.259 OA
BRANCH  31  33
ATOM     33  O   UNL d   1       2.702  -3.550  -7.364  0.00  0.00    -0.322 OA
ATOM     34  C   UNL d   1       1.898  -3.777  -8.524  0.00  0.00     0.213 C 
ENDBRANCH  31  33
ENDBRANCH  28  31
BRANCH  29  35
ATOM     35  C   UNL d   1       5.371  -2.261  -6.780  0.00  0.00     0.418 C 
ATOM     36  F   UNL d   1       4.688  -2.292  -7.950  0.00  0.00    -0.166 F 
ATOM     37  F   UNL d   1       6.201  -1.181  -6.893  0.00  0.00    -0.166 F 
ATOM     38  F   UNL d   1       6.193  -3.347  -6.784  0.00  0.00    -0.166 F 
ENDBRANCH  29  35
ENDBRANCH  23  24
ENDBRANCH   2  23
TORSDOF 7
