REMARK  11 active torsions:
REMARK  status: ('A' for Active; 'I' for Inactive)
REMARK    1  A    between atoms: N_4  and  C_1 
REMARK    2  A    between atoms: C_2  and  N_3 
REMARK    3  A    between atoms: N_6  and  C_2 
REMARK    4  A    between atoms: C_13  and  N_5 
REMARK    5  A    between atoms: C_14  and  N_6 
REMARK    6  A    between atoms: C_19  and  C_13 
REMARK    7  A    between atoms: C_20  and  C_14 
REMARK    8  A    between atoms: C_25  and  C_21 
REMARK    9  A    between atoms: C_22  and  C_24 
REMARK   10  A    between atoms: C_23  and  C_25 
REMARK   11  A    between atoms: C_24  and  C_23 
ROOT
ATOM      1  C   UNL d   1      -3.091  -2.931  -3.635  0.00  0.00     0.001 C 
ENDROOT
BRANCH   1   2
ATOM      2  C   UNL d   1      -1.819  -3.306  -2.868  0.00  0.00     0.005 C 
BRANCH   2   3
ATOM      3  C   UNL d   1      -1.908  -2.984  -1.357  0.00  0.00    -0.012 C 
ATOM      4  C   UNL d   1      -0.588  -3.329  -0.637  0.00  0.00     0.024 C 
ATOM      5  C   UNL d   1       0.543  -2.338  -0.949  0.00  0.00     0.125 C 
ATOM      6  N   UNL d   1       0.109  -0.949  -0.772  0.00  0.00    -0.358 N 
ATOM      7  C   UNL d   1      -1.141  -0.576  -1.429  0.00  0.00     0.125 C 
ATOM      8  C   UNL d   1      -2.268  -1.518  -1.044  0.00  0.00     0.024 C 
BRANCH   6   9
ATOM      9  C   UNL d   1       0.677  -0.170   0.210  0.00  0.00     0.170 C 
ATOM     10  N   UNL d   1       2.019   0.056   0.105  0.00  0.00    -0.363 N 
ATOM     11  H   UNL d   1       2.385   0.631   0.853  0.00  0.00     0.162 HD
ATOM     12  S   UNL d   1      -0.144   0.528   1.488  0.00  0.00    -0.041 SA
BRANCH  10  13
ATOM     13  C   UNL d   1       2.743   0.126  -1.153  0.00  0.00     0.160 C 
BRANCH  13  14
ATOM     14  C   UNL d   1       3.897  -0.837  -1.202  0.00  0.00    -0.041 A 
ATOM     15  C   UNL d   1       3.966  -1.809  -2.210  0.00  0.00     0.009 A 
ATOM     16  C   UNL d   1       5.042  -2.697  -2.267  0.00  0.00     0.001 A 
ATOM     17  C   UNL d   1       6.060  -2.617  -1.320  0.00  0.00     0.000 A 
ATOM     18  C   UNL d   1       6.006  -1.652  -0.314  0.00  0.00     0.001 A 
ATOM     19  C   UNL d   1       4.933  -0.763  -0.260  0.00  0.00     0.009 A 
ENDBRANCH  13  14
ENDBRANCH  10  13
ENDBRANCH   6   9
ENDBRANCH   2   3
ENDBRANCH   1   2
BRANCH   1  20
ATOM     20  C   UNL d   1      -2.967  -3.236  -5.127  0.00  0.00     0.005 C 
BRANCH  20  21
ATOM     21  C   UNL d   1      -4.225  -2.844  -5.935  0.00  0.00    -0.012 C 
ATOM     22  C   UNL d   1      -4.049  -3.211  -7.421  0.00  0.00     0.024 C 
ATOM     23  C   UNL d   1      -3.074  -2.276  -8.129  0.00  0.00     0.125 C 
ATOM     24  N   UNL d   1      -3.412  -0.865  -7.938  0.00  0.00    -0.358 N 
ATOM     25  C   UNL d   1      -3.591  -0.442  -6.547  0.00  0.00     0.125 C 
ATOM     26  C   UNL d   1      -4.604  -1.351  -5.840  0.00  0.00     0.024 C 
BRANCH  24  27
ATOM     27  C   UNL d   1      -3.984  -0.098  -8.935  0.00  0.00     0.170 C 
ATOM     28  S   UNL d   1      -5.164  -0.600 -10.004  0.00  0.00    -0.041 SA
BRANCH  27  29
ATOM     29  N   UNL d   1      -3.522   1.191  -9.029  0.00  0.00    -0.363 N 
ATOM     30  H   UNL d   1      -4.017   1.716  -9.739  0.00  0.00     0.162 HD
BRANCH  29  31
ATOM     31  C   UNL d   1      -2.099   1.491  -8.963  0.00  0.00     0.160 C 
BRANCH  31  32
ATOM     32  C   UNL d   1      -1.743   2.674  -8.101  0.00  0.00    -0.041 A 
ATOM     33  C   UNL d   1      -0.485   2.700  -7.473  0.00  0.00     0.009 A 
ATOM     34  C   UNL d   1      -0.090   3.798  -6.707  0.00  0.00     0.001 A 
ATOM     35  C   UNL d   1      -0.941   4.890  -6.568  0.00  0.00     0.000 A 
ATOM     36  C   UNL d   1      -2.183   4.888  -7.200  0.00  0.00     0.001 A 
ATOM     37  C   UNL d   1      -2.579   3.790  -7.968  0.00  0.00     0.009 A 
ENDBRANCH  31  32
ENDBRANCH  29  31
ENDBRANCH  27  29
ENDBRANCH  24  27
ENDBRANCH  20  21
ENDBRANCH   1  20
TORSDOF 11
