REMARK  8 active torsions:
REMARK  status: ('A' for Active; 'I' for Inactive)
REMARK    1  A    between atoms: C_2  and  C_1 
REMARK       I    between atoms: N_6  and  C_2 
REMARK    2  A    between atoms: C_5  and  C_3 
REMARK    3  A    between atoms: C_4  and  C_7 
REMARK    4  A    between atoms: C_7  and  N_6 
REMARK    5  A    between atoms: O_16  and  C_11 
REMARK    6  A    between atoms: O_21  and  C_13 
REMARK    7  A    between atoms: O_20  and  C_14 
REMARK    8  A    between atoms: C_24  and  O_16 
ROOT
ATOM      1  C   UNL d   1       0.220   1.259   1.052  0.00  0.00     0.062 A 
ATOM      2  C   UNL d   1      -0.543   0.698   0.019  0.00  0.00     0.069 A 
ATOM      3  C   UNL d   1       0.409   0.466   2.193  0.00  0.00     0.108 A 
ATOM      4  N   UNL d   1      -0.156  -0.751   2.415  0.00  0.00    -0.346 N 
ATOM      5  HN  UNL d   1       0.018  -1.275   3.272  1.00  0.00     0.167 HD
ATOM      6  C   UNL d   1      -0.953  -1.223   1.446  0.00  0.00     0.143 A 
ATOM      7  C   UNL d   1      -1.165  -0.551   0.256  0.00  0.00     0.073 A 
ENDROOT
BRANCH   1   8
ATOM      8  C   UNL d   1       0.928   2.563   1.073  0.00  0.00     0.255 C 
ATOM      9  N   UNL d   1       0.374   3.713   0.478  0.00  0.00    -0.348 N 
ATOM     10  C   UNL d   1      -1.063   3.956   0.420  0.00  0.00     0.153 C 
ATOM     11  O   UNL d   1       2.011   2.592   1.665  0.00  0.00    -0.267 OA
BRANCH   9  12
ATOM     12  C   UNL d   1       1.204   4.929   0.442  0.00  0.00     0.169 C 
BRANCH  12  13
ATOM     13  C   UNL d   1       2.172   5.179  -0.720  0.00  0.00     0.026 A 
ATOM     14  C   UNL d   1       2.417   6.531  -1.093  0.00  0.00     0.078 A 
ATOM     15  C   UNL d   1       3.514   6.866  -1.897  0.00  0.00     0.037 A 
ATOM     16  C   UNL d   1       4.397   5.885  -2.323  0.00  0.00     0.005 A 
ATOM     17  C   UNL d   1       4.138   4.552  -2.029  0.00  0.00     0.037 A 
ATOM     18  C   UNL d   1       3.026   4.186  -1.254  0.00  0.00     0.078 A 
BRANCH  14  19
ATOM     19  O   UNL d   1       1.533   7.472  -0.617  0.00  0.00    -0.355 OA
ATOM     20  C   UNL d   1       1.905   8.840  -0.744  0.00  0.00     0.210 C 
ENDBRANCH  14  19
BRANCH  18  21
ATOM     21  O   UNL d   1       2.712   2.877  -1.014  0.00  0.00    -0.355 OA
ATOM     22  C   UNL d   1       3.714   1.897  -1.246  0.00  0.00     0.210 C 
ENDBRANCH  18  21
ENDBRANCH  12  13
ENDBRANCH   9  12
ENDBRANCH   1   8
BRANCH   2  23
ATOM     23  C   UNL d   1      -0.764   1.283  -1.347  0.00  0.00     0.418 C 
ATOM     24  F   UNL d   1      -0.003   2.342  -1.697  0.00  0.00    -0.166 F 
ATOM     25  F   UNL d   1      -0.556   0.357  -2.330  0.00  0.00    -0.166 F 
ATOM     26  F   UNL d   1      -2.061   1.683  -1.509  0.00  0.00    -0.166 F 
ENDBRANCH   2  23
BRANCH   6  27
ATOM     27  O   UNL d   1      -1.605  -2.430   1.584  0.00  0.00    -0.331 OA
BRANCH  27  28
ATOM     28  C   UNL d   1      -1.536  -3.036   2.882  0.00  0.00     0.122 C 
ATOM     29  C   UNL d   1      -2.495  -2.340   3.848  0.00  0.00     0.040 C 
ATOM     30  C   UNL d   1      -1.970  -4.493   2.709  0.00  0.00     0.040 C 
ENDBRANCH  27  28
ENDBRANCH   6  27
TORSDOF 8
