REMARK  4 active torsions:
REMARK  status: ('A' for Active; 'I' for Inactive)
REMARK       I    between atoms: N_2  and  C_1 
REMARK    1  A    between atoms: C_7  and  C_1 
REMARK    2  A    between atoms: C_3  and  N_2 
REMARK    3  A    between atoms: O_4  and  C_7 
REMARK    4  A    between atoms: C_5  and  O_4 
ROOT
ATOM      1  C   UNL d   1       0.816   0.357   0.409  0.00  0.00     0.251 C 
ATOM      2  N   UNL d   1       2.200   0.440   0.360  0.00  0.00    -0.324 N 
ATOM      3  O   UNL d   1       0.142   0.064   1.390  0.00  0.00    -0.270 OA
ATOM      4  H   UNL d   1       2.562   0.874  -0.480  0.00  0.00     0.169 HD
ENDROOT
BRANCH   1   5
ATOM      5  C   UNL d   1       0.153   0.881  -0.893  0.00  0.00     0.217 C 
ATOM      6  C   UNL d   1      -1.347   0.598  -0.897  0.00  0.00     0.050 C 
BRANCH   5   7
ATOM      7  O   UNL d   1       0.695   0.276  -2.066  0.00  0.00    -0.335 OA
BRANCH   7   8
ATOM      8  C   UNL d   1       1.608   0.948  -2.830  0.00  0.00     0.091 A 
ATOM      9  C   UNL d   1       2.521   0.168  -3.562  0.00  0.00     0.069 A 
ATOM     10  C   UNL d   1       3.520   0.765  -4.334  0.00  0.00     0.050 A 
ATOM     11 CL   UNL d   1       2.465  -1.560  -3.510  0.00  0.00    -0.081 Cl
ATOM     12  C   UNL d   1       3.602   2.151  -4.389  0.00  0.00     0.035 A 
ATOM     13  C   UNL d   1       2.679   2.939  -3.705  0.00  0.00     0.026 A 
ATOM     14 CL   UNL d   1       4.847   2.901  -5.308  0.00  0.00    -0.084 Cl
ATOM     15  C   UNL d   1       1.674   2.340  -2.938  0.00  0.00     0.040 A 
ENDBRANCH   7   8
ENDBRANCH   5   7
ENDBRANCH   1   5
BRANCH   2  16
ATOM     16  C   UNL d   1       3.153   0.257   1.387  0.00  0.00     0.040 A 
ATOM     17  C   UNL d   1       3.023  -0.526   2.548  0.00  0.00    -0.034 A 
ATOM     18  C   UNL d   1       4.053  -0.491   3.514  0.00  0.00     0.032 A 
ATOM     19  C   UNL d   1       1.876  -1.453   2.841  0.00  0.00     0.050 C 
ATOM     20  C   UNL d   1       5.216   0.247   3.308  0.00  0.00     0.034 A 
ATOM     21  C   UNL d   1       5.382   0.959   2.131  0.00  0.00     0.026 A 
ATOM     22 CL   UNL d   1       6.451   0.263   4.503  0.00  0.00    -0.084 Cl
ATOM     23  C   UNL d   1       4.362   0.956   1.178  0.00  0.00     0.032 A 
ENDBRANCH   2  16
TORSDOF 4
