REMARK  2 active torsions:
REMARK  status: ('A' for Active; 'I' for Inactive)
REMARK    1  A    between atoms: N_10  and  N_12 
REMARK    2  A    between atoms: C_16  and  C_14 
ROOT
ATOM      1  N   UNL d   1       1.777  -0.943  -0.009  0.00  0.00    -0.333 N 
ATOM      2  HN  UNL d   1       2.208  -1.866  -0.072  1.00  0.00     0.168 HD
ATOM      3  C   UNL d   1       0.404  -0.710  -0.016  0.00  0.00     0.073 A 
ATOM      4  C   UNL d   1       2.443   0.186   0.088  0.00  0.00     0.164 A 
ATOM      5  C   UNL d   1       0.041   0.635   0.081  0.00  0.00     0.038 A 
ATOM      6  S   UNL d   1       1.455   1.597   0.178  0.00  0.00    -0.050 SA
ATOM      7  C   UNL d   1      -0.648  -1.648  -0.107  0.00  0.00     0.063 A 
ATOM      8  C   UNL d   1      -1.301   1.058   0.089  0.00  0.00     0.045 A 
ATOM      9  C   UNL d   1      -1.988  -1.262  -0.099  0.00  0.00     0.050 A 
ATOM     10  N   UNL d   1       3.801   0.249   0.116  0.00  0.00    -0.280 N 
ATOM     11  C   UNL d   1      -2.299   0.086  -0.001  0.00  0.00     0.037 A 
ATOM     12 CL   UNL d   1      -0.194  -3.293  -0.226  0.00  0.00    -0.082 Cl
ATOM     13 CL   UNL d   1      -3.949   0.579   0.010  0.00  0.00    -0.084 Cl
ATOM     14  H   UNL d   1       4.286  -0.642   0.038  0.00  0.00     0.189 HD
ENDROOT
BRANCH  10  15
ATOM     15  N   UNL d   1       4.486   1.421   0.171  0.00  0.00    -0.309 N 
ATOM     16  C   UNL d   1       5.776   1.351   0.164  0.00  0.00     0.118 C 
ATOM     17  HN  UNL d   1       4.002   2.317   0.217  1.00  0.00     0.186 HD
BRANCH  16  18
ATOM     18  C   UNL d   1       6.583   2.589   0.204  0.00  0.00    -0.019 A 
ATOM     19  C   UNL d   1       5.955   3.840   0.276  0.00  0.00     0.014 A 
ATOM     20  C   UNL d   1       6.719   5.007   0.290  0.00  0.00     0.024 A 
ATOM     21  C   UNL d   1       8.108   4.921   0.233  0.00  0.00     0.034 A 
ATOM     22  C   UNL d   1       8.740   3.677   0.169  0.00  0.00     0.024 A 
ATOM     23 CL   UNL d   1       9.052   6.359   0.237  0.00  0.00    -0.084 Cl
ATOM     24  C   UNL d   1       7.977   2.504   0.155  0.00  0.00     0.014 A 
ENDBRANCH  16  18
ENDBRANCH  10  15
TORSDOF 2
