REMARK  4 active torsions:
REMARK  status: ('A' for Active; 'I' for Inactive)
REMARK    1  A    between atoms: C_2  and  S_1 
REMARK    2  A    between atoms: C_9  and  S_1 
REMARK    3  A    between atoms: C_3  and  C_5 
REMARK    4  A    between atoms: C_4  and  C_6 
ROOT
ATOM      1  C   UNL d   1       0.420  -0.175  -1.683  0.00  0.00     0.065 A 
ATOM      2  C   UNL d   1      -0.383  -1.485  -3.564  0.00  0.00     0.050 A 
ATOM      3  C   UNL d   1      -0.649   0.955  -3.549  0.00  0.00     0.050 A 
ATOM      4  C   UNL d   1       0.236  -1.415  -2.306  0.00  0.00     0.040 A 
ATOM      5  C   UNL d   1      -0.026   1.004  -2.292  0.00  0.00     0.040 A 
ATOM      6  C   UNL d   1      -0.813  -0.294  -4.178  0.00  0.00     0.032 A 
ENDROOT
BRANCH   1   7
ATOM      7  S   UNL d   1       1.083  -0.113  -0.026  0.00  0.00     0.206 S 
ATOM      8  O   UNL d   1       0.811  -1.402   0.583  0.00  0.00    -0.217 OA
ATOM      9  O   UNL d   1       0.574   1.102   0.586  0.00  0.00    -0.217 OA
BRANCH   7  10
ATOM     10  C   UNL d   1       2.847   0.058  -0.159  0.00  0.00     0.064 A 
ATOM     11  C   UNL d   1       3.412   1.333  -0.239  0.00  0.00     0.024 A 
ATOM     12  C   UNL d   1       4.801   1.469  -0.283  0.00  0.00     0.008 A 
ATOM     13  C   UNL d   1       5.629   0.339  -0.231  0.00  0.00    -0.062 A 
ATOM     14  C   UNL d   1       5.049  -0.933  -0.138  0.00  0.00     0.008 A 
ATOM     15  C   UNL d   1       7.121   0.502  -0.288  0.00  0.00     0.048 C 
ATOM     16  C   UNL d   1       3.660  -1.077  -0.094  0.00  0.00     0.024 A 
ENDBRANCH   7  10
ENDBRANCH   1   7
BRANCH   2  17
ATOM     17  C   UNL d   1      -0.616  -2.812  -4.253  0.00  0.00     0.417 C 
ATOM     18  F   UNL d   1      -0.209  -3.884  -3.520  0.00  0.00    -0.166 F 
ATOM     19  F   UNL d   1      -1.931  -3.025  -4.535  0.00  0.00    -0.166 F 
ATOM     20  F   UNL d   1       0.042  -2.897  -5.441  0.00  0.00    -0.166 F 
ENDBRANCH   2  17
BRANCH   3  21
ATOM     21  C   UNL d   1      -1.168   2.208  -4.218  0.00  0.00     0.417 C 
ATOM     22  F   UNL d   1      -0.984   3.335  -3.477  0.00  0.00    -0.166 F 
ATOM     23  F   UNL d   1      -0.563   2.443  -5.414  0.00  0.00    -0.166 F 
ATOM     24  F   UNL d   1      -2.502   2.141  -4.477  0.00  0.00    -0.166 F 
ENDBRANCH   3  21
TORSDOF 4
