REMARK  4 active torsions:
REMARK  status: ('A' for Active; 'I' for Inactive)
REMARK    1  A    between atoms: C_6  and  C_1 
REMARK    2  A    between atoms: C_9  and  C_3 
REMARK    3  A    between atoms: C_11  and  C_5 
REMARK    4  A    between atoms: C_12  and  C_6 
ROOT
ATOM      1  C   UNL d   1      -0.923   1.416   0.198  0.00  0.00     0.040 A 
ATOM      2  C   UNL d   1      -0.001   0.339   0.240  0.00  0.00     0.032 A 
ATOM      3  C   UNL d   1      -2.295   1.131  -0.026  0.00  0.00    -0.010 A 
ATOM      4  C   UNL d   1      -0.381  -1.020   0.051  0.00  0.00    -0.032 A 
ATOM      5  C   UNL d   1      -1.750  -1.333  -0.123  0.00  0.00    -0.018 A 
ATOM      6  C   UNL d   1      -2.647  -0.239  -0.193  0.00  0.00     0.026 A 
ATOM      7  C   UNL d   1       1.435   0.564   0.564  0.00  0.00     0.161 C 
ATOM      8  O   UNL d   1       1.786   1.337   1.442  0.00  0.00    -0.292 OA
ATOM      9  C   UNL d   1       0.688  -2.107   0.002  0.00  0.00     0.041 C 
ATOM     10  C   UNL d   1       2.401  -0.318  -0.169  0.00  0.00     0.084 C 
ATOM     11  C   UNL d   1       2.115  -1.701   0.365  0.00  0.00     0.012 C 
ENDROOT
BRANCH   1  12
ATOM     12  C   UNL d   1      -0.470   2.817   0.480  0.00  0.00     0.194 C 
ATOM     13  O   UNL d   1      -1.098   3.474   1.309  0.00  0.00    -0.287 OA
BRANCH  12  14
ATOM     14  C   UNL d   1       0.719   3.453  -0.178  0.00  0.00     0.015 A 
ATOM     15  C   UNL d   1       1.329   4.529   0.488  0.00  0.00     0.015 A 
ATOM     16  C   UNL d   1       2.505   5.100  -0.002  0.00  0.00     0.001 A 
ATOM     17  C   UNL d   1       3.085   4.600  -1.164  0.00  0.00     0.000 A 
ATOM     18  C   UNL d   1       2.471   3.554  -1.855  0.00  0.00     0.001 A 
ATOM     19  C   UNL d   1       1.278   2.995  -1.380  0.00  0.00     0.015 A 
ENDBRANCH  12  14
ENDBRANCH   1  12
BRANCH   3  20
ATOM     20  C   UNL d   1      -3.408   2.135  -0.083  0.00  0.00    -0.025 A 
ATOM     21  C   UNL d   1      -3.288   3.376  -0.732  0.00  0.00     0.012 A 
ATOM     22  C   UNL d   1      -4.343   4.300  -0.759  0.00  0.00     0.001 A 
ATOM     23  C   UNL d   1      -5.569   3.988  -0.181  0.00  0.00     0.000 A 
ATOM     24  C   UNL d   1      -5.736   2.757   0.439  0.00  0.00     0.001 A 
ATOM     25  C   UNL d   1      -4.666   1.855   0.500  0.00  0.00     0.012 A 
ENDBRANCH   3  20
BRANCH   5  26
ATOM     26  C   UNL d   1      -2.317  -2.721  -0.154  0.00  0.00    -0.025 A 
ATOM     27  C   UNL d   1      -1.729  -3.786  -0.858  0.00  0.00     0.012 A 
ATOM     28  C   UNL d   1      -2.231  -5.092  -0.789  0.00  0.00     0.001 A 
ATOM     29  C   UNL d   1      -3.389  -5.360  -0.073  0.00  0.00     0.000 A 
ATOM     30  C   UNL d   1      -4.037  -4.322   0.585  0.00  0.00     0.001 A 
ATOM     31  C   UNL d   1      -3.496  -3.029   0.561  0.00  0.00     0.012 A 
ENDBRANCH   5  26
TORSDOF 4
