REMARK  6 active torsions:
REMARK  status: ('A' for Active; 'I' for Inactive)
REMARK    1  A    between atoms: N_2  and  C_1 
REMARK    2  A    between atoms: S_8  and  C_3 
REMARK    3  A    between atoms: N_7  and  C_5 
REMARK    4  A    between atoms: C_10  and  S_8 
REMARK    5  A    between atoms: O_23  and  C_16 
REMARK    6  A    between atoms: O_24  and  C_20 
ROOT
ATOM      1  C   UNL d   1       1.678  -1.276   0.026  0.00  0.00     0.121 A 
ATOM      2  C   UNL d   1       2.398  -0.083   0.147  0.00  0.00     0.041 A 
ATOM      3  C   UNL d   1       0.279  -1.300  -0.032  0.00  0.00     0.063 A 
ATOM      4  C   UNL d   1       0.249   1.121   0.037  0.00  0.00     0.061 A 
ATOM      5  C   UNL d   1       1.663   1.115   0.118  0.00  0.00     0.053 A 
ATOM      6  C   UNL d   1      -0.441  -0.103  -0.026  0.00  0.00     0.063 A 
ATOM      7 CL   UNL d   1      -2.144  -0.272  -0.264  0.00  0.00    -0.082 Cl
ENDROOT
BRANCH   2   8
ATOM      8  S   UNL d   1       4.178   0.014   0.328  0.00  0.00    -0.085 SA
BRANCH   8   9
ATOM      9  C   UNL d   1       4.395   0.116   2.114  0.00  0.00     0.041 A 
ATOM     10  C   UNL d   1       3.818  -0.907   2.894  0.00  0.00     0.058 A 
ATOM     11  C   UNL d   1       4.007  -0.987   4.274  0.00  0.00     0.069 A 
ATOM     12  C   UNL d   1       4.801  -0.035   4.899  0.00  0.00     0.039 A 
ATOM     13  C   UNL d   1       5.405   0.975   4.148  0.00  0.00     0.041 A 
ATOM     14  C   UNL d   1       5.206   1.065   2.761  0.00  0.00     0.085 A 
BRANCH  11  15
ATOM     15  O   UNL d   1       3.494  -1.953   5.095  0.00  0.00    -0.356 OA
ATOM     16  C   UNL d   1       2.704  -2.970   4.484  0.00  0.00     0.210 C 
ENDBRANCH  11  15
BRANCH  14  17
ATOM     17  O   UNL d   1       5.964   2.047   2.179  0.00  0.00    -0.355 OA
ATOM     18  C   UNL d   1       5.318   2.875   1.222  0.00  0.00     0.210 C 
ENDBRANCH  14  17
ENDBRANCH   8   9
ENDBRANCH   2   8
BRANCH   1  19
ATOM     19  N   UNL d   1       2.347  -2.557  -0.056  0.00  0.00    -0.114 N 
ATOM     20  O   UNL d   1       3.048  -2.772  -1.055  0.00  0.00    -0.532 OA
ATOM     21  O   UNL d   1       2.121  -3.361   0.857  0.00  0.00    -0.532 OA
ENDBRANCH   1  19
BRANCH   4  22
ATOM     22  N   UNL d   1      -0.411   2.385   0.010  0.00  0.00    -0.331 N 
ATOM     23  C   UNL d   1      -1.626   2.712   0.575  0.00  0.00     0.096 A 
ATOM     24  C   UNL d   1      -1.919   4.030   0.299  0.00  0.00     0.019 A 
ATOM     25  C   UNL d   1      -0.834   4.553  -0.430  0.00  0.00     0.019 A 
ATOM     26  C   UNL d   1       0.090   3.540  -0.567  0.00  0.00     0.096 A 
ENDBRANCH   4  22
TORSDOF 6
