REMARK  3 active torsions:
REMARK  status: ('A' for Active; 'I' for Inactive)
REMARK       I    between atoms: N_2  and  C_1 
REMARK       I    between atoms: N_3  and  C_1 
REMARK    1  A    between atoms: C_13  and  N_3 
REMARK    2  A    between atoms: C_4  and  C_8 
REMARK    3  A    between atoms: C_10  and  C_4 
ROOT
ATOM      1  C   UNL d   1       1.032  -0.181  -0.012  0.00  0.00     0.322 C 
ATOM      2  N   UNL d   1       0.262  -0.955  -0.881  0.00  0.00    -0.334 N 
ATOM      3  N   UNL d   1       0.710   1.158   0.036  0.00  0.00    -0.309 N 
ATOM      4  O   UNL d   1       1.918  -0.700   0.664  0.00  0.00    -0.247 OA
ATOM      5  C   UNL d   1      -0.886  -0.530  -1.682  0.00  0.00     0.128 C 
ATOM      6  C   UNL d   1       0.680  -2.337  -1.112  0.00  0.00     0.128 C 
ATOM      7  C   UNL d   1      -1.726  -2.955  -1.650  0.00  0.00     0.064 C 
ATOM      8  C   UNL d   1      -2.075  -1.470  -1.476  0.00  0.00     0.032 C 
ATOM      9  C   UNL d   1      -0.465  -3.315  -0.858  0.00  0.00     0.032 C 
ATOM     10  H   UNL d   1       0.052   1.501  -0.637  0.00  0.00     0.170 HD
ENDROOT
BRANCH   3  11
ATOM     11  C   UNL d   1       1.235   2.138   0.910  0.00  0.00     0.036 A 
ATOM     12  C   UNL d   1       2.256   1.901   1.831  0.00  0.00     0.029 A 
ATOM     13  C   UNL d   1       2.677   2.907   2.706  0.00  0.00     0.002 A 
ATOM     14  C   UNL d   1       2.080   4.163   2.667  0.00  0.00     0.000 A 
ATOM     15  C   UNL d   1       1.079   4.423   1.735  0.00  0.00     0.002 A 
ATOM     16  C   UNL d   1       0.665   3.418   0.854  0.00  0.00     0.029 A 
ENDBRANCH   3  11
BRANCH   7  17
ATOM     17  C   UNL d   1      -1.580  -3.332  -3.127  0.00  0.00     0.163 C 
ATOM     18  O   UNL d   1      -1.248  -2.499  -3.972  0.00  0.00    -0.292 OA
BRANCH  17  19
ATOM     19  C   UNL d   1      -1.837  -4.739  -3.569  0.00  0.00     0.010 A 
ATOM     20  C   UNL d   1      -2.175  -5.769  -2.683  0.00  0.00     0.015 A 
ATOM     21  C   UNL d   1      -2.414  -7.060  -3.160  0.00  0.00     0.001 A 
ATOM     22  C   UNL d   1      -2.315  -7.335  -4.523  0.00  0.00     0.000 A 
ATOM     23  C   UNL d   1      -1.976  -6.319  -5.413  0.00  0.00     0.001 A 
ATOM     24  C   UNL d   1      -1.738  -5.028  -4.939  0.00  0.00     0.015 A 
ENDBRANCH  17  19
ENDBRANCH   7  17
TORSDOF 3
