REMARK  4 active torsions:
REMARK  status: ('A' for Active; 'I' for Inactive)
REMARK       I    between atoms: N_2  and  C_1 
REMARK    1  A    between atoms: C_3  and  C_1 
REMARK    2  A    between atoms: C_4  and  C_8 
REMARK    3  A    between atoms: O_17  and  C_9 
REMARK    4  A    between atoms: O_18  and  C_14 
ROOT
ATOM      1  C   UNL d   1       1.204  -0.187  -0.013  0.00  0.00     0.253 C 
ATOM      2  N   UNL d   1       0.318   0.561  -0.806  0.00  0.00    -0.348 N 
ATOM      3  C   UNL d   1       0.726   1.274  -2.015  0.00  0.00     0.127 C 
ATOM      4  C   UNL d   1      -0.901   1.003  -0.139  0.00  0.00     0.127 C 
ATOM      5  O   UNL d   1       0.857  -0.771   1.017  0.00  0.00    -0.267 OA
ATOM      6  C   UNL d   1      -1.561   2.297  -2.288  0.00  0.00     0.024 C 
ATOM      7  C   UNL d   1      -2.019   1.477  -1.067  0.00  0.00     0.029 C 
ATOM      8  C   UNL d   1      -0.426   1.524  -2.970  0.00  0.00     0.029 C 
ENDROOT
BRANCH   1   9
ATOM      9  C   UNL d   1       2.631  -0.298  -0.403  0.00  0.00     0.032 A 
ATOM     10  C   UNL d   1       3.406   0.846  -0.625  0.00  0.00     0.020 A 
ATOM     11  C   UNL d   1       4.738   0.726  -1.028  0.00  0.00     0.038 A 
ATOM     12  C   UNL d   1       5.314  -0.538  -1.161  0.00  0.00     0.068 A 
ATOM     13  C   UNL d   1       4.568  -1.675  -0.840  0.00  0.00     0.038 A 
ATOM     14  C   UNL d   1       3.225  -1.560  -0.468  0.00  0.00     0.020 A 
BRANCH  12  15
ATOM     15  O   UNL d   1       6.606  -0.771  -1.548  0.00  0.00    -0.356 OA
ATOM     16  C   UNL d   1       7.171   0.216  -2.405  0.00  0.00     0.210 C 
ENDBRANCH  12  15
ENDBRANCH   1   9
BRANCH   6  17
ATOM     17  C   UNL d   1      -1.240   3.780  -2.085  0.00  0.00    -0.021 A 
ATOM     18  C   UNL d   1      -1.018   4.655  -3.172  0.00  0.00     0.074 A 
ATOM     19  C   UNL d   1      -0.703   6.004  -2.964  0.00  0.00     0.037 A 
ATOM     20  C   UNL d   1      -0.612   6.524  -1.676  0.00  0.00     0.003 A 
ATOM     21  C   UNL d   1      -0.830   5.687  -0.591  0.00  0.00     0.001 A 
ATOM     22  C   UNL d   1      -1.151   4.340  -0.794  0.00  0.00     0.010 A 
BRANCH  18  23
ATOM     23  O   UNL d   1      -0.949   4.261  -4.485  0.00  0.00    -0.355 OA
ATOM     24  C   UNL d   1      -2.168   3.767  -5.028  0.00  0.00     0.210 C 
ENDBRANCH  18  23
ENDBRANCH   6  17
TORSDOF 4
