REMARK  2 active torsions:
REMARK  status: ('A' for Active; 'I' for Inactive)
REMARK    1  A    between atoms: N_7  and  N_1 
REMARK       I    between atoms: C_8  and  N_7 
REMARK    2  A    between atoms: C_14  and  C_8 
ROOT
ATOM      1  N   UNL d   1       2.458  -0.496  -0.092  0.00  0.00    -0.232 N 
ATOM      2  C   UNL d   1       1.385  -1.379  -0.070  0.00  0.00     0.137 A 
ATOM      3  C   UNL d   1       0.041  -0.722   0.001  0.00  0.00     0.075 A 
ATOM      4  N   UNL d   1       1.180   1.495   0.105  0.00  0.00    -0.350 N 
ATOM      5  HN  UNL d   1       1.129   2.509   0.202  1.00  0.00     0.166 HD
ATOM      6  C   UNL d   1       2.314   0.867   0.037  0.00  0.00     0.209 A 
ATOM      7  C   UNL d   1       0.018   0.690   0.035  0.00  0.00     0.050 A 
ATOM      8  N   UNL d   1       1.475  -2.674  -0.110  0.00  0.00    -0.383 N 
ATOM      9  HN  UNL d   1       0.684  -3.315  -0.050  1.00  0.00     0.157 HD
ATOM     10  C   UNL d   1      -1.161  -1.432  -0.004  0.00  0.00     0.132 A 
ATOM     11  F   UNL d   1      -1.194  -2.772   0.002  0.00  0.00    -0.205 F 
ATOM     12  C   UNL d   1      -1.217   1.350   0.013  0.00  0.00     0.030 A 
ATOM     13  C   UNL d   1      -2.414   0.633  -0.023  0.00  0.00     0.005 A 
ATOM     14  C   UNL d   1      -2.384  -0.760  -0.017  0.00  0.00     0.043 A 
ATOM     15  H   UNL d   1       2.447  -2.959  -0.208  0.00  0.00     0.157 HD
ENDROOT
BRANCH   1  16
ATOM     16  N   UNL d   1       3.753  -1.053  -0.114  0.00  0.00    -0.257 N 
ATOM     17  C   UNL d   1       4.714  -0.553  -0.975  0.00  0.00     0.270 C 
ATOM     18  O   UNL d   1       4.598   0.453  -1.658  0.00  0.00    -0.266 OA
ATOM     19  H   UNL d   1       3.930  -1.782   0.567  0.00  0.00     0.191 HD
BRANCH  17  20
ATOM     20  C   UNL d   1       5.994  -1.303  -1.013  0.00  0.00     0.036 A 
ATOM     21  C   UNL d   1       6.009  -2.697  -1.051  0.00  0.00     0.034 A 
ATOM     22  C   UNL d   1       7.239  -3.321  -1.151  0.00  0.00     0.088 A 
ATOM     23  N   UNL d   1       8.415  -2.660  -1.202  0.00  0.00    -0.375 N 
ATOM     24  C   UNL d   1       8.367  -1.310  -1.179  0.00  0.00     0.088 A 
ATOM     25  HN  UNL d   1       9.303  -3.159  -1.254  1.00  0.00     0.164 HD
ATOM     26  C   UNL d   1       7.190  -0.590  -1.092  0.00  0.00     0.034 A 
ENDBRANCH  17  20
ENDBRANCH   1  16
TORSDOF 2
