REMARK  4 active torsions:
REMARK  status: ('A' for Active; 'I' for Inactive)
REMARK    1  A    between atoms: C_9  and  C_3 
REMARK    2  A    between atoms: C_12  and  C_4 
REMARK    3  A    between atoms: C_11  and  C_6 
REMARK    4  A    between atoms: O_18  and  C_11 
ROOT
ATOM      1  C   UNL d   1       0.269  -0.787   0.010  0.00  0.00     0.084 A 
ATOM      2  C   UNL d   1       0.302   0.584  -0.060  0.00  0.00     0.066 A 
ATOM      3  C   UNL d   1       2.568   0.092   0.087  0.00  0.00     0.102 A 
ATOM      4  C   UNL d   1       1.633   1.129  -0.034  0.00  0.00     0.024 A 
ATOM      5  S   UNL d   1       1.805  -1.466   0.081  0.00  0.00    -0.078 SA
ATOM      6  C   UNL d   1      -2.225  -0.775  -0.025  0.00  0.00     0.104 A 
ATOM      7  C   UNL d   1      -0.957  -1.560   0.015  0.00  0.00     0.209 A 
ATOM      8  N   UNL d   1      -0.884   1.246  -0.141  0.00  0.00    -0.363 N 
ATOM      9  C   UNL d   1      -2.094   0.570  -0.104  0.00  0.00     0.111 A 
ATOM     10  O   UNL d   1      -1.028  -2.791   0.060  0.00  0.00    -0.286 OA
ATOM     11  H   UNL d   1      -0.939   2.256  -0.266  0.00  0.00     0.165 HD
ENDROOT
BRANCH   4  12
ATOM     12  C   UNL d   1       1.997   2.554  -0.069  0.00  0.00    -0.022 A 
ATOM     13  C   UNL d   1       1.277   3.484   0.699  0.00  0.00     0.012 A 
ATOM     14  C   UNL d   1       1.600   4.845   0.670  0.00  0.00     0.001 A 
ATOM     15  C   UNL d   1       2.673   5.290  -0.097  0.00  0.00     0.000 A 
ATOM     16  C   UNL d   1       3.400   4.381  -0.860  0.00  0.00     0.001 A 
ATOM     17  C   UNL d   1       3.045   3.027  -0.870  0.00  0.00     0.012 A 
ENDBRANCH   4  12
BRANCH   3  18
ATOM     18  C   UNL d   1       4.064   0.080   0.205  0.00  0.00     0.424 C 
ATOM     19  F   UNL d   1       4.608   1.280   0.522  0.00  0.00    -0.166 F 
ATOM     20  F   UNL d   1       4.494  -0.785   1.163  0.00  0.00    -0.166 F 
ATOM     21  F   UNL d   1       4.642  -0.313  -0.962  0.00  0.00    -0.166 F 
ENDBRANCH   3  18
BRANCH   6  22
ATOM     22  C   UNL d   1      -3.562  -1.381   0.015  0.00  0.00     0.181 C 
ATOM     23  O   UNL d   1      -4.595  -0.720   0.005  0.00  0.00    -0.646 OA
BRANCH  22  24
ATOM     24  O   UNL d   1      -3.581  -2.730   0.067  0.00  0.00    -0.773 OA
ATOM     25  H   UNL d   1      -2.691  -3.159   0.071  0.00  0.00     0.167 HD
ENDBRANCH  22  24
ENDBRANCH   6  22
TORSDOF 4
