REMARK  4 active torsions:
REMARK  status: ('A' for Active; 'I' for Inactive)
REMARK    1  A    between atoms: N_3  and  S_1 
REMARK    2  A    between atoms: C_6  and  S_1 
REMARK    3  A    between atoms: C_2  and  C_9 
REMARK    4  A    between atoms: C_13  and  N_3 
ROOT
ATOM      1  C   UNL d   1       1.532  -0.919   5.159  0.00  0.00     0.015 A 
ATOM      2  C   UNL d   1       0.996   0.184   2.642  0.00  0.00     0.042 A 
ATOM      3  C   UNL d   1       0.231  -0.526   4.822  0.00  0.00     0.018 A 
ATOM      4  C   UNL d   1       2.567  -0.738   4.235  0.00  0.00     0.018 A 
ATOM      5  C   UNL d   1      -0.032   0.040   3.570  0.00  0.00     0.031 A 
ATOM      6  C   UNL d   1       2.296  -0.206   2.971  0.00  0.00     0.031 A 
ENDROOT
BRANCH   2   7
ATOM      7  N   UNL d   1       0.724   0.800   1.388  0.00  0.00    -0.281 N 
ATOM      8  H   UNL d   1       1.121   0.356   0.561  0.00  0.00     0.179 HD
BRANCH   7   9
ATOM      9  S   UNL d   1       0.808   2.491   1.285  0.00  0.00     0.263 S 
ATOM     10  O   UNL d   1      -0.006   3.083   2.320  0.00  0.00    -0.200 OA
ATOM     11  O   UNL d   1       0.620   2.822  -0.114  0.00  0.00    -0.200 OA
BRANCH   9  12
ATOM     12  C   UNL d   1       2.519   2.813   1.677  0.00  0.00     0.080 A 
ATOM     13  C   UNL d   1       3.468   2.846   0.649  0.00  0.00     0.027 A 
ATOM     14  C   UNL d   1       4.819   2.989   0.970  0.00  0.00     0.025 A 
ATOM     15  C   UNL d   1       5.208   3.100   2.307  0.00  0.00     0.034 A 
ATOM     16  C   UNL d   1       4.256   3.104   3.327  0.00  0.00     0.025 A 
ATOM     17 CL   UNL d   1       6.879   3.216   2.700  0.00  0.00    -0.084 Cl
ATOM     18  C   UNL d   1       2.902   2.981   3.012  0.00  0.00     0.027 A 
ENDBRANCH   9  12
ENDBRANCH   7   9
ENDBRANCH   2   7
BRANCH   1  19
ATOM     19  C   UNL d   1       1.832  -1.546   6.460  0.00  0.00     0.148 A 
ATOM     20  N   UNL d   1       2.997  -1.939   6.866  0.00  0.00    -0.368 N 
ATOM     21  C   UNL d   1       2.725  -2.539   8.179  0.00  0.00     0.148 A 
ATOM     22  HN  UNL d   1       3.893  -1.852   6.386  1.00  0.00     0.161 HD
ATOM     23  C   UNL d   1       1.257  -2.295   8.450  0.00  0.00     0.197 A 
ATOM     24  O   UNL d   1       0.752  -1.719   7.255  0.00  0.00    -0.334 OA
ENDBRANCH   1  19
TORSDOF 4
