REMARK  4 active torsions:
REMARK  status: ('A' for Active; 'I' for Inactive)
REMARK    1  A    between atoms: C_9  and  C_6 
REMARK    2  A    between atoms: C_8  and  C_7 
REMARK    3  A    between atoms: C_10  and  C_13 
REMARK    4  A    between atoms: C_11  and  C_12 
ROOT
ATOM      1  O   UNL d   1      -0.988  -0.002  -0.033  0.00  0.00    -0.273 OA
ATOM      2  N   UNL d   1       1.133   0.702  -0.009  0.00  0.00    -0.277 N 
ATOM      3  HN  UNL d   1       1.947   1.317  -0.008  1.00  0.00     0.189 HD
ATOM      4  N   UNL d   1       1.141  -0.680   0.036  0.00  0.00    -0.277 N 
ATOM      5  HN  UNL d   1       1.961  -1.285   0.071  1.00  0.00     0.189 HD
ATOM      6  C   UNL d   1      -0.121  -1.062   0.025  0.00  0.00     0.174 A 
ATOM      7  C   UNL d   1      -0.133   1.069  -0.051  0.00  0.00     0.174 A 
ENDROOT
BRANCH   6   8
ATOM      8  C   UNL d   1      -0.707  -2.395   0.086  0.00  0.00     0.017 A 
ATOM      9  C   UNL d   1       0.114  -3.526   0.122  0.00  0.00     0.016 A 
ATOM     10  C   UNL d   1      -0.437  -4.812   0.217  0.00  0.00     0.009 A 
ATOM     11  C   UNL d   1      -1.830  -5.014   0.276  0.00  0.00    -0.051 A 
ATOM     12  C   UNL d   1      -2.641  -3.872   0.223  0.00  0.00     0.009 A 
ATOM     13  C   UNL d   1      -2.092  -2.587   0.130  0.00  0.00     0.016 A 
BRANCH  11  14
ATOM     14  C   UNL d   1      -2.410  -6.436   0.388  0.00  0.00    -0.024 C 
ATOM     15  C   UNL d   1      -3.955  -6.467   0.449  0.00  0.00     0.019 C 
ATOM     16  C   UNL d   1      -1.982  -7.272  -0.836  0.00  0.00     0.019 C 
ATOM     17  C   UNL d   1      -1.893  -7.122   1.672  0.00  0.00     0.019 C 
ENDBRANCH  11  14
ENDBRANCH   6   8
BRANCH   7  18
ATOM     18  C   UNL d   1      -0.731   2.396  -0.120  0.00  0.00     0.017 A 
ATOM     19  C   UNL d   1       0.078   3.535  -0.070  0.00  0.00     0.016 A 
ATOM     20  C   UNL d   1      -0.480   4.818  -0.157  0.00  0.00     0.009 A 
ATOM     21  C   UNL d   1      -1.868   5.010  -0.292  0.00  0.00    -0.051 A 
ATOM     22  C   UNL d   1      -2.670   3.858  -0.334  0.00  0.00     0.009 A 
ATOM     23  C   UNL d   1      -2.112   2.575  -0.248  0.00  0.00     0.016 A 
BRANCH  21  24
ATOM     24  C   UNL d   1      -2.455   6.430  -0.387  0.00  0.00    -0.024 C 
ATOM     25  C   UNL d   1      -3.994   6.453  -0.529  0.00  0.00     0.019 C 
ATOM     26  C   UNL d   1      -2.101   7.224   0.888  0.00  0.00     0.019 C 
ATOM     27  C   UNL d   1      -1.874   7.164  -1.615  0.00  0.00     0.019 C 
ENDBRANCH  21  24
ENDBRANCH   7  18
TORSDOF 4
