REMARK  5 active torsions:
REMARK  status: ('A' for Active; 'I' for Inactive)
REMARK    1  A    between atoms: C_2  and  C_1 
REMARK       I    between atoms: N_5  and  C_2 
REMARK    2  A    between atoms: O_13  and  C_3 
REMARK    3  A    between atoms: C_7  and  N_5 
REMARK    4  A    between atoms: C_9  and  O_13 
REMARK    5  A    between atoms: C_14  and  C_10 
ROOT
ATOM      1  C   UNL d   1      -0.575   2.397  -0.068  0.00  0.00     0.280 C 
ATOM      2  N   UNL d   1      -1.887   2.849  -0.059  0.00  0.00    -0.321 N 
ATOM      3  O   UNL d   1      -0.268   1.204  -0.043  0.00  0.00    -0.265 OA
ATOM      4  H   UNL d   1      -2.030   3.797  -0.383  0.00  0.00     0.169 HD
ENDROOT
BRANCH   1   5
ATOM      5  C   UNL d   1       0.451   3.412  -0.180  0.00  0.00     0.146 A 
ATOM      6  O   UNL d   1       0.166   4.752  -0.099  0.00  0.00    -0.282 OA
ATOM      7  C   UNL d   1       1.359   5.412  -0.213  0.00  0.00     0.191 A 
ATOM      8  C   UNL d   1       2.397   4.510  -0.331  0.00  0.00     0.067 A 
ATOM      9  C   UNL d   1       1.810   3.233  -0.356  0.00  0.00     0.048 A 
BRANCH   7  10
ATOM     10  O   UNL d   1       1.266   6.743  -0.203  0.00  0.00    -0.288 OA
BRANCH  10  11
ATOM     11  C   UNL d   1       2.268   7.496  -0.780  0.00  0.00     0.081 A 
ATOM     12  C   UNL d   1       2.833   7.152  -2.013  0.00  0.00     0.061 A 
ATOM     13  C   UNL d   1       3.857   7.929  -2.549  0.00  0.00     0.038 A 
ATOM     14 CL   UNL d   1       4.591   7.455  -4.031  0.00  0.00    -0.084 Cl
ATOM     15  C   UNL d   1       4.293   9.075  -1.893  0.00  0.00     0.048 A 
ATOM     16  C   UNL d   1       3.691   9.440  -0.689  0.00  0.00     0.038 A 
ATOM     17  C   UNL d   1       2.680   8.658  -0.126  0.00  0.00     0.061 A 
ATOM     18 CL   UNL d   1       4.207  10.875   0.110  0.00  0.00    -0.084 Cl
ENDBRANCH  10  11
ENDBRANCH   7  10
ENDBRANCH   1   5
BRANCH   2  19
ATOM     19  C   UNL d   1      -2.985   1.958   0.003  0.00  0.00     0.041 A 
ATOM     20  C   UNL d   1      -4.121   2.129  -0.796  0.00  0.00    -0.035 A 
ATOM     21  C   UNL d   1      -5.122   1.126  -0.778  0.00  0.00     0.017 A 
ATOM     22  C   UNL d   1      -4.294   3.248  -1.785  0.00  0.00     0.050 C 
ATOM     23  C   UNL d   1      -5.031  -0.032   0.022  0.00  0.00    -0.050 A 
ATOM     24  C   UNL d   1      -3.937  -0.109   0.889  0.00  0.00     0.010 A 
ATOM     25  C   UNL d   1      -2.931   0.861   0.871  0.00  0.00     0.030 A 
BRANCH  23  26
ATOM     26  C   UNL d   1      -6.085  -1.154  -0.045  0.00  0.00    -0.024 C 
ATOM     27  C   UNL d   1      -7.251  -0.796   0.893  0.00  0.00     0.019 C 
ATOM     28  C   UNL d   1      -6.635  -1.348  -1.477  0.00  0.00     0.019 C 
ATOM     29  C   UNL d   1      -5.521  -2.532   0.383  0.00  0.00     0.019 C 
ENDBRANCH  23  26
ENDBRANCH   2  19
TORSDOF 5
