REMARK  4 active torsions:
REMARK  status: ('A' for Active; 'I' for Inactive)
REMARK    1  A    between atoms: C_2  and  S_1 
REMARK    2  A    between atoms: C_10  and  S_1 
REMARK    3  A    between atoms: N_3  and  C_12 
REMARK    4  A    between atoms: C_15  and  C_4 
ROOT
ATOM      1  C   UNL d   1      -0.462  -2.244  -2.611  0.00  0.00     0.140 C 
ATOM      2  C   UNL d   1      -0.238  -2.286  -1.285  0.00  0.00     0.046 C 
ATOM      3  C   UNL d   1       0.494  -1.592  -3.449  0.00  0.00     0.111 C 
ATOM      4  N   UNL d   1       1.321  -1.082  -4.076  0.00  0.00    -0.191 NA
ENDROOT
BRANCH   1   5
ATOM      5  S   UNL d   1      -1.905  -2.802  -3.398  0.00  0.00     0.193 S 
ATOM      6  O   UNL d   1      -2.125  -1.963  -4.566  0.00  0.00    -0.221 OA
ATOM      7  O   UNL d   1      -2.983  -2.920  -2.431  0.00  0.00    -0.221 OA
BRANCH   5   8
ATOM      8  C   UNL d   1      -1.539  -4.480  -4.025  0.00  0.00     0.058 C 
ATOM      9  C   UNL d   1      -1.359  -5.473  -2.873  0.00  0.00     0.031 C 
ATOM     10  C   UNL d   1      -2.754  -4.935  -4.860  0.00  0.00     0.031 C 
ATOM     11  C   UNL d   1      -0.281  -4.502  -4.908  0.00  0.00     0.031 C 
ENDBRANCH   5   8
ENDBRANCH   1   5
BRANCH   2  12
ATOM     12  C   UNL d   1      -0.974  -2.805  -0.123  0.00  0.00    -0.034 C 
ATOM     13  C   UNL d   1      -0.658  -4.058   0.402  0.00  0.00     0.014 C 
ATOM     14  C   UNL d   1      -1.088  -4.434   1.685  0.00  0.00     0.031 C 
ATOM     15  C   UNL d   1      -1.766  -3.533   2.511  0.00  0.00     0.039 C 
ATOM     16  C   UNL d   1      -2.151  -2.305   1.948  0.00  0.00     0.031 C 
ATOM     17  C   UNL d   1      -1.783  -1.956   0.633  0.00  0.00     0.014 C 
BRANCH  15  18
ATOM     18  N   UNL d   1      -1.979  -3.809   3.915  0.00  0.00    -0.320 N 
ATOM     19  C   UNL d   1      -3.018  -3.307   4.717  0.00  0.00     0.013 A 
ATOM     20  C   UNL d   1      -2.779  -3.653   6.033  0.00  0.00     0.027 A 
ATOM     21  C   UNL d   1      -4.236  -2.581   4.254  0.00  0.00     0.068 C 
ATOM     22  C   UNL d   1      -1.639  -4.455   6.063  0.00  0.00     0.027 A 
ATOM     23  C   UNL d   1      -1.148  -4.561   4.772  0.00  0.00     0.013 A 
ATOM     24  C   UNL d   1       0.120  -5.282   4.455  0.00  0.00     0.068 C 
ENDBRANCH  15  18
ENDBRANCH   2  12
TORSDOF 4
