REMARK  2 active torsions:
REMARK  status: ('A' for Active; 'I' for Inactive)
REMARK    1  A    between atoms: C_7  and  C_1 
REMARK       I    between atoms: N_11  and  C_7 
REMARK    2  A    between atoms: N_15  and  N_11 
ROOT
ATOM      1  C   UNL d   1       1.655  -1.154   0.008  0.00  0.00     0.132 A 
ATOM      2  N   UNL d   1       0.333  -0.731   0.008  0.00  0.00    -0.302 N 
ATOM      3  N   UNL d   1       1.580   1.126  -0.082  0.00  0.00    -0.344 N 
ATOM      4  HN  UNL d   1       1.867   2.103  -0.138  1.00  0.00     0.167 HD
ATOM      5  C   UNL d   1       2.397   0.024  -0.039  0.00  0.00     0.040 A 
ATOM      6  C   UNL d   1       0.353   0.661  -0.038  0.00  0.00     0.112 A 
ATOM      7  C   UNL d   1      -0.861  -1.462   0.023  0.00  0.00     0.099 A 
ATOM      8  C   UNL d   1      -0.897   1.342  -0.031  0.00  0.00     0.049 A 
ATOM      9  C   UNL d   1      -2.040  -0.814   0.011  0.00  0.00     0.018 A 
ATOM     10  C   UNL d   1      -2.045   0.639  -0.007  0.00  0.00     0.005 A 
ATOM     11  C   UNL d   1       3.865   0.234   0.006  0.00  0.00     0.071 C 
ENDROOT
BRANCH   1  12
ATOM     12  C   UNL d   1       2.076  -2.531   0.097  0.00  0.00     0.284 C 
ATOM     13  O   UNL d   1       1.422  -3.414   0.653  0.00  0.00    -0.265 OA
ATOM     14  N   UNL d   1       3.292  -2.824  -0.520  0.00  0.00    -0.288 N 
ATOM     15  H   UNL d   1       3.675  -2.164  -1.191  0.00  0.00     0.183 HD
BRANCH  14  16
ATOM     16  N   UNL d   1       3.752  -4.163  -0.568  0.00  0.00    -0.247 NA
ATOM     17  H   UNL d   1       3.001  -4.751  -0.175  0.00  0.00     0.143 HD
ATOM     18  H   UNL d   1       4.516  -4.257   0.106  0.00  0.00     0.143 HD
ENDBRANCH  14  16
ENDBRANCH   1  12
TORSDOF 2
