REMARK  9 active torsions:
REMARK  status: ('A' for Active; 'I' for Inactive)
REMARK    1  A    between atoms: C_7  and  C_1 
REMARK    2  A    between atoms: O_6  and  N_2 
REMARK    3  A    between atoms: C_4  and  C_9 
REMARK    4  A    between atoms: N_21  and  C_4 
REMARK    5  A    between atoms: C_5  and  O_6 
REMARK    6  A    between atoms: C_8  and  C_5 
REMARK    7  A    between atoms: C_10  and  C_8 
REMARK    8  A    between atoms: C_25  and  C_22 
REMARK    9  A    between atoms: C_27  and  C_25 
ROOT
ATOM      1  N   UNL d   1      -0.045   1.016   4.934  0.00  0.00    -0.246 N 
ATOM      2  HN  UNL d   1       0.896   1.028   5.326  1.00  0.00     0.196 HD
ATOM      3  C   UNL d   1      -0.314   0.644   3.718  0.00  0.00     0.109 C 
ENDROOT
BRANCH   1   4
ATOM      4  O   UNL d   1      -1.200   1.401   5.653  0.00  0.00    -0.198 OA
BRANCH   4   5
ATOM      5  C   UNL d   1      -0.879   2.461   6.463  0.00  0.00     0.289 C 
ATOM      6  O   UNL d   1      -0.198   3.425   6.113  0.00  0.00    -0.262 OA
BRANCH   5   7
ATOM      7  C   UNL d   1      -1.474   2.328   7.858  0.00  0.00     0.116 C 
ATOM      8  C   UNL d   1      -1.399   0.900   8.403  0.00  0.00     0.025 C 
BRANCH   7   9
ATOM      9  C   UNL d   1      -2.868   2.909   8.021  0.00  0.00    -0.045 A 
ATOM     10  C   UNL d   1      -3.967   2.429   7.297  0.00  0.00     0.008 A 
ATOM     11  C   UNL d   1      -5.255   2.922   7.544  0.00  0.00     0.007 A 
ATOM     12  C   UNL d   1      -5.476   3.903   8.520  0.00  0.00    -0.058 A 
ATOM     13  C   UNL d   1      -4.380   4.384   9.243  0.00  0.00     0.007 A 
ATOM     14  C   UNL d   1      -3.093   3.897   8.992  0.00  0.00     0.008 A 
BRANCH  12  15
ATOM     15  C   UNL d   1      -6.877   4.393   8.813  0.00  0.00     0.042 C 
BRANCH  15  16
ATOM     16  C   UNL d   1      -7.086   5.911   8.641  0.00  0.00    -0.019 C 
ATOM     17  C   UNL d   1      -6.838   6.366   7.201  0.00  0.00     0.010 C 
ATOM     18  C   UNL d   1      -8.509   6.291   9.060  0.00  0.00     0.010 C 
ENDBRANCH  15  16
ENDBRANCH  12  15
ENDBRANCH   7   9
ENDBRANCH   5   7
ENDBRANCH   4   5
ENDBRANCH   1   4
BRANCH   3  19
ATOM     19  C   UNL d   1       0.815   0.092   2.894  0.00  0.00     0.004 A 
ATOM     20  C   UNL d   1       0.561  -0.798   1.843  0.00  0.00     0.015 A 
ATOM     21  C   UNL d   1       1.621  -1.339   1.107  0.00  0.00     0.017 A 
ATOM     22  C   UNL d   1       2.951  -0.998   1.407  0.00  0.00     0.048 A 
ATOM     23  C   UNL d   1       3.197  -0.102   2.457  0.00  0.00     0.017 A 
ATOM     24  C   UNL d   1       2.137   0.435   3.198  0.00  0.00     0.015 A 
BRANCH  22  25
ATOM     25  C   UNL d   1       4.084  -1.607   0.614  0.00  0.00     0.417 C 
ATOM     26  F   UNL d   1       5.316  -1.166   0.991  0.00  0.00    -0.166 F 
ATOM     27  F   UNL d   1       3.986  -1.345  -0.719  0.00  0.00    -0.166 F 
ATOM     28  F   UNL d   1       4.124  -2.964   0.724  0.00  0.00    -0.166 F 
ENDBRANCH  22  25
ENDBRANCH   3  19
BRANCH   3  29
ATOM     29  N   UNL d   1      -1.561   0.746   3.143  0.00  0.00    -0.286 NA
ATOM     30  H   UNL d   1      -2.154   1.393   3.652  0.00  0.00     0.125 HD
ATOM     31  H   UNL d   1      -1.556   0.960   2.151  0.00  0.00     0.125 HD
ENDBRANCH   3  29
TORSDOF 9
