REMARK  2 active torsions:
REMARK  status: ('A' for Active; 'I' for Inactive)
REMARK    1  A    between atoms: C_8  and  O_18 
REMARK    2  A    between atoms: O_20  and  C_17 
ROOT
ATOM      1  C   UNL d   1      -0.785  -0.539  -0.204  0.00  0.00    -0.009 C 
ATOM      2  C   UNL d   1      -0.243  -1.541  -3.081  0.00  0.00     0.024 C 
ATOM      3  C   UNL d   1      -0.193   0.311  -1.373  0.00  0.00     0.001 C 
ATOM      4  C   UNL d   1      -0.957  -2.241  -4.229  0.00  0.00    -0.041 C 
ATOM      5  C   UNL d   1      -0.693  -0.081  -2.796  0.00  0.00    -0.001 C 
ATOM      6  C   UNL d   1      -2.273  -1.868  -4.546  0.00  0.00    -0.048 C 
ATOM      7  C   UNL d   1      -0.407  -3.402  -4.821  0.00  0.00    -0.052 C 
ATOM      8  C   UNL d   1      -1.891   0.378   0.469  0.00  0.00     0.062 C 
ATOM      9  C   UNL d   1      -1.263  -1.915  -0.721  0.00  0.00     0.013 C 
ATOM     10  C   UNL d   1      -0.343  -2.457  -1.821  0.00  0.00     0.010 C 
ATOM     11  C   UNL d   1      -2.188   0.153  -3.038  0.00  0.00     0.010 C 
ATOM     12  C   UNL d   1      -0.411   1.762  -0.942  0.00  0.00     0.009 C 
ATOM     13  C   UNL d   1      -3.115  -2.793  -5.172  0.00  0.00     0.044 C 
ATOM     14  C   UNL d   1      -1.265  -4.315  -5.442  0.00  0.00     0.044 C 
ATOM     15  C   UNL d   1      -2.727  -0.455  -4.321  0.00  0.00     0.039 C 
ATOM     16  C   UNL d   1      -1.709   1.784  -0.147  0.00  0.00     0.038 C 
ATOM     17  C   UNL d   1      -2.626  -4.048  -5.523  0.00  0.00     0.069 C 
ATOM     18  C   UNL d   1       0.370  -0.819   0.807  0.00  0.00     0.018 C 
ATOM     19  C   UNL d   1       1.064  -3.707  -4.759  0.00  0.00     0.049 C 
ATOM     20  C   UNL d   1      -3.361  -0.044   0.372  0.00  0.00     0.046 C 
ENDROOT
BRANCH   8  21
ATOM     21  O   UNL d   1      -1.680   0.465   1.888  0.00  0.00    -0.389 OA
ATOM     22  H   UNL d   1      -0.920   1.052   2.055  0.00  0.00     0.210 HD
ENDBRANCH   8  21
BRANCH  17  23
ATOM     23  O   UNL d   1      -3.442  -5.041  -5.990  0.00  0.00    -0.356 OA
ATOM     24  C   UNL d   1      -4.405  -5.409  -4.997  0.00  0.00     0.210 C 
ENDBRANCH  17  23
TORSDOF 2
