REMARK  6 active torsions:
REMARK  status: ('A' for Active; 'I' for Inactive)
REMARK    1  A    between atoms: C_12  and  C_2 
REMARK    2  A    between atoms: O_11  and  N_5 
REMARK    3  A    between atoms: C_7  and  C_14 
REMARK    4  A    between atoms: N_20  and  C_7 
REMARK    5  A    between atoms: C_8  and  O_11 
REMARK    6  A    between atoms: C_13  and  C_8 
ROOT
ATOM      1  N   UNL d   1       6.864  -4.084   0.871  0.00  0.00    -0.246 N 
ATOM      2  HN  UNL d   1       7.723  -4.631   0.810  1.00  0.00     0.196 HD
ATOM      3  C   UNL d   1       5.895  -4.168   0.006  0.00  0.00     0.109 C 
ENDROOT
BRANCH   3   4
ATOM      4  C   UNL d   1       6.071  -5.136  -1.138  0.00  0.00     0.004 A 
ATOM      5  C   UNL d   1       7.265  -5.863  -1.243  0.00  0.00     0.015 A 
ATOM      6  C   UNL d   1       7.462  -6.778  -2.285  0.00  0.00     0.014 A 
ATOM      7  C   UNL d   1       6.468  -6.984  -3.249  0.00  0.00    -0.008 A 
ATOM      8  C   UNL d   1       5.279  -6.249  -3.151  0.00  0.00     0.014 A 
ATOM      9  C   UNL d   1       5.075  -5.340  -2.101  0.00  0.00     0.015 A 
BRANCH   7  10
ATOM     10  C   UNL d   1       6.649  -7.931  -4.344  0.00  0.00     0.063 A 
ATOM     11  N   UNL d   1       6.014  -7.749  -5.569  0.00  0.00    -0.292 N 
ATOM     12  N   UNL d   1       6.308  -8.710  -6.428  0.00  0.00    -0.061 NA
ATOM     13  HN  UNL d   1       5.394  -6.966  -5.779  1.00  0.00     0.183 HD
ATOM     14  S   UNL d   1       7.333  -9.865  -5.787  0.00  0.00    -0.010 SA
ATOM     15  C   UNL d   1       7.425  -9.076  -4.266  0.00  0.00     0.096 A 
ENDBRANCH   7  10
ENDBRANCH   3   4
BRANCH   3  16
ATOM     16  N   UNL d   1       4.747  -3.414   0.095  0.00  0.00    -0.286 NA
ATOM     17  H   UNL d   1       4.834  -2.659   0.766  0.00  0.00     0.125 HD
ATOM     18  H   UNL d   1       4.346  -3.099  -0.780  0.00  0.00     0.125 HD
ENDBRANCH   3  16
BRANCH   1  19
ATOM     19  O   UNL d   1       6.600  -3.158   1.902  0.00  0.00    -0.198 OA
BRANCH  19  20
ATOM     20  C   UNL d   1       7.700  -3.064   2.724  0.00  0.00     0.288 C 
ATOM     21  O   UNL d   1       8.770  -3.645   2.562  0.00  0.00    -0.262 OA
BRANCH  20  22
ATOM     22  C   UNL d   1       7.443  -2.141   3.926  0.00  0.00     0.039 C 
ATOM     23  C   UNL d   1       6.101  -1.398   3.857  0.00  0.00     0.025 C 
ATOM     24  C   UNL d   1       7.476  -3.007   5.194  0.00  0.00     0.025 C 
ATOM     25  C   UNL d   1       8.576  -1.104   3.985  0.00  0.00     0.025 C 
ENDBRANCH  20  22
ENDBRANCH  19  20
ENDBRANCH   1  19
TORSDOF 6
