REMARK  4 active torsions:
REMARK  status: ('A' for Active; 'I' for Inactive)
REMARK    1  A    between atoms: C_11  and  C_1 
REMARK    2  A    between atoms: C_3  and  C_2 
REMARK    3  A    between atoms: C_17  and  C_10 
REMARK    4  A    between atoms: C_14  and  C_16 
ROOT
ATOM      1  C   UNL d   1       0.435  -2.723  -0.025  0.00  0.00     0.179 A 
ATOM      2  O   UNL d   1       1.335  -3.254   0.859  0.00  0.00    -0.272 OA
ATOM      3  N   UNL d   1      -0.044  -3.644  -0.838  0.00  0.00    -0.277 N 
ATOM      4  HN  UNL d   1      -0.724  -3.499  -1.585  1.00  0.00     0.189 HD
ATOM      5  N   UNL d   1       0.546  -4.843  -0.488  0.00  0.00    -0.277 N 
ATOM      6  HN  UNL d   1       0.392  -5.751  -0.925  1.00  0.00     0.189 HD
ATOM      7  C   UNL d   1       1.347  -4.578   0.523  0.00  0.00     0.174 A 
ENDROOT
BRANCH   1   8
ATOM      8  C   UNL d   1       0.039  -1.297  -0.039  0.00  0.00     0.082 A 
ATOM      9  C   UNL d   1       0.561  -0.296   0.752  0.00  0.00     0.198 A 
ATOM     10  O   UNL d   1      -0.082   0.867   0.454  0.00  0.00    -0.232 OA
ATOM     11  N   UNL d   1      -1.019   0.648  -0.531  0.00  0.00    -0.264 N 
ATOM     12  C   UNL d   1      -0.945  -0.656  -0.832  0.00  0.00     0.046 A 
ATOM     13  HN  UNL d   1      -1.643   1.338  -0.947  1.00  0.00     0.194 HD
ATOM     14  C   UNL d   1      -1.858  -1.199  -1.867  0.00  0.00     0.071 C 
BRANCH   9  15
ATOM     15  C   UNL d   1       1.593  -0.172   1.795  0.00  0.00     0.442 C 
ATOM     16  F   UNL d   1       2.338  -1.294   1.965  0.00  0.00    -0.164 F 
ATOM     17  F   UNL d   1       2.476   0.822   1.516  0.00  0.00    -0.164 F 
ATOM     18  F   UNL d   1       1.053   0.113   3.008  0.00  0.00    -0.164 F 
ENDBRANCH   9  15
ENDBRANCH   1   8
BRANCH   7  19
ATOM     19  C   UNL d   1       2.176  -5.457   1.336  0.00  0.00     0.017 A 
ATOM     20  C   UNL d   1       2.179  -6.840   1.093  0.00  0.00     0.032 A 
ATOM     21  C   UNL d   1       2.936  -7.717   1.889  0.00  0.00     0.048 A 
ATOM     22  C   UNL d   1       3.706  -7.188   2.936  0.00  0.00     0.016 A 
ATOM     23  C   UNL d   1       3.720  -5.817   3.181  0.00  0.00     0.002 A 
ATOM     24  C   UNL d   1       2.960  -4.957   2.385  0.00  0.00     0.016 A 
BRANCH  21  25
ATOM     25  C   UNL d   1       2.926  -9.205   1.640  0.00  0.00     0.417 C 
ATOM     26  F   UNL d   1       2.138  -9.578   0.595  0.00  0.00    -0.166 F 
ATOM     27  F   UNL d   1       4.167  -9.694   1.367  0.00  0.00    -0.166 F 
ATOM     28  F   UNL d   1       2.476  -9.906   2.717  0.00  0.00    -0.166 F 
ENDBRANCH  21  25
ENDBRANCH   7  19
TORSDOF 4
