REMARK  7 active torsions:
REMARK  status: ('A' for Active; 'I' for Inactive)
REMARK    1  A    between atoms: N_3  and  C_1 
REMARK    2  A    between atoms: N_4  and  C_1 
REMARK    3  A    between atoms: C_2  and  N_3 
REMARK    4  A    between atoms: C_7  and  N_4 
REMARK    5  A    between atoms: C_18  and  C_5 
REMARK    6  A    between atoms: C_19  and  C_6 
REMARK    7  A    between atoms: C_20  and  C_13 
ROOT
ATOM      1  N   UNL d   1       0.463   0.675   0.888  0.00  0.00    -0.332 N 
ATOM      2  H   UNL d   1      -0.534   0.669   1.075  0.00  0.00     0.168 HD
ENDROOT
BRANCH   1   3
ATOM      3  C   UNL d   1       1.166   1.674   1.595  0.00  0.00     0.047 A 
ATOM      4  C   UNL d   1       2.165   2.500   1.023  0.00  0.00    -0.031 A 
ATOM      5  C   UNL d   1       2.699   3.540   1.813  0.00  0.00     0.016 A 
ATOM      6  C   UNL d   1       2.218   3.829   3.095  0.00  0.00    -0.057 A 
ATOM      7  C   UNL d   1       1.218   3.025   3.634  0.00  0.00     0.016 A 
ATOM      8  C   UNL d   1       0.693   1.943   2.909  0.00  0.00    -0.031 A 
BRANCH   4   9
ATOM      9  C   UNL d   1       2.670   2.351  -0.399  0.00  0.00     0.036 C 
ATOM     10  C   UNL d   1       3.159   3.599  -1.127  0.00  0.00     0.010 C 
ENDBRANCH   4   9
BRANCH   6  11
ATOM     11  C   UNL d   1       2.791   4.976   3.886  0.00  0.00     0.034 C 
ATOM     12  C   UNL d   1       3.992   4.543   4.712  0.00  0.00     0.010 C 
ENDBRANCH   6  11
BRANCH   8  13
ATOM     13  C   UNL d   1      -0.334   1.074   3.614  0.00  0.00     0.036 C 
ATOM     14  C   UNL d   1      -1.764   1.563   3.434  0.00  0.00     0.010 C 
ENDBRANCH   8  13
ENDBRANCH   1   3
BRANCH   1  15
ATOM     15  C   UNL d   1       0.773  -0.209  -0.101  0.00  0.00     0.176 C 
ATOM     16  S   UNL d   1      -0.530  -0.649  -1.069  0.00  0.00    -0.041 SA
BRANCH  15  17
ATOM     17  N   UNL d   1       2.061  -0.693  -0.137  0.00  0.00    -0.332 N 
ATOM     18  H   UNL d   1       2.768  -0.101   0.282  0.00  0.00     0.168 HD
BRANCH  17  19
ATOM     19  C   UNL d   1       2.558  -1.807  -0.872  0.00  0.00     0.056 A 
ATOM     20  C   UNL d   1       3.870  -1.813  -1.378  0.00  0.00     0.061 A 
ATOM     21  C   UNL d   1       4.329  -2.884  -2.165  0.00  0.00     0.033 A 
ATOM     22 CL   UNL d   1       4.964  -0.506  -1.118  0.00  0.00    -0.082 Cl
ATOM     23  C   UNL d   1       3.509  -3.990  -2.410  0.00  0.00    -0.060 A 
ATOM     24  C   UNL d   1       2.241  -4.025  -1.835  0.00  0.00     0.009 A 
ATOM     25  C   UNL d   1       3.984  -5.109  -3.289  0.00  0.00     0.048 C 
ATOM     26  C   UNL d   1       1.780  -2.952  -1.069  0.00  0.00     0.032 A 
ENDBRANCH  17  19
ENDBRANCH  15  17
ENDBRANCH   1  15
TORSDOF 7
