REMARK  4 active torsions:
REMARK  status: ('A' for Active; 'I' for Inactive)
REMARK    1  A    between atoms: C_2  and  N_1 
REMARK    2  A    between atoms: O_9  and  C_8 
REMARK    3  A    between atoms: C_11  and  O_9 
REMARK    4  A    between atoms: C_12  and  C_11 
ROOT
ATOM      1  C   UNL d   1       0.298  -1.059   0.623  0.00  0.00     0.108 A 
ATOM      2  C   UNL d   1       0.743  -1.282   1.934  0.00  0.00    -0.026 A 
ATOM      3  C   UNL d   1      -0.822  -1.722   0.100  0.00  0.00     0.039 A 
ATOM      4  C   UNL d   1       0.012  -2.196   2.715  0.00  0.00     0.046 A 
ATOM      5  C   UNL d   1      -1.112  -2.864   2.208  0.00  0.00     0.069 A 
ATOM      6  C   UNL d   1      -1.524  -2.629   0.898  0.00  0.00     0.039 A 
ATOM      7  C   UNL d   1       1.933  -0.614   2.563  0.00  0.00     0.050 C 
ENDROOT
BRANCH   5   8
ATOM      8  O   UNL d   1      -1.770  -3.655   3.109  0.00  0.00    -0.347 OA
BRANCH   8   9
ATOM      9  C   UNL d   1      -2.451  -4.805   2.600  0.00  0.00     0.214 C 
BRANCH   9  10
ATOM     10  C   UNL d   1      -3.912  -4.574   2.275  0.00  0.00    -0.034 A 
ATOM     11  C   UNL d   1      -4.544  -5.393   1.325  0.00  0.00     0.009 A 
ATOM     12  C   UNL d   1      -5.907  -5.255   1.059  0.00  0.00     0.001 A 
ATOM     13  C   UNL d   1      -6.657  -4.300   1.742  0.00  0.00     0.000 A 
ATOM     14  C   UNL d   1      -6.042  -3.480   2.687  0.00  0.00     0.001 A 
ATOM     15  C   UNL d   1      -4.679  -3.619   2.956  0.00  0.00     0.009 A 
ENDBRANCH   9  10
ENDBRANCH   8   9
ENDBRANCH   5   8
BRANCH   1  16
ATOM     16  N   UNL d   1       0.961  -0.103  -0.248  0.00  0.00    -0.115 N 
ATOM     17  O   UNL d   1       2.146  -0.322  -0.537  0.00  0.00    -0.532 OA
ATOM     18  O   UNL d   1       0.283   0.849  -0.661  0.00  0.00    -0.532 OA
ENDBRANCH   1  16
TORSDOF 4
