REMARK  4 active torsions:
REMARK  status: ('A' for Active; 'I' for Inactive)
REMARK    1  A    between atoms: C_7  and  C_3 
REMARK    2  A    between atoms: O_14  and  C_8 
REMARK    3  A    between atoms: O_15  and  C_9 
REMARK    4  A    between atoms: O_16  and  C_10 
ROOT
ATOM      1  C   UNL d   1      -3.822  -1.337   0.124  0.00  0.00    -0.013 A 
ATOM      2  C   UNL d   1      -6.205  -2.800  -0.408  0.00  0.00     0.135 A 
ATOM      3  C   UNL d   1      -5.335  -2.434  -1.464  0.00  0.00     0.104 A 
ATOM      4  C   UNL d   1      -5.878  -2.405   0.909  0.00  0.00     0.104 A 
ATOM      5  C   UNL d   1      -4.164  -1.708  -1.184  0.00  0.00     0.050 A 
ATOM      6  C   UNL d   1      -4.702  -1.679   1.154  0.00  0.00     0.050 A 
ENDROOT
BRANCH   1   7
ATOM      7  C   UNL d   1      -2.478  -0.709   0.452  0.00  0.00     0.232 C 
ATOM      8  O   UNL d   1      -2.055   0.112  -0.643  0.00  0.00    -0.296 OA
ATOM      9  C   UNL d   1      -0.901   0.808  -0.540  0.00  0.00     0.296 C 
ATOM     10  C   UNL d   1       0.255   0.158   0.139  0.00  0.00     0.056 A 
ATOM     11  O   UNL d   1      -0.775   1.905  -1.072  0.00  0.00    -0.259 OA
ATOM     12  C   UNL d   1       0.181  -1.105   0.730  0.00  0.00     0.019 A 
ATOM     13  C   UNL d   1       1.491   0.827   0.108  0.00  0.00     0.019 A 
ATOM     14  S   UNL d   1      -1.311  -2.046   0.820  0.00  0.00    -0.091 SA
ATOM     15  C   UNL d   1       1.336  -1.688   1.271  0.00  0.00     0.019 A 
ATOM     16  C   UNL d   1       2.559  -1.020   1.228  0.00  0.00     0.001 A 
ATOM     17  C   UNL d   1       2.637   0.240   0.648  0.00  0.00     0.001 A 
ENDBRANCH   1   7
BRANCH   3  18
ATOM     18  O   UNL d   1      -5.656  -2.825  -2.740  0.00  0.00    -0.353 OA
ATOM     19  C   UNL d   1      -4.792  -2.466  -3.810  0.00  0.00     0.210 C 
ENDBRANCH   3  18
BRANCH   4  20
ATOM     20  O   UNL d   1      -6.558  -2.643   2.079  0.00  0.00    -0.353 OA
ATOM     21  C   UNL d   1      -7.728  -3.443   2.062  0.00  0.00     0.210 C 
ENDBRANCH   4  20
BRANCH   2  22
ATOM     22  O   UNL d   1      -7.366  -3.517  -0.540  0.00  0.00    -0.351 OA
ATOM     23  C   UNL d   1      -7.770  -4.037  -1.795  0.00  0.00     0.210 C 
ENDBRANCH   2  22
TORSDOF 4
