REMARK  1 active torsions:
REMARK  status: ('A' for Active; 'I' for Inactive)
REMARK    1  A    between atoms: C_11  and  C_5 
ROOT
ATOM      1  N   UNL d   1      -1.445  -1.101  -0.290  0.00  0.00    -0.339 N 
ATOM      2  HN  UNL d   1      -1.732  -2.075  -0.386  1.00  0.00     0.167 HD
ATOM      3  C   UNL d   1      -0.165  -0.632  -0.203  0.00  0.00     0.068 A 
ATOM      4  C   UNL d   1      -0.148   0.752  -0.169  0.00  0.00     0.068 A 
ATOM      5  C   UNL d   1      -2.235  -0.051  -0.226  0.00  0.00     0.116 A 
ATOM      6  N   UNL d   1      -1.483   1.096  -0.212  0.00  0.00    -0.339 N 
ATOM      7  C   UNL d   1       1.021  -1.381  -0.122  0.00  0.00    -0.026 A 
ATOM      8  C   UNL d   1       1.029   1.510  -0.082  0.00  0.00    -0.026 A 
ATOM      9  C   UNL d   1       2.243  -0.665  -0.045  0.00  0.00    -0.047 A 
ATOM     10  C   UNL d   1       2.244   0.762  -0.035  0.00  0.00    -0.047 A 
ATOM     11  C   UNL d   1       0.952  -2.884  -0.090  0.00  0.00     0.051 C 
ATOM     12  C   UNL d   1       1.022   3.012  -0.030  0.00  0.00     0.051 C 
ATOM     13  C   UNL d   1       3.546   1.535   0.044  0.00  0.00     0.049 C 
ATOM     14  C   UNL d   1       3.547  -1.425   0.033  0.00  0.00     0.049 C 
ATOM     15  H   UNL d   1      -1.848   2.038  -0.189  0.00  0.00     0.167 HD
ENDROOT
BRANCH   5  16
ATOM     16  C   UNL d   1      -3.689  -0.149  -0.115  0.00  0.00     0.011 A 
ATOM     17  C   UNL d   1      -4.286  -1.368  -0.486  0.00  0.00     0.055 A 
ATOM     18  C   UNL d   1      -5.620  -1.556  -0.215  0.00  0.00     0.105 A 
ATOM     19  O   UNL d   1      -6.321  -2.697  -0.448  0.00  0.00    -0.323 OA
ATOM     20  C   UNL d   1      -6.378  -0.580   0.383  0.00  0.00     0.105 A 
ATOM     21  C   UNL d   1      -7.584  -2.360   0.157  0.00  0.00     0.352 A 
ATOM     22  O   UNL d   1      -7.654  -0.991   0.612  0.00  0.00    -0.323 OA
ATOM     23  C   UNL d   1      -5.845   0.645   0.720  0.00  0.00     0.040 A 
ATOM     24  C   UNL d   1      -4.482   0.862   0.469  0.00  0.00     0.018 A 
ENDBRANCH   5  16
TORSDOF 1
