REMARK  6 active torsions:
REMARK  status: ('A' for Active; 'I' for Inactive)
REMARK    1  A    between atoms: C_2  and  C_1 
REMARK    2  A    between atoms: C_4  and  C_1 
REMARK    3  A    between atoms: C_3  and  C_2 
REMARK    4  A    between atoms: C_5  and  C_4 
REMARK    5  A    between atoms: C_12  and  C_4 
REMARK    6  A    between atoms: O_13  and  C_5 
ROOT
ATOM      1  C   UNL d   1       2.575  -0.229   0.045  0.00  0.00     0.123 C 
ENDROOT
BRANCH   1   2
ATOM      2  C   UNL d   1       1.068  -0.177  -0.245  0.00  0.00     0.104 C 
BRANCH   2   3
ATOM      3  C   UNL d   1       0.210  -0.093   1.006  0.00  0.00     0.167 C 
ATOM      4  O   UNL d   1       0.729   0.269   2.069  0.00  0.00    -0.292 OA
BRANCH   3   5
ATOM      5  C   UNL d   1      -1.181  -0.514   0.910  0.00  0.00     0.050 A 
ATOM      6  S   UNL d   1      -1.995  -0.631  -0.595  0.00  0.00    -0.098 SA
ATOM      7  C   UNL d   1      -3.403  -1.264   0.133  0.00  0.00     0.050 A 
ATOM      8  C   UNL d   1      -3.287  -1.331   1.502  0.00  0.00     0.009 A 
ATOM      9  C   UNL d   1      -2.015  -0.869   1.954  0.00  0.00     0.023 A 
ENDBRANCH   3   5
ENDBRANCH   2   3
ENDBRANCH   1   2
BRANCH   1  10
ATOM     10  C   UNL d   1       2.943  -1.493   0.832  0.00  0.00     0.148 C 
ATOM     11  O   UNL d   1       3.440  -2.503   0.356  0.00  0.00    -0.649 OA
BRANCH  10  12
ATOM     12  O   UNL d   1       2.633  -1.430   2.150  0.00  0.00    -0.776 OA
ATOM     13  H   UNL d   1       2.150  -0.615   2.429  0.00  0.00     0.167 HD
ENDBRANCH  10  12
ENDBRANCH   1  10
BRANCH   1  14
ATOM     14  C   UNL d   1       3.323  -0.123  -1.286  0.00  0.00    -0.043 A 
ATOM     15  C   UNL d   1       4.214   0.934  -1.520  0.00  0.00     0.008 A 
ATOM     16  C   UNL d   1       4.835   1.077  -2.763  0.00  0.00     0.001 A 
ATOM     17  C   UNL d   1       4.574   0.169  -3.789  0.00  0.00     0.000 A 
ATOM     18  C   UNL d   1       3.707  -0.896  -3.567  0.00  0.00     0.001 A 
ATOM     19  C   UNL d   1       3.094  -1.045  -2.324  0.00  0.00     0.008 A 
ENDBRANCH   1  14
TORSDOF 6
