REMARK  1 active torsions:
REMARK  status: ('A' for Active; 'I' for Inactive)
REMARK    1  A    between atoms: C_13  and  C_12 
ROOT
ATOM      1  N   UNL d   1      -0.842   0.966  -0.062  0.00  0.00    -0.196 N 
ATOM      2  C   UNL d   1       0.032  -0.094  -0.029  0.00  0.00     0.177 A 
ATOM      3  N   UNL d   1       1.316  -0.028   0.021  0.00  0.00    -0.300 N 
ATOM      4  HN  UNL d   1       1.912  -0.856   0.041  1.00  0.00     0.171 HD
ATOM      5  N   UNL d   1      -0.422   2.278  -0.038  0.00  0.00    -0.288 N 
ATOM      6  HN  UNL d   1      -1.076   3.059  -0.060  1.00  0.00     0.187 HD
ATOM      7  C   UNL d   1      -2.197   0.667  -0.111  0.00  0.00     0.285 A 
ATOM      8  C   UNL d   1      -2.366  -0.817  -0.106  0.00  0.00     0.079 A 
ATOM      9  S   UNL d   1      -0.829  -1.605  -0.064  0.00  0.00    -0.046 SA
ATOM     10  C   UNL d   1       1.817   1.254   0.046  0.00  0.00     0.271 A 
ATOM     11  C   UNL d   1       0.867   2.452   0.015  0.00  0.00     0.090 A 
ATOM     12  C   UNL d   1      -3.586  -1.374  -0.107  0.00  0.00     0.043 C 
ATOM     13  O   UNL d   1      -3.136   1.452  -0.145  0.00  0.00    -0.265 OA
ATOM     14  O   UNL d   1       3.017   1.489   0.092  0.00  0.00    -0.266 OA
ATOM     15  C   UNL d   1       1.444   3.837   0.049  0.00  0.00     0.076 C 
ENDROOT
BRANCH  12  16
ATOM     16  C   UNL d   1      -3.798  -2.776  -0.029  0.00  0.00     0.006 A 
ATOM     17  S   UNL d   1      -3.953  -3.529   1.511  0.00  0.00    -0.102 SA
ATOM     18  C   UNL d   1      -4.173  -5.073   0.814  0.00  0.00     0.050 A 
ATOM     19  C   UNL d   1      -4.158  -5.025  -0.561  0.00  0.00     0.008 A 
ATOM     20  C   UNL d   1      -3.951  -3.700  -1.047  0.00  0.00     0.019 A 
ENDBRANCH  12  16
TORSDOF 1
