REMARK  3 active torsions:
REMARK  status: ('A' for Active; 'I' for Inactive)
REMARK       I    between atoms: N_3  and  C_1 
REMARK       I    between atoms: N_4  and  C_1 
REMARK       I    between atoms: C_2  and  N_5 
REMARK    1  A    between atoms: O_7  and  C_2 
REMARK    2  A    between atoms: C_6  and  N_4 
REMARK    3  A    between atoms: C_14  and  O_7 
ROOT
ATOM      1  C   UNL d   1       0.742   0.058  -0.053  0.00  0.00     0.323 C 
ATOM      2  C   UNL d   1      -2.784  -1.046  -4.137  0.00  0.00     0.363 C 
ATOM      3  N   UNL d   1       0.162   0.051  -1.322  0.00  0.00    -0.332 N 
ATOM      4  N   UNL d   1       0.428   1.141   0.754  0.00  0.00    -0.308 N 
ATOM      5  N   UNL d   1      -2.161  -1.109  -2.895  0.00  0.00    -0.326 N 
ATOM      6  O   UNL d   1       1.518  -0.837   0.271  0.00  0.00    -0.247 OA
ATOM      7  O   UNL d   1      -3.127   0.009  -4.652  0.00  0.00    -0.238 OA
ATOM      8  C   UNL d   1      -2.254   0.058  -2.011  0.00  0.00     0.148 C 
ATOM      9  C   UNL d   1      -0.958   0.858  -1.821  0.00  0.00     0.147 C 
ATOM     10  C   UNL d   1      -0.041  -2.300  -2.178  0.00  0.00     0.040 C 
ATOM     11  C   UNL d   1       0.657  -0.948  -2.268  0.00  0.00     0.129 C 
ATOM     12  C   UNL d   1      -1.566  -2.318  -2.333  0.00  0.00     0.129 C 
ATOM     13  H   UNL d   1      -0.034   1.907   0.300  0.00  0.00     0.170 HD
ENDROOT
BRANCH   4  14
ATOM     14  C   UNL d   1       1.003   1.449   2.021  0.00  0.00     0.045 A 
ATOM     15  C   UNL d   1       1.797   0.537   2.729  0.00  0.00     0.072 A 
ATOM     16  C   UNL d   1       2.467   0.925   3.887  0.00  0.00     0.118 A 
ATOM     17  F   UNL d   1       3.242   0.039   4.528  0.00  0.00    -0.206 F 
ATOM     18  C   UNL d   1       2.363   2.213   4.379  0.00  0.00     0.043 A 
ATOM     19  C   UNL d   1       1.524   3.116   3.733  0.00  0.00     0.012 A 
ATOM     20  C   UNL d   1       0.812   2.740   2.575  0.00  0.00    -0.035 A 
ATOM     21  C   UNL d   1      -0.117   3.758   1.968  0.00  0.00     0.050 C 
ENDBRANCH   4  14
BRANCH   2  22
ATOM     22  O   UNL d   1      -3.018  -2.273  -4.682  0.00  0.00    -0.294 OA
BRANCH  22  23
ATOM     23  C   UNL d   1      -3.741  -2.407  -5.941  0.00  0.00     0.061 C 
ATOM     24  C   UNL d   1      -2.918  -1.819  -7.092  0.00  0.00     0.046 C 
ATOM     25  C   UNL d   1      -3.900  -3.922  -6.167  0.00  0.00     0.046 C 
ATOM     26  C   UNL d   1      -5.149  -1.798  -5.879  0.00  0.00     0.046 C 
ENDBRANCH  22  23
ENDBRANCH   2  22
TORSDOF 3
