REMARK  3 active torsions:
REMARK  status: ('A' for Active; 'I' for Inactive)
REMARK    1  A    between atoms: C_7  and  C_3 
REMARK    2  A    between atoms: N_12  and  C_5 
REMARK    3  A    between atoms: O_16  and  C_7 
ROOT
ATOM      1  C   UNL d   1      -0.907   0.450  -0.021  0.00  0.00     0.026 A 
ATOM      2  C   UNL d   1      -1.756  -0.632   0.166  0.00  0.00    -0.003 A 
ATOM      3  C   UNL d   1      -3.299   1.117  -0.126  0.00  0.00     0.107 A 
ATOM      4  S   UNL d   1      -1.775   1.891  -0.285  0.00  0.00    -0.081 SA
ATOM      5  C   UNL d   1      -3.133  -0.237   0.109  0.00  0.00     0.057 A 
ATOM      6  C   UNL d   1       0.569   0.388  -0.017  0.00  0.00     0.000 A 
ATOM      7  C   UNL d   1      -1.240  -2.007   0.452  0.00  0.00     0.121 C 
ATOM      8  S   UNL d   1       0.291  -2.386  -0.456  0.00  0.00    -0.124 SA
ATOM      9  C   UNL d   1       1.203  -0.866  -0.171  0.00  0.00     0.012 A 
ATOM     10  C   UNL d   1       1.373   1.529   0.154  0.00  0.00     0.038 A 
ATOM     11  C   UNL d   1       2.602  -0.960  -0.146  0.00  0.00     0.021 A 
ATOM     12  C   UNL d   1       2.764   1.419   0.177  0.00  0.00     0.035 A 
ATOM     13  C   UNL d   1       3.382   0.181   0.036  0.00  0.00     0.025 A 
ATOM     14 CL   UNL d   1       3.729   2.829   0.386  0.00  0.00    -0.084 Cl
ENDROOT
BRANCH   3  15
ATOM     15  C   UNL d   1      -4.489   1.944  -0.251  0.00  0.00     0.302 C 
ATOM     16  O   UNL d   1      -4.511   3.154  -0.457  0.00  0.00    -0.259 OA
BRANCH  15  17
ATOM     17  O   UNL d   1      -5.626   1.191  -0.109  0.00  0.00    -0.322 OA
ATOM     18  C   UNL d   1      -6.833   1.947  -0.217  0.00  0.00     0.213 C 
ENDBRANCH  15  17
ENDBRANCH   3  15
BRANCH   5  19
ATOM     19  N   UNL d   1      -4.152  -1.106   0.284  0.00  0.00    -0.397 N 
ATOM     20  H   UNL d   1      -4.042  -2.114   0.303  0.00  0.00     0.156 HD
ATOM     21  H   UNL d   1      -5.119  -0.811   0.143  0.00  0.00     0.156 HD
ENDBRANCH   5  19
TORSDOF 3
