REMARK  8 active torsions:
REMARK  status: ('A' for Active; 'I' for Inactive)
REMARK    1  A    between atoms: C_4  and  C_1 
REMARK    2  A    between atoms: N_3  and  C_2 
REMARK       I    between atoms: C_5  and  N_3 
REMARK    3  A    between atoms: C_10  and  C_5 
REMARK    4  A    between atoms: C_7  and  C_10 
REMARK    5  A    between atoms: C_13  and  C_7 
REMARK    6  A    between atoms: C_8  and  C_13 
REMARK    7  A    between atoms: O_19  and  C_8 
REMARK    8  A    between atoms: O_20  and  C_9 
ROOT
ATOM      1  N   UNL d   1       3.435   5.683   0.515  0.00  0.00    -0.325 N 
ATOM      2  C   UNL d   1       3.043   4.376   0.728  0.00  0.00     0.223 C 
ATOM      3  O   UNL d   1       2.267   4.019   1.605  0.00  0.00    -0.273 OA
ATOM      4  H   UNL d   1       3.727   5.963  -0.416  0.00  0.00     0.169 HD
ENDROOT
BRANCH   1   5
ATOM      5  C   UNL d   1       3.078   6.720   1.416  0.00  0.00     0.069 A 
ATOM      6  C   UNL d   1       3.148   6.478   2.795  0.00  0.00     0.048 A 
ATOM      7  C   UNL d   1       2.823   7.470   3.728  0.00  0.00     0.050 A 
ATOM      8  C   UNL d   1       2.427   8.728   3.258  0.00  0.00     0.019 A 
ATOM      9  C   UNL d   1       2.382   8.986   1.883  0.00  0.00     0.040 A 
ATOM     10  C   UNL d   1       2.700   7.987   0.958  0.00  0.00     0.095 A 
BRANCH   7  11
ATOM     11  C   UNL d   1       2.881   7.176   5.207  0.00  0.00     0.417 C 
ATOM     12  F   UNL d   1       3.473   5.985   5.507  0.00  0.00    -0.166 F 
ATOM     13  F   UNL d   1       1.645   7.133   5.776  0.00  0.00    -0.166 F 
ATOM     14  F   UNL d   1       3.579   8.118   5.901  0.00  0.00    -0.166 F 
ENDBRANCH   7  11
BRANCH  10  15
ATOM     15  O   UNL d   1       2.623   8.348  -0.361  0.00  0.00    -0.354 OA
ATOM     16  C   UNL d   1       1.796   7.503  -1.163  0.00  0.00     0.210 C 
ENDBRANCH  10  15
ENDBRANCH   1   5
BRANCH   2  17
ATOM     17  C   UNL d   1       3.712   3.378  -0.194  0.00  0.00     0.113 C 
BRANCH  17  18
ATOM     18  C   UNL d   1       2.810   2.273  -0.826  0.00  0.00    -0.023 C 
ATOM     19  C   UNL d   1       1.994   1.400   0.180  0.00  0.00     0.010 C 
ATOM     20  C   UNL d   1       2.794   0.452   1.060  0.00  0.00     0.001 C 
ATOM     21  C   UNL d   1       3.763  -0.400   0.253  0.00  0.00     0.000 C 
ATOM     22  C   UNL d   1       4.622   0.450  -0.674  0.00  0.00     0.001 C 
ATOM     23  C   UNL d   1       3.758   1.316  -1.606  0.00  0.00     0.010 C 
BRANCH  18  24
ATOM     24  C   UNL d   1       1.716   2.899  -1.744  0.00  0.00     0.119 C 
BRANCH  24  25
ATOM     25  C   UNL d   1       2.131   3.832  -2.856  0.00  0.00     0.140 C 
ATOM     26  O   UNL d   1       3.273   4.098  -3.185  0.00  0.00    -0.650 OA
BRANCH  25  27
ATOM     27  O   UNL d   1       1.057   4.395  -3.462  0.00  0.00    -0.776 OA
ATOM     28  H   UNL d   1       0.196   4.080  -3.117  0.00  0.00     0.167 HD
ENDBRANCH  25  27
ENDBRANCH  24  25
ENDBRANCH  18  24
ENDBRANCH  17  18
ENDBRANCH   2  17
TORSDOF 8
