REMARK  3 active torsions:
REMARK  status: ('A' for Active; 'I' for Inactive)
REMARK    1  A    between atoms: C_2  and  N_1 
REMARK    2  A    between atoms: C_11  and  N_3 
REMARK    3  A    between atoms: C_9  and  C_15 
ROOT
ATOM      1  N   UNL d   1      -1.459   1.343   5.753  0.00  0.00    -0.365 N 
ATOM      2  HN  UNL d   1      -0.537   1.777   5.723  1.00  0.00     0.165 HD
ATOM      3  C   UNL d   1      -1.912   0.697   4.727  0.00  0.00     0.099 C 
ENDROOT
BRANCH   1   4
ATOM      4  C   UNL d   1      -2.252   1.439   6.910  0.00  0.00     0.032 A 
ATOM      5  C   UNL d   1      -3.049   0.388   7.385  0.00  0.00     0.037 A 
ATOM      6  C   UNL d   1      -3.808   0.507   8.563  0.00  0.00    -0.043 A 
ATOM      7  C   UNL d   1      -4.677  -0.643   8.985  0.00  0.00     0.049 C 
ATOM      8  C   UNL d   1      -3.716   1.698   9.297  0.00  0.00     0.017 A 
ATOM      9  C   UNL d   1      -2.907   2.745   8.848  0.00  0.00     0.022 A 
ATOM     10 BR   UNL d   1      -4.656   1.945  10.928  0.00  0.00    -0.051 Br
ATOM     11  C   UNL d   1      -2.185   2.613   7.660  0.00  0.00     0.031 A 
ENDBRANCH   1   4
BRANCH   3  12
ATOM     12  C   UNL d   1      -1.110   0.533   3.498  0.00  0.00    -0.021 A 
ATOM     13  C   UNL d   1       0.114   1.192   3.350  0.00  0.00     0.015 A 
ATOM     14  C   UNL d   1       0.861   1.025   2.180  0.00  0.00     0.037 A 
ATOM     15  C   UNL d   1       0.373   0.190   1.165  0.00  0.00     0.102 A 
ATOM     16  C   UNL d   1      -0.852  -0.477   1.314  0.00  0.00     0.037 A 
ATOM     17  C   UNL d   1      -1.595  -0.302   2.485  0.00  0.00     0.015 A 
BRANCH  15  18
ATOM     18  N   UNL d   1       1.152   0.014  -0.068  0.00  0.00    -0.116 N 
ATOM     19  O   UNL d   1       0.685  -0.732  -0.941  0.00  0.00    -0.532 OA
ATOM     20  O   UNL d   1       2.227   0.621  -0.163  0.00  0.00    -0.532 OA
ENDBRANCH  15  18
ENDBRANCH   3  12
TORSDOF 3
