REMARK  5 active torsions:
REMARK  status: ('A' for Active; 'I' for Inactive)
REMARK    1  A    between atoms: C_2  and  C_1 
REMARK    2  A    between atoms: C_6  and  C_2 
REMARK    3  A    between atoms: S_8  and  C_3 
REMARK    4  A    between atoms: C_7  and  S_8 
REMARK    5  A    between atoms: O_15  and  C_12 
ROOT
ATOM      1  C   UNL d   1       1.081   0.026   0.094  0.00  0.00     0.063 C 
ATOM      2  C   UNL d   1       0.518  -1.098  -0.368  0.00  0.00     0.056 C 
ENDROOT
BRANCH   1   3
ATOM      3  C   UNL d   1       0.245   1.226   0.355  0.00  0.00     0.182 C 
ATOM      4  O   UNL d   1      -0.968   1.155   0.515  0.00  0.00    -0.288 OA
BRANCH   3   5
ATOM      5  C   UNL d   1       0.949   2.530   0.480  0.00  0.00     0.014 A 
ATOM      6  C   UNL d   1       2.095   2.827  -0.267  0.00  0.00     0.018 A 
ATOM      7  C   UNL d   1       2.733   4.066  -0.122  0.00  0.00     0.037 A 
ATOM      8  C   UNL d   1       2.229   5.017   0.766  0.00  0.00     0.068 A 
ATOM      9  C   UNL d   1       1.072   4.726   1.494  0.00  0.00     0.037 A 
ATOM     10  C   UNL d   1       0.428   3.494   1.349  0.00  0.00     0.018 A 
BRANCH   8  11
ATOM     11  O   UNL d   1       2.763   6.252   1.009  0.00  0.00    -0.356 OA
ATOM     12  C   UNL d   1       3.956   6.588   0.310  0.00  0.00     0.210 C 
ENDBRANCH   8  11
ENDBRANCH   3   5
ENDBRANCH   1   3
BRANCH   2  13
ATOM     13  S   UNL d   1       1.480  -2.514  -0.645  0.00  0.00    -0.084 SA
BRANCH  13  14
ATOM     14  C   UNL d   1       0.612  -3.262  -2.017  0.00  0.00     0.073 A 
ATOM     15  N   UNL d   1      -0.043  -2.457  -2.885  0.00  0.00    -0.360 N 
ATOM     16  C   UNL d   1      -0.647  -3.047  -3.941  0.00  0.00     0.089 A 
ATOM     17  HN  UNL d   1      -0.080  -1.447  -2.749  1.00  0.00     0.166 HD
ATOM     18  C   UNL d   1      -0.624  -4.411  -4.180  0.00  0.00     0.017 A 
ATOM     19  C   UNL d   1       0.057  -5.222  -3.282  0.00  0.00     0.004 A 
ATOM     20  C   UNL d   1       0.687  -4.641  -2.183  0.00  0.00     0.037 A 
ENDBRANCH  13  14
ENDBRANCH   2  13
TORSDOF 5
