REMARK  3 active torsions:
REMARK  status: ('A' for Active; 'I' for Inactive)
REMARK    1  A    between atoms: N_6  and  C_1 
REMARK       I    between atoms: C_5  and  N_6 
REMARK       I    between atoms: N_10  and  C_5 
REMARK    2  A    between atoms: C_9  and  C_15 
REMARK    3  A    between atoms: C_15  and  N_10 
ROOT
ATOM      1  C   UNL d   1      -0.348  -3.766  -0.309  0.00  0.00     0.321 C 
ATOM      2  N   UNL d   1       0.669  -2.876  -0.412  0.00  0.00    -0.308 N 
ATOM      3  N   UNL d   1      -1.504  -3.381   0.287  0.00  0.00    -0.338 N 
ATOM      4  O   UNL d   1      -0.155  -4.924  -0.682  0.00  0.00    -0.247 OA
ATOM      5  H   UNL d   1       1.542  -3.353  -0.606  0.00  0.00     0.170 HD
ATOM      6  H   UNL d   1      -1.471  -2.570   0.889  0.00  0.00     0.164 HD
ENDROOT
BRANCH   2   7
ATOM      7  C   UNL d   1       0.752  -1.502  -0.227  0.00  0.00     0.054 C 
ATOM      8  C   UNL d   1      -0.261  -0.472  -0.337  0.00  0.00     0.008 A 
ATOM      9  C   UNL d   1       0.250   0.780   0.034  0.00  0.00     0.017 A 
ATOM     10  C   UNL d   1      -1.611  -0.500  -0.781  0.00  0.00     0.015 A 
ATOM     11  C   UNL d   1      -0.553   1.938   0.078  0.00  0.00     0.020 A 
ATOM     12  S   UNL d   1       1.933   0.707   0.379  0.00  0.00    -0.099 SA
ATOM     13  C   UNL d   1      -1.889   1.852  -0.309  0.00  0.00     0.001 A 
ATOM     14  C   UNL d   1      -2.410   0.649  -0.753  0.00  0.00     0.001 A 
ATOM     15  C   UNL d   1       1.992  -0.957   0.043  0.00  0.00     0.081 C 
ENDBRANCH   2   7
BRANCH   3  16
ATOM     16  C   UNL d   1      -2.513  -4.385   0.541  0.00  0.00     0.170 C 
BRANCH  16  17
ATOM     17  C   UNL d   1      -3.644  -3.827   1.341  0.00  0.00     0.000 A 
ATOM     18  S   UNL d   1      -4.971  -3.066   0.566  0.00  0.00    -0.105 SA
ATOM     19  C   UNL d   1      -5.816  -2.892   2.043  0.00  0.00     0.050 A 
ATOM     20  C   UNL d   1      -5.091  -3.365   3.113  0.00  0.00     0.008 A 
ATOM     21  C   UNL d   1      -3.830  -3.892   2.709  0.00  0.00     0.017 A 
ENDBRANCH  16  17
ENDBRANCH   3  16
TORSDOF 3
