REMARK  3 active torsions:
REMARK  status: ('A' for Active; 'I' for Inactive)
REMARK    1  A    between atoms: C_3  and  C_1 
REMARK       I    between atoms: N_7  and  C_3 
REMARK    2  A    between atoms: C_11  and  C_18 
REMARK    3  A    between atoms: C_20  and  C_11 
ROOT
ATOM      1  C   UNL d   1      -1.353  -2.974  -0.093  0.00  0.00     0.256 C 
ATOM      2  N   UNL d   1      -0.192  -3.712   0.165  0.00  0.00    -0.348 N 
ATOM      3  O   UNL d   1      -2.055  -3.194  -1.079  0.00  0.00    -0.267 OA
ATOM      4  C   UNL d   1       0.247  -4.675  -0.842  0.00  0.00     0.127 C 
ATOM      5  C   UNL d   1       0.781  -3.502   1.237  0.00  0.00     0.127 C 
ATOM      6  C   UNL d   1       1.541  -5.921   0.978  0.00  0.00     0.064 C 
ATOM      7  C   UNL d   1       0.566  -6.027  -0.207  0.00  0.00     0.032 C 
ATOM      8  C   UNL d   1       1.037  -4.833   1.956  0.00  0.00     0.032 C 
ENDROOT
BRANCH   1   9
ATOM      9  C   UNL d   1      -1.813  -1.925   0.839  0.00  0.00     0.061 A 
ATOM     10  C   UNL d   1      -2.331  -0.690   0.353  0.00  0.00     0.082 A 
ATOM     11  N   UNL d   1      -2.431  -0.269  -0.921  0.00  0.00    -0.310 N 
ATOM     12  C   UNL d   1      -2.842   0.350   1.330  0.00  0.00     0.068 A 
ATOM     13  S   UNL d   1      -3.166   1.214  -0.897  0.00  0.00     0.068 SA
ATOM     14  HN  UNL d   1      -2.112  -0.771  -1.749  1.00  0.00     0.176 HD
ATOM     15  N   UNL d   1      -3.320   1.455   0.737  0.00  0.00    -0.310 N 
ATOM     16  HN  UNL d   1      -3.703   2.280   1.200  1.00  0.00     0.176 HD
ATOM     17  C   UNL d   1      -2.800   0.129   2.727  0.00  0.00     0.032 A 
ATOM     18  C   UNL d   1      -2.319  -1.120   3.144  0.00  0.00     0.003 A 
ATOM     19  C   UNL d   1      -1.882  -2.116   2.239  0.00  0.00     0.019 A 
ENDBRANCH   1   9
BRANCH   6  20
ATOM     20  C   UNL d   1       2.997  -5.630   0.585  0.00  0.00     0.163 C 
ATOM     21  O   UNL d   1       3.581  -4.628   1.002  0.00  0.00    -0.292 OA
BRANCH  20  22
ATOM     22  C   UNL d   1       3.781  -6.574  -0.271  0.00  0.00     0.010 A 
ATOM     23  C   UNL d   1       3.338  -7.856  -0.613  0.00  0.00     0.015 A 
ATOM     24  C   UNL d   1       4.124  -8.673  -1.433  0.00  0.00     0.001 A 
ATOM     25  C   UNL d   1       5.362  -8.229  -1.889  0.00  0.00     0.000 A 
ATOM     26  C   UNL d   1       5.827  -6.967  -1.529  0.00  0.00     0.001 A 
ATOM     27  C   UNL d   1       5.038  -6.144  -0.727  0.00  0.00     0.015 A 
ENDBRANCH  20  22
ENDBRANCH   6  20
TORSDOF 3
