REMARK  3 active torsions:
REMARK  status: ('A' for Active; 'I' for Inactive)
REMARK    1  A    between atoms: C_9  and  C_3 
REMARK    2  A    between atoms: C_10  and  C_4 
REMARK    3  A    between atoms: C_8  and  C_6 
ROOT
ATOM      1  N   UNL d   1      -1.078  -1.078   0.140  0.00  0.00    -0.354 N 
ATOM      2  HN  UNL d   1      -1.629  -1.934   0.199  1.00  0.00     0.166 HD
ATOM      3  C   UNL d   1       0.280  -1.142   0.087  0.00  0.00     0.049 C 
ATOM      4  C   UNL d   1       0.451   1.278  -0.004  0.00  0.00    -0.016 C 
ATOM      5  C   UNL d   1       1.081   0.010  -0.068  0.00  0.00    -0.023 C 
ATOM      6  C   UNL d   1      -1.692   0.123   0.113  0.00  0.00     0.043 C 
ATOM      7  C   UNL d   1      -0.952   1.301   0.088  0.00  0.00     0.043 C 
ATOM      8  C   UNL d   1       2.559  -0.107  -0.340  0.00  0.00     0.051 C 
ENDROOT
BRANCH   6   9
ATOM      9  C   UNL d   1      -3.169   0.110   0.051  0.00  0.00    -0.009 A 
ATOM     10  C   UNL d   1      -3.954   1.140   0.599  0.00  0.00     0.014 A 
ATOM     11  C   UNL d   1      -5.348   1.149   0.464  0.00  0.00     0.007 A 
ATOM     12  C   UNL d   1      -6.003   0.119  -0.217  0.00  0.00    -0.062 A 
ATOM     13  C   UNL d   1      -5.243  -0.924  -0.749  0.00  0.00     0.007 A 
ATOM     14  C   UNL d   1      -7.493   0.156  -0.377  0.00  0.00     0.048 C 
ATOM     15  C   UNL d   1      -3.849  -0.928  -0.612  0.00  0.00     0.014 A 
ENDBRANCH   6   9
BRANCH   3  16
ATOM     16  C   UNL d   1       0.798  -2.532   0.195  0.00  0.00    -0.009 A 
ATOM     17  C   UNL d   1       0.151  -3.588  -0.473  0.00  0.00     0.014 A 
ATOM     18  C   UNL d   1       0.611  -4.906  -0.379  0.00  0.00     0.001 A 
ATOM     19  C   UNL d   1       1.734  -5.199   0.388  0.00  0.00     0.000 A 
ATOM     20  C   UNL d   1       2.381  -4.179   1.079  0.00  0.00     0.001 A 
ATOM     21  C   UNL d   1       1.904  -2.865   0.998  0.00  0.00     0.014 A 
ENDBRANCH   3  16
BRANCH   4  22
ATOM     22  C   UNL d   1       1.173   2.577  -0.052  0.00  0.00    -0.025 A 
ATOM     23  C   UNL d   1       2.304   2.830   0.744  0.00  0.00     0.012 A 
ATOM     24  C   UNL d   1       2.975   4.058   0.693  0.00  0.00     0.001 A 
ATOM     25  C   UNL d   1       2.503   5.078  -0.127  0.00  0.00     0.000 A 
ATOM     26  C   UNL d   1       1.368   4.868  -0.902  0.00  0.00     0.001 A 
ATOM     27  C   UNL d   1       0.720   3.629  -0.873  0.00  0.00     0.012 A 
ENDBRANCH   4  22
TORSDOF 3
