REMARK  2 active torsions:
REMARK  status: ('A' for Active; 'I' for Inactive)
REMARK    1  A    between atoms: C_11  and  N_3 
REMARK    2  A    between atoms: C_12  and  C_11 
ROOT
ATOM      1  N   UNL d   1      -2.274  -6.364   1.268  0.00  0.00    -0.197 NA
ATOM      2  C   UNL d   1      -1.850  -5.284   1.258  0.00  0.00     0.060 C 
ATOM      3  C   UNL d   1      -1.307  -3.892   1.270  0.00  0.00     0.144 C 
ENDROOT
BRANCH   3   4
ATOM      4  C   UNL d   1      -1.162  -3.274  -0.136  0.00  0.00     0.146 C 
BRANCH   4   5
ATOM      5  N   UNL d   1      -0.567  -1.945  -0.114  0.00  0.00    -0.311 N 
ATOM      6  C   UNL d   1       0.822  -1.730  -0.074  0.00  0.00     0.292 A 
ATOM      7  C   UNL d   1       1.060  -0.171  -0.019  0.00  0.00     0.280 A 
ATOM      8  O   UNL d   1       1.679  -2.605  -0.057  0.00  0.00    -0.266 OA
ATOM      9  C   UNL d   1      -0.353   0.345   0.007  0.00  0.00     0.040 A 
ATOM     10  O   UNL d   1       1.749   0.304  -1.178  0.00  0.00    -0.342 OA
ATOM     11  O   UNL d   1       1.762   0.222   1.163  0.00  0.00    -0.342 OA
ATOM     12  C   UNL d   1      -1.258  -0.722  -0.043  0.00  0.00     0.049 A 
ATOM     13  C   UNL d   1      -0.793   1.661   0.072  0.00  0.00     0.015 A 
ATOM     14  C   UNL d   1      -2.624  -0.498  -0.020  0.00  0.00     0.030 A 
ATOM     15  C   UNL d   1      -3.075   0.827   0.043  0.00  0.00     0.002 A 
ATOM     16  C   UNL d   1      -2.167   1.898   0.086  0.00  0.00     0.001 A 
ATOM     17  C   UNL d   1       2.902   0.979  -0.675  0.00  0.00     0.198 C 
ATOM     18  C   UNL d   1       3.099   0.408   0.703  0.00  0.00     0.198 C 
ENDBRANCH   4   5
ENDBRANCH   3   4
TORSDOF 2
