REMARK  4 active torsions:
REMARK  status: ('A' for Active; 'I' for Inactive)
REMARK       I    between atoms: C_7  and  N_1 
REMARK    1  A    between atoms: C_9  and  C_6 
REMARK    2  A    between atoms: C_13  and  C_7 
REMARK    3  A    between atoms: C_20  and  N_10 
REMARK    4  A    between atoms: N_12  and  C_13 
ROOT
ATOM      1  N   UNL d   1      -3.058   1.045  -0.131  0.00  0.00    -0.249 N 
ATOM      2  N   UNL d   1      -1.751   1.491  -0.263  0.00  0.00    -0.298 N 
ATOM      3  HN  UNL d   1      -1.441   2.421  -0.546  1.00  0.00     0.187 HD
ATOM      4  C   UNL d   1      -1.003   0.469   0.051  0.00  0.00     0.043 C 
ATOM      5  C   UNL d   1      -1.734  -0.720   0.618  0.00  0.00     0.068 C 
ATOM      6  C   UNL d   1      -3.143  -0.399   0.139  0.00  0.00     0.161 C 
ATOM      7  C   UNL d   1      -4.183   1.853  -0.155  0.00  0.00     0.267 C 
ATOM      8  C   UNL d   1       0.463   0.408  -0.007  0.00  0.00    -0.005 A 
ATOM      9  C   UNL d   1      -1.086  -2.081   0.379  0.00  0.00     0.018 C 
ATOM     10  O   UNL d   1      -5.296   1.387   0.121  0.00  0.00    -0.270 OA
ATOM     11  C   UNL d   1       1.046  -0.856  -0.196  0.00  0.00    -0.046 A 
ATOM     12  C   UNL d   1       0.168  -2.043  -0.498  0.00  0.00     0.040 C 
ATOM     13  C   UNL d   1       1.246   1.550   0.165  0.00  0.00     0.014 A 
ATOM     14  C   UNL d   1       2.442  -0.963  -0.202  0.00  0.00     0.008 A 
ATOM     15  C   UNL d   1       2.637   1.425   0.173  0.00  0.00     0.001 A 
ATOM     16  C   UNL d   1       3.232   0.174  -0.005  0.00  0.00     0.001 A 
ENDROOT
BRANCH   6  17
ATOM     17  C   UNL d   1      -3.628  -1.107  -1.105  0.00  0.00     0.008 A 
ATOM     18  S   UNL d   1      -5.011  -2.125  -0.989  0.00  0.00    -0.104 SA
ATOM     19  C   UNL d   1      -5.058  -2.375  -2.676  0.00  0.00     0.050 A 
ATOM     20  C   UNL d   1      -4.010  -1.756  -3.318  0.00  0.00     0.008 A 
ATOM     21  C   UNL d   1      -3.179  -1.030  -2.413  0.00  0.00     0.017 A 
ENDBRANCH   6  17
BRANCH   7  22
ATOM     22  C   UNL d   1      -4.021   3.354  -0.460  0.00  0.00     0.376 C 
BRANCH  22  23
ATOM     23  N   UNL d   1      -4.653   3.765  -1.740  0.00  0.00     0.100 N 
ATOM     24  C   UNL d   1      -6.127   3.576  -1.792  0.00  0.00     0.292 C 
ATOM     25  C   UNL d   1      -6.995   4.586  -0.993  0.00  0.00     0.153 C 
ATOM     26  N   UNL d   1      -6.621   5.959  -1.362  0.00  0.00    -0.378 N 
ATOM     27  C   UNL d   1      -5.185   6.239  -1.253  0.00  0.00     0.153 C 
ATOM     28  C   UNL d   1      -4.361   5.192  -2.043  0.00  0.00     0.292 C 
BRANCH  26  29
ATOM     29  C   UNL d   1      -7.532   6.879  -1.844  0.00  0.00     0.030 A 
ATOM     30  C   UNL d   1      -7.181   7.835  -2.811  0.00  0.00     0.029 A 
ATOM     31  C   UNL d   1      -8.085   8.803  -3.267  0.00  0.00     0.002 A 
ATOM     32  C   UNL d   1      -9.379   8.837  -2.765  0.00  0.00     0.000 A 
ATOM     33  C   UNL d   1      -9.770   7.887  -1.829  0.00  0.00     0.002 A 
ATOM     34  C   UNL d   1      -8.857   6.920  -1.382  0.00  0.00     0.029 A 
ENDBRANCH  26  29
ENDBRANCH  22  23
ENDBRANCH   7  22
TORSDOF 4
