REMARK  5 active torsions:
REMARK  status: ('A' for Active; 'I' for Inactive)
REMARK    1  A    between atoms: O_3  and  S_1 
REMARK    2  A    between atoms: C_9  and  S_1 
REMARK    3  A    between atoms: C_4  and  O_3 
REMARK    4  A    between atoms: C_22  and  S_21 
REMARK    5  A    between atoms: O_25  and  S_21 
ROOT
ATOM      1  C   UNL d   2       0.354  -2.062  -0.025  0.00  0.00     0.072 A 
ATOM      2  C   UNL d   2      -0.688  -1.797   0.869  0.00  0.00     0.026 A 
ATOM      3  C   UNL d   2       1.137  -3.210   0.113  0.00  0.00     0.026 A 
ATOM      4  C   UNL d   2       0.864  -4.111   1.141  0.00  0.00     0.008 A 
ATOM      5  C   UNL d   2      -0.945  -2.699   1.907  0.00  0.00     0.008 A 
ATOM      6  C   UNL d   2      -0.198  -3.880   2.025  0.00  0.00    -0.062 A 
ATOM      7  C   UNL d   2      -0.525  -4.881   3.095  0.00  0.00     0.048 C 
ENDROOT
BRANCH   1   8
ATOM      8  S   UNL d   2       0.812  -0.854  -1.235  0.00  0.00     0.129 S 
ATOM      9  O   UNL d   2       0.604   0.472  -0.692  0.00  0.00    -0.598 OA
ATOM     10  O   UNL d   2       0.240  -1.256  -2.504  0.00  0.00    -0.598 OA
BRANCH   8  11
ATOM     11  O   UNL d   2       2.416  -0.989  -1.369  0.00  0.00    -0.292 OA
ATOM     12  H   UNL d   2       2.808  -0.100  -1.245  0.00  0.00     0.232 HD
ENDBRANCH   8  11
ENDBRANCH   1   8
TORSDOF 5
