REMARK  5 active torsions:
REMARK  status: ('A' for Active; 'I' for Inactive)
REMARK    1  A    between atoms: C_2  and  C_1 
REMARK    2  A    between atoms: C_3  and  C_1 
REMARK    3  A    between atoms: C_6  and  C_2 
REMARK    4  A    between atoms: C_11  and  C_2 
REMARK    5  A    between atoms: C_10  and  C_3 
ROOT
ATOM      1  N   UNL d   1       0.145   4.729   1.344  0.00  0.00    -0.196 NA
ATOM      2  N   UNL d   1       0.700   2.717  -2.542  0.00  0.00    -0.196 NA
ATOM      3  C   UNL d   1       1.069   2.622   0.062  0.00  0.00     0.208 C 
ATOM      4  C   UNL d   1       0.851   2.704  -1.390  0.00  0.00     0.079 C 
ATOM      5  C   UNL d   1       0.537   3.799   0.768  0.00  0.00     0.079 C 
ENDROOT
BRANCH   3   6
ATOM      6  C   UNL d   1       0.525   1.294   0.680  0.00  0.00     0.057 C 
BRANCH   6   7
ATOM      7  C   UNL d   1       1.109   0.005   0.037  0.00  0.00     0.095 C 
BRANCH   7   8
ATOM      8  C   UNL d   1       2.613  -0.133   0.240  0.00  0.00     0.160 C 
ATOM      9  O   UNL d   1       3.268   0.755   0.781  0.00  0.00    -0.292 OA
BRANCH   8  10
ATOM     10  C   UNL d   1       3.306  -1.379  -0.214  0.00  0.00     0.010 A 
ATOM     11  C   UNL d   1       2.629  -2.422  -0.854  0.00  0.00     0.015 A 
ATOM     12  C   UNL d   1       3.309  -3.597  -1.191  0.00  0.00     0.001 A 
ATOM     13  C   UNL d   1       4.667  -3.732  -0.904  0.00  0.00     0.000 A 
ATOM     14  C   UNL d   1       5.356  -2.684  -0.298  0.00  0.00     0.001 A 
ATOM     15  C   UNL d   1       4.679  -1.511   0.043  0.00  0.00     0.015 A 
ENDBRANCH   8  10
ENDBRANCH   7   8
ENDBRANCH   6   7
BRANCH   6  16
ATOM     16  C   UNL d   1      -1.007   1.223   0.734  0.00  0.00    -0.051 A 
ATOM     17  C   UNL d   1      -1.658   1.306   1.978  0.00  0.00     0.007 A 
ATOM     18  C   UNL d   1      -3.053   1.288   2.064  0.00  0.00     0.001 A 
ATOM     19  C   UNL d   1      -3.822   1.189   0.909  0.00  0.00     0.000 A 
ATOM     20  C   UNL d   1      -3.195   1.099  -0.331  0.00  0.00     0.001 A 
ATOM     21  C   UNL d   1      -1.800   1.107  -0.419  0.00  0.00     0.007 A 
ENDBRANCH   6  16
ENDBRANCH   3   6
TORSDOF 5
