REMARK  3 active torsions:
REMARK  status: ('A' for Active; 'I' for Inactive)
REMARK    1  A    between atoms: C_8  and  C_4 
REMARK    2  A    between atoms: C_13  and  N_7 
REMARK    3  A    between atoms: O_17  and  C_14 
ROOT
ATOM      1  N   UNL d   1       1.424  -0.525  -0.085  0.00  0.00    -0.335 N 
ATOM      2  HN  UNL d   1       2.331  -0.975  -0.215  1.00  0.00     0.168 HD
ATOM      3  C   UNL d   1       0.285  -1.171  -0.012  0.00  0.00     0.149 A 
ATOM      4  C   UNL d   1       1.245   0.841   0.037  0.00  0.00     0.051 A 
ATOM      5  S   UNL d   1      -1.084  -0.151   0.250  0.00  0.00    -0.064 SA
ATOM      6  C   UNL d   1      -0.068   1.231   0.194  0.00  0.00     0.083 A 
ATOM      7  N   UNL d   1       0.120  -2.511  -0.115  0.00  0.00    -0.335 N 
ATOM      8  H   UNL d   1      -0.815  -2.872   0.021  0.00  0.00     0.168 HD
ENDROOT
BRANCH   7   9
ATOM      9  C   UNL d   1       1.021  -3.430  -0.684  0.00  0.00     0.049 A 
ATOM     10  C   UNL d   1       2.221  -3.091  -1.316  0.00  0.00     0.117 A 
ATOM     11  N   UNL d   1       3.103  -3.976  -1.849  0.00  0.00    -0.373 N 
ATOM     12  C   UNL d   1       2.796  -5.281  -1.728  0.00  0.00     0.088 A 
ATOM     13  HN  UNL d   1       3.955  -3.668  -2.318  1.00  0.00     0.164 HD
ATOM     14  C   UNL d   1       1.654  -5.738  -1.096  0.00  0.00     0.019 A 
ATOM     15  C   UNL d   1       0.765  -4.801  -0.567  0.00  0.00     0.032 A 
ENDBRANCH   7   9
BRANCH   4  16
ATOM     16  C   UNL d   1       2.389   1.742  -0.042  0.00  0.00    -0.009 A 
ATOM     17  C   UNL d   1       3.548   1.316  -0.707  0.00  0.00     0.016 A 
ATOM     18  C   UNL d   1       4.674   2.142  -0.801  0.00  0.00     0.037 A 
ATOM     19  C   UNL d   1       4.660   3.408  -0.221  0.00  0.00     0.068 A 
ATOM     20  C   UNL d   1       3.514   3.834   0.454  0.00  0.00     0.037 A 
ATOM     21  C   UNL d   1       2.385   3.011   0.546  0.00  0.00     0.016 A 
BRANCH  19  22
ATOM     22  O   UNL d   1       5.688   4.309  -0.234  0.00  0.00    -0.356 OA
ATOM     23  C   UNL d   1       6.858   3.933  -0.951  0.00  0.00     0.210 C 
ENDBRANCH  19  22
ENDBRANCH   4  16
TORSDOF 3
