REMARK  2 active torsions:
REMARK  status: ('A' for Active; 'I' for Inactive)
REMARK    1  A    between atoms: N_4  and  C_1 
REMARK    2  A    between atoms: C_6  and  N_4 
ROOT
ATOM      1  C   UNL d   1       2.452   2.317  -3.712  0.00  0.00     0.053 A 
ATOM      2  C   UNL d   1       2.002   1.477  -2.684  0.00  0.00     0.054 A 
ATOM      3  C   UNL d   1       0.988   1.892  -1.819  0.00  0.00     0.035 A 
ATOM      4  C   UNL d   1       1.877   3.579  -3.884  0.00  0.00     0.032 A 
ATOM      5  C   UNL d   1       0.834   3.982  -3.047  0.00  0.00     0.023 A 
ATOM      6 CL   UNL d   1       3.719   1.724  -4.728  0.00  0.00    -0.083 Cl
ATOM      7  C   UNL d   1       0.383   3.136  -2.031  0.00  0.00     0.031 A 
ATOM      8 BR   UNL d   1       2.446   4.797  -5.224  0.00  0.00    -0.049 Br
ENDROOT
BRANCH   3   9
ATOM      9  N   UNL d   1       0.496   1.112  -0.755  0.00  0.00    -0.334 N 
ATOM     10  H   UNL d   1      -0.422   1.363  -0.402  0.00  0.00     0.168 HD
BRANCH   9  11
ATOM     11  C   UNL d   1       1.038   0.057  -0.099  0.00  0.00     0.169 C 
ATOM     12  S   UNL d   1       0.113  -0.858   0.937  0.00  0.00    -0.041 SA
ATOM     13  N   UNL d   1       2.349  -0.210  -0.244  0.00  0.00    -0.376 N 
ATOM     14  H   UNL d   1       2.976   0.562  -0.429  0.00  0.00     0.158 HD
ATOM     15  H   UNL d   1       2.729  -0.925   0.367  0.00  0.00     0.158 HD
ENDBRANCH   9  11
ENDBRANCH   3   9
TORSDOF 2
