REMARK  2 active torsions:
REMARK  status: ('A' for Active; 'I' for Inactive)
REMARK       I    between atoms: C_7  and  N_13 
REMARK       I    between atoms: N_11  and  C_7 
REMARK    1  A    between atoms: N_13  and  C_10 
REMARK    2  A    between atoms: C_15  and  N_11 
ROOT
ATOM      1  C   UNL d   1      -4.918  -0.529  -0.293  0.00  0.00     0.325 C 
ATOM      2  N   UNL d   1      -4.817   0.810  -0.031  0.00  0.00    -0.306 N 
ATOM      3  N   UNL d   1      -3.794  -1.285  -0.187  0.00  0.00    -0.309 N 
ATOM      4  O   UNL d   1      -6.044  -0.953  -0.549  0.00  0.00    -0.247 OA
ATOM      5  H   UNL d   1      -5.750   1.205   0.013  0.00  0.00     0.171 HD
ATOM      6  H   UNL d   1      -2.944  -0.774  -0.014  0.00  0.00     0.170 HD
ENDROOT
BRANCH   3   7
ATOM      7  C   UNL d   1      -3.637  -2.674  -0.388  0.00  0.00     0.038 A 
ATOM      8  C   UNL d   1      -4.718  -3.534  -0.648  0.00  0.00     0.062 A 
ATOM      9  C   UNL d   1      -4.401  -4.898  -0.873  0.00  0.00     0.069 A 
ATOM     10  C   UNL d   1      -2.977  -5.382  -0.819  0.00  0.00     0.067 A 
ATOM     11  N   UNL d   1      -5.276  -5.877  -1.151  0.00  0.00    -0.310 N 
ATOM     12  N   UNL d   1      -2.850  -6.695  -1.066  0.00  0.00    -0.310 N 
ATOM     13  C   UNL d   1      -1.921  -4.491  -0.532  0.00  0.00     0.035 A 
ATOM     14  S   UNL d   1      -4.386  -7.266  -1.344  0.00  0.00     0.068 SA
ATOM     15  HN  UNL d   1      -1.985  -7.234  -1.081  1.00  0.00     0.176 HD
ATOM     16  C   UNL d   1      -2.295  -3.150  -0.322  0.00  0.00     0.032 A 
ATOM     17  HN  UNL d   1      -6.289  -5.786  -1.228  1.00  0.00     0.176 HD
ENDBRANCH   3   7
BRANCH   2  18
ATOM     18  C   UNL d   1      -3.756   1.711   0.207  0.00  0.00     0.075 A 
ATOM     19  C   UNL d   1      -2.398   1.490  -0.053  0.00  0.00     0.143 A 
ATOM     20  F   UNL d   1      -1.967   0.354  -0.616  0.00  0.00    -0.204 F 
ATOM     21  C   UNL d   1      -1.431   2.454   0.238  0.00  0.00     0.044 A 
ATOM     22  C   UNL d   1      -1.808   3.673   0.789  0.00  0.00     0.003 A 
ATOM     23  C   UNL d   1      -3.155   3.929   1.030  0.00  0.00     0.002 A 
ATOM     24  C   UNL d   1      -4.120   2.961   0.731  0.00  0.00     0.033 A 
ENDBRANCH   2  18
TORSDOF 2
