REMARK  8 active torsions:
REMARK  status: ('A' for Active; 'I' for Inactive)
REMARK    1  A    between atoms: C_2  and  S_1 
REMARK    2  A    between atoms: C_15  and  S_1 
REMARK    3  A    between atoms: C_3  and  C_9 
REMARK    4  A    between atoms: N_10  and  N_4 
REMARK    5  A    between atoms: C_6  and  N_10 
REMARK    6  A    between atoms: C_7  and  C_19 
REMARK    7  A    between atoms: O_17  and  C_16 
REMARK    8  A    between atoms: C_19  and  O_17 
ROOT
ATOM      1  C   UNL d   1       0.834  -1.130  -1.535  0.00  0.00     0.225 C 
ATOM      2  N   UNL d   1       0.041  -2.160  -1.411  0.00  0.00    -0.298 N 
ATOM      3  HN  UNL d   1      -0.095  -2.805  -2.190  1.00  0.00     0.182 HD
ATOM      4  C   UNL d   1       1.060  -0.256  -0.420  0.00  0.00     0.131 C 
ATOM      5  N   UNL d   1       1.216   0.399   0.532  0.00  0.00    -0.189 NA
ENDROOT
BRANCH   1   6
ATOM      6  S   UNL d   1       1.636  -0.738  -3.032  0.00  0.00     0.233 S 
ATOM      7  O   UNL d   1       3.060  -0.754  -2.751  0.00  0.00    -0.215 OA
ATOM      8  O   UNL d   1       0.987   0.458  -3.540  0.00  0.00    -0.215 OA
BRANCH   6   9
ATOM      9  C   UNL d   1       1.296  -2.060  -4.167  0.00  0.00     0.066 A 
ATOM     10  C   UNL d   1       0.167  -1.988  -4.991  0.00  0.00     0.024 A 
ATOM     11  C   UNL d   1      -0.035  -2.967  -5.965  0.00  0.00     0.002 A 
ATOM     12  C   UNL d   1       0.886  -4.004  -6.117  0.00  0.00     0.000 A 
ATOM     13  C   UNL d   1       2.009  -4.073  -5.291  0.00  0.00     0.002 A 
ATOM     14  C   UNL d   1       2.220  -3.099  -4.315  0.00  0.00     0.024 A 
ENDBRANCH   6   9
ENDBRANCH   1   6
BRANCH   2  15
ATOM     15  N   UNL d   1      -0.605  -2.364  -0.219  0.00  0.00    -0.202 NA
ATOM     16  H   UNL d   1      -0.056  -2.307   0.649  0.00  0.00     0.153 HD
BRANCH  15  17
ATOM     17  C   UNL d   1      -1.441  -3.512  -0.125  0.00  0.00     0.061 A 
ATOM     18  C   UNL d   1      -1.177  -4.649  -0.913  0.00  0.00     0.044 A 
ATOM     19  C   UNL d   1      -1.876  -5.854  -0.731  0.00  0.00     0.049 A 
ATOM     20  C   UNL d   1      -2.864  -5.913   0.259  0.00  0.00     0.019 A 
ATOM     21  C   UNL d   1      -3.152  -4.789   1.036  0.00  0.00     0.039 A 
ATOM     22  C   UNL d   1      -2.464  -3.585   0.843  0.00  0.00     0.091 A 
BRANCH  19  23
ATOM     23  C   UNL d   1      -1.551  -7.076  -1.555  0.00  0.00     0.417 C 
ATOM     24  F   UNL d   1      -0.550  -6.876  -2.458  0.00  0.00    -0.166 F 
ATOM     25  F   UNL d   1      -1.150  -8.127  -0.787  0.00  0.00    -0.166 F 
ATOM     26  F   UNL d   1      -2.618  -7.523  -2.273  0.00  0.00    -0.166 F 
ENDBRANCH  19  23
BRANCH  22  27
ATOM     27  O   UNL d   1      -2.869  -2.577   1.685  0.00  0.00    -0.341 OA
BRANCH  27  28
ATOM     28  C   UNL d   1      -2.800  -1.236   1.175  0.00  0.00     0.293 C 
BRANCH  28  29
ATOM     29  C   UNL d   1      -3.891  -0.333   1.747  0.00  0.00     0.408 C 
ATOM     30  F   UNL d   1      -4.696  -0.962   2.628  0.00  0.00    -0.169 F 
ATOM     31  F   UNL d   1      -3.349   0.734   2.381  0.00  0.00    -0.169 F 
ATOM     32  F   UNL d   1      -4.676   0.153   0.755  0.00  0.00    -0.169 F 
ENDBRANCH  28  29
ENDBRANCH  27  28
ENDBRANCH  22  27
ENDBRANCH  15  17
ENDBRANCH   2  15
TORSDOF 8
