REMARK  8 active torsions:
REMARK  status: ('A' for Active; 'I' for Inactive)
REMARK    1  A    between atoms: C_3  and  C_1 
REMARK    2  A    between atoms: C_6  and  C_2 
REMARK       I    between atoms: N_7  and  C_3 
REMARK    3  A    between atoms: C_10  and  N_7 
REMARK    4  A    between atoms: C_21  and  N_7 
REMARK    5  A    between atoms: C_14  and  C_10 
REMARK    6  A    between atoms: C_15  and  C_10 
REMARK    7  A    between atoms: C_22  and  C_15 
REMARK    8  A    between atoms: O_25  and  C_20 
ROOT
ATOM      1  C   UNL d   1      -1.896  -3.790   0.693  0.00  0.00     0.259 C 
ATOM      2  N   UNL d   1      -0.706  -3.905  -0.087  0.00  0.00    -0.339 N 
ATOM      3  O   UNL d   1      -2.475  -2.708   0.770  0.00  0.00    -0.267 OA
ENDROOT
BRANCH   2   4
ATOM      4  C   UNL d   1      -0.054  -5.193  -0.459  0.00  0.00     0.124 C 
BRANCH   4   5
ATOM      5  C   UNL d   1      -0.634  -5.749  -1.785  0.00  0.00    -0.035 A 
ATOM      6  C   UNL d   1      -1.715  -5.127  -2.443  0.00  0.00     0.012 A 
ATOM      7  C   UNL d   1      -2.394  -5.745  -3.496  0.00  0.00     0.037 A 
ATOM      8  C   UNL d   1      -2.025  -7.019  -3.903  0.00  0.00     0.068 A 
ATOM      9  C   UNL d   1      -0.901  -7.618  -3.339  0.00  0.00     0.037 A 
ATOM     10  C   UNL d   1      -0.214  -6.994  -2.288  0.00  0.00     0.012 A 
BRANCH   8  11
ATOM     11  O   UNL d   1      -2.709  -7.751  -4.834  0.00  0.00    -0.356 OA
ATOM     12  C   UNL d   1      -4.128  -7.594  -4.758  0.00  0.00     0.210 C 
ENDBRANCH   8  11
ENDBRANCH   4   5
BRANCH   4  13
ATOM     13  C   UNL d   1       1.510  -5.189  -0.455  0.00  0.00     0.068 C 
BRANCH  13  14
ATOM     14  C   UNL d   1       2.214  -4.877   0.851  0.00  0.00    -0.056 A 
ATOM     15  C   UNL d   1       1.878  -5.521   2.048  0.00  0.00     0.007 A 
ATOM     16  C   UNL d   1       2.617  -5.291   3.212  0.00  0.00     0.001 A 
ATOM     17  C   UNL d   1       3.706  -4.422   3.194  0.00  0.00     0.000 A 
ATOM     18  C   UNL d   1       4.057  -3.778   2.011  0.00  0.00     0.001 A 
ATOM     19  C   UNL d   1       3.322  -4.009   0.847  0.00  0.00     0.007 A 
ENDBRANCH  13  14
ENDBRANCH   4  13
ENDBRANCH   2   4
BRANCH   2  20
ATOM     20  C   UNL d   1      -0.080  -2.646  -0.555  0.00  0.00     0.122 C 
ATOM     21  C   UNL d   1       0.120  -2.485  -2.062  0.00  0.00     0.026 C 
ENDBRANCH   2  20
BRANCH   1  22
ATOM     22  C   UNL d   1      -2.407  -4.899   1.515  0.00  0.00     0.092 C 
ATOM     23  C   UNL d   1      -2.921  -4.789   2.864  0.00  0.00     0.086 C 
ATOM     24  N   UNL d   1      -3.173  -6.008   3.371  0.00  0.00    -0.259 N 
ATOM     25  O   UNL d   1      -3.085  -6.876   2.330  0.00  0.00    -0.241 OA
ATOM     26  HN  UNL d   1      -3.386  -6.236   4.342  1.00  0.00     0.195 HD
ATOM     27  C   UNL d   1      -2.729  -6.213   1.203  0.00  0.00     0.090 C 
ATOM     28  C   UNL d   1      -2.858  -7.070   0.013  0.00  0.00     0.080 C 
BRANCH  23  29
ATOM     29  C   UNL d   1      -3.212  -3.654   3.745  0.00  0.00     0.037 A 
ATOM     30  C   UNL d   1      -4.526  -3.492   4.253  0.00  0.00     0.048 A 
ATOM     31 CL   UNL d   1      -5.895  -4.349   3.611  0.00  0.00    -0.083 Cl
ATOM     32  C   UNL d   1      -4.792  -2.620   5.316  0.00  0.00     0.025 A 
ATOM     33  C   UNL d   1      -3.764  -1.862   5.865  0.00  0.00     0.003 A 
ATOM     34  C   UNL d   1      -2.482  -1.950   5.325  0.00  0.00     0.025 A 
ATOM     35  C   UNL d   1      -2.202  -2.842   4.276  0.00  0.00     0.048 A 
ATOM     36 CL   UNL d   1      -0.558  -2.930   3.745  0.00  0.00    -0.083 Cl
ENDBRANCH  23  29
ENDBRANCH   1  22
TORSDOF 8
