REMARK  1 active torsions:
REMARK  status: ('A' for Active; 'I' for Inactive)
REMARK    1  A    between atoms: C_9  and  C_4 
ROOT
ATOM      1  N   UNL d   1       1.370  -0.581   0.101  0.00  0.00    -0.321 N 
ATOM      2  HN  UNL d   1       2.309  -0.977   0.126  1.00  0.00     0.169 HD
ATOM      3  C   UNL d   1       0.256  -1.283   0.126  0.00  0.00     0.164 A 
ATOM      4  C   UNL d   1       1.078   0.785   0.034  0.00  0.00     0.123 A 
ATOM      5  N   UNL d   1      -0.208   1.156   0.020  0.00  0.00    -0.309 N 
ATOM      6  HN  UNL d   1      -0.563   2.111  -0.024  1.00  0.00     0.176 HD
ATOM      7  S   UNL d   1      -1.119  -0.231   0.086  0.00  0.00     0.024 SA
ATOM      8  N   UNL d   1       0.195  -2.636   0.177  0.00  0.00    -0.360 N 
ATOM      9  C   UNL d   1       1.392  -3.457   0.124  0.00  0.00     0.125 C 
ATOM     10  C   UNL d   1      -1.024  -3.419   0.088  0.00  0.00     0.125 C 
ATOM     11  C   UNL d   1       0.874  -4.804  -0.377  0.00  0.00     0.021 C 
ATOM     12  C   UNL d   1      -0.538  -4.865   0.182  0.00  0.00     0.021 C 
ENDROOT
BRANCH   4  13
ATOM     13  C   UNL d   1       2.165   1.770  -0.032  0.00  0.00     0.009 A 
ATOM     14  C   UNL d   1       3.504   1.358   0.032  0.00  0.00     0.015 A 
ATOM     15  C   UNL d   1       4.543   2.291  -0.046  0.00  0.00     0.001 A 
ATOM     16  C   UNL d   1       4.256   3.647  -0.188  0.00  0.00     0.000 A 
ATOM     17  C   UNL d   1       2.930   4.073  -0.249  0.00  0.00     0.001 A 
ATOM     18  C   UNL d   1       1.892   3.141  -0.170  0.00  0.00     0.015 A 
ENDBRANCH   4  13
TORSDOF 1
