REMARK  5 active torsions:
REMARK  status: ('A' for Active; 'I' for Inactive)
REMARK    1  A    between atoms: C_2  and  C_1 
REMARK       I    between atoms: N_7  and  C_2 
REMARK    2  A    between atoms: C_15  and  N_7 
REMARK    3  A    between atoms: O_14  and  C_10 
REMARK    4  A    between atoms: C_12  and  C_13 
REMARK    5  A    between atoms: C_19  and  O_14 
ROOT
ATOM      1  N   UNL d   1      -2.407   5.116  -0.812  0.00  0.00    -0.344 N 
ATOM      2  HN  UNL d   1      -2.869   5.745  -1.469  1.00  0.00     0.167 HD
ATOM      3  C   UNL d   1      -3.102   4.461   0.136  0.00  0.00     0.148 A 
ATOM      4  C   UNL d   1      -0.381   4.036  -0.017  0.00  0.00     0.050 A 
ATOM      5  C   UNL d   1      -1.072   4.905  -0.858  0.00  0.00     0.119 A 
ATOM      6  C   UNL d   1      -2.517   3.569   1.022  0.00  0.00     0.059 A 
ATOM      7  C   UNL d   1      -1.136   3.356   0.943  0.00  0.00     0.035 A 
ENDROOT
BRANCH   3   8
ATOM      8  O   UNL d   1      -4.476   4.647   0.218  0.00  0.00    -0.294 OA
BRANCH   8   9
ATOM      9  C   UNL d   1      -4.972   5.869  -0.185  0.00  0.00     0.077 A 
ATOM     10  C   UNL d   1      -6.167   5.878  -0.902  0.00  0.00     0.038 A 
ATOM     11  C   UNL d   1      -6.748   7.097  -1.282  0.00  0.00     0.011 A 
ATOM     12  C   UNL d   1      -6.158   8.332  -0.947  0.00  0.00    -0.050 A 
ATOM     13  C   UNL d   1      -4.952   8.292  -0.228  0.00  0.00     0.011 A 
ATOM     14  C   UNL d   1      -4.377   7.079   0.163  0.00  0.00     0.038 A 
BRANCH  12  15
ATOM     15  C   UNL d   1      -6.836   9.661  -1.331  0.00  0.00    -0.024 C 
ATOM     16  C   UNL d   1      -6.054  10.912  -0.866  0.00  0.00     0.019 C 
ATOM     17  C   UNL d   1      -6.989   9.763  -2.862  0.00  0.00     0.019 C 
ATOM     18  C   UNL d   1      -8.232   9.730  -0.675  0.00  0.00     0.019 C 
ENDBRANCH  12  15
ENDBRANCH   8   9
ENDBRANCH   3   8
BRANCH   4  19
ATOM     19  N   UNL d   1       1.008   3.773  -0.112  0.00  0.00    -0.322 N 
ATOM     20  C   UNL d   1       1.891   4.441  -0.946  0.00  0.00     0.258 C 
ATOM     21  O   UNL d   1       1.598   5.451  -1.580  0.00  0.00    -0.267 OA
ATOM     22  H   UNL d   1       1.378   3.048   0.486  0.00  0.00     0.169 HD
BRANCH  20  23
ATOM     23  C   UNL d   1       3.234   3.874  -1.025  0.00  0.00     0.064 A 
ATOM     24  C   UNL d   1       4.286   4.444  -1.736  0.00  0.00     0.065 A 
ATOM     25  O   UNL d   1       5.410   3.688  -1.614  0.00  0.00    -0.319 OA
ATOM     26  C   UNL d   1       4.447   5.652  -2.578  0.00  0.00     0.077 C 
ATOM     27  C   UNL d   1       5.101   2.617  -0.843  0.00  0.00     0.050 A 
ATOM     28  C   UNL d   1       3.774   2.668  -0.474  0.00  0.00     0.051 A 
ATOM     29  C   UNL d   1       6.205   1.673  -0.581  0.00  0.00     0.076 C 
ENDBRANCH  20  23
ENDBRANCH   4  19
TORSDOF 5
