REMARK  7 active torsions:
REMARK  status: ('A' for Active; 'I' for Inactive)
REMARK    1  A    between atoms: N_3  and  C_1 
REMARK    2  A    between atoms: N_4  and  C_2 
REMARK    3  A    between atoms: C_5  and  C_12 
REMARK    4  A    between atoms: C_6  and  C_11 
REMARK    5  A    between atoms: N_14  and  C_9 
REMARK    6  A    between atoms: C_10  and  N_13 
REMARK    7  A    between atoms: N_13  and  N_14 
ROOT
ATOM      1  N   UNL d   1       3.060   2.078  -0.720  0.00  0.00    -0.203 NA
ATOM      2  H   UNL d   1       3.564   1.418  -0.115  0.00  0.00     0.153 HD
ENDROOT
BRANCH   1   3
ATOM      3  C   UNL d   1       3.857   3.245  -0.858  0.00  0.00     0.060 A 
ATOM      4  C   UNL d   1       3.900   4.335   0.025  0.00  0.00     0.126 A 
ATOM      5  C   UNL d   1       4.769   5.426  -0.176  0.00  0.00     0.054 A 
ATOM      6  C   UNL d   1       5.658   5.427  -1.260  0.00  0.00     0.050 A 
ATOM      7  C   UNL d   1       5.675   4.311  -2.108  0.00  0.00     0.018 A 
ATOM      8  C   UNL d   1       4.798   3.238  -1.901  0.00  0.00     0.028 A 
BRANCH   4   9
ATOM      9  N   UNL d   1       3.107   4.354   1.240  0.00  0.00    -0.114 N 
ATOM     10  O   UNL d   1       2.484   5.394   1.492  0.00  0.00    -0.532 OA
ATOM     11  O   UNL d   1       3.138   3.343   1.956  0.00  0.00    -0.532 OA
ENDBRANCH   4   9
BRANCH   6  12
ATOM     12  C   UNL d   1       6.589   6.589  -1.512  0.00  0.00     0.417 C 
ATOM     13  F   UNL d   1       6.447   7.601  -0.613  0.00  0.00    -0.166 F 
ATOM     14  F   UNL d   1       7.899   6.223  -1.461  0.00  0.00    -0.166 F 
ATOM     15  F   UNL d   1       6.400   7.145  -2.739  0.00  0.00    -0.166 F 
ENDBRANCH   6  12
ENDBRANCH   1   3
BRANCH   1  16
ATOM     16  N   UNL d   1       1.712   2.138  -0.415  0.00  0.00    -0.314 N 
ATOM     17  H   UNL d   1       1.457   2.715   0.401  0.00  0.00     0.181 HD
BRANCH  16  18
ATOM     18  C   UNL d   1       0.926   0.949  -0.430  0.00  0.00     0.076 A 
ATOM     19  C   UNL d   1      -0.210   0.746   0.384  0.00  0.00     0.131 A 
ATOM     20  C   UNL d   1      -0.909  -0.481   0.359  0.00  0.00     0.054 A 
ATOM     21  C   UNL d   1      -0.509  -1.515  -0.501  0.00  0.00     0.050 A 
ATOM     22  C   UNL d   1       0.567  -1.286  -1.367  0.00  0.00     0.018 A 
ATOM     23  C   UNL d   1       1.263  -0.074  -1.335  0.00  0.00     0.034 A 
BRANCH  19  24
ATOM     24  N   UNL d   1      -0.688   1.784   1.315  0.00  0.00    -0.113 N 
ATOM     25  O   UNL d   1      -1.691   1.527   1.997  0.00  0.00    -0.532 OA
ATOM     26  O   UNL d   1      -0.064   2.852   1.367  0.00  0.00    -0.532 OA
ENDBRANCH  19  24
BRANCH  21  27
ATOM     27  C   UNL d   1      -1.207  -2.855  -0.501  0.00  0.00     0.417 C 
ATOM     28  F   UNL d   1      -2.171  -2.963   0.453  0.00  0.00    -0.166 F 
ATOM     29  F   UNL d   1      -1.817  -3.122  -1.688  0.00  0.00    -0.166 F 
ATOM     30  F   UNL d   1      -0.344  -3.883  -0.280  0.00  0.00    -0.166 F 
ENDBRANCH  21  27
ENDBRANCH  16  18
ENDBRANCH   1  16
TORSDOF 7
