REMARK  8 active torsions:
REMARK  status: ('A' for Active; 'I' for Inactive)
REMARK    1  A    between atoms: N_5  and  C_1 
REMARK    2  A    between atoms: C_7  and  C_2 
REMARK    3  A    between atoms: C_8  and  N_5 
REMARK    4  A    between atoms: C_10  and  C_6 
REMARK    5  A    between atoms: O_13  and  C_7 
REMARK    6  A    between atoms: O_12  and  C_8 
REMARK    7  A    between atoms: C_16  and  O_12 
REMARK    8  A    between atoms: C_17  and  O_13 
ROOT
ATOM      1  C   UNL d   1       0.229   1.312   0.145  0.00  0.00     0.093 C 
ATOM      2  C   UNL d   1       1.500   0.765   0.107  0.00  0.00     0.074 C 
ATOM      3  S   UNL d   1      -0.973   0.124   0.362  0.00  0.00    -0.071 SA
ATOM      4  C   UNL d   1       1.418  -0.679   0.096  0.00  0.00     0.040 C 
ATOM      5  C   UNL d   1       0.125  -1.163   0.169  0.00  0.00     0.018 C 
ENDROOT
BRANCH   1   6
ATOM      6  N   UNL d   1      -0.175   2.638   0.187  0.00  0.00    -0.321 N 
ATOM      7  H   UNL d   1       0.486   3.321   0.546  0.00  0.00     0.169 HD
BRANCH   6   8
ATOM      8  C   UNL d   1      -1.309   3.167  -0.397  0.00  0.00     0.215 C 
ATOM      9  S   UNL d   1      -2.175   2.570  -1.703  0.00  0.00    -0.033 SA
BRANCH   8  10
ATOM     10  O   UNL d   1      -1.598   4.378   0.166  0.00  0.00    -0.327 OA
BRANCH  10  11
ATOM     11  C   UNL d   1      -2.746   5.157  -0.254  0.00  0.00     0.173 C 
ATOM     12  C   UNL d   1      -2.868   6.377   0.637  0.00  0.00     0.034 C 
ENDBRANCH  10  11
ENDBRANCH   8  10
ENDBRANCH   6   8
ENDBRANCH   1   6
BRANCH   2  13
ATOM     13  C   UNL d   1       2.739   1.518  -0.033  0.00  0.00     0.296 C 
ATOM     14  O   UNL d   1       2.796   2.740  -0.058  0.00  0.00    -0.259 OA
BRANCH  13  15
ATOM     15  O   UNL d   1       3.806   0.682  -0.207  0.00  0.00    -0.318 OA
BRANCH  15  16
ATOM     16  C   UNL d   1       4.984   1.249  -0.794  0.00  0.00     0.174 C 
ATOM     17  C   UNL d   1       4.858   1.147  -2.304  0.00  0.00     0.034 C 
ENDBRANCH  15  16
ENDBRANCH  13  15
ENDBRANCH   2  13
BRANCH   5  18
ATOM     18  C   UNL d   1      -0.352  -2.552   0.158  0.00  0.00    -0.019 A 
ATOM     19  C   UNL d   1      -1.597  -2.896  -0.400  0.00  0.00     0.013 A 
ATOM     20  C   UNL d   1      -2.060  -4.211  -0.363  0.00  0.00     0.001 A 
ATOM     21  C   UNL d   1      -1.280  -5.204   0.216  0.00  0.00     0.000 A 
ATOM     22  C   UNL d   1      -0.034  -4.889   0.752  0.00  0.00     0.001 A 
ATOM     23  C   UNL d   1       0.429  -3.572   0.718  0.00  0.00     0.013 A 
ENDBRANCH   5  18
TORSDOF 8
