REMARK  3 active torsions:
REMARK  status: ('A' for Active; 'I' for Inactive)
REMARK    1  A    between atoms: C_8  and  C_1 
REMARK    2  A    between atoms: N_7  and  C_3 
REMARK       I    between atoms: C_4  and  N_7 
REMARK    3  A    between atoms: C_11  and  C_4 
ROOT
ATOM      1  C   UNL d   1       1.578  -3.070   0.007  0.00  0.00     0.263 C 
ATOM      2  N   UNL d   1       0.350  -2.447  -0.114  0.00  0.00    -0.302 N 
ATOM      3  O   UNL d   1       1.737  -4.290   0.029  0.00  0.00    -0.267 OA
ATOM      4  H   UNL d   1       0.308  -1.448  -0.295  0.00  0.00     0.171 HD
ENDROOT
BRANCH   2   5
ATOM      5  C   UNL d   1      -0.872  -3.068  -0.189  0.00  0.00     0.168 C 
ATOM      6  S   UNL d   1      -1.111  -4.701   0.215  0.00  0.00    -0.029 SA
ATOM      7  C   UNL d   1      -2.705  -4.555  -0.419  0.00  0.00     0.177 C 
ATOM      8  N   UNL d   1      -3.032  -3.308  -0.716  0.00  0.00    -0.288 N 
ATOM      9  N   UNL d   1      -1.966  -2.441  -0.555  0.00  0.00    -0.279 N 
ATOM     10  HN  UNL d   1      -3.960  -3.020  -1.027  1.00  0.00     0.187 HD
ATOM     11  HN  UNL d   1      -2.023  -1.434  -0.702  1.00  0.00     0.189 HD
BRANCH   7  12
ATOM     12  C   UNL d   1      -3.548  -5.763  -0.653  0.00  0.00     0.440 C 
ATOM     13  F   UNL d   1      -2.972  -6.919  -0.221  0.00  0.00    -0.164 F 
ATOM     14  F   UNL d   1      -4.755  -5.685  -0.033  0.00  0.00    -0.164 F 
ATOM     15  F   UNL d   1      -3.802  -5.942  -1.978  0.00  0.00    -0.164 F 
ENDBRANCH   7  12
ENDBRANCH   2   5
BRANCH   1  16
ATOM     16  C   UNL d   1       2.775  -2.193   0.114  0.00  0.00     0.109 A 
ATOM     17  C   UNL d   1       2.680  -0.798   0.146  0.00  0.00     0.135 A 
ATOM     18  F   UNL d   1       1.501  -0.183  -0.031  0.00  0.00    -0.205 F 
ATOM     19  C   UNL d   1       3.799   0.007   0.372  0.00  0.00     0.043 A 
ATOM     20  C   UNL d   1       5.048  -0.576   0.568  0.00  0.00     0.006 A 
ATOM     21  C   UNL d   1       5.174  -1.960   0.493  0.00  0.00     0.043 A 
ATOM     22  C   UNL d   1       4.049  -2.754   0.259  0.00  0.00     0.135 A 
ATOM     23  F   UNL d   1       4.246  -4.080   0.188  0.00  0.00    -0.205 F 
ENDBRANCH   1  16
TORSDOF 3
