REMARK  4 active torsions:
REMARK  status: ('A' for Active; 'I' for Inactive)
REMARK    1  A    between atoms: S_10  and  C_2 
REMARK    2  A    between atoms: C_19  and  C_3 
REMARK    3  A    between atoms: C_11  and  S_10 
REMARK    4  A    between atoms: N_22  and  C_12 
ROOT
ATOM      1  N   UNL d   1       1.401   2.066   2.423  0.00  0.00    -0.326 N 
ATOM      2  HN  UNL d   1       1.059   1.130   2.207  1.00  0.00     0.169 HD
ATOM      3  C   UNL d   1       1.230   3.085   1.560  0.00  0.00     0.153 A 
ATOM      4  C   UNL d   1       2.037   2.324   3.579  0.00  0.00     0.102 A 
ATOM      5  C   UNL d   1       2.536   3.576   3.889  0.00  0.00     0.098 A 
ATOM      6  N   UNL d   1       1.667   4.336   1.785  0.00  0.00    -0.345 N 
ATOM      7  HN  UNL d   1       1.521   5.083   1.107  1.00  0.00     0.167 HD
ATOM      8  C   UNL d   1       3.254   3.862   5.085  0.00  0.00     0.104 C 
ATOM      9  N   UNL d   1       3.829   4.117   6.060  0.00  0.00    -0.191 NA
ATOM     10  C   UNL d   1       2.307   4.555   2.951  0.00  0.00     0.116 A 
ENDROOT
BRANCH   4  11
ATOM     11  N   UNL d   1       2.248   1.208   4.388  0.00  0.00    -0.287 NA
ATOM     12  H   UNL d   1       1.733   0.419   4.001  0.00  0.00     0.125 HD
ATOM     13  H   UNL d   1       2.024   1.355   5.367  0.00  0.00     0.125 HD
ENDBRANCH   4  11
BRANCH   3  14
ATOM     14  S   UNL d   1       0.562   2.780  -0.060  0.00  0.00    -0.016 SA
BRANCH  14  15
ATOM     15  C   UNL d   1       0.078   1.126   0.051  0.00  0.00     0.170 A 
ATOM     16  N   UNL d   1       0.917   0.041   0.059  0.00  0.00    -0.315 N 
ATOM     17  C   UNL d   1       0.098  -1.075  -0.027  0.00  0.00     0.134 A 
ATOM     18  C   UNL d   1       2.351   0.035   0.198  0.00  0.00     0.160 C 
ATOM     19  N   UNL d   1      -1.157  -0.654  -0.040  0.00  0.00    -0.283 N 
ATOM     20  N   UNL d   1      -1.167   0.717  -0.022  0.00  0.00    -0.278 N 
ATOM     21  HN  UNL d   1      -1.983  -1.252  -0.061  1.00  0.00     0.188 HD
ATOM     22  HN  UNL d   1      -1.995   1.313  -0.058  1.00  0.00     0.189 HD
BRANCH  17  23
ATOM     23  C   UNL d   1       0.495  -2.490  -0.035  0.00  0.00     0.012 A 
ATOM     24  C   UNL d   1      -0.360  -3.438   0.536  0.00  0.00     0.032 A 
ATOM     25  C   UNL d   1       0.033  -4.767   0.567  0.00  0.00     0.088 A 
ATOM     26  N   UNL d   1       1.206  -5.212   0.071  0.00  0.00    -0.375 N 
ATOM     27  C   UNL d   1       1.998  -4.296  -0.517  0.00  0.00     0.088 A 
ATOM     28  HN  UNL d   1       1.478  -6.193   0.138  1.00  0.00     0.164 HD
ATOM     29  C   UNL d   1       1.682  -2.949  -0.610  0.00  0.00     0.032 A 
ENDBRANCH  17  23
ENDBRANCH  14  15
ENDBRANCH   3  14
TORSDOF 4
