REMARK  3 active torsions:
REMARK  status: ('A' for Active; 'I' for Inactive)
REMARK    1  A    between atoms: C_8  and  C_1 
REMARK       I    between atoms: C_4  and  N_7 
REMARK    2  A    between atoms: C_11  and  C_4 
REMARK    3  A    between atoms: N_7  and  C_12 
ROOT
ATOM      1  C   UNL d   1       0.647   2.546   0.282  0.00  0.00     0.012 A 
ATOM      2  C   UNL d   1       1.697   4.343  -0.989  0.00  0.00     0.035 A 
ATOM      3  C   UNL d   1       1.512   2.983  -0.735  0.00  0.00     0.044 A 
ATOM      4  C   UNL d   1       0.034   3.497   1.109  0.00  0.00     0.015 A 
ATOM      5  C   UNL d   1       0.252   4.858   0.896  0.00  0.00     0.003 A 
ATOM      6  C   UNL d   1       1.067   5.278  -0.158  0.00  0.00     0.029 A 
ENDROOT
BRANCH   2   7
ATOM      7  N   UNL d   1       2.421   4.840  -2.095  0.00  0.00    -0.323 N 
ATOM      8  C   UNL d   1       3.053   4.096  -3.080  0.00  0.00     0.256 C 
ATOM      9  O   UNL d   1       3.223   2.884  -3.093  0.00  0.00    -0.267 OA
ATOM     10  H   UNL d   1       2.345   5.838  -2.241  0.00  0.00     0.169 HD
BRANCH   8  11
ATOM     11  C   UNL d   1       3.509   4.873  -4.267  0.00  0.00     0.032 A 
ATOM     12  C   UNL d   1       3.973   6.193  -4.172  0.00  0.00     0.018 A 
ATOM     13  C   UNL d   1       4.336   6.888  -5.330  0.00  0.00     0.025 A 
ATOM     14  C   UNL d   1       4.250   6.265  -6.575  0.00  0.00     0.034 A 
ATOM     15  C   UNL d   1       3.819   4.943  -6.676  0.00  0.00     0.025 A 
ATOM     16 CL   UNL d   1       4.678   7.134  -7.996  0.00  0.00    -0.084 Cl
ATOM     17  C   UNL d   1       3.453   4.249  -5.521  0.00  0.00     0.018 A 
ENDBRANCH   8  11
ENDBRANCH   2   7
BRANCH   1  18
ATOM     18  C   UNL d   1       0.326   1.126   0.389  0.00  0.00     0.137 A 
ATOM     19  N   UNL d   1       0.888   0.186  -0.450  0.00  0.00    -0.329 N 
ATOM     20  C   UNL d   1       0.241  -0.902  -0.127  0.00  0.00     0.261 A 
ATOM     21  HN  UNL d   1       1.624   0.309  -1.146  1.00  0.00     0.168 HD
ATOM     22  O   UNL d   1      -0.666  -0.727   0.864  0.00  0.00    -0.231 OA
ATOM     23  N   UNL d   1      -0.609   0.623   1.215  0.00  0.00    -0.243 N 
ATOM     24  HN  UNL d   1      -1.148   1.112   1.930  1.00  0.00     0.196 HD
ENDBRANCH   1  18
TORSDOF 3
