REMARK  5 active torsions:
REMARK  status: ('A' for Active; 'I' for Inactive)
REMARK    1  A    between atoms: C_2  and  C_1 
REMARK    2  A    between atoms: C_3  and  C_2 
REMARK    3  A    between atoms: N_5  and  C_4 
REMARK       I    between atoms: C_6  and  N_5 
REMARK    4  A    between atoms: C_11  and  C_6 
REMARK    5  A    between atoms: N_7  and  C_11 
ROOT
ATOM      1  C   UNL d   1       1.509   1.557  -0.640  0.00  0.00     0.043 A 
ATOM      2  C   UNL d   1       2.380   0.441  -0.482  0.00  0.00     0.049 A 
ATOM      3  C   UNL d   1       0.137   1.308  -0.787  0.00  0.00     0.041 A 
ATOM      4  C   UNL d   1       1.822  -0.842  -0.340  0.00  0.00     0.032 A 
ATOM      5  C   UNL d   1      -0.390   0.026  -0.625  0.00  0.00     0.035 A 
ATOM      6  C   UNL d   1       0.447  -1.052  -0.384  0.00  0.00     0.026 A 
ATOM      7 CL   UNL d   1      -2.091  -0.218  -0.686  0.00  0.00    -0.084 Cl
ENDROOT
BRANCH   2   8
ATOM      8  N   UNL d   1       3.792   0.594  -0.450  0.00  0.00    -0.325 N 
ATOM      9  C   UNL d   1       4.705  -0.403  -0.796  0.00  0.00     0.250 C 
ATOM     10  O   UNL d   1       4.394  -1.463  -1.333  0.00  0.00    -0.271 OA
ATOM     11  H   UNL d   1       4.130   1.552  -0.348  0.00  0.00     0.169 HD
BRANCH   9  12
ATOM     12  C   UNL d   1       6.165  -0.079  -0.410  0.00  0.00     0.375 C 
BRANCH  12  13
ATOM     13  N   UNL d   1       7.109  -0.761  -1.313  0.00  0.00     0.101 N 
ATOM     14  C   UNL d   1       8.467  -0.900  -0.762  0.00  0.00     0.299 C 
ATOM     15  C   UNL d   1       9.361   0.335  -0.941  0.00  0.00     0.198 C 
ATOM     16  O   UNL d   1       9.416   0.744  -2.312  0.00  0.00    -0.388 OA
ATOM     17  C   UNL d   1       8.100   1.038  -2.795  0.00  0.00     0.198 C 
ATOM     18  C   UNL d   1       7.164  -0.176  -2.665  0.00  0.00     0.299 C 
ENDBRANCH  12  13
ENDBRANCH   9  12
ENDBRANCH   2   8
BRANCH   1  19
ATOM     19  C   UNL d   1       2.065   2.959  -0.670  0.00  0.00     0.196 C 
ATOM     20  O   UNL d   1       3.233   3.142  -0.312  0.00  0.00    -0.287 OA
BRANCH  19  21
ATOM     21  C   UNL d   1       1.352   4.135  -1.244  0.00  0.00     0.037 C 
ATOM     22  C   UNL d   1       0.115   4.643  -0.826  0.00  0.00     0.048 C 
ATOM     23 CL   UNL d   1      -0.672   4.142   0.631  0.00  0.00    -0.083 Cl
ATOM     24  C   UNL d   1      -0.491   5.690  -1.538  0.00  0.00     0.025 C 
ATOM     25  C   UNL d   1       0.181   6.314  -2.590  0.00  0.00     0.002 C 
ATOM     26  C   UNL d   1       1.469   5.906  -2.921  0.00  0.00     0.001 C 
ATOM     27  C   UNL d   1       2.044   4.816  -2.263  0.00  0.00     0.017 C 
ENDBRANCH  19  21
ENDBRANCH   1  19
TORSDOF 5
