REMARK  4 active torsions:
REMARK  status: ('A' for Active; 'I' for Inactive)
REMARK    1  A    between atoms: C_2  and  S_1 
REMARK    2  A    between atoms: N_5  and  S_1 
REMARK    3  A    between atoms: C_13  and  N_5 
REMARK    4  A    between atoms: O_18  and  C_12 
ROOT
ATOM      1  N   UNL d   1       0.327   1.556  -0.545  0.00  0.00    -0.180 NA
ATOM      2  H   UNL d   1       0.987   1.161  -1.216  0.00  0.00     0.146 HD
ENDROOT
BRANCH   1   3
ATOM      3  S   UNL d   1      -0.186   0.308   0.483  0.00  0.00     0.252 S 
ATOM      4  O   UNL d   1      -0.623  -0.777  -0.365  0.00  0.00    -0.205 OA
ATOM      5  O   UNL d   1       0.839   0.101   1.484  0.00  0.00    -0.205 OA
BRANCH   3   6
ATOM      6  C   UNL d   1      -1.623   0.818   1.392  0.00  0.00     0.117 A 
ATOM      7  S   UNL d   1      -2.970   1.334   0.466  0.00  0.00    -0.065 SA
ATOM      8  C   UNL d   1      -3.865   1.663   1.864  0.00  0.00     0.075 A 
ATOM      9 CL   UNL d   1      -5.453   2.301   1.730  0.00  0.00    -0.076 Cl
ATOM     10  C   UNL d   1      -3.198   1.369   3.025  0.00  0.00     0.033 A 
ATOM     11  C   UNL d   1      -1.890   0.871   2.749  0.00  0.00     0.034 A 
ENDBRANCH   3   6
ENDBRANCH   1   3
BRANCH   1  12
ATOM     12  C   UNL d   1       0.786   2.761   0.072  0.00  0.00     0.038 A 
ATOM     13  C   UNL d   1      -0.088   3.823   0.261  0.00  0.00     0.114 A 
ATOM     14  N   UNL d   1       0.261   5.006   0.810  0.00  0.00    -0.345 N 
ATOM     15  C   UNL d   1       1.548   5.141   1.192  0.00  0.00     0.141 A 
ATOM     16  HN  UNL d   1      -0.414   5.761   0.929  1.00  0.00     0.167 HD
ATOM     17  C   UNL d   1       2.491   4.130   1.071  0.00  0.00     0.058 A 
ATOM     18  C   UNL d   1       2.100   2.913   0.507  0.00  0.00     0.030 A 
BRANCH  15  19
ATOM     19  O   UNL d   1       1.975   6.339   1.726  0.00  0.00    -0.341 OA
ATOM     20  C   UNL d   1       0.944   7.325   1.749  0.00  0.00     0.211 C 
ENDBRANCH  15  19
ENDBRANCH   1  12
TORSDOF 4
