REMARK  4 active torsions:
REMARK  status: ('A' for Active; 'I' for Inactive)
REMARK    1  A    between atoms: C_4  and  C_1 
REMARK    2  A    between atoms: C_5  and  C_1 
REMARK    3  A    between atoms: N_6  and  N_2 
REMARK    4  A    between atoms: C_9  and  N_6 
ROOT
ATOM      1  C   UNL d   1       1.008   0.058  -0.121  0.00  0.00     0.134 C 
ATOM      2  N   UNL d   1       0.389  -0.912   0.499  0.00  0.00    -0.310 N 
ATOM      3  HN  UNL d   1      -0.598  -1.099   0.325  1.00  0.00     0.181 HD
ENDROOT
BRANCH   2   4
ATOM      4  N   UNL d   1       1.101  -1.670   1.388  0.00  0.00    -0.205 NA
ATOM      5  H   UNL d   1       2.002  -1.295   1.717  0.00  0.00     0.153 HD
BRANCH   4   6
ATOM      6  C   UNL d   1       0.375  -2.209   2.481  0.00  0.00     0.027 A 
ATOM      7  C   UNL d   1      -1.012  -2.414   2.436  0.00  0.00     0.027 A 
ATOM      8  C   UNL d   1      -1.693  -2.955   3.533  0.00  0.00     0.026 A 
ATOM      9  C   UNL d   1      -0.984  -3.322   4.673  0.00  0.00     0.034 A 
ATOM     10  C   UNL d   1       0.399  -3.174   4.719  0.00  0.00     0.026 A 
ATOM     11 CL   UNL d   1      -1.819  -3.968   6.032  0.00  0.00    -0.084 Cl
ATOM     12  C   UNL d   1       1.074  -2.634   3.620  0.00  0.00     0.027 A 
ENDBRANCH   4   6
ENDBRANCH   2   4
BRANCH   1  13
ATOM     13  C   UNL d   1       0.132   0.944  -0.980  0.00  0.00     0.176 C 
ATOM     14  O   UNL d   1       0.545   1.333  -2.064  0.00  0.00    -0.291 OA
ATOM     15  C   UNL d   1      -1.217   1.319  -0.435  0.00  0.00     0.098 C 
ENDBRANCH   1  13
BRANCH   1  16
ATOM     16  C   UNL d   1       2.489   0.338   0.065  0.00  0.00     0.176 C 
ATOM     17  O   UNL d   1       2.950   0.309   1.205  0.00  0.00    -0.291 OA
ATOM     18  C   UNL d   1       3.354   0.510  -1.148  0.00  0.00     0.098 C 
ENDBRANCH   1  16
TORSDOF 4
