REMARK  2 active torsions:
REMARK  status: ('A' for Active; 'I' for Inactive)
REMARK    1  A    between atoms: C_2  and  N_1 
REMARK    2  A    between atoms: C_9  and  C_5 
ROOT
ATOM      1  C   UNL d   1       0.399   0.912  -0.654  0.00  0.00     0.114 A 
ATOM      2  C   UNL d   1      -0.743   1.566  -0.156  0.00  0.00    -0.028 A 
ATOM      3  C   UNL d   1       0.894   1.162  -1.946  0.00  0.00    -0.028 A 
ATOM      4  C   UNL d   1      -0.953   2.751  -2.313  0.00  0.00    -0.049 A 
ATOM      5  C   UNL d   1      -1.406   2.471  -1.007  0.00  0.00     0.017 A 
ATOM      6  C   UNL d   1       0.206   2.089  -2.750  0.00  0.00     0.017 A 
ATOM      7  C   UNL d   1       2.121   0.513  -2.526  0.00  0.00     0.050 C 
ATOM      8  C   UNL d   1      -1.320   1.332   1.213  0.00  0.00     0.050 C 
ENDROOT
BRANCH   4   9
ATOM      9  C   UNL d   1      -1.730   3.736  -3.209  0.00  0.00    -0.024 C 
ATOM     10  C   UNL d   1      -1.097   3.942  -4.604  0.00  0.00     0.019 C 
ATOM     11  C   UNL d   1      -3.163   3.207  -3.434  0.00  0.00     0.019 C 
ATOM     12  C   UNL d   1      -1.802   5.122  -2.534  0.00  0.00     0.019 C 
ENDBRANCH   4   9
BRANCH   1  13
ATOM     13  N   UNL d   1       1.076  -0.059   0.188  0.00  0.00    -0.115 N 
ATOM     14  O   UNL d   1       0.497  -1.137   0.383  0.00  0.00    -0.532 OA
ATOM     15  O   UNL d   1       2.180   0.263   0.648  0.00  0.00    -0.532 OA
ENDBRANCH   1  13
TORSDOF 2
