REMARK  3 active torsions:
REMARK  status: ('A' for Active; 'I' for Inactive)
REMARK    1  A    between atoms: C_3  and  C_1 
REMARK    2  A    between atoms: O_7  and  C_1 
REMARK    3  A    between atoms: C_2  and  C_3 
ROOT
ATOM      1  C   UNL d   1       1.266  -2.439  -0.811  0.00  0.00    -0.032 A 
ATOM      2  C   UNL d   1       0.862  -3.771  -0.614  0.00  0.00     0.013 A 
ATOM      3  I   UNL d   1      -1.028  -4.300   0.126  0.00  0.00    -0.044 I 
ATOM      4  C   UNL d   1       2.539  -2.205  -1.370  0.00  0.00     0.009 A 
ATOM      5  C   UNL d   1       1.727  -4.828  -0.928  0.00  0.00     0.019 A 
ATOM      6  C   UNL d   1       3.392  -3.261  -1.690  0.00  0.00     0.001 A 
ATOM      7  C   UNL d   1       2.990  -4.572  -1.460  0.00  0.00     0.001 A 
ENDROOT
BRANCH   1   8
ATOM      8  C   UNL d   1       0.412  -1.234  -0.473  0.00  0.00     0.149 C 
BRANCH   8   9
ATOM      9  C   UNL d   1      -0.554  -0.749  -1.533  0.00  0.00     0.143 C 
ATOM     10  O   UNL d   1      -1.353   0.154  -1.318  0.00  0.00    -0.650 OA
BRANCH   9  11
ATOM     11  O   UNL d   1      -0.467  -1.324  -2.751  0.00  0.00    -0.776 OA
ATOM     12  H   UNL d   1       0.196  -2.035  -2.831  0.00  0.00     0.167 HD
ENDBRANCH   9  11
ENDBRANCH   8   9
ENDBRANCH   1   8
TORSDOF 3
