REMARK  3 active torsions:
REMARK  status: ('A' for Active; 'I' for Inactive)
REMARK    1  A    between atoms: N_4  and  S_1 
REMARK    2  A    between atoms: C_5  and  C_2 
REMARK    3  A    between atoms: C_3  and  N_6 
ROOT
ATOM      1  C   UNL d   1      -1.817   3.447   3.880  0.00  0.00     0.091 A 
ATOM      2  C   UNL d   1      -1.444   2.135   3.579  0.00  0.00     0.118 A 
ATOM      3  N   UNL d   1      -1.800   1.115   4.400  0.00  0.00    -0.352 N 
ATOM      4  HN  UNL d   1      -1.514   0.160   4.184  1.00  0.00     0.166 HD
ATOM      5  C   UNL d   1      -2.576   3.678   5.048  0.00  0.00     0.021 A 
ATOM      6  C   UNL d   1      -2.536   1.368   5.504  0.00  0.00     0.089 A 
ATOM      7  C   UNL d   1      -2.955   2.627   5.865  0.00  0.00     0.018 A 
ENDROOT
BRANCH   2   8
ATOM      8  N   UNL d   1      -0.853   1.793   2.376  0.00  0.00    -0.364 N 
ATOM      9  C   UNL d   1      -1.114   0.421   1.892  0.00  0.00     0.140 C 
ATOM     10  C   UNL d   1      -1.020   0.455   0.359  0.00  0.00     0.127 C 
ATOM     11  N   UNL d   1       0.331   0.922  -0.111  0.00  0.00    -0.208 NA
ATOM     12  C   UNL d   1       0.741   2.209   0.558  0.00  0.00     0.127 C 
ATOM     13  C   UNL d   1       0.538   2.192   2.098  0.00  0.00     0.140 C 
BRANCH  11  14
ATOM     14  S   UNL d   1       1.517  -0.282  -0.242  0.00  0.00     0.207 S 
ATOM     15  O   UNL d   1       0.880  -1.493  -0.722  0.00  0.00    -0.212 OA
ATOM     16  O   UNL d   1       2.297  -0.274   0.974  0.00  0.00    -0.212 OA
ATOM     17  C   UNL d   1       2.512   0.353  -1.571  0.00  0.00     0.180 C 
ENDBRANCH  11  14
ENDBRANCH   2   8
BRANCH   1  18
ATOM     18  C   UNL d   1      -1.518   4.637   3.017  0.00  0.00     0.421 C 
ATOM     19  F   UNL d   1      -1.097   4.397   1.745  0.00  0.00    -0.166 F 
ATOM     20  F   UNL d   1      -2.605   5.455   2.873  0.00  0.00    -0.166 F 
ATOM     21  F   UNL d   1      -0.552   5.430   3.572  0.00  0.00    -0.166 F 
ENDBRANCH   1  18
TORSDOF 3
