REMARK  5 active torsions:
REMARK  status: ('A' for Active; 'I' for Inactive)
REMARK    1  A    between atoms: C_7  and  C_1 
REMARK    2  A    between atoms: C_9  and  C_2 
REMARK    3  A    between atoms: N_8  and  C_3 
REMARK    4  A    between atoms: C_11  and  C_7 
REMARK    5  A    between atoms: C_12  and  N_8 
ROOT
ATOM      1  C   UNL d   1       0.065   1.288   0.027  0.00  0.00     0.086 A 
ATOM      2  C   UNL d   1       1.364   0.807   0.106  0.00  0.00     0.066 A 
ATOM      3  C   UNL d   1       0.287  -1.150   0.036  0.00  0.00     0.150 A 
ATOM      4  N   UNL d   1       1.458  -0.577   0.147  0.00  0.00    -0.335 N 
ATOM      5  HN  UNL d   1       2.336  -1.087   0.250  1.00  0.00     0.168 HD
ATOM      6  S   UNL d   1      -1.026  -0.053  -0.001  0.00  0.00    -0.048 SA
ENDROOT
BRANCH   3   7
ATOM      7  N   UNL d   1       0.088  -2.483  -0.066  0.00  0.00    -0.337 N 
ATOM      8  H   UNL d   1      -0.788  -2.827  -0.433  0.00  0.00     0.168 HD
BRANCH   7   9
ATOM      9  C   UNL d   1       0.922  -3.463   0.502  0.00  0.00     0.034 A 
ATOM     10  C   UNL d   1       1.680  -3.214   1.659  0.00  0.00     0.032 A 
ATOM     11  C   UNL d   1       2.529  -4.186   2.186  0.00  0.00     0.044 A 
ATOM     12  C   UNL d   1       2.650  -5.406   1.537  0.00  0.00     0.116 A 
ATOM     13  C   UNL d   1       1.933  -5.671   0.377  0.00  0.00     0.044 A 
ATOM     14  F   UNL d   1       3.474  -6.338   2.032  0.00  0.00    -0.206 F 
ATOM     15  C   UNL d   1       1.066  -4.703  -0.137  0.00  0.00     0.032 A 
ENDBRANCH   7   9
ENDBRANCH   3   7
BRANCH   1  16
ATOM     16  C   UNL d   1      -0.438   2.650   0.066  0.00  0.00     0.201 C 
ATOM     17  O   UNL d   1       0.081   3.528   0.751  0.00  0.00    -0.286 OA
BRANCH  16  18
ATOM     18  C   UNL d   1      -1.631   3.057  -0.747  0.00  0.00     0.015 A 
ATOM     19  C   UNL d   1      -1.981   2.420  -1.947  0.00  0.00     0.015 A 
ATOM     20  C   UNL d   1      -3.109   2.831  -2.661  0.00  0.00     0.001 A 
ATOM     21  C   UNL d   1      -3.872   3.905  -2.206  0.00  0.00     0.000 A 
ATOM     22  C   UNL d   1      -3.510   4.570  -1.036  0.00  0.00     0.001 A 
ATOM     23  C   UNL d   1      -2.396   4.148  -0.308  0.00  0.00     0.015 A 
ENDBRANCH  16  18
ENDBRANCH   1  16
BRANCH   2  24
ATOM     24  C   UNL d   1       2.614   1.566   0.097  0.00  0.00    -0.008 A 
ATOM     25  C   UNL d   1       3.736   1.019   0.746  0.00  0.00     0.014 A 
ATOM     26  C   UNL d   1       4.988   1.632   0.663  0.00  0.00     0.001 A 
ATOM     27  C   UNL d   1       5.138   2.805  -0.070  0.00  0.00     0.000 A 
ATOM     28  C   UNL d   1       4.035   3.366  -0.712  0.00  0.00     0.001 A 
ATOM     29  C   UNL d   1       2.781   2.748  -0.634  0.00  0.00     0.014 A 
ENDBRANCH   2  24
TORSDOF 5
