REMARK  2 active torsions:
REMARK  status: ('A' for Active; 'I' for Inactive)
REMARK    1  A    between atoms: C_17  and  C_7 
REMARK    2  A    between atoms: N_9  and  C_16 
ROOT
ATOM      1  C   UNL d   1      -1.248   1.524  -0.170  0.00  0.00     0.065 C 
ATOM      2  C   UNL d   1       1.228   1.526  -0.115  0.00  0.00     0.065 C 
ATOM      3  C   UNL d   1      -1.210   0.188  -0.042  0.00  0.00     0.102 C 
ATOM      4  C   UNL d   1       1.189   0.189  -0.002  0.00  0.00     0.102 C 
ATOM      5  C   UNL d   1      -2.486   2.302   0.017  0.00  0.00     0.298 C 
ATOM      6  C   UNL d   1       2.465   2.304   0.083  0.00  0.00     0.298 C 
ATOM      7  C   UNL d   1      -0.005   2.310  -0.479  0.00  0.00     0.102 C 
ATOM      8  O   UNL d   1      -0.008  -0.534  -0.096  0.00  0.00    -0.307 OA
ATOM      9  C   UNL d   1       2.445  -0.552   0.136  0.00  0.00     0.033 A 
ATOM     10  C   UNL d   1      -2.465  -0.552   0.103  0.00  0.00     0.033 A 
ATOM     11  O   UNL d   1       3.618   1.586   0.336  0.00  0.00    -0.274 OA
ATOM     12  O   UNL d   1      -3.638   1.587   0.289  0.00  0.00    -0.274 OA
ATOM     13  C   UNL d   1       3.624   0.181   0.297  0.00  0.00     0.092 A 
ATOM     14  C   UNL d   1      -3.644   0.181   0.268  0.00  0.00     0.092 A 
ATOM     15  O   UNL d   1       2.469   3.529   0.059  0.00  0.00    -0.259 OA
ATOM     16  O   UNL d   1      -2.492   3.527  -0.025  0.00  0.00    -0.259 OA
ATOM     17  C   UNL d   1      -2.574  -1.944   0.031  0.00  0.00     0.017 A 
ATOM     18  C   UNL d   1       2.555  -1.942   0.046  0.00  0.00     0.017 A 
ATOM     19  C   UNL d   1       4.877  -0.421   0.395  0.00  0.00     0.038 A 
ATOM     20  C   UNL d   1      -4.896  -0.420   0.388  0.00  0.00     0.038 A 
ATOM     21  C   UNL d   1       3.813  -2.562   0.124  0.00  0.00     0.001 A 
ATOM     22  C   UNL d   1      -3.830  -2.564   0.128  0.00  0.00     0.001 A 
ATOM     23  C   UNL d   1      -4.988  -1.805   0.313  0.00  0.00     0.003 A 
ATOM     24  C   UNL d   1       4.971  -1.803   0.303  0.00  0.00     0.003 A 
ENDROOT
BRANCH   7  25
ATOM     25  C   UNL d   1       0.047   2.676  -1.970  0.00  0.00    -0.044 A 
ATOM     26  C   UNL d   1       0.105   1.679  -2.969  0.00  0.00     0.011 A 
ATOM     27  C   UNL d   1       0.233   2.018  -4.316  0.00  0.00     0.036 A 
ATOM     28  C   UNL d   1       0.298   3.366  -4.681  0.00  0.00     0.102 A 
ATOM     29  C   UNL d   1       0.213   4.371  -3.708  0.00  0.00     0.036 A 
ATOM     30  C   UNL d   1       0.087   4.023  -2.360  0.00  0.00     0.011 A 
BRANCH  28  31
ATOM     31  N   UNL d   1       0.476   3.724  -6.092  0.00  0.00    -0.116 N 
ATOM     32  O   UNL d   1       0.541   4.929  -6.380  0.00  0.00    -0.532 OA
ATOM     33  O   UNL d   1       0.559   2.803  -6.915  0.00  0.00    -0.532 OA
ENDBRANCH  28  31
ENDBRANCH   7  25
TORSDOF 2
