REMARK  6 active torsions:
REMARK  status: ('A' for Active; 'I' for Inactive)
REMARK    1  A    between atoms: O_4  and  N_1 
REMARK    2  A    between atoms: C_6  and  O_16 
REMARK    3  A    between atoms: C_7  and  N_13 
REMARK    4  A    between atoms: C_8  and  O_19 
REMARK       I    between atoms: N_17  and  C_10 
REMARK       I    between atoms: N_18  and  C_10 
REMARK    5  A    between atoms: N_11  and  N_13 
REMARK    6  A    between atoms: C_14  and  O_20 
ROOT
ATOM      1  N   UNL d   1       3.867  -0.718   0.049  0.00  0.00     0.002 N 
ATOM      2  O   UNL d   1       3.525  -0.606   1.221  0.00  0.00    -0.511 OA
ATOM      3  O   UNL d   1       3.683  -0.006  -0.934  0.00  0.00    -0.511 OA
ENDROOT
BRANCH   1   4
ATOM      4  O   UNL d   1       4.616  -1.851  -0.180  0.00  0.00    -0.231 OA
ATOM      5  H   UNL d   1       4.549  -2.150   0.739  0.00  0.00     0.251 HD
ENDBRANCH   1   4
TORSDOF 6
