REMARK  2 active torsions:
REMARK  status: ('A' for Active; 'I' for Inactive)
REMARK    1  A    between atoms: C_9  and  C_2 
REMARK    2  A    between atoms: N_3  and  C_8 
ROOT
ATOM      1  C   UNL d   1      -5.286   3.153  -0.082  0.00  0.00     0.102 A 
ATOM      2  C   UNL d   1      -3.019   1.517  -0.017  0.00  0.00     0.017 A 
ATOM      3  C   UNL d   1      -5.117   2.241   0.968  0.00  0.00     0.037 A 
ATOM      4  C   UNL d   1      -4.318   3.266  -1.090  0.00  0.00     0.037 A 
ATOM      5  C   UNL d   1      -3.982   1.426   0.999  0.00  0.00     0.018 A 
ATOM      6  C   UNL d   1      -3.183   2.447  -1.052  0.00  0.00     0.018 A 
ENDROOT
BRANCH   2   7
ATOM      7  C   UNL d   1      -1.858   0.619  -0.034  0.00  0.00     0.175 A 
ATOM      8  O   UNL d   1      -1.814  -0.319   0.947  0.00  0.00    -0.264 OA
ATOM      9  C   UNL d   1      -0.688  -1.016   0.662  0.00  0.00     0.235 A 
ATOM     10  N   UNL d   1      -0.124  -0.453  -0.442  0.00  0.00    -0.268 N 
ATOM     11  S   UNL d   1      -0.208  -2.302   1.561  0.00  0.00    -0.031 SA
ATOM     12  N   UNL d   1      -0.880   0.589  -0.889  0.00  0.00    -0.276 N 
ATOM     13  H   UNL d   1       0.716  -0.758  -0.918  0.00  0.00     0.190 HD
ATOM     14  HN  UNL d   1      -0.718   1.195  -1.694  1.00  0.00     0.189 HD
ENDBRANCH   2   7
BRANCH   1  15
ATOM     15  N   UNL d   1      -6.498   3.982  -0.134  0.00  0.00    -0.116 N 
ATOM     16  O   UNL d   1      -7.337   3.832   0.765  0.00  0.00    -0.532 OA
ATOM     17  O   UNL d   1      -6.611   4.778  -1.078  0.00  0.00    -0.532 OA
ENDBRANCH   1  15
TORSDOF 2
