REMARK  2 active torsions:
REMARK  status: ('A' for Active; 'I' for Inactive)
REMARK       I    between atoms: N_6  and  C_1 
REMARK       I    between atoms: N_7  and  C_1 
REMARK    1  A    between atoms: C_9  and  N_6 
REMARK    2  A    between atoms: C_8  and  N_7 
ROOT
ATOM      1  C   UNL d   1       0.962   0.238   0.162  0.00  0.00     0.683 C 
ATOM      2  N   UNL d   1       0.240   0.961   0.958  0.00  0.00    -0.126 N 
ATOM      3  HN  UNL d   1      -0.776   0.940   0.878  1.00  0.00     0.197 HD
ATOM      4  C   UNL d   1       0.812   1.732   1.878  0.00  0.00     0.196 C 
ATOM      5  N   UNL d   1       1.296   2.411   2.686  0.00  0.00    -0.171 NA
ATOM      6  N   UNL d   1       0.347  -0.514  -0.798  0.00  0.00    -0.222 N 
ATOM      7  N   UNL d   1       2.333   0.144   0.110  0.00  0.00    -0.222 N 
ATOM      8  H   UNL d   1       0.904  -0.857  -1.566  0.00  0.00     0.178 HD
ATOM      9  H   UNL d   1       2.848   0.771   0.723  0.00  0.00     0.178 HD
ENDROOT
BRANCH   6  10
ATOM     10  C   UNL d   1      -1.008  -1.015  -0.699  0.00  0.00     0.091 C 
ATOM     11  C   UNL d   1      -1.645  -1.036  -2.087  0.00  0.00     0.032 C 
ATOM     12  C   UNL d   1      -0.967  -2.421  -0.105  0.00  0.00     0.032 C 
ENDBRANCH   6  10
BRANCH   7  13
ATOM     13  C   UNL d   1       3.090  -1.047  -0.280  0.00  0.00     0.091 C 
ATOM     14  C   UNL d   1       4.016  -0.691  -1.438  0.00  0.00     0.032 C 
ATOM     15  C   UNL d   1       3.888  -1.600   0.897  0.00  0.00     0.032 C 
ENDBRANCH   7  13
TORSDOF 2
