REMARK  4 active torsions:
REMARK  status: ('A' for Active; 'I' for Inactive)
REMARK       I    between atoms: N_3  and  C_1 
REMARK    1  A    between atoms: C_4  and  C_1 
REMARK    2  A    between atoms: N_2  and  C_5 
REMARK    3  A    between atoms: C_15  and  N_3 
REMARK    4  A    between atoms: C_6  and  C_7 
ROOT
ATOM      1  C   UNL d   1       1.112  -0.010  -0.017  0.00  0.00     0.256 C 
ATOM      2  N   UNL d   1       0.544  -0.395  -1.217  0.00  0.00    -0.323 N 
ATOM      3  O   UNL d   1       2.271  -0.198   0.344  0.00  0.00    -0.267 OA
ATOM      4  H   UNL d   1      -0.351   0.008  -1.462  0.00  0.00     0.169 HD
ENDROOT
BRANCH   2   5
ATOM      5  C   UNL d   1       1.179  -1.155  -2.219  0.00  0.00     0.035 A 
ATOM      6  C   UNL d   1       2.361  -1.856  -2.002  0.00  0.00     0.032 A 
ATOM      7  C   UNL d   1       2.960  -2.573  -3.039  0.00  0.00     0.031 A 
ATOM      8  C   UNL d   1       2.409  -2.623  -4.323  0.00  0.00     0.030 A 
ATOM      9  C   UNL d   1       1.214  -1.920  -4.525  0.00  0.00     0.031 A 
ATOM     10  C   UNL d   1       0.596  -1.208  -3.486  0.00  0.00     0.032 A 
BRANCH   8  11
ATOM     11  N   UNL d   1       3.029  -3.333  -5.330  0.00  0.00    -0.381 N 
ATOM     12  C   UNL d   1       3.024  -2.892  -6.722  0.00  0.00     0.123 C 
ATOM     13  C   UNL d   1       4.467  -2.843  -7.235  0.00  0.00     0.020 C 
ATOM     14  C   UNL d   1       5.214  -4.154  -6.983  0.00  0.00     0.003 C 
ATOM     15  C   UNL d   1       5.116  -4.579  -5.519  0.00  0.00     0.020 C 
ATOM     16  C   UNL d   1       3.662  -4.624  -5.061  0.00  0.00     0.123 C 
ENDBRANCH   8  11
ENDBRANCH   2   5
BRANCH   1  17
ATOM     17  C   UNL d   1       0.232   0.779   0.877  0.00  0.00     0.032 A 
ATOM     18  C   UNL d   1      -1.136   0.526   0.989  0.00  0.00     0.017 A 
ATOM     19  C   UNL d   1      -1.916   1.310   1.846  0.00  0.00     0.009 A 
ATOM     20  C   UNL d   1      -1.353   2.355   2.607  0.00  0.00    -0.051 A 
ATOM     21  C   UNL d   1       0.031   2.566   2.497  0.00  0.00     0.009 A 
ATOM     22  C   UNL d   1       0.815   1.786   1.646  0.00  0.00     0.017 A 
BRANCH  20  23
ATOM     23  C   UNL d   1      -2.243   3.231   3.506  0.00  0.00    -0.024 C 
ATOM     24  C   UNL d   1      -1.462   4.336   4.254  0.00  0.00     0.019 C 
ATOM     25  C   UNL d   1      -3.311   3.930   2.638  0.00  0.00     0.019 C 
ATOM     26  C   UNL d   1      -2.944   2.363   4.572  0.00  0.00     0.019 C 
ENDBRANCH  20  23
ENDBRANCH   1  17
TORSDOF 4
