REMARK  6 active torsions:
REMARK  status: ('A' for Active; 'I' for Inactive)
REMARK    1  A    between atoms: C_2  and  N_1 
REMARK       I    between atoms: C_3  and  N_1 
REMARK    2  A    between atoms: C_5  and  C_3 
REMARK    3  A    between atoms: O_15  and  C_4 
REMARK    4  A    between atoms: C_6  and  C_7 
REMARK    5  A    between atoms: O_13  and  C_6 
REMARK    6  A    between atoms: O_16  and  C_12 
ROOT
ATOM      1  C   UNL d   1       0.445  -0.947  -0.752  0.00  0.00     0.068 A 
ATOM      2  C   UNL d   1       1.009  -2.219  -0.941  0.00  0.00     0.097 A 
ATOM      3  C   UNL d   1       0.385  -3.143  -1.796  0.00  0.00     0.075 A 
ATOM      4  C   UNL d   1      -0.734  -0.620  -1.430  0.00  0.00     0.035 A 
ATOM      5  C   UNL d   1      -0.789  -2.804  -2.474  0.00  0.00     0.070 A 
ATOM      6  C   UNL d   1      -1.334  -1.536  -2.295  0.00  0.00     0.039 A 
ENDROOT
BRANCH   1   7
ATOM      7  N   UNL d   1       1.091   0.029   0.035  0.00  0.00    -0.321 N 
ATOM      8  C   UNL d   1       0.425   0.938   0.825  0.00  0.00     0.246 C 
ATOM      9  O   UNL d   1      -0.786   0.975   1.032  0.00  0.00    -0.268 OA
ATOM     10  H   UNL d   1       2.092  -0.076   0.146  0.00  0.00     0.169 HD
BRANCH   8  11
ATOM     11  C   UNL d   1       1.338   1.877   1.516  0.00  0.00     0.081 C 
ATOM     12  C   UNL d   1       0.853   2.627   2.512  0.00  0.00     0.086 C 
BRANCH  12  13
ATOM     13  C   UNL d   1       1.749   3.601   3.157  0.00  0.00     0.165 C 
ATOM     14  O   UNL d   1       2.917   3.757   2.855  0.00  0.00    -0.647 OA
BRANCH  13  15
ATOM     15  O   UNL d   1       1.129   4.303   4.123  0.00  0.00    -0.773 OA
ATOM     16  H   UNL d   1       0.184   4.098   4.257  0.00  0.00     0.167 HD
ENDBRANCH  13  15
ENDBRANCH  12  13
ENDBRANCH   8  11
ENDBRANCH   1   7
BRANCH   2  17
ATOM     17  O   UNL d   1       2.184  -2.660  -0.384  0.00  0.00    -0.354 OA
ATOM     18  C   UNL d   1       2.331  -2.450   1.019  0.00  0.00     0.210 C 
ENDBRANCH   2  17
BRANCH   5  19
ATOM     19  O   UNL d   1      -1.480  -3.598  -3.346  0.00  0.00    -0.356 OA
ATOM     20  C   UNL d   1      -1.042  -4.943  -3.483  0.00  0.00     0.210 C 
ENDBRANCH   5  19
TORSDOF 6
