REMARK  5 active torsions:
REMARK  status: ('A' for Active; 'I' for Inactive)
REMARK    1  A    between atoms: N_2  and  S_1 
REMARK    2  A    between atoms: C_6  and  S_1 
REMARK       I    between atoms: C_5  and  N_3 
REMARK    3  A    between atoms: C_4  and  C_11 
REMARK    4  A    between atoms: O_22  and  C_5 
REMARK    5  A    between atoms: C_23  and  O_22 
ROOT
ATOM      1  S   UNL d   1       1.413  -0.038   0.178  0.00  0.00     0.260 S 
ATOM      2  O   UNL d   1       2.692  -0.635   0.498  0.00  0.00    -0.200 OA
ATOM      3  O   UNL d   1       0.715   0.809   1.119  0.00  0.00    -0.200 OA
ENDROOT
BRANCH   1   4
ATOM      4  N   UNL d   1       0.358  -1.257  -0.356  0.00  0.00    -0.304 N 
ATOM      5  C   UNL d   1      -1.102  -1.006  -0.198  0.00  0.00     0.155 C 
ATOM      6  C   UNL d   1      -1.573  -1.324   1.232  0.00  0.00     0.148 C 
ATOM      7  N   UNL d   1      -1.101  -2.624   1.727  0.00  0.00    -0.325 N 
ATOM      8  C   UNL d   1       0.290  -2.985   1.435  0.00  0.00     0.148 C 
ATOM      9  C   UNL d   1      -1.707  -3.242   2.813  0.00  0.00     0.362 C 
ATOM     10  C   UNL d   1       0.699  -2.662  -0.003  0.00  0.00     0.155 C 
ATOM     11  O   UNL d   1      -1.214  -4.188   3.415  0.00  0.00    -0.238 OA
BRANCH   9  12
ATOM     12  O   UNL d   1      -2.921  -2.701   3.105  0.00  0.00    -0.304 OA
BRANCH  12  13
ATOM     13  C   UNL d   1      -3.725  -3.389   4.075  0.00  0.00     0.176 C 
ATOM     14  C   UNL d   1      -3.896  -2.531   5.313  0.00  0.00     0.034 C 
ENDBRANCH  12  13
ENDBRANCH   9  12
ENDBRANCH   1   4
BRANCH   1  15
ATOM     15  C   UNL d   1       1.626   0.889  -1.329  0.00  0.00     0.079 A 
ATOM     16  C   UNL d   1       0.753   1.937  -1.634  0.00  0.00     0.026 A 
ATOM     17  C   UNL d   1       0.900   2.622  -2.846  0.00  0.00     0.018 A 
ATOM     18  C   UNL d   1       1.925   2.275  -3.741  0.00  0.00     0.048 A 
ATOM     19  C   UNL d   1       2.825   1.253  -3.390  0.00  0.00     0.018 A 
ATOM     20  C   UNL d   1       2.677   0.561  -2.188  0.00  0.00     0.026 A 
BRANCH  18  21
ATOM     21  C   UNL d   1       2.067   2.969  -5.077  0.00  0.00     0.417 C 
ATOM     22  F   UNL d   1       1.116   3.917  -5.300  0.00  0.00    -0.166 F 
ATOM     23  F   UNL d   1       3.266   3.597  -5.217  0.00  0.00    -0.166 F 
ATOM     24  F   UNL d   1       1.976   2.097  -6.120  0.00  0.00    -0.166 F 
ENDBRANCH  18  21
ENDBRANCH   1  15
TORSDOF 5
