REMARK  1 active torsions:
REMARK  status: ('A' for Active; 'I' for Inactive)
REMARK    1  A    between atoms: O_20  and  C_8 
ROOT
ATOM      1  C   UNL d   1      11.833   5.995  -4.161  0.00  0.00    -0.009 C 
ATOM      2  C   UNL d   1      14.893   3.155  -2.322  0.00  0.00    -0.036 C 
ATOM      3  C   UNL d   1      13.584   3.880  -2.817  0.00  0.00    -0.002 C 
ATOM      4  C   UNL d   1      12.831   5.138  -5.000  0.00  0.00     0.001 C 
ATOM      5  C   UNL d   1      13.354   3.827  -4.364  0.00  0.00    -0.005 C 
ATOM      6  C   UNL d   1      14.896   1.830  -3.151  0.00  0.00    -0.001 C 
ATOM      7  C   UNL d   1      15.331   0.375  -1.125  0.00  0.00     0.164 C 
ATOM      8  C   UNL d   1      10.453   5.746  -4.866  0.00  0.00     0.062 C 
ATOM      9  C   UNL d   1      11.866   5.668  -2.654  0.00  0.00     0.013 C 
ATOM     10  C   UNL d   1      13.274   5.248  -2.204  0.00  0.00     0.007 C 
ATOM     11  C   UNL d   1      14.812   2.876  -0.790  0.00  0.00     0.015 C 
ATOM     12  C   UNL d   1      12.120   4.847  -6.347  0.00  0.00     0.009 C 
ATOM     13  C   UNL d   1      14.557   3.317  -5.192  0.00  0.00     0.006 C 
ATOM     14  C   UNL d   1      15.696   0.657  -2.579  0.00  0.00     0.074 C 
ATOM     15  O   UNL d   1      16.197  -0.653  -0.610  0.00  0.00    -0.353 OA
ATOM     16  O   UNL d   1      13.973  -0.071  -1.006  0.00  0.00    -0.353 OA
ATOM     17  C   UNL d   1      15.255   2.086  -4.619  0.00  0.00     0.006 C 
ATOM     18  C   UNL d   1      10.849   5.680  -6.345  0.00  0.00     0.038 C 
ATOM     19  C   UNL d   1      15.549   1.638  -0.282  0.00  0.00     0.069 C 
ATOM     20  C   UNL d   1      16.136   4.056  -2.543  0.00  0.00     0.016 C 
ATOM     21  C   UNL d   1      12.255   7.489  -4.297  0.00  0.00     0.018 C 
ATOM     22  C   UNL d   1       9.714   4.474  -4.445  0.00  0.00     0.046 C 
ATOM     23  C   UNL d   1      15.344  -1.623   0.002  0.00  0.00     0.197 C 
ATOM     24  C   UNL d   1      13.997  -0.961   0.111  0.00  0.00     0.197 C 
ENDROOT
BRANCH   8  25
ATOM     25  O   UNL d   1       9.559   6.843  -4.662  0.00  0.00    -0.389 OA
ATOM     26  H   UNL d   1       8.784   6.702  -5.231  0.00  0.00     0.210 HD
ENDBRANCH   8  25
TORSDOF 1
