REMARK  4 active torsions:
REMARK  status: ('A' for Active; 'I' for Inactive)
REMARK    1  A    between atoms: C_2  and  S_1 
REMARK    2  A    between atoms: C_5  and  S_1 
REMARK    3  A    between atoms: C_3  and  C_2 
REMARK    4  A    between atoms: C_4  and  C_3 
ROOT
ATOM      1  C   UNL d   1       0.451   1.464   0.549  0.00  0.00     0.184 C 
ATOM      2  C   UNL d   1       1.056   1.825   1.904  0.00  0.00     0.035 C 
ENDROOT
BRANCH   1   3
ATOM      3  S   UNL d   1       0.891  -0.175   0.000  0.00  0.00     0.186 S 
ATOM      4  O   UNL d   1       0.513  -0.295  -1.395  0.00  0.00    -0.222 OA
ATOM      5  O   UNL d   1       0.450  -1.159   0.968  0.00  0.00    -0.222 OA
BRANCH   3   6
ATOM      6  C   UNL d   1       2.678  -0.208   0.023  0.00  0.00     0.060 A 
ATOM      7  C   UNL d   1       3.346  -0.678   1.160  0.00  0.00     0.025 A 
ATOM      8  C   UNL d   1       4.740  -0.756   1.158  0.00  0.00     0.025 A 
ATOM      9  C   UNL d   1       5.455  -0.387   0.018  0.00  0.00     0.034 A 
ATOM     10  C   UNL d   1       4.788   0.060  -1.123  0.00  0.00     0.025 A 
ATOM     11 CL   UNL d   1       7.171  -0.501   0.013  0.00  0.00    -0.084 Cl
ATOM     12  C   UNL d   1       3.393   0.148  -1.126  0.00  0.00     0.025 A 
ENDBRANCH   3   6
ENDBRANCH   1   3
BRANCH   1  13
ATOM     13  C   UNL d   1      -1.064   1.531   0.624  0.00  0.00     0.178 C 
ATOM     14  O   UNL d   1      -1.657   1.335   1.686  0.00  0.00    -0.291 OA
BRANCH  13  15
ATOM     15  C   UNL d   1      -1.885   1.897  -0.576  0.00  0.00     0.013 A 
ATOM     16  C   UNL d   1      -3.281   1.907  -0.433  0.00  0.00     0.039 A 
ATOM     17  C   UNL d   1      -4.107   2.290  -1.494  0.00  0.00     0.040 A 
ATOM     18 CL   UNL d   1      -5.816   2.280  -1.236  0.00  0.00    -0.084 Cl
ATOM     19  C   UNL d   1      -3.557   2.677  -2.723  0.00  0.00    -0.040 A 
ATOM     20  C   UNL d   1      -2.162   2.646  -2.869  0.00  0.00     0.009 A 
ATOM     21  C   UNL d   1      -4.412   3.110  -3.881  0.00  0.00     0.050 C 
ATOM     22  C   UNL d   1      -1.334   2.260  -1.808  0.00  0.00     0.016 A 
ENDBRANCH  13  15
ENDBRANCH   1  13
TORSDOF 4
