REMARK  3 active torsions:
REMARK  status: ('A' for Active; 'I' for Inactive)
REMARK    1  A    between atoms: N_6  and  N_2 
REMARK    2  A    between atoms: C_9  and  N_6 
REMARK    3  A    between atoms: O_13  and  C_11 
ROOT
ATOM      1  C   UNL d   1      -1.009   0.888  -0.007  0.00  0.00     0.109 A 
ATOM      2  N   UNL d   1      -1.299   2.158  -0.109  0.00  0.00    -0.296 N 
ATOM      3  HN  UNL d   1      -0.565   2.849  -0.266  1.00  0.00     0.187 HD
ATOM      4  C   UNL d   1       0.417   0.469  -0.039  0.00  0.00     0.006 A 
ATOM      5  C   UNL d   1      -2.056  -0.216   0.150  0.00  0.00     0.200 A 
ATOM      6  C   UNL d   1      -1.599  -1.619   0.076  0.00  0.00     0.058 A 
ATOM      7  C   UNL d   1      -0.300  -1.923   0.012  0.00  0.00     0.016 A 
ATOM      8  C   UNL d   1       0.740  -0.895  -0.007  0.00  0.00    -0.023 A 
ATOM      9  O   UNL d   1      -3.236   0.040   0.346  0.00  0.00    -0.286 OA
ATOM     10  C   UNL d   1       1.434   1.435  -0.073  0.00  0.00     0.015 A 
ATOM     11  C   UNL d   1       2.088  -1.275   0.001  0.00  0.00     0.012 A 
ATOM     12  C   UNL d   1       2.772   1.043  -0.067  0.00  0.00     0.001 A 
ATOM     13  C   UNL d   1       3.099  -0.310  -0.026  0.00  0.00     0.001 A 
ENDROOT
BRANCH   2  14
ATOM     14  N   UNL d   1      -2.597   2.537  -0.001  0.00  0.00    -0.297 N 
ATOM     15  H   UNL d   1      -3.285   1.905   0.425  0.00  0.00     0.187 HD
BRANCH  14  16
ATOM     16  C   UNL d   1      -2.924   3.909   0.006  0.00  0.00     0.081 A 
ATOM     17  C   UNL d   1      -2.160   4.858  -0.694  0.00  0.00     0.093 A 
ATOM     18  C   UNL d   1      -2.495   6.207  -0.718  0.00  0.00     0.039 A 
ATOM     19  C   UNL d   1      -3.607   6.644  -0.002  0.00  0.00     0.003 A 
ATOM     20  C   UNL d   1      -4.369   5.729   0.727  0.00  0.00     0.002 A 
ATOM     21  C   UNL d   1      -4.033   4.369   0.726  0.00  0.00     0.034 A 
BRANCH  17  22
ATOM     22  O   UNL d   1      -1.060   4.455  -1.405  0.00  0.00    -0.358 OA
ATOM     23  H   UNL d   1      -1.008   3.500  -1.168  0.00  0.00     0.217 HD
ENDBRANCH  17  22
ENDBRANCH  14  16
ENDBRANCH   2  14
TORSDOF 3
