REMARK  6 active torsions:
REMARK  status: ('A' for Active; 'I' for Inactive)
REMARK    1  A    between atoms: C_10  and  C_2 
REMARK    2  A    between atoms: S_8  and  C_3 
REMARK    3  A    between atoms: C_24  and  S_8 
REMARK    4  A    between atoms: C_12  and  C_10 
REMARK    5  A    between atoms: C_13  and  C_24 
REMARK       I    between atoms: N_16  and  C_13 
REMARK    6  A    between atoms: C_17  and  N_16 
ROOT
ATOM      1  S   UNL d   1       0.921  -2.551   1.300  0.00  0.00    -0.083 SA
ENDROOT
BRANCH   1   2
ATOM      2  C   UNL d   1       0.613  -0.870   0.986  0.00  0.00     0.162 A 
ATOM      3  N   UNL d   1      -0.334  -0.108   1.619  0.00  0.00    -0.319 N 
ATOM      4  C   UNL d   1      -0.297   1.121   0.993  0.00  0.00     0.104 A 
ATOM      5  C   UNL d   1      -1.185  -0.502   2.711  0.00  0.00     0.159 C 
ATOM      6  N   UNL d   1       0.662   1.102   0.086  0.00  0.00    -0.286 N 
ATOM      7  N   UNL d   1       1.228  -0.144   0.083  0.00  0.00    -0.278 N 
ATOM      8  HN  UNL d   1       0.934   1.883  -0.511  1.00  0.00     0.188 HD
ATOM      9  HN  UNL d   1       1.993  -0.454  -0.515  1.00  0.00     0.189 HD
BRANCH   4  10
ATOM     10  C   UNL d   1      -1.230   2.263   1.226  0.00  0.00     0.117 C 
BRANCH  10  11
ATOM     11  C   UNL d   1      -0.787   3.204   2.310  0.00  0.00    -0.044 A 
ATOM     12  C   UNL d   1      -1.489   3.455   3.475  0.00  0.00     0.057 A 
ATOM     13  S   UNL d   1      -0.749   4.646   4.457  0.00  0.00    -0.113 SA
ATOM     14  C   UNL d   1       0.524   4.854   3.338  0.00  0.00     0.050 A 
ATOM     15  C   UNL d   1       0.392   4.024   2.247  0.00  0.00     0.015 A 
ENDBRANCH  10  11
ENDBRANCH   4  10
ENDBRANCH   1   2
BRANCH   1  16
ATOM     16  C   UNL d   1       2.243  -2.814   0.079  0.00  0.00     0.185 C 
BRANCH  16  17
ATOM     17  C   UNL d   1       2.785  -4.228  -0.032  0.00  0.00     0.231 C 
ATOM     18  N   UNL d   1       2.012  -5.246   0.497  0.00  0.00    -0.326 N 
ATOM     19  H   UNL d   1       1.131  -4.968   0.913  0.00  0.00     0.169 HD
ATOM     20  O   UNL d   1       3.838  -4.393  -0.652  0.00  0.00    -0.272 OA
BRANCH  18  21
ATOM     21  C   UNL d   1       2.280  -6.635   0.421  0.00  0.00     0.037 A 
ATOM     22  C   UNL d   1       3.478  -7.165  -0.068  0.00  0.00     0.069 A 
ATOM     23  C   UNL d   1       3.641  -8.544  -0.211  0.00  0.00     0.104 A 
ATOM     24  O   UNL d   1       4.828  -8.967  -0.756  0.00  0.00    -0.346 OA
ATOM     25  C   UNL d   1       2.626  -9.418   0.177  0.00  0.00     0.102 A 
ATOM     26  C   UNL d   1       4.693 -10.282  -1.298  0.00  0.00     0.202 C 
ATOM     27  C   UNL d   1       4.044 -11.207  -0.281  0.00  0.00     0.202 C 
ATOM     28  O   UNL d   1       2.715 -10.781   0.046  0.00  0.00    -0.346 OA
ATOM     29  C   UNL d   1       1.444  -8.907   0.703  0.00  0.00     0.042 A 
ATOM     30  C   UNL d   1       1.272  -7.520   0.829  0.00  0.00     0.032 A 
ENDBRANCH  18  21
ENDBRANCH  16  17
ENDBRANCH   1  16
TORSDOF 6
