REMARK  6 active torsions:
REMARK  status: ('A' for Active; 'I' for Inactive)
REMARK    1  A    between atoms: C_2  and  N_1 
REMARK    2  A    between atoms: O_5  and  C_3 
REMARK    3  A    between atoms: C_12  and  O_5 
REMARK    4  A    between atoms: C_6  and  C_12 
REMARK    5  A    between atoms: C_7  and  C_6 
REMARK    6  A    between atoms: O_15  and  C_7 
ROOT
ATOM      1  C   UNL d   1      -0.025  -0.736  -0.997  0.00  0.00     0.136 A 
ATOM      2  C   UNL d   1      -0.967   0.145  -1.544  0.00  0.00     0.102 A 
ATOM      3  C   UNL d   1       0.411  -1.881  -1.679  0.00  0.00     0.039 A 
ATOM      4  C   UNL d   1      -1.469  -0.153  -2.814  0.00  0.00     0.046 A 
ATOM      5  C   UNL d   1      -0.113  -2.162  -2.939  0.00  0.00     0.009 A 
ATOM      6  C   UNL d   1      -1.056  -1.303  -3.512  0.00  0.00    -0.059 A 
ATOM      7  C   UNL d   1      -1.642  -1.581  -4.866  0.00  0.00     0.048 C 
ENDROOT
BRANCH   2   8
ATOM      8  O   UNL d   1      -1.309   1.260  -0.828  0.00  0.00    -0.343 OA
BRANCH   8   9
ATOM      9  C   UNL d   1      -2.547   1.931  -1.131  0.00  0.00     0.135 C 
ATOM     10  C   UNL d   1      -2.455   3.319  -0.493  0.00  0.00     0.040 C 
BRANCH   9  11
ATOM     11  C   UNL d   1      -3.712   1.123  -0.548  0.00  0.00     0.142 C 
BRANCH  11  12
ATOM     12  C   UNL d   1      -5.048   1.718  -0.894  0.00  0.00     0.141 C 
ATOM     13  O   UNL d   1      -5.273   2.389  -1.890  0.00  0.00    -0.650 OA
BRANCH  12  14
ATOM     14  O   UNL d   1      -6.016   1.386  -0.011  0.00  0.00    -0.776 OA
ATOM     15  H   UNL d   1      -5.713   0.823   0.729  0.00  0.00     0.167 HD
ENDBRANCH  12  14
ENDBRANCH  11  12
ENDBRANCH   9  11
ENDBRANCH   8   9
ENDBRANCH   2   8
BRANCH   1  16
ATOM     16  N   UNL d   1       0.501  -0.511   0.337  0.00  0.00    -0.113 N 
ATOM     17  O   UNL d   1      -0.312  -0.467   1.271  0.00  0.00    -0.532 OA
ATOM     18  O   UNL d   1       1.734  -0.455   0.453  0.00  0.00    -0.532 OA
ENDBRANCH   1  16
TORSDOF 6
