REMARK  5 active torsions:
REMARK  status: ('A' for Active; 'I' for Inactive)
REMARK       I    between atoms: N_2  and  C_1 
REMARK    1  A    between atoms: C_4  and  C_1 
REMARK    2  A    between atoms: C_13  and  N_2 
REMARK    3  A    between atoms: C_3  and  C_13 
REMARK    4  A    between atoms: O_19  and  C_3 
REMARK    5  A    between atoms: C_5  and  C_7 
ROOT
ATOM      1  C   UNL d   1       0.378  -0.767  -0.837  0.00  0.00     0.078 C 
ATOM      2  C   UNL d   1       1.343  -3.626  -0.945  0.00  0.00     0.018 C 
ATOM      3  C   UNL d   1      -0.289  -1.874  -0.007  0.00  0.00     0.015 C 
ATOM      4  C   UNL d   1       1.183  -1.290  -2.037  0.00  0.00     0.015 C 
ATOM      5  C   UNL d   1       0.633  -3.054   0.290  0.00  0.00     0.010 C 
ATOM      6  C   UNL d   1       2.047  -2.515  -1.737  0.00  0.00     0.010 C 
ENDROOT
BRANCH   1   7
ATOM      7  C   UNL d   1       1.216   0.152   0.050  0.00  0.00     0.222 C 
ATOM      8  N   UNL d   1       0.478   0.867   0.960  0.00  0.00    -0.351 N 
ATOM      9  H   UNL d   1      -0.534   0.789   0.989  0.00  0.00     0.163 HD
ATOM     10  O   UNL d   1       2.435   0.258  -0.035  0.00  0.00    -0.273 OA
BRANCH   8  11
ATOM     11  C   UNL d   1       1.105   1.808   1.872  0.00  0.00     0.233 C 
BRANCH  11  12
ATOM     12  C   UNL d   1       0.067   2.377   2.822  0.00  0.00     0.276 C 
ATOM     13  O   UNL d   1      -1.129   2.102   2.787  0.00  0.00    -0.263 OA
BRANCH  12  14
ATOM     14  O   UNL d   1       0.654   3.233   3.703  0.00  0.00    -0.325 OA
ATOM     15  C   UNL d   1      -0.253   3.815   4.639  0.00  0.00     0.213 C 
ENDBRANCH  12  14
ENDBRANCH  11  12
ENDBRANCH   8  11
ENDBRANCH   1   7
BRANCH   2  16
ATOM     16  C   UNL d   1       0.463  -4.544  -1.788  0.00  0.00    -0.054 A 
ATOM     17  C   UNL d   1       0.759  -5.918  -1.833  0.00  0.00     0.009 A 
ATOM     18  C   UNL d   1      -0.014  -6.801  -2.596  0.00  0.00     0.024 A 
ATOM     19  C   UNL d   1      -1.097  -6.321  -3.324  0.00  0.00     0.034 A 
ATOM     20  C   UNL d   1      -1.414  -4.970  -3.292  0.00  0.00     0.024 A 
ATOM     21 CL   UNL d   1      -2.047  -7.400  -4.267  0.00  0.00    -0.084 Cl
ATOM     22  C   UNL d   1      -0.639  -4.092  -2.529  0.00  0.00     0.009 A 
ENDBRANCH   2  16
TORSDOF 5
