REMARK  8 active torsions:
REMARK  status: ('A' for Active; 'I' for Inactive)
REMARK    1  A    between atoms: C_3  and  C_1 
REMARK    2  A    between atoms: C_6  and  C_1 
REMARK    3  A    between atoms: C_2  and  C_8 
REMARK    4  A    between atoms: C_7  and  C_3 
REMARK    5  A    between atoms: N_9  and  N_4 
REMARK    6  A    between atoms: O_18  and  C_6 
REMARK    7  A    between atoms: O_21  and  C_7 
REMARK    8  A    between atoms: C_17  and  N_9 
ROOT
ATOM      1  C   UNL d   1       0.909   0.182  -0.135  0.00  0.00     0.110 C 
ATOM      2  N   UNL d   1       0.367  -0.750   0.602  0.00  0.00    -0.298 N 
ATOM      3  HN  UNL d   1       0.946  -1.385   1.152  1.00  0.00     0.187 HD
ENDROOT
BRANCH   2   4
ATOM      4  N   UNL d   1      -0.984  -0.854   0.616  0.00  0.00    -0.301 N 
ATOM      5  H   UNL d   1      -1.571  -0.325  -0.038  0.00  0.00     0.187 HD
BRANCH   4   6
ATOM      6  C   UNL d   1      -1.609  -1.893   1.324  0.00  0.00     0.048 A 
ATOM      7  C   UNL d   1      -0.906  -2.727   2.201  0.00  0.00     0.031 A 
ATOM      8  C   UNL d   1      -1.561  -3.723   2.934  0.00  0.00     0.018 A 
ATOM      9  C   UNL d   1      -2.943  -3.909   2.806  0.00  0.00     0.048 A 
ATOM     10  C   UNL d   1      -3.652  -3.084   1.922  0.00  0.00     0.018 A 
ATOM     11  C   UNL d   1      -2.990  -2.086   1.195  0.00  0.00     0.031 A 
BRANCH   9  12
ATOM     12  C   UNL d   1      -3.666  -4.963   3.607  0.00  0.00     0.417 C 
ATOM     13  F   UNL d   1      -2.849  -5.688   4.422  0.00  0.00    -0.166 F 
ATOM     14  F   UNL d   1      -4.625  -4.434   4.419  0.00  0.00    -0.166 F 
ATOM     15  F   UNL d   1      -4.306  -5.872   2.820  0.00  0.00    -0.166 F 
ENDBRANCH   9  12
ENDBRANCH   4   6
ENDBRANCH   2   4
BRANCH   1  16
ATOM     16  C   UNL d   1       2.412   0.238  -0.200  0.00  0.00     0.176 C 
BRANCH  16  17
ATOM     17  C   UNL d   1       3.032   1.490   0.341  0.00  0.00     0.264 C 
ATOM     18  O   UNL d   1       2.427   2.473   0.744  0.00  0.00    -0.265 OA
BRANCH  17  19
ATOM     19  O   UNL d   1       4.389   1.358   0.299  0.00  0.00    -0.326 OA
ATOM     20  C   UNL d   1       5.135   2.470   0.806  0.00  0.00     0.213 C 
ENDBRANCH  17  19
ENDBRANCH  16  17
ENDBRANCH   1  16
BRANCH   1  21
ATOM     21  C   UNL d   1       0.104   1.171  -0.996  0.00  0.00     0.307 C 
ATOM     22  O   UNL d   1      -1.115   1.150  -1.047  0.00  0.00    -0.258 OA
BRANCH  21  23
ATOM     23  O   UNL d   1       0.914   1.975  -1.714  0.00  0.00    -0.322 OA
ATOM     24  C   UNL d   1       0.214   2.929  -2.515  0.00  0.00     0.213 C 
ENDBRANCH  21  23
ENDBRANCH   1  21
TORSDOF 8
