REMARK  6 active torsions:
REMARK  status: ('A' for Active; 'I' for Inactive)
REMARK    1  A    between atoms: C_3  and  C_7 
REMARK    2  A    between atoms: C_4  and  C_8 
REMARK    3  A    between atoms: S_11  and  C_5 
REMARK    4  A    between atoms: S_12  and  C_6 
REMARK    5  A    between atoms: C_7  and  S_11 
REMARK    6  A    between atoms: C_8  and  S_12 
ROOT
ATOM      1  N   UNL d   1       1.114   0.595  -0.272  0.00  0.00    -0.331 N 
ATOM      2  HN  UNL d   1       2.017   1.064  -0.354  1.00  0.00     0.168 HD
ATOM      3  C   UNL d   1      -0.033   1.283  -0.346  0.00  0.00     0.145 A 
ATOM      4  C   UNL d   1       1.034  -0.733  -0.088  0.00  0.00     0.073 A 
ATOM      5  N   UNL d   1      -1.252   0.739  -0.229  0.00  0.00    -0.347 N 
ATOM      6  HN  UNL d   1      -2.101   1.301  -0.282  1.00  0.00     0.167 HD
ATOM      7  C   UNL d   1      -0.167  -1.389   0.039  0.00  0.00     0.054 A 
ATOM      8  C   UNL d   1      -1.289  -0.597  -0.037  0.00  0.00     0.093 A 
ENDROOT
BRANCH   3   9
ATOM      9  S   UNL d   1       0.163   3.018  -0.658  0.00  0.00    -0.089 SA
BRANCH   9  10
ATOM     10  C   UNL d   1      -1.567   3.567  -0.673  0.00  0.00     0.124 C 
BRANCH  10  11
ATOM     11  C   UNL d   1      -1.667   5.047  -0.984  0.00  0.00    -0.005 A 
ATOM     12  C   UNL d   1      -1.874   5.512  -2.298  0.00  0.00     0.042 A 
ATOM     13 CL   UNL d   1      -2.000   4.437  -3.649  0.00  0.00    -0.084 Cl
ATOM     14  C   UNL d   1      -1.982   6.881  -2.576  0.00  0.00     0.024 A 
ATOM     15  C   UNL d   1      -1.866   7.819  -1.556  0.00  0.00     0.003 A 
ATOM     16  C   UNL d   1      -1.628   7.386  -0.255  0.00  0.00     0.024 A 
ATOM     17  C   UNL d   1      -1.526   6.018   0.029  0.00  0.00     0.042 A 
ATOM     18 CL   UNL d   1      -1.218   5.591   1.678  0.00  0.00    -0.084 Cl
ENDBRANCH  10  11
ENDBRANCH   9  10
ENDBRANCH   3   9
BRANCH   4  19
ATOM     19  S   UNL d   1       2.570  -1.648  -0.040  0.00  0.00    -0.107 SA
BRANCH  19  20
ATOM     20  C   UNL d   1       3.751  -0.264  -0.206  0.00  0.00     0.123 C 
BRANCH  20  21
ATOM     21  C   UNL d   1       5.183  -0.718  -0.379  0.00  0.00    -0.005 A 
ATOM     22  C   UNL d   1       5.714  -0.976  -1.659  0.00  0.00     0.042 A 
ATOM     23 CL   UNL d   1       4.754  -0.866  -3.097  0.00  0.00    -0.084 Cl
ATOM     24  C   UNL d   1       7.059  -1.323  -1.831  0.00  0.00     0.024 A 
ATOM     25  C   UNL d   1       7.902  -1.435  -0.730  0.00  0.00     0.003 A 
ATOM     26  C   UNL d   1       7.393  -1.214   0.545  0.00  0.00     0.024 A 
ATOM     27  C   UNL d   1       6.047  -0.866   0.722  0.00  0.00     0.042 A 
ATOM     28 CL   UNL d   1       5.518  -0.616   2.351  0.00  0.00    -0.084 Cl
ENDBRANCH  20  21
ENDBRANCH  19  20
ENDBRANCH   4  19
TORSDOF 6
