REMARK  4 active torsions:
REMARK  status: ('A' for Active; 'I' for Inactive)
REMARK    1  A    between atoms: C_12  and  C_1 
REMARK    2  A    between atoms: O_7  and  C_4 
REMARK    3  A    between atoms: C_8  and  O_7 
REMARK    4  A    between atoms: C_9  and  C_8 
ROOT
ATOM      1  C   UNL d   1       2.517  -0.682  -0.032  0.00  0.00     0.077 A 
ATOM      2  N   UNL d   1       0.869   1.111  -0.014  0.00  0.00    -0.312 N 
ATOM      3  C   UNL d   1       2.192   0.798   0.028  0.00  0.00     0.262 A 
ATOM      4  C   UNL d   1       1.527  -1.610  -0.084  0.00  0.00     0.108 A 
ATOM      5  C   UNL d   1       0.097  -1.206  -0.061  0.00  0.00     0.026 A 
ATOM      6  C   UNL d   1      -0.135   0.162  -0.040  0.00  0.00     0.057 A 
ATOM      7  C   UNL d   1       0.295   2.452  -0.005  0.00  0.00     0.137 A 
ATOM      8  O   UNL d   1       3.071   1.655   0.086  0.00  0.00    -0.267 OA
ATOM      9  C   UNL d   1      -1.383   0.780  -0.024  0.00  0.00    -0.029 A 
ATOM     10  C   UNL d   1      -1.236   2.272  -0.010  0.00  0.00     0.061 A 
ATOM     11  C   UNL d   1      -1.071  -1.972  -0.057  0.00  0.00     0.017 A 
ATOM     12  C   UNL d   1      -2.359  -1.375  -0.027  0.00  0.00     0.002 A 
ATOM     13  C   UNL d   1      -2.523   0.011  -0.013  0.00  0.00     0.009 A 
ENDROOT
BRANCH   4  14
ATOM     14  O   UNL d   1       1.919  -2.974  -0.332  0.00  0.00    -0.271 OA
BRANCH  14  15
ATOM     15  C   UNL d   1       1.410  -4.239  -0.396  0.00  0.00     0.322 C 
ATOM     16  O   UNL d   1       0.358  -4.638   0.069  0.00  0.00    -0.257 OA
BRANCH  15  17
ATOM     17  C   UNL d   1       2.337  -4.989  -1.206  0.00  0.00     0.150 A 
ATOM     18  O   UNL d   1       1.861  -5.687  -2.282  0.00  0.00    -0.317 OA
ATOM     19  C   UNL d   1       2.940  -6.071  -3.014  0.00  0.00     0.143 A 
ATOM     20  C   UNL d   1       4.105  -5.678  -2.398  0.00  0.00     0.027 A 
ATOM     21  C   UNL d   1       3.718  -5.022  -1.208  0.00  0.00     0.045 A 
ENDBRANCH  15  17
ENDBRANCH  14  15
ENDBRANCH   4  14
BRANCH   1  22
ATOM     22  C   UNL d   1       3.964  -1.024  -0.063  0.00  0.00    -0.018 A 
ATOM     23  C   UNL d   1       4.633  -1.284  -1.266  0.00  0.00     0.012 A 
ATOM     24  C   UNL d   1       6.028  -1.418  -1.287  0.00  0.00     0.001 A 
ATOM     25  C   UNL d   1       6.764  -1.299  -0.109  0.00  0.00     0.000 A 
ATOM     26  C   UNL d   1       6.106  -1.062   1.096  0.00  0.00     0.001 A 
ATOM     27  C   UNL d   1       4.715  -0.929   1.118  0.00  0.00     0.012 A 
ENDBRANCH   1  22
TORSDOF 4
