REMARK  0 active torsions:
REMARK  status: ('A' for Active; 'I' for Inactive)
ROOT
ATOM      1  S   UNL d   1       0.361   2.389   0.052  0.00  0.00     0.180 S 
ATOM      2  C   UNL d   1       0.557  -0.395   0.013  0.00  0.00     0.024 A 
ATOM      3  C   UNL d   1      -1.767   0.654   0.001  0.00  0.00     0.010 A 
ATOM      4  C   UNL d   1      -0.886  -0.395   0.020  0.00  0.00     0.119 A 
ATOM      5  C   UNL d   1       1.234   0.833   0.017  0.00  0.00     0.072 A 
ATOM      6  C   UNL d   1      -1.402   2.079  -0.043  0.00  0.00     0.188 A 
ATOM      7  N   UNL d   1      -2.929  -1.300   0.048  0.00  0.00    -0.271 N 
ATOM      8  HN  UNL d   1      -3.692  -1.977   0.066  1.00  0.00     0.194 HD
ATOM      9  O   UNL d   1      -1.565  -1.569   0.047  0.00  0.00    -0.237 OA
ATOM     10  O   UNL d   1       0.644   2.956   1.357  0.00  0.00    -0.222 OA
ATOM     11  O   UNL d   1       0.754   3.081  -1.160  0.00  0.00    -0.222 OA
ATOM     12  C   UNL d   1      -3.030   0.032   0.022  0.00  0.00     0.125 A 
ATOM     13  C   UNL d   1       2.634   0.892   0.005  0.00  0.00     0.026 A 
ATOM     14  C   UNL d   1       1.312  -1.576   0.003  0.00  0.00     0.039 A 
ATOM     15  C   UNL d   1       2.710  -1.517  -0.004  0.00  0.00     0.035 A 
ATOM     16  C   UNL d   1       3.372  -0.290  -0.005  0.00  0.00     0.025 A 
ATOM     17 CL   UNL d   1       3.627  -2.973  -0.010  0.00  0.00    -0.084 Cl
ENDROOT
TORSDOF 0
