REMARK  2 active torsions:
REMARK  status: ('A' for Active; 'I' for Inactive)
REMARK    1  A    between atoms: O_13  and  C_6 
REMARK    2  A    between atoms: C_17  and  O_13 
ROOT
ATOM      1  C   UNL d   1      -0.619  -1.503  -1.075  0.00  0.00    -0.013 C 
ATOM      2  C   UNL d   1       1.682   1.554   1.191  0.00  0.00    -0.009 C 
ATOM      3  C   UNL d   1      -2.092  -1.128  -1.238  0.00  0.00    -0.067 C 
ATOM      4  C   UNL d   1       0.127  -0.402  -0.237  0.00  0.00     0.003 C 
ATOM      5  C   UNL d   1       0.576   2.143   0.280  0.00  0.00     0.001 C 
ATOM      6  C   UNL d   1       0.930   1.408   2.595  0.00  0.00     0.074 C 
ATOM      7  C   UNL d   1      -0.201   1.078  -0.587  0.00  0.00    -0.004 C 
ATOM      8  C   UNL d   1      -3.093  -2.017  -1.090  0.00  0.00     0.059 C 
ATOM      9  C   UNL d   1      -0.498  -2.850  -0.287  0.00  0.00     0.055 C 
ATOM     10  C   UNL d   1      -1.448  -3.897  -0.767  0.00  0.00    -0.016 C 
ATOM     11  C   UNL d   1      -2.868  -3.468  -0.861  0.00  0.00     0.177 C 
ATOM     12  C   UNL d   1       2.420   0.339   0.616  0.00  0.00     0.013 C 
ATOM     13  C   UNL d   1       1.635  -0.628  -0.235  0.00  0.00     0.007 C 
ATOM     14  C   UNL d   1      -0.194   3.095   1.255  0.00  0.00     0.009 C 
ATOM     15  C   UNL d   1      -1.719   1.296  -0.679  0.00  0.00     0.010 C 
ATOM     16  C   UNL d   1      -2.377   0.300  -1.630  0.00  0.00     0.035 C 
ATOM     17  C   UNL d   1       0.369   2.851   2.684  0.00  0.00     0.039 C 
ATOM     18  O   UNL d   1      -3.811  -4.246  -0.782  0.00  0.00    -0.288 OA
ATOM     19  C   UNL d   1      -1.102  -5.151  -1.090  0.00  0.00     0.023 C 
ATOM     20  C   UNL d   1      -0.003  -1.688  -2.480  0.00  0.00     0.021 C 
ATOM     21  C   UNL d   1       2.837   2.630   1.273  0.00  0.00     0.019 C 
ATOM     22  C   UNL d   1      -0.365   0.578   2.825  0.00  0.00     0.047 C 
ENDROOT
BRANCH   6  23
ATOM     23  O   UNL d   1       1.837   1.083   3.675  0.00  0.00    -0.310 OA
BRANCH  23  24
ATOM     24  C   UNL d   1       2.143  -0.247   3.848  0.00  0.00     0.255 C 
ATOM     25  O   UNL d   1       1.833  -1.181   3.122  0.00  0.00    -0.266 OA
ATOM     26  C   UNL d   1       2.848  -0.471   5.149  0.00  0.00     0.126 C 
ENDBRANCH  23  24
ENDBRANCH   6  23
TORSDOF 2
