REMARK  8 active torsions:
REMARK  status: ('A' for Active; 'I' for Inactive)
REMARK    1  A    between atoms: C_4  and  S_1 
REMARK    2  A    between atoms: C_6  and  S_1 
REMARK    3  A    between atoms: C_2  and  C_4 
REMARK    4  A    between atoms: C_3  and  C_2 
REMARK    5  A    between atoms: C_5  and  C_3 
REMARK    6  A    between atoms: C_8  and  C_4 
REMARK    7  A    between atoms: N_11  and  C_10 
REMARK    8  A    between atoms: N_21  and  C_12 
ROOT
ATOM      1  C   UNL d   1       0.395   1.470  -0.617  0.00  0.00     0.092 C 
ENDROOT
BRANCH   1   2
ATOM      2  C   UNL d   1       1.006   2.334  -1.738  0.00  0.00     0.104 C 
BRANCH   2   3
ATOM      3  C   UNL d   1       1.035   1.790  -3.155  0.00  0.00     0.161 C 
ATOM      4  O   UNL d   1       0.145   1.089  -3.627  0.00  0.00    -0.292 OA
BRANCH   3   5
ATOM      5  C   UNL d   1       2.113   2.283  -4.072  0.00  0.00     0.011 A 
ATOM      6  C   UNL d   1       3.471   2.254  -3.729  0.00  0.00     0.027 A 
ATOM      7  C   UNL d   1       4.460   2.694  -4.641  0.00  0.00    -0.025 A 
ATOM      8  C   UNL d   1       5.835   2.647  -4.343  0.00  0.00     0.012 A 
ATOM      9  C   UNL d   1       4.062   3.190  -5.908  0.00  0.00    -0.026 A 
ATOM     10  C   UNL d   1       6.795   3.068  -5.270  0.00  0.00     0.001 A 
ATOM     11  C   UNL d   1       6.397   3.556  -6.510  0.00  0.00     0.001 A 
ATOM     12  C   UNL d   1       5.038   3.621  -6.825  0.00  0.00     0.012 A 
ATOM     13  C   UNL d   1       2.697   3.226  -6.229  0.00  0.00     0.013 A 
ATOM     14  C   UNL d   1       1.735   2.769  -5.328  0.00  0.00     0.016 A 
ENDBRANCH   3   5
ENDBRANCH   2   3
ENDBRANCH   1   2
BRANCH   1  15
ATOM     15  S   UNL d   1       1.029  -0.255  -0.402  0.00  0.00    -0.118 SA
BRANCH  15  16
ATOM     16  C   UNL d   1       2.794  -0.211  -0.070  0.00  0.00     0.022 C 
ATOM     17  C   UNL d   1       3.608   0.861   0.347  0.00  0.00     0.022 C 
ATOM     18  C   UNL d   1       5.006   0.694   0.369  0.00  0.00     0.024 C 
ATOM     19  C   UNL d   1       5.591  -0.553   0.157  0.00  0.00     0.002 C 
ATOM     20  C   UNL d   1       4.785  -1.648  -0.105  0.00  0.00     0.001 C 
ATOM     21  C   UNL d   1       3.406  -1.472  -0.236  0.00  0.00     0.020 C 
BRANCH  17  22
ATOM     22  N   UNL d   1       3.106   2.129   0.702  0.00  0.00    -0.302 NA
ATOM     23  H   UNL d   1       2.341   2.018   1.365  0.00  0.00     0.124 HD
ATOM     24  H   UNL d   1       3.814   2.740   1.100  0.00  0.00     0.124 HD
ENDBRANCH  17  22
ENDBRANCH  15  16
ENDBRANCH   1  15
BRANCH   1  25
ATOM     25  C   UNL d   1      -1.141   1.499  -0.517  0.00  0.00    -0.043 A 
ATOM     26  C   UNL d   1      -1.994   0.655  -1.238  0.00  0.00     0.010 A 
ATOM     27  C   UNL d   1      -3.390   0.656  -1.014  0.00  0.00     0.030 A 
ATOM     28  C   UNL d   1      -3.999   1.499  -0.070  0.00  0.00     0.029 A 
ATOM     29  C   UNL d   1      -3.135   2.369   0.610  0.00  0.00     0.030 A 
ATOM     30  C   UNL d   1      -1.747   2.374   0.397  0.00  0.00     0.010 A 
BRANCH  28  31
ATOM     31  N   UNL d   1      -5.369   1.538   0.165  0.00  0.00    -0.390 N 
ATOM     32  C   UNL d   1      -6.322   0.970  -0.781  0.00  0.00     0.149 C 
ATOM     33  C   UNL d   1      -5.862   1.654   1.539  0.00  0.00     0.149 C 
ENDBRANCH  28  31
ENDBRANCH   1  25
TORSDOF 8
