REMARK  3 active torsions:
REMARK  status: ('A' for Active; 'I' for Inactive)
REMARK    1  A    between atoms: N_2  and  C_1 
REMARK    2  A    between atoms: C_5  and  N_2 
REMARK    3  A    between atoms: C_8  and  C_7 
ROOT
ATOM      1  C   UNL d   1       1.254  -3.124   0.163  0.00  0.00     0.040 A 
ATOM      2  C   UNL d   1       2.079  -2.784   1.258  0.00  0.00    -0.028 A 
ATOM      3  C   UNL d   1       1.680  -4.148  -0.712  0.00  0.00     0.030 A 
ATOM      4  C   UNL d   1       3.289  -3.498   1.431  0.00  0.00     0.010 A 
ATOM      5  C   UNL d   1       2.871  -4.845  -0.513  0.00  0.00     0.002 A 
ATOM      6  C   UNL d   1       3.674  -4.521   0.565  0.00  0.00     0.001 A 
ENDROOT
BRANCH   1   7
ATOM      7  N   UNL d   1       0.036  -2.460  -0.095  0.00  0.00    -0.337 N 
ATOM      8  H   UNL d   1       0.150  -1.467  -0.256  0.00  0.00     0.168 HD
BRANCH   7   9
ATOM      9  C   UNL d   1      -1.024  -3.033  -0.740  0.00  0.00     0.140 C 
ATOM     10  N   UNL d   1      -1.353  -4.285  -0.771  0.00  0.00    -0.370 N 
ATOM     11  C   UNL d   1      -2.518  -4.496  -1.641  0.00  0.00     0.132 C 
ATOM     12  HN  UNL d   1      -0.868  -5.024  -0.262  1.00  0.00     0.161 HD
ATOM     13  C   UNL d   1      -3.342  -3.224  -1.703  0.00  0.00     0.102 C 
ATOM     14  S   UNL d   1      -2.084  -1.935  -1.602  0.00  0.00    -0.093 SA
ENDBRANCH   7   9
ENDBRANCH   1   7
BRANCH   2  15
ATOM     15  C   UNL d   1       1.792  -1.715   2.309  0.00  0.00     0.013 C 
ATOM     16  C   UNL d   1       2.407  -0.373   1.903  0.00  0.00     0.015 C 
ATOM     17  C   UNL d   1       0.335  -1.544   2.739  0.00  0.00     0.015 C 
ENDBRANCH   2  15
TORSDOF 3
