REMARK  9 active torsions:
REMARK  status: ('A' for Active; 'I' for Inactive)
REMARK    1  A    between atoms: C_4  and  N_2 
REMARK    2  A    between atoms: C_7  and  O_17 
REMARK    3  A    between atoms: N_24  and  C_12 
REMARK    4  A    between atoms: C_15  and  O_18 
REMARK    5  A    between atoms: C_16  and  C_23 
REMARK    6  A    between atoms: C_19  and  O_17 
REMARK    7  A    between atoms: C_20  and  O_18 
REMARK    8  A    between atoms: C_22  and  O_25 
REMARK    9  A    between atoms: O_25  and  C_23 
ROOT
ATOM      1  C   UNL d   1       1.901  -2.432  -0.015  0.00  0.00     0.263 C 
ATOM      2  C   UNL d   1       2.629  -2.622   1.314  0.00  0.00     0.213 C 
ATOM      3  O   UNL d   1       2.812  -2.872  -1.027  0.00  0.00    -0.353 OA
ATOM      4  C   UNL d   1       3.339  -3.952   1.069  0.00  0.00     0.197 C 
ATOM      5  C   UNL d   1       3.624  -3.921  -0.445  0.00  0.00     0.180 C 
ENDROOT
BRANCH   1   6
ATOM      6  N   UNL d   1       1.462  -1.086  -0.314  0.00  0.00    -0.297 N 
ATOM      7  C   UNL d   1       0.277  -0.763  -0.918  0.00  0.00     0.145 A 
ATOM      8  C   UNL d   1       0.198   0.609  -0.842  0.00  0.00     0.146 A 
ATOM      9  N   UNL d   1      -0.616  -1.625  -1.460  0.00  0.00    -0.317 N 
ATOM     10  N   UNL d   1       1.315   1.143  -0.261  0.00  0.00    -0.345 N 
ATOM     11  C   UNL d   1      -0.991   1.246  -1.361  0.00  0.00     0.278 A 
ATOM     12  C   UNL d   1       2.068   0.098   0.023  0.00  0.00     0.188 A 
ATOM     13  HN  UNL d   1       1.520   2.127  -0.086  1.00  0.00     0.167 HD
ATOM     14  O   UNL d   1      -1.252   2.443  -1.304  0.00  0.00    -0.265 OA
ATOM     15  N   UNL d   1      -1.858   0.334  -1.946  0.00  0.00    -0.298 N 
ATOM     16  C   UNL d   1      -1.656  -1.031  -1.978  0.00  0.00     0.159 A 
ATOM     17  H   UNL d   1      -2.714   0.724  -2.299  0.00  0.00     0.171 HD
ATOM     18  HN  UNL d   1      -0.489  -2.637  -1.462  1.00  0.00     0.170 HD
BRANCH  16  19
ATOM     19  N   UNL d   1      -2.610  -1.764  -2.605  0.00  0.00    -0.274 NA
ATOM     20  H   UNL d   1      -3.040  -1.332  -3.414  0.00  0.00     0.127 HD
ATOM     21  H   UNL d   1      -2.282  -2.705  -2.806  0.00  0.00     0.127 HD
ENDBRANCH  16  19
ENDBRANCH   1   6
BRANCH   2  22
ATOM     22  O   UNL d   1       1.666  -2.675   2.377  0.00  0.00    -0.309 OA
BRANCH  22  23
ATOM     23  C   UNL d   1       1.512  -1.531   3.095  0.00  0.00     0.255 C 
ATOM     24  O   UNL d   1       2.286  -0.588   3.083  0.00  0.00    -0.266 OA
ATOM     25  C   UNL d   1       0.184  -1.540   3.788  0.00  0.00     0.126 C 
ENDBRANCH  22  23
ENDBRANCH   2  22
BRANCH   4  26
ATOM     26  O   UNL d   1       2.448  -5.053   1.360  0.00  0.00    -0.311 OA
BRANCH  26  27
ATOM     27  C   UNL d   1       2.466  -5.471   2.659  0.00  0.00     0.255 C 
ATOM     28  O   UNL d   1       3.204  -5.032   3.527  0.00  0.00    -0.266 OA
ATOM     29  C   UNL d   1       1.397  -6.490   2.905  0.00  0.00     0.126 C 
ENDBRANCH  26  27
ENDBRANCH   4  26
BRANCH   5  30
ATOM     30  C   UNL d   1       5.087  -3.607  -0.783  0.00  0.00     0.213 C 
BRANCH  30  31
ATOM     31  O   UNL d   1       5.294  -3.590  -2.211  0.00  0.00    -0.319 OA
BRANCH  31  32
ATOM     32  C   UNL d   1       5.339  -4.807  -2.815  0.00  0.00     0.254 C 
ATOM     33  O   UNL d   1       5.280  -5.879  -2.232  0.00  0.00    -0.266 OA
ATOM     34  C   UNL d   1       5.472  -4.664  -4.301  0.00  0.00     0.126 C 
ENDBRANCH  31  32
ENDBRANCH  30  31
ENDBRANCH   5  30
TORSDOF 9
