REMARK  5 active torsions:
REMARK  status: ('A' for Active; 'I' for Inactive)
REMARK    1  A    between atoms: N_3  and  C_1 
REMARK    2  A    between atoms: C_5  and  C_2 
REMARK       I    between atoms: C_4  and  N_3 
REMARK    3  A    between atoms: C_9  and  C_4 
REMARK    4  A    between atoms: O_18  and  C_5 
REMARK    5  A    between atoms: C_10  and  C_11 
ROOT
ATOM      1  N   UNL d   1       0.170   3.635   1.360  0.00  0.00    -0.316 N 
ATOM      2  C   UNL d   1       0.654   3.306   0.104  0.00  0.00     0.256 C 
ATOM      3  O   UNL d   1      -0.037   3.180  -0.903  0.00  0.00    -0.267 OA
ATOM      4  H   UNL d   1       0.775   4.111   2.007  0.00  0.00     0.169 HD
ENDROOT
BRANCH   2   5
ATOM      5  C   UNL d   1       2.149   3.116   0.008  0.00  0.00     0.032 A 
ATOM      6  C   UNL d   1       2.681   2.511  -1.137  0.00  0.00     0.017 A 
ATOM      7  C   UNL d   1       4.045   2.168  -1.207  0.00  0.00     0.009 A 
ATOM      8  C   UNL d   1       4.926   2.419  -0.137  0.00  0.00    -0.051 A 
ATOM      9  C   UNL d   1       4.393   3.106   0.964  0.00  0.00     0.009 A 
ATOM     10  C   UNL d   1       3.034   3.449   1.038  0.00  0.00     0.017 A 
BRANCH   8  11
ATOM     11  C   UNL d   1       6.385   1.915  -0.167  0.00  0.00    -0.024 C 
ATOM     12  C   UNL d   1       7.166   2.208   1.137  0.00  0.00     0.019 C 
ATOM     13  C   UNL d   1       6.406   0.381  -0.359  0.00  0.00     0.019 C 
ATOM     14  C   UNL d   1       7.171   2.565  -1.323  0.00  0.00     0.019 C 
ENDBRANCH   8  11
ENDBRANCH   2   5
BRANCH   1  15
ATOM     15  C   UNL d   1      -1.163   3.692   1.702  0.00  0.00     0.093 A 
ATOM     16  C   UNL d   1      -2.304   2.958   1.407  0.00  0.00     0.073 A 
ATOM     17  C   UNL d   1      -3.449   3.566   2.055  0.00  0.00     0.028 A 
ATOM     18  C   UNL d   1      -3.124   4.660   2.822  0.00  0.00     0.053 A 
ATOM     19  S   UNL d   1      -1.444   4.937   2.834  0.00  0.00    -0.083 SA
BRANCH  16  20
ATOM     20  C   UNL d   1      -2.385   1.713   0.642  0.00  0.00     0.295 C 
ATOM     21  O   UNL d   1      -3.447   1.237   0.262  0.00  0.00    -0.259 OA
BRANCH  20  22
ATOM     22  O   UNL d   1      -1.173   1.108   0.497  0.00  0.00    -0.322 OA
ATOM     23  C   UNL d   1      -1.090  -0.004  -0.394  0.00  0.00     0.213 C 
ENDBRANCH  20  22
ENDBRANCH  16  20
ENDBRANCH   1  15
TORSDOF 5
