REMARK  7 active torsions:
REMARK  status: ('A' for Active; 'I' for Inactive)
REMARK    1  A    between atoms: C_2  and  C_1 
REMARK    2  A    between atoms: N_3  and  C_1 
REMARK    3  A    between atoms: C_4  and  C_2 
REMARK    4  A    between atoms: C_14  and  C_5 
REMARK    5  A    between atoms: O_13  and  C_9 
REMARK    6  A    between atoms: C_15  and  O_13 
REMARK    7  A    between atoms: C_17  and  C_15 
ROOT
ATOM      1  C   UNL d   1       0.106   0.413  -1.367  0.00  0.00     0.211 C 
ATOM      2  O   UNL d   1       0.975   0.861  -0.623  0.00  0.00    -0.285 OA
ENDROOT
BRANCH   1   3
ATOM      3  C   UNL d   1       0.463  -0.681  -2.375  0.00  0.00     0.091 C 
ATOM      4  C   UNL d   1      -0.385  -1.717  -2.614  0.00  0.00     0.045 C 
BRANCH   3   5
ATOM      5  N   UNL d   1       1.730  -0.613  -3.025  0.00  0.00    -0.313 N 
ATOM      6  C   UNL d   1       2.716   0.356  -2.896  0.00  0.00     0.188 A 
ATOM      7  N   UNL d   1       3.774   0.134  -3.643  0.00  0.00    -0.360 N 
ATOM      8  C   UNL d   1       3.507  -1.026  -4.299  0.00  0.00     0.106 A 
ATOM      9  HN  UNL d   1       4.614   0.707  -3.714  1.00  0.00     0.166 HD
ATOM     10  C   UNL d   1       2.263  -1.496  -3.959  0.00  0.00     0.115 A 
ENDBRANCH   3   5
BRANCH   4  11
ATOM     11  C   UNL d   1      -1.705  -2.012  -2.037  0.00  0.00    -0.034 A 
ATOM     12  C   UNL d   1      -2.793  -2.201  -2.904  0.00  0.00     0.011 A 
ATOM     13  C   UNL d   1      -4.080  -2.370  -2.393  0.00  0.00     0.001 A 
ATOM     14  C   UNL d   1      -4.285  -2.370  -1.015  0.00  0.00     0.000 A 
ATOM     15  C   UNL d   1      -3.199  -2.245  -0.149  0.00  0.00     0.001 A 
ATOM     16  C   UNL d   1      -1.909  -2.089  -0.657  0.00  0.00     0.011 A 
ENDBRANCH   4  11
ENDBRANCH   1   3
BRANCH   1  17
ATOM     17  C   UNL d   1      -1.281   0.967  -1.299  0.00  0.00     0.050 C 
ATOM     18  C   UNL d   1      -1.883   1.281  -0.061  0.00  0.00     0.083 C 
ATOM     19  C   UNL d   1      -3.258   1.565  -0.036  0.00  0.00     0.038 C 
ATOM     20  C   UNL d   1      -4.003   1.618  -1.214  0.00  0.00     0.003 C 
ATOM     21  C   UNL d   1      -3.380   1.422  -2.441  0.00  0.00     0.001 C 
ATOM     22  C   UNL d   1      -2.021   1.111  -2.487  0.00  0.00     0.018 C 
BRANCH  18  23
ATOM     23  O   UNL d   1      -1.122   1.236   1.086  0.00  0.00    -0.346 OA
BRANCH  23  24
ATOM     24  C   UNL d   1      -1.624   2.006   2.190  0.00  0.00     0.214 C 
BRANCH  24  25
ATOM     25  C   UNL d   1      -0.576   2.344   3.229  0.00  0.00    -0.034 A 
ATOM     26  C   UNL d   1       0.778   2.488   2.909  0.00  0.00     0.009 A 
ATOM     27  C   UNL d   1       1.695   2.904   3.880  0.00  0.00     0.001 A 
ATOM     28  C   UNL d   1       1.270   3.185   5.179  0.00  0.00     0.000 A 
ATOM     29  C   UNL d   1      -0.077   3.049   5.509  0.00  0.00     0.001 A 
ATOM     30  C   UNL d   1      -0.992   2.638   4.542  0.00  0.00     0.009 A 
ENDBRANCH  24  25
ENDBRANCH  23  24
ENDBRANCH  18  23
ENDBRANCH   1  17
TORSDOF 7
