REMARK  1 active torsions:
REMARK  status: ('A' for Active; 'I' for Inactive)
REMARK    1  A    between atoms: C_6  and  N_1 
ROOT
ATOM      1  N   UNL d   1       0.002   0.909   0.007  0.00  0.00    -0.245 N 
ATOM      2  C   UNL d   1       0.909   0.104  -0.626  0.00  0.00     0.255 A 
ATOM      3  C   UNL d   1      -0.897   0.124   0.680  0.00  0.00     0.255 A 
ATOM      4  C   UNL d   1       0.556  -1.288  -0.326  0.00  0.00     0.080 A 
ATOM      5  C   UNL d   1      -0.521  -1.275   0.454  0.00  0.00     0.080 A 
ATOM      6  O   UNL d   1       1.890   0.370  -1.304  0.00  0.00    -0.268 OA
ATOM      7  O   UNL d   1      -1.882   0.413   1.337  0.00  0.00    -0.268 OA
ENDROOT
BRANCH   1   8
ATOM      8  C   UNL d   1      -0.007   2.331  -0.030  0.00  0.00     0.046 A 
ATOM      9  C   UNL d   1       0.694   3.043  -1.017  0.00  0.00     0.032 A 
ATOM     10  C   UNL d   1       0.680   4.444  -1.057  0.00  0.00     0.026 A 
ATOM     11  C   UNL d   1      -0.025   5.157  -0.096  0.00  0.00     0.034 A 
ATOM     12  C   UNL d   1      -0.720   4.481   0.900  0.00  0.00     0.026 A 
ATOM     13 CL   UNL d   1      -0.038   6.876  -0.137  0.00  0.00    -0.084 Cl
ATOM     14  C   UNL d   1      -0.715   3.080   0.927  0.00  0.00     0.032 A 
ENDBRANCH   1   8
TORSDOF 1
