REMARK  5 active torsions:
REMARK  status: ('A' for Active; 'I' for Inactive)
REMARK    1  A    between atoms: C_2  and  S_1 
REMARK    2  A    between atoms: N_3  and  S_1 
REMARK    3  A    between atoms: O_17  and  C_4 
REMARK    4  A    between atoms: C_14  and  C_5 
REMARK    5  A    between atoms: O_18  and  C_15 
ROOT
ATOM      1  S   UNL d   1       1.462   0.065  -0.026  0.00  0.00     0.246 S 
ATOM      2  O   UNL d   1       0.866  -0.548   1.138  0.00  0.00    -0.206 OA
ATOM      3  O   UNL d   1       2.909   0.041  -0.176  0.00  0.00    -0.206 OA
ENDROOT
BRANCH   1   4
ATOM      4  C   UNL d   1       0.933   1.757  -0.171  0.00  0.00     0.108 A 
ATOM      5  C   UNL d   1      -0.260   2.276   0.337  0.00  0.00     0.093 A 
ATOM      6  C   UNL d   1      -0.505   3.664   0.212  0.00  0.00     0.075 A 
ATOM      7  C   UNL d   1       0.410   4.518  -0.412  0.00  0.00     0.070 A 
ATOM      8  C   UNL d   1       1.598   3.990  -0.901  0.00  0.00     0.038 A 
ATOM      9  C   UNL d   1       1.865   2.631  -0.770  0.00  0.00     0.030 A 
BRANCH   5  10
ATOM     10  O   UNL d   1      -1.204   1.633   1.087  0.00  0.00    -0.354 OA
ATOM     11  C   UNL d   1      -1.815   0.477   0.523  0.00  0.00     0.210 C 
ENDBRANCH   5  10
BRANCH   7  12
ATOM     12  O   UNL d   1       0.286   5.866  -0.594  0.00  0.00    -0.356 OA
ATOM     13  C   UNL d   1      -0.862   6.495  -0.044  0.00  0.00     0.210 C 
ENDBRANCH   7  12
ENDBRANCH   1   4
BRANCH   1  14
ATOM     14  N   UNL d   1       0.813  -0.696  -1.446  0.00  0.00    -0.203 NA
ATOM     15  C   UNL d   1       1.201   0.011  -2.704  0.00  0.00     0.135 C 
ATOM     16  C   UNL d   1       1.286  -0.859  -3.915  0.00  0.00    -0.004 C 
ATOM     17  C   UNL d   1       1.035  -2.175  -3.930  0.00  0.00    -0.049 C 
ATOM     18  C   UNL d   1       0.606  -2.884  -2.686  0.00  0.00     0.054 C 
ATOM     19  C   UNL d   1       1.126  -2.164  -1.440  0.00  0.00     0.112 C 
BRANCH  17  20
ATOM     20  C   UNL d   1       1.261  -2.950  -5.154  0.00  0.00    -0.030 A 
ATOM     21  C   UNL d   1       2.533  -3.470  -5.428  0.00  0.00     0.012 A 
ATOM     22  C   UNL d   1       2.765  -4.183  -6.606  0.00  0.00     0.001 A 
ATOM     23  C   UNL d   1       1.728  -4.374  -7.519  0.00  0.00     0.000 A 
ATOM     24  C   UNL d   1       0.462  -3.850  -7.256  0.00  0.00     0.001 A 
ATOM     25  C   UNL d   1       0.229  -3.137  -6.077  0.00  0.00     0.012 A 
ENDBRANCH  17  20
ENDBRANCH   1  14
TORSDOF 5
