REMARK  7 active torsions:
REMARK  status: ('A' for Active; 'I' for Inactive)
REMARK    1  A    between atoms: N_8  and  C_2 
REMARK    2  A    between atoms: C_9  and  C_3 
REMARK       I    between atoms: C_12  and  N_8 
REMARK    3  A    between atoms: C_18  and  C_12 
REMARK    4  A    between atoms: C_13  and  C_19 
REMARK    5  A    between atoms: O_17  and  C_13 
REMARK    6  A    between atoms: O_16  and  C_18 
REMARK    7  A    between atoms: C_19  and  O_16 
ROOT
ATOM      1  N   UNL d   1       0.503   2.429   0.047  0.00  0.00    -0.304 N 
ATOM      2  C   UNL d   1       1.778   2.900  -0.154  0.00  0.00     0.247 C 
ATOM      3  O   UNL d   1       2.777   2.244  -0.426  0.00  0.00    -0.271 OA
ATOM      4  H   UNL d   1      -0.202   3.089   0.346  0.00  0.00     0.171 HD
ENDROOT
BRANCH   1   5
ATOM      5  C   UNL d   1       0.076   1.129   0.025  0.00  0.00     0.167 A 
ATOM      6  S   UNL d   1       1.056  -0.191  -0.416  0.00  0.00    -0.037 SA
ATOM      7  C   UNL d   1      -0.281  -1.207  -0.072  0.00  0.00     0.074 A 
ATOM      8  N   UNL d   1      -1.362  -0.557   0.307  0.00  0.00    -0.296 N 
ATOM      9  N   UNL d   1      -1.158   0.806   0.347  0.00  0.00    -0.279 N 
ATOM     10  HN  UNL d   1      -2.245  -1.009   0.543  1.00  0.00     0.187 HD
ATOM     11  HN  UNL d   1      -1.879   1.484   0.597  1.00  0.00     0.189 HD
BRANCH   7  12
ATOM     12  C   UNL d   1      -0.309  -2.733  -0.153  0.00  0.00     0.044 A 
ATOM     13  C   UNL d   1       0.952  -3.538   0.086  0.00  0.00     0.012 A 
ATOM     14  C   UNL d   1       0.383  -3.456  -1.289  0.00  0.00     0.012 A 
ENDBRANCH   7  12
ENDBRANCH   1   5
BRANCH   2  15
ATOM     15  C   UNL d   1       1.839   4.429  -0.049  0.00  0.00     0.271 C 
BRANCH  15  16
ATOM     16  O   UNL d   1       0.936   4.935   0.945  0.00  0.00    -0.372 OA
BRANCH  16  17
ATOM     17  C   UNL d   1       1.135   6.337   1.156  0.00  0.00     0.277 C 
BRANCH  17  18
ATOM     18  C   UNL d   1       0.357   7.160   0.143  0.00  0.00     0.164 C 
ATOM     19  O   UNL d   1       0.788   8.142  -0.437  0.00  0.00    -0.648 OA
BRANCH  18  20
ATOM     20  O   UNL d   1      -0.898   6.678  -0.049  0.00  0.00    -0.775 OA
ATOM     21  H   UNL d   1      -1.058   5.888   0.505  0.00  0.00     0.167 HD
ENDBRANCH  18  20
ENDBRANCH  17  18
ENDBRANCH  16  17
ENDBRANCH  15  16
ENDBRANCH   2  15
TORSDOF 7
