REMARK  2 active torsions:
REMARK  status: ('A' for Active; 'I' for Inactive)
REMARK    1  A    between atoms: C_7  and  C_3 
REMARK    2  A    between atoms: C_11  and  C_9 
ROOT
ATOM      1  N   UNL d   1       0.879   0.188  -0.801  0.00  0.00    -0.318 N 
ATOM      2  HN  UNL d   1       1.549   0.357  -1.552  1.00  0.00     0.169 HD
ATOM      3  C   UNL d   1       0.268   1.101   0.023  0.00  0.00     0.145 A 
ATOM      4  C   UNL d   1       0.387  -0.962  -0.383  0.00  0.00     0.189 A 
ATOM      5  N   UNL d   1      -0.598   0.568   0.894  0.00  0.00    -0.241 N 
ATOM      6  HN  UNL d   1      -1.171   1.047   1.589  1.00  0.00     0.196 HD
ATOM      7  O   UNL d   1      -0.529  -0.796   0.625  0.00  0.00    -0.216 OA
ATOM      8  C   UNL d   1       0.805  -2.237  -0.890  0.00  0.00     0.058 A 
ATOM      9  S   UNL d   1       0.127  -3.703  -0.316  0.00  0.00    -0.098 SA
ATOM     10  C   UNL d   1       1.779  -2.474  -1.841  0.00  0.00     0.024 A 
ATOM     11  C   UNL d   1       1.155  -4.645  -1.306  0.00  0.00     0.050 A 
ATOM     12  C   UNL d   1       1.989  -3.864  -2.075  0.00  0.00     0.009 A 
ENDROOT
BRANCH   3  13
ATOM     13  C   UNL d   1       0.589   2.560  -0.029  0.00  0.00     0.051 A 
ATOM     14  S   UNL d   1      -0.037   3.717   1.054  0.00  0.00    -0.084 SA
ATOM     15  C   UNL d   1       0.864   4.987   0.342  0.00  0.00     0.041 A 
ATOM     16  C   UNL d   1       1.599   4.531  -0.737  0.00  0.00     0.023 A 
ATOM     17  C   UNL d   1       1.444   3.127  -0.949  0.00  0.00     0.024 A 
BRANCH  15  18
ATOM     18  C   UNL d   1       0.824   6.333   0.844  0.00  0.00     0.117 A 
ATOM     19  O   UNL d   1       1.557   7.349   0.281  0.00  0.00    -0.237 OA
ATOM     20  N   UNL d   1       1.339   8.534   0.964  0.00  0.00    -0.272 N 
ATOM     21  C   UNL d   1       0.478   8.226   1.933  0.00  0.00     0.117 A 
ATOM     22  HN  UNL d   1       1.750   9.447   0.767  1.00  0.00     0.194 HD
ATOM     23  C   UNL d   1       0.122   6.869   1.907  0.00  0.00     0.059 A 
ENDBRANCH  15  18
ENDBRANCH   3  13
TORSDOF 2
