REMARK  5 active torsions:
REMARK  status: ('A' for Active; 'I' for Inactive)
REMARK       I    between atoms: N_2  and  C_1 
REMARK    1  A    between atoms: C_3  and  C_1 
REMARK    2  A    between atoms: N_4  and  C_3 
REMARK    3  A    between atoms: C_6  and  N_4 
REMARK    4  A    between atoms: C_12  and  N_5 
REMARK    5  A    between atoms: C_15  and  C_12 
ROOT
ATOM      1  C   UNL d   1       0.892  -0.123   0.219  0.00  0.00     0.237 C 
ATOM      2  N   UNL d   1       0.403  -0.637  -0.981  0.00  0.00    -0.347 N 
ATOM      3  N   UNL d   1      -0.481  -1.845  -3.533  0.00  0.00     0.095 N 
ATOM      4  O   UNL d   1       1.588  -0.809   0.975  0.00  0.00    -0.272 OA
ATOM      5  C   UNL d   1       0.760  -2.015  -1.321  0.00  0.00     0.156 C 
ATOM      6  C   UNL d   1      -0.781  -0.111  -1.673  0.00  0.00     0.156 C 
ATOM      7  C   UNL d   1      -0.773  -0.435  -3.186  0.00  0.00     0.292 C 
ATOM      8  C   UNL d   1       0.764  -2.247  -2.842  0.00  0.00     0.292 C 
ENDROOT
BRANCH   1   9
ATOM      9  C   UNL d   1       0.535   1.340   0.583  0.00  0.00     0.149 C 
ATOM     10  C   UNL d   1       1.678   1.942   1.407  0.00  0.00     0.036 C 
BRANCH   9  11
ATOM     11  N   UNL d   1      -0.718   1.330   1.362  0.00  0.00    -0.266 NA
ATOM     12  H   UNL d   1      -0.561   0.936   2.286  0.00  0.00     0.130 HD
BRANCH  11  13
ATOM     13  C   UNL d   1      -1.392   2.554   1.455  0.00  0.00     0.080 A 
ATOM     14  N   UNL d   1      -1.069   3.569   0.629  0.00  0.00    -0.357 N 
ATOM     15  C   UNL d   1      -1.782   4.714   0.718  0.00  0.00     0.089 A 
ATOM     16  HN  UNL d   1      -0.309   3.476  -0.044  1.00  0.00     0.166 HD
ATOM     17  C   UNL d   1      -2.834   4.904   1.595  0.00  0.00     0.017 A 
ATOM     18  C   UNL d   1      -3.178   3.850   2.427  0.00  0.00     0.005 A 
ATOM     19  C   UNL d   1      -2.456   2.660   2.350  0.00  0.00     0.042 A 
ENDBRANCH  11  13
ENDBRANCH   9  11
ENDBRANCH   1   9
BRANCH   3  20
ATOM     20  C   UNL d   1      -1.629  -2.711  -3.212  0.00  0.00     0.311 C 
BRANCH  20  21
ATOM     21  C   UNL d   1      -1.420  -4.171  -3.557  0.00  0.00    -0.030 A 
ATOM     22  C   UNL d   1      -1.429  -5.145  -2.546  0.00  0.00     0.009 A 
ATOM     23  C   UNL d   1      -1.233  -6.491  -2.857  0.00  0.00     0.001 A 
ATOM     24  C   UNL d   1      -1.028  -6.880  -4.179  0.00  0.00     0.000 A 
ATOM     25  C   UNL d   1      -1.016  -5.921  -5.193  0.00  0.00     0.001 A 
ATOM     26  C   UNL d   1      -1.211  -4.574  -4.884  0.00  0.00     0.009 A 
ENDBRANCH  20  21
ENDBRANCH   3  20
TORSDOF 5
