REMARK  4 active torsions:
REMARK  status: ('A' for Active; 'I' for Inactive)
REMARK    1  A    between atoms: N_13  and  C_2 
REMARK    2  A    between atoms: C_12  and  N_3 
REMARK    3  A    between atoms: O_14  and  C_7 
REMARK    4  A    between atoms: O_15  and  C_11 
ROOT
ATOM      1  C   UNL d   1       0.254  -0.718  -0.036  0.00  0.00     0.083 A 
ATOM      2  C   UNL d   1       1.536  -1.203   0.001  0.00  0.00     0.117 C 
ATOM      3  N   UNL d   1       2.336  -0.049   0.061  0.00  0.00    -0.244 N 
ATOM      4  N   UNL d   1       1.594   1.073   0.303  0.00  0.00    -0.291 N 
ATOM      5  HN  UNL d   1       1.942   2.003   0.534  1.00  0.00     0.187 HD
ATOM      6  C   UNL d   1       0.314   0.698   0.175  0.00  0.00     0.070 A 
ATOM      7  C   UNL d   1      -0.938  -1.426  -0.183  0.00  0.00     0.158 A 
ATOM      8  N   UNL d   1      -2.079  -0.696  -0.111  0.00  0.00    -0.317 N 
ATOM      9  HN  UNL d   1      -2.990  -1.146  -0.204  1.00  0.00     0.170 HD
ATOM     10  C   UNL d   1      -0.856   1.464   0.241  0.00  0.00     0.087 A 
ATOM     11  C   UNL d   1      -1.988   0.658   0.089  0.00  0.00     0.143 A 
ENDROOT
BRANCH   3  12
ATOM     12  C   UNL d   1       3.753   0.064  -0.051  0.00  0.00     0.058 A 
ATOM     13  C   UNL d   1       4.506  -0.877  -0.765  0.00  0.00     0.031 A 
ATOM     14  C   UNL d   1       5.895  -0.741  -0.849  0.00  0.00     0.002 A 
ATOM     15  C   UNL d   1       6.535   0.329  -0.225  0.00  0.00     0.000 A 
ATOM     16  C   UNL d   1       5.788   1.280   0.467  0.00  0.00     0.002 A 
ATOM     17  C   UNL d   1       4.399   1.160   0.541  0.00  0.00     0.031 A 
ENDBRANCH   3  12
BRANCH   2  18
ATOM     18  N   UNL d   1       1.998  -2.492   0.066  0.00  0.00    -0.286 NA
ATOM     19  H   UNL d   1       1.421  -3.162   0.579  0.00  0.00     0.125 HD
ATOM     20  H   UNL d   1       2.966  -2.626   0.370  0.00  0.00     0.125 HD
ENDBRANCH   2  18
BRANCH   7  21
ATOM     21  O   UNL d   1      -1.045  -2.764  -0.448  0.00  0.00    -0.345 OA
ATOM     22  H   UNL d   1      -0.165  -3.025  -0.768  0.00  0.00     0.219 HD
ENDBRANCH   7  21
BRANCH  11  23
ATOM     23  O   UNL d   1      -3.211   1.256   0.134  0.00  0.00    -0.346 OA
ATOM     24  H   UNL d   1      -3.782   0.476   0.001  0.00  0.00     0.219 HD
ENDBRANCH  11  23
TORSDOF 4
