REMARK  9 active torsions:
REMARK  status: ('A' for Active; 'I' for Inactive)
REMARK    1  A    between atoms: C_6  and  C_1 
REMARK    2  A    between atoms: C_9  and  C_2 
REMARK    3  A    between atoms: C_13  and  N_3 
REMARK    4  A    between atoms: N_7  and  C_15 
REMARK    5  A    between atoms: O_14  and  C_9 
REMARK    6  A    between atoms: N_10  and  O_14 
REMARK    7  A    between atoms: C_18  and  C_12 
REMARK    8  A    between atoms: N_33  and  C_12 
REMARK    9  A    between atoms: C_19  and  C_20 
ROOT
ATOM      1  C   UNL d   1      -0.282   0.968   0.306  0.00  0.00     0.158 C 
ATOM      2  C   UNL d   1       0.537  -0.144   0.494  0.00  0.00     0.091 C 
ATOM      3  N   UNL d   1      -0.587   1.459   1.564  0.00  0.00    -0.251 N 
ATOM      4  N   UNL d   1       0.124   0.808   2.523  0.00  0.00    -0.303 N 
ATOM      5  HN  UNL d   1       0.179   1.035   3.516  1.00  0.00     0.186 HD
ATOM      6  C   UNL d   1       0.733  -0.189   1.885  0.00  0.00     0.127 C 
ENDROOT
BRANCH   2   7
ATOM      7  C   UNL d   1       1.059  -1.054  -0.516  0.00  0.00     0.318 C 
ATOM      8  O   UNL d   1       0.666  -1.059  -1.677  0.00  0.00    -0.257 OA
BRANCH   7   9
ATOM      9  O   UNL d   1       2.011  -1.911  -0.015  0.00  0.00    -0.193 OA
BRANCH   9  10
ATOM     10  N   UNL d   1       1.671  -3.228  -0.389  0.00  0.00    -0.246 N 
ATOM     11  C   UNL d   1       2.620  -4.071  -0.107  0.00  0.00     0.109 C 
ATOM     12  HN  UNL d   1       0.788  -3.488  -0.828  1.00  0.00     0.196 HD
BRANCH  11  13
ATOM     13  C   UNL d   1       2.299  -5.526  -0.209  0.00  0.00     0.004 A 
ATOM     14  C   UNL d   1       1.395  -6.005  -1.160  0.00  0.00     0.015 A 
ATOM     15  C   UNL d   1       1.005  -7.353  -1.138  0.00  0.00     0.009 A 
ATOM     16  C   UNL d   1       1.494  -8.247  -0.163  0.00  0.00    -0.051 A 
ATOM     17  C   UNL d   1       2.427  -7.745   0.757  0.00  0.00     0.009 A 
ATOM     18  C   UNL d   1       2.827  -6.404   0.736  0.00  0.00     0.015 A 
BRANCH  16  19
ATOM     19  C   UNL d   1       0.983  -9.701  -0.100  0.00  0.00    -0.024 C 
ATOM     20  C   UNL d   1       1.616 -10.531   1.038  0.00  0.00     0.019 C 
ATOM     21  C   UNL d   1      -0.543  -9.706   0.130  0.00  0.00     0.019 C 
ATOM     22  C   UNL d   1       1.293 -10.433  -1.424  0.00  0.00     0.019 C 
ENDBRANCH  16  19
ENDBRANCH  11  13
BRANCH  11  23
ATOM     23  N   UNL d   1       3.881  -3.709   0.312  0.00  0.00    -0.286 NA
ATOM     24  H   UNL d   1       4.111  -2.751   0.068  0.00  0.00     0.125 HD
ATOM     25  H   UNL d   1       4.620  -4.352   0.052  0.00  0.00     0.125 HD
ENDBRANCH  11  23
ENDBRANCH   9  10
ENDBRANCH   7   9
ENDBRANCH   2   7
BRANCH   1  26
ATOM     26  C   UNL d   1      -0.711   1.639  -0.934  0.00  0.00     0.435 C 
ATOM     27  F   UNL d   1       0.096   1.382  -1.991  0.00  0.00    -0.165 F 
ATOM     28  F   UNL d   1      -1.967   1.277  -1.293  0.00  0.00    -0.165 F 
ATOM     29  F   UNL d   1      -0.705   2.991  -0.809  0.00  0.00    -0.165 F 
ENDBRANCH   1  26
BRANCH   3  30
ATOM     30  C   UNL d   1      -1.432   2.545   1.952  0.00  0.00     0.057 A 
ATOM     31  C   UNL d   1      -2.570   2.901   1.216  0.00  0.00     0.034 A 
ATOM     32  C   UNL d   1      -3.266   4.076   1.510  0.00  0.00     0.038 A 
ATOM     33  C   UNL d   1      -2.840   4.888   2.568  0.00  0.00     0.103 A 
ATOM     34  C   UNL d   1      -1.770   4.489   3.378  0.00  0.00     0.038 A 
ATOM     35  C   UNL d   1      -1.080   3.308   3.080  0.00  0.00     0.034 A 
BRANCH  33  36
ATOM     36  N   UNL d   1      -3.500   6.178   2.803  0.00  0.00    -0.116 N 
ATOM     37  O   UNL d   1      -3.122   6.849   3.775  0.00  0.00    -0.532 OA
ATOM     38  O   UNL d   1      -4.384   6.527   2.009  0.00  0.00    -0.532 OA
ENDBRANCH  33  36
ENDBRANCH   3  30
TORSDOF 9
