REMARK  5 active torsions:
REMARK  status: ('A' for Active; 'I' for Inactive)
REMARK    1  A    between atoms: C_3  and  C_1 
REMARK    2  A    between atoms: C_15  and  N_2 
REMARK    3  A    between atoms: C_16  and  C_9 
REMARK    4  A    between atoms: C_17  and  C_10 
REMARK    5  A    between atoms: C_18  and  N_11 
ROOT
ATOM      1  C   UNL d   1       0.796  -0.668  -0.225  0.00  0.00     0.074 A 
ATOM      2  N   UNL d   1       0.787   0.580   0.284  0.00  0.00    -0.294 N 
ATOM      3  HN  UNL d   1       1.551   1.063   0.756  1.00  0.00     0.187 HD
ATOM      4  C   UNL d   1      -0.415  -0.950  -0.896  0.00  0.00     0.088 A 
ATOM      5  N   UNL d   1      -0.465   1.054   0.029  0.00  0.00    -0.266 N 
ATOM      6  C   UNL d   1      -1.229   0.123  -0.631  0.00  0.00     0.141 A 
ATOM      7  C   UNL d   1      -0.803  -2.095  -1.655  0.00  0.00     0.103 C 
ATOM      8  N   UNL d   1      -1.182  -2.992  -2.280  0.00  0.00    -0.191 NA
ENDROOT
BRANCH   1   9
ATOM      9  C   UNL d   1       1.991  -1.578  -0.015  0.00  0.00     0.175 C 
ATOM     10  N   UNL d   1       2.327  -2.554  -1.064  0.00  0.00    -0.281 N 
ATOM     11  N   UNL d   1       2.620  -3.796  -0.575  0.00  0.00    -0.300 N 
ATOM     12  C   UNL d   1       2.380  -3.792   0.703  0.00  0.00     0.047 C 
ATOM     13  HN  UNL d   1       2.966  -4.587  -1.117  1.00  0.00     0.187 HD
ATOM     14  C   UNL d   1       1.859  -2.475   1.253  0.00  0.00     0.102 C 
BRANCH  10  15
ATOM     15  C   UNL d   1       2.619  -2.239  -2.392  0.00  0.00     0.051 A 
ATOM     16  C   UNL d   1       2.703  -0.918  -2.862  0.00  0.00     0.031 A 
ATOM     17  C   UNL d   1       2.936  -0.630  -4.213  0.00  0.00     0.002 A 
ATOM     18  C   UNL d   1       3.101  -1.663  -5.129  0.00  0.00     0.000 A 
ATOM     19  C   UNL d   1       3.041  -2.981  -4.692  0.00  0.00     0.002 A 
ATOM     20  C   UNL d   1       2.805  -3.260  -3.341  0.00  0.00     0.031 A 
ENDBRANCH  10  15
BRANCH  12  21
ATOM     21  C   UNL d   1       2.539  -5.013   1.551  0.00  0.00    -0.011 A 
ATOM     22  C   UNL d   1       2.258  -5.009   2.924  0.00  0.00     0.013 A 
ATOM     23  C   UNL d   1       2.270  -6.201   3.654  0.00  0.00     0.001 A 
ATOM     24  C   UNL d   1       2.597  -7.400   3.028  0.00  0.00     0.000 A 
ATOM     25  C   UNL d   1       2.924  -7.408   1.673  0.00  0.00     0.001 A 
ATOM     26  C   UNL d   1       2.893  -6.221   0.936  0.00  0.00     0.013 A 
ENDBRANCH  12  21
BRANCH  14  27
ATOM     27  C   UNL d   1       0.473  -2.586   1.874  0.00  0.00    -0.046 A 
ATOM     28  C   UNL d   1       0.135  -1.747   2.948  0.00  0.00     0.008 A 
ATOM     29  C   UNL d   1      -1.117  -1.842   3.553  0.00  0.00     0.001 A 
ATOM     30  C   UNL d   1      -2.049  -2.769   3.090  0.00  0.00     0.000 A 
ATOM     31  C   UNL d   1      -1.736  -3.593   2.013  0.00  0.00     0.001 A 
ATOM     32  C   UNL d   1      -0.485  -3.501   1.405  0.00  0.00     0.008 A 
ENDBRANCH  14  27
ENDBRANCH   1   9
BRANCH   5  33
ATOM     33  C   UNL d   1      -0.853   2.375   0.388  0.00  0.00     0.056 A 
ATOM     34  C   UNL d   1       0.115   3.300   0.802  0.00  0.00     0.031 A 
ATOM     35  C   UNL d   1      -0.253   4.619   1.084  0.00  0.00     0.002 A 
ATOM     36  C   UNL d   1      -1.586   5.014   0.977  0.00  0.00     0.000 A 
ATOM     37  C   UNL d   1      -2.557   4.093   0.590  0.00  0.00     0.002 A 
ATOM     38  C   UNL d   1      -2.195   2.778   0.291  0.00  0.00     0.031 A 
ENDBRANCH   5  33
TORSDOF 5
