REMARK  2 active torsions:
REMARK  status: ('A' for Active; 'I' for Inactive)
REMARK    1  A    between atoms: C_9  and  N_1 
REMARK    2  A    between atoms: C_10  and  C_9 
ROOT
ATOM      1  N   UNL d   1       2.447  -0.474  -0.051  0.00  0.00    -0.287 N 
ATOM      2  C   UNL d   1       2.354   0.916   0.012  0.00  0.00     0.181 A 
ATOM      3  C   UNL d   1       1.330  -1.323  -0.016  0.00  0.00     0.262 A 
ATOM      4  C   UNL d   1      -0.000  -0.688   0.024  0.00  0.00     0.059 A 
ATOM      5  N   UNL d   1       1.094   1.450   0.066  0.00  0.00    -0.332 N 
ATOM      6  C   UNL d   1      -0.075   0.697   0.049  0.00  0.00     0.050 A 
ATOM      7  S   UNL d   1       3.618   2.022   0.015  0.00  0.00    -0.040 SA
ATOM      8  O   UNL d   1       1.390  -2.551  -0.041  0.00  0.00    -0.267 OA
ATOM      9  C   UNL d   1      -1.171  -1.455   0.005  0.00  0.00     0.019 A 
ATOM     10  C   UNL d   1      -1.317   1.335   0.045  0.00  0.00     0.030 A 
ATOM     11  C   UNL d   1      -2.414  -0.822  -0.004  0.00  0.00     0.001 A 
ATOM     12  C   UNL d   1      -2.487   0.572   0.012  0.00  0.00     0.002 A 
ATOM     13  H   UNL d   1       1.037   2.463   0.094  0.00  0.00     0.168 HD
ENDROOT
BRANCH   1  14
ATOM     14  C   UNL d   1       3.736  -1.150  -0.228  0.00  0.00     0.161 C 
BRANCH  14  15
ATOM     15  C   UNL d   1       4.418  -1.511   1.067  0.00  0.00    -0.017 C 
ATOM     16  C   UNL d   1       4.028  -1.259   2.324  0.00  0.00     0.008 C 
ENDBRANCH  14  15
ENDBRANCH   1  14
TORSDOF 2
