REMARK  5 active torsions:
REMARK  status: ('A' for Active; 'I' for Inactive)
REMARK    1  A    between atoms: C_5  and  C_1 
REMARK    2  A    between atoms: N_9  and  C_2 
REMARK    3  A    between atoms: C_8  and  C_11 
REMARK       I    between atoms: C_10  and  N_9 
REMARK    4  A    between atoms: S_12  and  C_10 
REMARK    5  A    between atoms: C_11  and  S_12 
ROOT
ATOM      1  C   UNL d   1      -1.572  -0.878  -0.100  0.00  0.00     0.097 C 
ATOM      2  C   UNL d   1      -0.210  -1.251   0.233  0.00  0.00     0.097 C 
ATOM      3  N   UNL d   1      -1.702   0.456  -0.056  0.00  0.00    -0.258 N 
ATOM      4  HN  UNL d   1      -2.503   1.002  -0.373  1.00  0.00     0.195 HD
ATOM      5  C   UNL d   1       0.339  -0.069   0.708  0.00  0.00     0.101 C 
ATOM      6  O   UNL d   1      -0.549   0.940   0.495  0.00  0.00    -0.240 OA
ATOM      7  C   UNL d   1       1.593   0.408   1.320  0.00  0.00     0.081 C 
ENDROOT
BRANCH   2   8
ATOM      8  N   UNL d   1       0.321  -2.531   0.104  0.00  0.00    -0.314 N 
ATOM      9  C   UNL d   1       1.450  -3.068   0.634  0.00  0.00     0.284 C 
ATOM     10  O   UNL d   1       2.248  -2.575   1.414  0.00  0.00    -0.260 OA
ATOM     11  H   UNL d   1      -0.212  -3.174  -0.468  0.00  0.00     0.170 HD
BRANCH   9  12
ATOM     12  S   UNL d   1       1.605  -4.751   0.144  0.00  0.00    -0.064 SA
BRANCH  12  13
ATOM     13  C   UNL d   1       2.562  -4.549  -1.383  0.00  0.00     0.126 C 
BRANCH  13  14
ATOM     14  C   UNL d   1       3.184  -5.788  -2.019  0.00  0.00    -0.005 A 
ATOM     15  C   UNL d   1       2.547  -7.038  -2.163  0.00  0.00     0.042 A 
ATOM     16 CL   UNL d   1       0.910  -7.342  -1.703  0.00  0.00    -0.084 Cl
ATOM     17  C   UNL d   1       3.202  -8.135  -2.765  0.00  0.00     0.024 A 
ATOM     18  C   UNL d   1       4.473  -8.005  -3.307  0.00  0.00     0.003 A 
ATOM     19  C   UNL d   1       5.091  -6.761  -3.260  0.00  0.00     0.024 A 
ATOM     20  C   UNL d   1       4.458  -5.673  -2.643  0.00  0.00     0.042 A 
ATOM     21 CL   UNL d   1       5.297  -4.160  -2.757  0.00  0.00    -0.084 Cl
ENDBRANCH  13  14
ENDBRANCH  12  13
ENDBRANCH   9  12
ENDBRANCH   2   8
BRANCH   1  22
ATOM     22  C   UNL d   1      -2.764  -1.719  -0.340  0.00  0.00     0.038 A 
ATOM     23  C   UNL d   1      -3.971  -1.456   0.358  0.00  0.00     0.048 A 
ATOM     24 CL   UNL d   1      -4.161  -0.189   1.533  0.00  0.00    -0.083 Cl
ATOM     25  C   UNL d   1      -5.110  -2.257   0.181  0.00  0.00     0.025 A 
ATOM     26  C   UNL d   1      -5.067  -3.368  -0.648  0.00  0.00     0.003 A 
ATOM     27  C   UNL d   1      -3.893  -3.656  -1.333  0.00  0.00     0.025 A 
ATOM     28  C   UNL d   1      -2.766  -2.824  -1.214  0.00  0.00     0.048 A 
ATOM     29 CL   UNL d   1      -1.438  -3.237  -2.248  0.00  0.00    -0.083 Cl
ENDBRANCH   1  22
TORSDOF 5
