REMARK  6 active torsions:
REMARK  status: ('A' for Active; 'I' for Inactive)
REMARK    1  A    between atoms: O_5  and  C_1 
REMARK    2  A    between atoms: C_2  and  O_5 
REMARK       I    between atoms: N_8  and  C_2 
REMARK    3  A    between atoms: C_3  and  O_6 
REMARK       I    between atoms: N_7  and  C_3 
REMARK    4  A    between atoms: O_6  and  C_4 
REMARK    5  A    between atoms: C_13  and  N_7 
REMARK    6  A    between atoms: C_14  and  N_8 
ROOT
ATOM      1  C   UNL d   1      -0.954  -2.181   0.735  0.00  0.00     0.153 A 
ATOM      2  C   UNL d   1      -2.290  -2.357   0.376  0.00  0.00     0.118 A 
ATOM      3  C   UNL d   1      -0.314  -0.969   0.479  0.00  0.00     0.153 A 
ATOM      4  F   UNL d   1       1.000  -0.835   0.704  0.00  0.00    -0.203 F 
ATOM      5  C   UNL d   1      -3.020  -1.263  -0.094  0.00  0.00     0.040 A 
ATOM      6  C   UNL d   1      -2.385  -0.032  -0.302  0.00  0.00     0.006 A 
ATOM      7  C   UNL d   1      -1.021   0.104  -0.051  0.00  0.00     0.045 A 
ENDROOT
BRANCH   1   8
ATOM      8  O   UNL d   1      -0.144  -3.240   1.221  0.00  0.00    -0.255 OA
BRANCH   8   9
ATOM      9  C   UNL d   1      -0.324  -4.167   2.276  0.00  0.00     0.370 C 
ATOM     10  N   UNL d   1      -1.431  -3.965   3.074  0.00  0.00    -0.302 N 
ATOM     11  H   UNL d   1      -2.031  -3.196   2.825  0.00  0.00     0.171 HD
ATOM     12  O   UNL d   1       0.511  -5.059   2.403  0.00  0.00    -0.238 OA
BRANCH  10  13
ATOM     13  C   UNL d   1      -1.833  -4.753   4.181  0.00  0.00     0.036 A 
ATOM     14  C   UNL d   1      -1.094  -5.824   4.690  0.00  0.00     0.029 A 
ATOM     15  C   UNL d   1      -1.555  -6.563   5.786  0.00  0.00     0.002 A 
ATOM     16  C   UNL d   1      -2.766  -6.241   6.389  0.00  0.00     0.000 A 
ATOM     17  C   UNL d   1      -3.513  -5.175   5.897  0.00  0.00     0.002 A 
ATOM     18  C   UNL d   1      -3.049  -4.432   4.801  0.00  0.00     0.029 A 
ENDBRANCH  10  13
ENDBRANCH   8   9
ENDBRANCH   1   8
BRANCH   2  19
ATOM     19  O   UNL d   1      -2.758  -3.693   0.357  0.00  0.00    -0.258 OA
BRANCH  19  20
ATOM     20  C   UNL d   1      -4.016  -4.090  -0.080  0.00  0.00     0.370 C 
ATOM     21  N   UNL d   1      -4.133  -5.400  -0.456  0.00  0.00    -0.302 N 
ATOM     22  H   UNL d   1      -5.093  -5.616  -0.693  0.00  0.00     0.171 HD
ATOM     23  O   UNL d   1      -5.002  -3.360  -0.125  0.00  0.00    -0.238 OA
BRANCH  21  24
ATOM     24  C   UNL d   1      -3.202  -6.440  -0.620  0.00  0.00     0.036 A 
ATOM     25  C   UNL d   1      -1.818  -6.317  -0.502  0.00  0.00     0.029 A 
ATOM     26  C   UNL d   1      -0.988  -7.428  -0.701  0.00  0.00     0.002 A 
ATOM     27  C   UNL d   1      -1.531  -8.668  -1.028  0.00  0.00     0.000 A 
ATOM     28  C   UNL d   1      -2.909  -8.800  -1.161  0.00  0.00     0.002 A 
ATOM     29  C   UNL d   1      -3.735  -7.692  -0.960  0.00  0.00     0.029 A 
ENDBRANCH  21  24
ENDBRANCH  19  20
ENDBRANCH   2  19
TORSDOF 6
