REMARK  2 active torsions:
REMARK  status: ('A' for Active; 'I' for Inactive)
REMARK    1  A    between atoms: N_4  and  C_1 
REMARK    2  A    between atoms: N_11  and  C_9 
ROOT
ATOM      1  C   UNL d   1      -0.639   1.228   0.006  0.00  0.00     0.124 A 
ATOM      2  N   UNL d   1      -1.359   0.079   0.007  0.00  0.00    -0.344 N 
ATOM      3  HN  UNL d   1      -2.379   0.101   0.008  1.00  0.00     0.167 HD
ATOM      4  C   UNL d   1       1.438   0.010   0.004  0.00  0.00     0.044 A 
ATOM      5  C   UNL d   1       0.759   1.225   0.005  0.00  0.00     0.056 A 
ATOM      6  C   UNL d   1      -0.687  -1.106   0.006  0.00  0.00     0.024 A 
ATOM      7  C   UNL d   1       0.709  -1.174   0.005  0.00  0.00     0.034 A 
ATOM      8 BR   UNL d   1       1.777   2.826   0.004  0.00  0.00    -0.047 Br
ATOM      9 BR   UNL d   1       1.663  -2.811   0.004  0.00  0.00    -0.049 Br
ATOM     10  C   UNL d   1      -1.539  -2.343   0.006  0.00  0.00     0.069 C 
ENDROOT
BRANCH   1  11
ATOM     11  N   UNL d   1      -1.327   2.448   0.008  0.00  0.00    -0.338 N 
ATOM     12  C   UNL d   1      -2.614   2.490   0.007  0.00  0.00     0.179 C 
ATOM     13  HN  UNL d   1      -0.797   3.320   0.009  1.00  0.00     0.168 HD
BRANCH  12  14
ATOM     14  N   UNL d   1      -3.358   3.650   0.008  0.00  0.00    -0.386 N 
ATOM     15  C   UNL d   1      -4.809   3.647   0.006  0.00  0.00     0.149 C 
ATOM     16  C   UNL d   1      -2.724   4.960   0.008  0.00  0.00     0.149 C 
ENDBRANCH  12  14
ENDBRANCH   1  11
TORSDOF 2
