REMARK  4 active torsions:
REMARK  status: ('A' for Active; 'I' for Inactive)
REMARK    1  A    between atoms: C_12  and  N_3 
REMARK    2  A    between atoms: C_16  and  C_9 
REMARK    3  A    between atoms: C_11  and  C_12 
REMARK    4  A    between atoms: C_13  and  C_11 
ROOT
ATOM      1  C   UNL d   1      -0.269   0.687  -0.073  0.00  0.00     0.067 A 
ATOM      2  C   UNL d   1      -0.164  -0.637   0.282  0.00  0.00     0.091 A 
ATOM      3  N   UNL d   1       2.099   0.753   0.183  0.00  0.00    -0.302 N 
ATOM      4  C   UNL d   1       0.952   1.468  -0.162  0.00  0.00     0.262 A 
ATOM      5  N   UNL d   1       0.973  -1.309   0.588  0.00  0.00    -0.346 N 
ATOM      6  HN  UNL d   1       0.984  -2.297   0.841  1.00  0.00     0.167 HD
ATOM      7  C   UNL d   1      -1.629   1.092  -0.253  0.00  0.00     0.039 A 
ATOM      8  S   UNL d   1      -1.680  -1.400   0.325  0.00  0.00    -0.071 SA
ATOM      9  C   UNL d   1      -2.528   0.065   0.001  0.00  0.00     0.018 A 
ATOM     10  C   UNL d   1       2.043  -0.585   0.530  0.00  0.00     0.187 A 
ATOM     11  O   UNL d   1       0.955   2.657  -0.467  0.00  0.00    -0.267 OA
ENDROOT
BRANCH   3  12
ATOM     12  C   UNL d   1       3.377   1.449   0.223  0.00  0.00     0.217 C 
BRANCH  12  13
ATOM     13  C   UNL d   1       4.139   1.411  -1.111  0.00  0.00     0.184 C 
ATOM     14  O   UNL d   1       3.600   0.981  -2.135  0.00  0.00    -0.290 OA
BRANCH  13  15
ATOM     15  C   UNL d   1       5.524   1.892  -1.113  0.00  0.00     0.052 A 
ATOM     16  S   UNL d   1       6.344   2.328   0.330  0.00  0.00    -0.098 SA
ATOM     17  C   UNL d   1       7.796   2.666  -0.498  0.00  0.00     0.050 A 
ATOM     18  C   UNL d   1       7.665   2.488  -1.856  0.00  0.00     0.009 A 
ATOM     19  C   UNL d   1       6.356   2.045  -2.211  0.00  0.00     0.023 A 
ENDBRANCH  13  15
ENDBRANCH  12  13
ENDBRANCH   3  12
BRANCH   9  20
ATOM     20  C   UNL d   1      -4.005   0.090   0.019  0.00  0.00    -0.019 A 
ATOM     21  C   UNL d   1      -4.718   1.014  -0.762  0.00  0.00     0.013 A 
ATOM     22  C   UNL d   1      -6.116   1.064  -0.723  0.00  0.00     0.001 A 
ATOM     23  C   UNL d   1      -6.827   0.190   0.095  0.00  0.00     0.000 A 
ATOM     24  C   UNL d   1      -6.143  -0.734   0.875  0.00  0.00     0.001 A 
ATOM     25  C   UNL d   1      -4.746  -0.780   0.839  0.00  0.00     0.013 A 
ENDBRANCH   9  20
TORSDOF 4
