REMARK  7 active torsions:
REMARK  status: ('A' for Active; 'I' for Inactive)
REMARK    1  A    between atoms: S_9  and  C_4 
REMARK    2  A    between atoms: S_12  and  C_4 
REMARK    3  A    between atoms: C_7  and  C_6 
REMARK    4  A    between atoms: C_11  and  C_7 
REMARK    5  A    between atoms: C_8  and  S_9 
REMARK    6  A    between atoms: C_15  and  S_12 
REMARK    7  A    between atoms: C_13  and  C_15 
ROOT
ATOM      1  N   UNL d   1       1.068   0.021   0.026  0.00  0.00    -0.282 N 
ATOM      2  HN  UNL d   1       0.606   0.812  -0.422  1.00  0.00     0.179 HD
ATOM      3  C   UNL d   1       0.340  -0.928   0.624  0.00  0.00     0.183 C 
ATOM      4  C   UNL d   1       2.358  -0.066   0.017  0.00  0.00     0.121 C 
ATOM      5  N   UNL d   1      -0.306  -1.743   1.137  0.00  0.00    -0.172 NA
ENDROOT
BRANCH   4   6
ATOM      6  S   UNL d   1       3.294   1.169  -0.838  0.00  0.00    -0.076 SA
BRANCH   6   7
ATOM      7  C   UNL d   1       2.142   2.253  -1.566  0.00  0.00     0.056 C 
ATOM      8  C   UNL d   1       2.572   3.290  -2.304  0.00  0.00     0.063 C 
BRANCH   8   9
ATOM      9  C   UNL d   1       1.614   4.249  -2.930  0.00  0.00     0.182 C 
ATOM     10  O   UNL d   1       0.457   4.348  -2.537  0.00  0.00    -0.288 OA
BRANCH   9  11
ATOM     11  C   UNL d   1       2.122   5.126  -4.029  0.00  0.00     0.014 A 
ATOM     12  C   UNL d   1       3.151   4.717  -4.888  0.00  0.00     0.015 A 
ATOM     13  C   UNL d   1       3.585   5.556  -5.919  0.00  0.00     0.001 A 
ATOM     14  C   UNL d   1       2.992   6.803  -6.105  0.00  0.00     0.000 A 
ATOM     15  C   UNL d   1       1.958   7.213  -5.265  0.00  0.00     0.001 A 
ATOM     16  C   UNL d   1       1.519   6.375  -4.233  0.00  0.00     0.015 A 
ENDBRANCH   9  11
ENDBRANCH   8   9
ENDBRANCH   6   7
ENDBRANCH   4   6
BRANCH   4  17
ATOM     17  S   UNL d   1       3.271  -1.401   0.729  0.00  0.00    -0.101 SA
BRANCH  17  18
ATOM     18  C   UNL d   1       4.793  -0.645   1.355  0.00  0.00     0.107 C 
BRANCH  18  19
ATOM     19  C   UNL d   1       5.584  -1.691   2.095  0.00  0.00    -0.026 C 
ATOM     20  C   UNL d   1       6.799  -2.123   1.735  0.00  0.00     0.007 C 
ENDBRANCH  18  19
ENDBRANCH  17  18
ENDBRANCH   4  17
TORSDOF 7
