REMARK  4 active torsions:
REMARK  status: ('A' for Active; 'I' for Inactive)
REMARK    1  A    between atoms: C_5  and  C_1 
REMARK    2  A    between atoms: N_3  and  C_2 
REMARK       I    between atoms: N_11  and  C_5 
REMARK    3  A    between atoms: C_10  and  C_17 
REMARK    4  A    between atoms: C_19  and  N_11 
ROOT
ATOM      1  C   UNL d   1      -1.154  -5.148  -0.314  0.00  0.00    -0.001 A 
ATOM      2  C   UNL d   1       1.283  -3.701  -0.077  0.00  0.00     0.035 A 
ATOM      3  C   UNL d   1      -0.197  -5.498   0.643  0.00  0.00     0.016 A 
ATOM      4  C   UNL d   1      -0.861  -4.077  -1.171  0.00  0.00     0.016 A 
ATOM      5  C   UNL d   1       1.004  -4.786   0.757  0.00  0.00     0.030 A 
ATOM      6  C   UNL d   1       0.341  -3.358  -1.052  0.00  0.00     0.030 A 
ENDROOT
BRANCH   2   7
ATOM      7  N   UNL d   1       2.447  -2.904   0.052  0.00  0.00    -0.323 N 
ATOM      8  C   UNL d   1       3.550  -3.208   0.834  0.00  0.00     0.256 C 
ATOM      9  O   UNL d   1       3.745  -4.295   1.372  0.00  0.00    -0.267 OA
ATOM     10  H   UNL d   1       2.476  -2.063  -0.506  0.00  0.00     0.169 HD
BRANCH   8  11
ATOM     11  C   UNL d   1       4.562  -2.153   0.997  0.00  0.00     0.041 A 
ATOM     12  C   UNL d   1       5.822  -2.389   1.670  0.00  0.00     0.061 A 
ATOM     13  C   UNL d   1       6.614  -1.267   1.734  0.00  0.00     0.144 A 
ATOM     14  S   UNL d   1       5.884   0.079   1.005  0.00  0.00    -0.077 SA
ATOM     15  C   UNL d   1       4.473  -0.825   0.616  0.00  0.00     0.069 A 
BRANCH  13  16
ATOM     16  N   UNL d   1       7.915  -1.169   2.348  0.00  0.00    -0.108 N 
ATOM     17  O   UNL d   1       8.328  -2.185   2.925  0.00  0.00    -0.531 OA
ATOM     18  O   UNL d   1       8.526  -0.097   2.258  0.00  0.00    -0.531 OA
ENDBRANCH  13  16
ENDBRANCH   8  11
ENDBRANCH   2   7
BRANCH   1  19
ATOM     19  C   UNL d   1      -2.412  -5.878  -0.391  0.00  0.00     0.102 A 
ATOM     20  O   UNL d   1      -3.316  -5.483  -1.345  0.00  0.00    -0.304 OA
ATOM     21  C   UNL d   1      -4.369  -6.329  -1.177  0.00  0.00     0.233 A 
ATOM     22  N   UNL d   1      -4.231  -7.211  -0.214  0.00  0.00    -0.354 N 
ATOM     23  C   UNL d   1      -2.986  -6.931   0.292  0.00  0.00     0.127 A 
ATOM     24  HN  UNL d   1      -4.889  -7.931   0.084  1.00  0.00     0.166 HD
ENDBRANCH   1  19
TORSDOF 4
