REMARK  2 active torsions:
REMARK  status: ('A' for Active; 'I' for Inactive)
REMARK    1  A    between atoms: N_9  and  C_3 
REMARK    2  A    between atoms: C_10  and  C_5 
ROOT
ATOM      1  N   UNL d   1      -1.772   1.326   0.026  0.00  0.00    -0.330 N 
ATOM      2  HN  UNL d   1      -2.368   2.153   0.055  1.00  0.00     0.168 HD
ATOM      3  C   UNL d   1      -0.425   1.438   0.029  0.00  0.00     0.108 A 
ATOM      4  C   UNL d   1       0.402   0.307   0.000  0.00  0.00     0.094 A 
ATOM      5  C   UNL d   1      -2.307   0.083  -0.017  0.00  0.00     0.134 A 
ATOM      6  N   UNL d   1      -1.574  -1.047  -0.064  0.00  0.00    -0.343 N 
ATOM      7  HN  UNL d   1      -2.020  -1.963  -0.111  1.00  0.00     0.167 HD
ATOM      8  C   UNL d   1      -0.229  -0.927  -0.046  0.00  0.00     0.032 A 
ATOM      9 CL   UNL d   1       2.128   0.414   0.112  0.00  0.00    -0.079 Cl
ATOM     10  C   UNL d   1       0.540  -2.216  -0.053  0.00  0.00     0.070 C 
ENDROOT
BRANCH   5  11
ATOM     11  C   UNL d   1      -3.789  -0.044   0.005  0.00  0.00     0.076 A 
ATOM     12  N   UNL d   1      -4.312  -1.306   0.042  0.00  0.00    -0.363 N 
ATOM     13  C   UNL d   1      -5.654  -1.446   0.073  0.00  0.00     0.088 A 
ATOM     14  HN  UNL d   1      -3.702  -2.123   0.047  1.00  0.00     0.165 HD
ATOM     15  C   UNL d   1      -6.536  -0.383   0.068  0.00  0.00     0.017 A 
ATOM     16  C   UNL d   1      -6.013   0.902   0.030  0.00  0.00     0.004 A 
ATOM     17  C   UNL d   1      -4.629   1.074  -0.001  0.00  0.00     0.033 A 
ENDBRANCH   5  11
BRANCH   3  18
ATOM     18  N   UNL d   1       0.133   2.724   0.134  0.00  0.00    -0.268 NA
ATOM     19  C   UNL d   1      -0.704   3.732   0.789  0.00  0.00     0.097 C 
ATOM     20  C   UNL d   1       0.211   4.873   1.244  0.00  0.00     0.015 C 
ATOM     21  C   UNL d   1       1.049   5.431   0.090  0.00  0.00     0.002 C 
ATOM     22  C   UNL d   1       1.747   4.321  -0.700  0.00  0.00     0.015 C 
ATOM     23  C   UNL d   1       0.763   3.219  -1.097  0.00  0.00     0.097 C 
ENDBRANCH   3  18
TORSDOF 2
