REMARK  5 active torsions:
REMARK  status: ('A' for Active; 'I' for Inactive)
REMARK    1  A    between atoms: N_8  and  S_1 
REMARK    2  A    between atoms: C_13  and  S_1 
REMARK    3  A    between atoms: C_11  and  N_8 
REMARK    4  A    between atoms: C_22  and  C_21 
REMARK    5  A    between atoms: C_23  and  C_22 
ROOT
ATOM      1  N   UNL d   1       2.740  -0.523  -0.395  0.00  0.00    -0.281 N 
ATOM      2  H   UNL d   1       3.415  -0.188   0.293  0.00  0.00     0.179 HD
ENDROOT
BRANCH   1   3
ATOM      3  S   UNL d   1       1.173  -0.039   0.043  0.00  0.00     0.263 S 
ATOM      4  O   UNL d   1       1.350   1.078   0.948  0.00  0.00    -0.200 OA
ATOM      5  O   UNL d   1       0.398  -1.198   0.428  0.00  0.00    -0.200 OA
BRANCH   3   6
ATOM      6  C   UNL d   1       0.537   0.597  -1.484  0.00  0.00     0.079 A 
ATOM      7  C   UNL d   1      -0.168  -0.249  -2.345  0.00  0.00     0.026 A 
ATOM      8  C   UNL d   1      -0.616   0.240  -3.573  0.00  0.00     0.009 A 
ATOM      9  C   UNL d   1      -0.384   1.575  -3.935  0.00  0.00    -0.058 A 
ATOM     10  C   UNL d   1       0.265   2.427  -3.029  0.00  0.00     0.009 A 
ATOM     11  C   UNL d   1       0.730   1.941  -1.807  0.00  0.00     0.026 A 
BRANCH   9  12
ATOM     12  C   UNL d   1      -0.820   2.081  -5.290  0.00  0.00     0.038 C 
BRANCH  12  13
ATOM     13  C   UNL d   1       0.332   2.604  -6.158  0.00  0.00     0.000 C 
ATOM     14  C   UNL d   1       1.369   1.539  -6.491  0.00  0.00     0.005 C 
ENDBRANCH  12  13
ENDBRANCH   9  12
ENDBRANCH   3   6
ENDBRANCH   1   3
BRANCH   1  15
ATOM     15  C   UNL d   1       2.909  -1.847  -0.896  0.00  0.00     0.044 A 
ATOM     16  C   UNL d   1       2.777  -2.061  -2.278  0.00  0.00     0.062 A 
ATOM     17  C   UNL d   1       2.885  -3.406  -2.707  0.00  0.00     0.069 A 
ATOM     18  N   UNL d   1       2.783  -3.838  -3.973  0.00  0.00    -0.310 N 
ATOM     19  C   UNL d   1       3.133  -4.518  -1.718  0.00  0.00     0.067 A 
ATOM     20  S   UNL d   1       2.975  -5.489  -3.921  0.00  0.00     0.068 SA
ATOM     21  HN  UNL d   1       2.619  -3.268  -4.802  1.00  0.00     0.176 HD
ATOM     22  N   UNL d   1       3.206  -5.727  -2.292  0.00  0.00    -0.310 N 
ATOM     23  HN  UNL d   1       3.371  -6.617  -1.822  1.00  0.00     0.176 HD
ATOM     24  C   UNL d   1       3.263  -4.242  -0.338  0.00  0.00     0.035 A 
ATOM     25  C   UNL d   1       3.139  -2.891   0.035  0.00  0.00     0.032 A 
ENDBRANCH   1  15
TORSDOF 5
