REMARK  5 active torsions:
REMARK  status: ('A' for Active; 'I' for Inactive)
REMARK    1  A    between atoms: C_9  and  N_3 
REMARK    2  A    between atoms: C_11  and  C_6 
REMARK    3  A    between atoms: C_8  and  C_12 
REMARK    4  A    between atoms: C_10  and  C_9 
REMARK       I    between atoms: N_14  and  C_10 
REMARK    5  A    between atoms: N_22  and  N_14 
ROOT
ATOM      1  N   UNL d   1      -0.433  -1.200   0.091  0.00  0.00    -0.268 N 
ATOM      2  HN  UNL d   1      -0.696  -2.177   0.223  1.00  0.00     0.190 HD
ATOM      3  N   UNL d   1       0.790  -0.638  -0.010  0.00  0.00    -0.207 N 
ATOM      4  N   UNL d   1      -0.468   1.038  -0.243  0.00  0.00    -0.266 N 
ATOM      5  HN  UNL d   1      -0.833   1.980  -0.382  1.00  0.00     0.186 HD
ATOM      6  C   UNL d   1      -1.209  -0.104  -0.032  0.00  0.00     0.144 A 
ATOM      7  N   UNL d   1       0.807   0.682  -0.230  0.00  0.00    -0.002 NA
ENDROOT
BRANCH   6   8
ATOM      8  C   UNL d   1      -2.665  -0.097   0.034  0.00  0.00     0.010 A 
ATOM      9  C   UNL d   1      -3.378   1.089  -0.204  0.00  0.00     0.016 A 
ATOM     10  C   UNL d   1      -4.775   1.109  -0.146  0.00  0.00     0.017 A 
ATOM     11  C   UNL d   1      -5.493  -0.057   0.153  0.00  0.00     0.048 A 
ATOM     12  C   UNL d   1      -4.783  -1.242   0.396  0.00  0.00     0.017 A 
ATOM     13  C   UNL d   1      -3.385  -1.261   0.337  0.00  0.00     0.016 A 
BRANCH  11  14
ATOM     14  C   UNL d   1      -7.003  -0.053   0.211  0.00  0.00     0.417 C 
ATOM     15  F   UNL d   1      -7.555   1.167  -0.040  0.00  0.00    -0.166 F 
ATOM     16  F   UNL d   1      -7.559  -0.907  -0.694  0.00  0.00    -0.166 F 
ATOM     17  F   UNL d   1      -7.478  -0.436   1.427  0.00  0.00    -0.166 F 
ENDBRANCH  11  14
ENDBRANCH   6   8
BRANCH   3  18
ATOM     18  C   UNL d   1       1.999  -1.418   0.081  0.00  0.00     0.271 C 
BRANCH  18  19
ATOM     19  C   UNL d   1       2.411  -1.984  -1.252  0.00  0.00     0.252 C 
ATOM     20  O   UNL d   1       3.598  -2.077  -1.575  0.00  0.00    -0.270 OA
ATOM     21  N   UNL d   1       1.390  -2.482  -2.054  0.00  0.00    -0.292 N 
ATOM     22  H   UNL d   1       0.425  -2.529  -1.717  0.00  0.00     0.183 HD
BRANCH  21  23
ATOM     23  N   UNL d   1       1.715  -3.104  -3.279  0.00  0.00    -0.247 NA
ATOM     24  H   UNL d   1       2.729  -3.284  -3.269  0.00  0.00     0.143 HD
ATOM     25  H   UNL d   1       1.598  -2.413  -4.026  0.00  0.00     0.143 HD
ENDBRANCH  21  23
ENDBRANCH  18  19
ENDBRANCH   3  18
TORSDOF 5
