REMARK  6 active torsions:
REMARK  status: ('A' for Active; 'I' for Inactive)
REMARK    1  A    between atoms: N_4  and  C_1 
REMARK    2  A    between atoms: N_11  and  C_1 
REMARK    3  A    between atoms: C_9  and  N_4 
REMARK    4  A    between atoms: C_15  and  N_11 
REMARK    5  A    between atoms: O_14  and  C_16 
REMARK    6  A    between atoms: C_16  and  C_15 
ROOT
ATOM      1  N   UNL d   1       0.708  -0.722  -0.942  0.00  0.00    -0.333 N 
ATOM      2  H   UNL d   1       0.538   0.204  -1.339  0.00  0.00     0.168 HD
ENDROOT
BRANCH   1   3
ATOM      3  C   UNL d   1       0.251  -0.851   0.344  0.00  0.00     0.172 C 
ATOM      4  S   UNL d   1      -0.426  -2.198   1.065  0.00  0.00    -0.041 SA
BRANCH   3   5
ATOM      5  N   UNL d   1       0.328   0.286   1.104  0.00  0.00    -0.365 N 
ATOM      6  H   UNL d   1      -0.012   0.161   2.051  0.00  0.00     0.161 HD
BRANCH   5   7
ATOM      7  C   UNL d   1       1.169   1.449   0.839  0.00  0.00     0.148 C 
BRANCH   7   8
ATOM      8  C   UNL d   1       0.509   2.478  -0.080  0.00  0.00     0.183 C 
BRANCH   8   9
ATOM      9  O   UNL d   1       0.418   1.983  -1.417  0.00  0.00    -0.399 OA
ATOM     10  H   UNL d   1       0.043   2.706  -1.953  0.00  0.00     0.209 HD
ENDBRANCH   8   9
ENDBRANCH   7   8
ENDBRANCH   5   7
ENDBRANCH   3   5
ENDBRANCH   1   3
BRANCH   1  11
ATOM     11  C   UNL d   1       1.138  -1.713  -1.845  0.00  0.00     0.037 A 
ATOM     12  C   UNL d   1       0.993  -1.453  -3.216  0.00  0.00     0.069 A 
ATOM     13  C   UNL d   1       1.451  -2.403  -4.106  0.00  0.00     0.107 A 
ATOM     14  O   UNL d   1       1.364  -2.329  -5.462  0.00  0.00    -0.323 OA
ATOM     15  C   UNL d   1       2.067  -3.556  -3.685  0.00  0.00     0.105 A 
ATOM     16  C   UNL d   1       1.982  -3.577  -5.841  0.00  0.00     0.352 A 
ATOM     17  O   UNL d   1       2.456  -4.348  -4.719  0.00  0.00    -0.323 OA
ATOM     18  C   UNL d   1       2.257  -3.827  -2.349  0.00  0.00     0.042 A 
ATOM     19  C   UNL d   1       1.780  -2.892  -1.422  0.00  0.00     0.032 A 
ENDBRANCH   1  11
TORSDOF 6
