REMARK  2 active torsions:
REMARK  status: ('A' for Active; 'I' for Inactive)
REMARK    1  A    between atoms: N_2  and  S_1 
REMARK    2  A    between atoms: N_3  and  S_1 
ROOT
ATOM      1  S   UNL d   1       0.904  -0.027   0.014  0.00  0.00     0.281 S 
ATOM      2  O   UNL d   1       0.258   0.880  -0.910  0.00  0.00    -0.194 OA
ATOM      3  O   UNL d   1       2.339  -0.021   0.185  0.00  0.00    -0.194 OA
ENDROOT
BRANCH   1   4
ATOM      4  N   UNL d   1       0.407  -1.601  -0.386  0.00  0.00    -0.206 NA
ATOM      5  C   UNL d   1      -1.059  -1.806  -0.367  0.00  0.00     0.130 C 
ATOM      6  C   UNL d   1       1.002  -2.075  -1.657  0.00  0.00     0.130 C 
ENDBRANCH   1   4
BRANCH   1   7
ATOM      7  N   UNL d   1       0.183   0.152   1.534  0.00  0.00    -0.206 NA
ATOM      8  C   UNL d   1       0.757  -0.690   2.602  0.00  0.00     0.130 C 
ATOM      9  C   UNL d   1       0.038   1.560   1.959  0.00  0.00     0.130 C 
ENDBRANCH   1   7
TORSDOF 2
