REMARK  2 active torsions:
REMARK  status: ('A' for Active; 'I' for Inactive)
REMARK    1  A    between atoms: N_4  and  C_1 
REMARK    2  A    between atoms: C_2  and  C_3 
REMARK       I    between atoms: C_3  and  N_4 
ROOT
ATOM      1  C   UNL d   1      -5.205  -1.001   0.208  0.00  0.00     0.262 C 
ATOM      2  N   UNL d   1      -4.385   0.050  -0.128  0.00  0.00    -0.303 N 
ATOM      3  O   UNL d   1      -6.402  -0.917   0.452  0.00  0.00    -0.267 OA
ATOM      4  H   UNL d   1      -3.396  -0.087  -0.254  0.00  0.00     0.171 HD
ENDROOT
BRANCH   2   5
ATOM      5  C   UNL d   1      -4.777   1.347  -0.357  0.00  0.00     0.152 A 
ATOM      6  N   UNL d   1      -3.917   2.251  -0.761  0.00  0.00    -0.335 N 
ATOM      7  C   UNL d   1      -4.579   3.442  -1.022  0.00  0.00     0.051 A 
ATOM      8  HN  UNL d   1      -2.913   2.101  -0.866  1.00  0.00     0.168 HD
ATOM      9  C   UNL d   1      -4.003   4.622  -1.536  0.00  0.00     0.032 A 
ATOM     10  C   UNL d   1      -5.950   3.430  -0.760  0.00  0.00     0.036 A 
ATOM     11  C   UNL d   1      -4.812   5.737  -1.791  0.00  0.00     0.026 A 
ATOM     12  C   UNL d   1      -6.176   5.690  -1.521  0.00  0.00     0.035 A 
ATOM     13  C   UNL d   1      -6.771   4.546  -0.990  0.00  0.00     0.045 A 
ATOM     14 CL   UNL d   1      -7.157   7.064  -1.863  0.00  0.00    -0.084 Cl
ATOM     15  S   UNL d   1      -6.382   1.880  -0.164  0.00  0.00    -0.052 SA
ENDBRANCH   2   5
BRANCH   1  16
ATOM     16  C   UNL d   1      -4.554  -2.304   0.291  0.00  0.00     0.087 A 
ATOM     17  C   UNL d   1      -3.365  -2.761  -0.247  0.00  0.00     0.090 A 
ATOM     18  O   UNL d   1      -3.188  -4.066   0.097  0.00  0.00    -0.242 OA
ATOM     19  C   UNL d   1      -2.298  -2.204  -1.102  0.00  0.00     0.080 C 
ATOM     20  N   UNL d   1      -4.259  -4.507   0.839  0.00  0.00    -0.265 N 
ATOM     21  C   UNL d   1      -5.085  -3.461   0.939  0.00  0.00     0.047 A 
ATOM     22  HN  UNL d   1      -4.395  -5.439   1.231  1.00  0.00     0.194 HD
ATOM     23  C   UNL d   1      -6.372  -3.599   1.668  0.00  0.00     0.071 C 
ENDBRANCH   1  16
TORSDOF 2
