REMARK  8 active torsions:
REMARK  status: ('A' for Active; 'I' for Inactive)
REMARK    1  A    between atoms: C_10  and  N_1 
REMARK    2  A    between atoms: N_4  and  C_2 
REMARK    3  A    between atoms: S_23  and  C_3 
REMARK    4  A    between atoms: C_20  and  C_5 
REMARK    5  A    between atoms: O_25  and  C_12 
REMARK    6  A    between atoms: C_14  and  S_17 
REMARK    7  A    between atoms: O_27  and  C_16 
REMARK    8  A    between atoms: S_17  and  C_20 
ROOT
ATOM      1  N   UNL d   1      -0.404   0.724  -0.245  0.00  0.00    -0.278 N 
ATOM      2  C   UNL d   1       0.842   0.193   0.061  0.00  0.00     0.164 C 
ATOM      3  C   UNL d   1      -1.269  -0.367  -0.041  0.00  0.00     0.114 C 
ATOM      4  N   UNL d   1       0.774  -1.112   0.162  0.00  0.00    -0.278 N 
ATOM      5  HN  UNL d   1       1.562  -1.750   0.270  1.00  0.00     0.189 HD
ATOM      6  N   UNL d   1      -0.540  -1.462   0.096  0.00  0.00    -0.286 N 
ATOM      7  HN  UNL d   1      -0.904  -2.414   0.145  1.00  0.00     0.188 HD
ENDROOT
BRANCH   3   8
ATOM      8  C   UNL d   1      -2.770  -0.315   0.019  0.00  0.00     0.158 C 
BRANCH   8   9
ATOM      9  S   UNL d   1      -3.540  -1.967   0.181  0.00  0.00    -0.119 SA
BRANCH   9  10
ATOM     10  C   UNL d   1      -5.318  -1.692   0.310  0.00  0.00     0.037 A 
ATOM     11  C   UNL d   1      -6.073  -2.862   0.059  0.00  0.00     0.060 A 
ATOM     12  C   UNL d   1      -7.468  -2.899   0.140  0.00  0.00     0.102 A 
ATOM     13  C   UNL d   1      -8.115  -1.730   0.523  0.00  0.00     0.138 A 
ATOM     14  C   UNL d   1      -7.403  -0.545   0.778  0.00  0.00     0.077 A 
ATOM     15  C   UNL d   1      -6.003  -0.517   0.683  0.00  0.00     0.087 A 
BRANCH  12  16
ATOM     16  O   UNL d   1      -8.004  -4.130  -0.113  0.00  0.00    -0.353 OA
ATOM     17  C   UNL d   1      -9.214  -4.187  -0.861  0.00  0.00     0.210 C 
ENDBRANCH  12  16
BRANCH  13  18
ATOM     18  N   UNL d   1      -9.544  -1.682   0.753  0.00  0.00    -0.113 N 
ATOM     19  O   UNL d   1     -10.192  -0.880   0.070  0.00  0.00    -0.532 OA
ATOM     20  O   UNL d   1     -10.006  -2.416   1.637  0.00  0.00    -0.532 OA
ENDBRANCH  13  18
BRANCH  15  21
ATOM     21  O   UNL d   1      -5.268   0.604   0.960  0.00  0.00    -0.355 OA
ATOM     22  C   UNL d   1      -5.947   1.749   1.468  0.00  0.00     0.210 C 
ENDBRANCH  15  21
ENDBRANCH   9  10
ENDBRANCH   8   9
ENDBRANCH   3   8
BRANCH   1  23
ATOM     23  C   UNL d   1      -0.737   2.063  -0.637  0.00  0.00     0.049 A 
ATOM     24  C   UNL d   1       0.025   2.806  -1.570  0.00  0.00    -0.034 A 
ATOM     25  C   UNL d   1      -0.371   4.131  -1.866  0.00  0.00     0.015 A 
ATOM     26  C   UNL d   1       1.214   2.312  -2.355  0.00  0.00     0.050 C 
ATOM     27  C   UNL d   1      -1.525   4.702  -1.323  0.00  0.00    -0.061 A 
ATOM     28  C   UNL d   1      -2.279   3.953  -0.427  0.00  0.00     0.009 A 
ATOM     29  C   UNL d   1      -1.924   6.100  -1.693  0.00  0.00     0.048 C 
ATOM     30  C   UNL d   1      -1.880   2.660  -0.075  0.00  0.00     0.031 A 
ENDBRANCH   1  23
BRANCH   2  31
ATOM     31  S   UNL d   1       2.260   1.083   0.526  0.00  0.00    -0.105 SA
ATOM     32  H   UNL d   1       1.784   2.330   0.426  0.00  0.00     0.110 HD
ENDBRANCH   2  31
TORSDOF 8
