REMARK  4 active torsions:
REMARK  status: ('A' for Active; 'I' for Inactive)
REMARK    1  A    between atoms: C_4  and  C_3 
REMARK    2  A    between atoms: C_14  and  C_5 
REMARK    3  A    between atoms: S_13  and  C_14 
REMARK    4  A    between atoms: C_15  and  S_13 
ROOT
ATOM      1  N   UNL d   1       0.352   0.309   1.176  0.00  0.00    -0.322 N 
ATOM      2  HN  UNL d   1       0.451   0.593   2.151  1.00  0.00     0.169 HD
ATOM      3  C   UNL d   1       0.183  -0.902   0.683  0.00  0.00     0.182 A 
ATOM      4  C   UNL d   1       0.363   1.092   0.047  0.00  0.00     0.113 A 
ATOM      5  N   UNL d   1       0.115   0.435  -1.094  0.00  0.00    -0.246 N 
ATOM      6  HN  UNL d   1       0.025   0.813  -2.037  1.00  0.00     0.196 HD
ATOM      7  O   UNL d   1       0.010  -0.892  -0.678  0.00  0.00    -0.217 OA
ENDROOT
BRANCH   4   8
ATOM      8  C   UNL d   1       0.696   2.542   0.079  0.00  0.00     0.158 C 
BRANCH   8   9
ATOM      9  S   UNL d   1       2.514   2.753  -0.025  0.00  0.00    -0.122 SA
BRANCH   9  10
ATOM     10  C   UNL d   1       2.756   4.520  -0.041  0.00  0.00     0.001 A 
ATOM     11  C   UNL d   1       1.745   5.478   0.077  0.00  0.00     0.020 A 
ATOM     12  C   UNL d   1       2.055   6.844   0.058  0.00  0.00     0.025 A 
ATOM     13  C   UNL d   1       3.377   7.260  -0.078  0.00  0.00     0.034 A 
ATOM     14  C   UNL d   1       4.394   6.322  -0.195  0.00  0.00     0.025 A 
ATOM     15 CL   UNL d   1       3.751   8.938  -0.099  0.00  0.00    -0.084 Cl
ATOM     16  C   UNL d   1       4.085   4.959  -0.177  0.00  0.00     0.020 A 
ENDBRANCH   9  10
ENDBRANCH   8   9
ENDBRANCH   4   8
BRANCH   3  17
ATOM     17  C   UNL d   1       0.216  -2.146   1.507  0.00  0.00     0.024 A 
ATOM     18  C   UNL d   1       0.147  -3.407   0.955  0.00  0.00     0.065 A 
ATOM     19  S   UNL d   1       0.250  -4.633   2.146  0.00  0.00    -0.113 SA
ATOM     20  C   UNL d   1       0.376  -3.479   3.404  0.00  0.00     0.050 A 
ATOM     21  C   UNL d   1       0.349  -2.186   2.926  0.00  0.00     0.023 A 
ENDBRANCH   3  17
TORSDOF 4
