REMARK  2 active torsions:
REMARK  status: ('A' for Active; 'I' for Inactive)
REMARK    1  A    between atoms: C_2  and  N_1 
REMARK    2  A    between atoms: C_6  and  C_3 
ROOT
ATOM      1  C   UNL d   1      -0.827  -3.883   0.756  0.00  0.00     0.045 A 
ATOM      2  C   UNL d   1      -1.494  -5.011   1.244  0.00  0.00     0.048 A 
ATOM      3  C   UNL d   1       0.239  -3.317   1.475  0.00  0.00    -0.013 A 
ATOM      4  C   UNL d   1       0.632  -3.907   2.686  0.00  0.00     0.015 A 
ATOM      5  C   UNL d   1      -1.092  -5.580   2.449  0.00  0.00     0.035 A 
ATOM      6 CL   UNL d   1      -1.355  -3.220  -0.751  0.00  0.00    -0.083 Cl
ATOM      7  C   UNL d   1      -0.030  -5.037   3.170  0.00  0.00     0.024 A 
ATOM      8 CL   UNL d   1      -1.909  -6.967   3.055  0.00  0.00    -0.084 Cl
ENDROOT
BRANCH   3   9
ATOM      9  C   UNL d   1       0.971  -2.128   1.025  0.00  0.00     0.036 C 
ATOM     10  C   UNL d   1       2.075  -2.245   0.277  0.00  0.00     0.168 C 
BRANCH  10  11
ATOM     11  N   UNL d   1       2.812  -1.062  -0.102  0.00  0.00    -0.127 N 
ATOM     12  O   UNL d   1       3.808  -1.256  -0.809  0.00  0.00    -0.532 OA
ATOM     13  O   UNL d   1       2.428   0.040   0.308  0.00  0.00    -0.532 OA
ENDBRANCH  10  11
ENDBRANCH   3   9
TORSDOF 2
