REMARK  3 active torsions:
REMARK  status: ('A' for Active; 'I' for Inactive)
REMARK    1  A    between atoms: N_2  and  C_1 
REMARK    2  A    between atoms: N_6  and  C_3 
REMARK    3  A    between atoms: C_4  and  C_7 
ROOT
ATOM      1  C   UNL d   1       1.431  -0.152  -0.015  0.00  0.00     0.130 A 
ATOM      2  C   UNL d   1       0.656  -1.330  -0.051  0.00  0.00     0.063 A 
ATOM      3  C   UNL d   1       0.865   1.134   0.075  0.00  0.00     0.054 A 
ATOM      4  C   UNL d   1      -0.521   1.292   0.123  0.00  0.00     0.050 A 
ATOM      5  C   UNL d   1      -0.738  -1.130  -0.041  0.00  0.00     0.032 A 
ATOM      6  C   UNL d   1      -1.319   0.146   0.041  0.00  0.00     0.018 A 
ENDROOT
BRANCH   2   7
ATOM      7  N   UNL d   1       1.184  -2.611  -0.029  0.00  0.00    -0.375 N 
ATOM      8  C   UNL d   1       0.424  -3.733   0.558  0.00  0.00     0.149 C 
ATOM      9  C   UNL d   1       1.419  -4.778   1.093  0.00  0.00     0.187 C 
ATOM     10  O   UNL d   1       2.301  -5.238   0.055  0.00  0.00    -0.388 OA
ATOM     11  C   UNL d   1       3.047  -4.134  -0.493  0.00  0.00     0.187 C 
ATOM     12  C   UNL d   1       2.109  -3.066  -1.087  0.00  0.00     0.149 C 
ENDBRANCH   2   7
BRANCH   1  13
ATOM     13  N   UNL d   1       2.881  -0.191  -0.010  0.00  0.00    -0.113 N 
ATOM     14  O   UNL d   1       3.450  -0.794   0.910  0.00  0.00    -0.532 OA
ATOM     15  O   UNL d   1       3.460   0.428  -0.920  0.00  0.00    -0.532 OA
ENDBRANCH   1  13
BRANCH   4  16
ATOM     16  C   UNL d   1      -1.141   2.659   0.278  0.00  0.00     0.417 C 
ATOM     17  F   UNL d   1      -0.220   3.655   0.389  0.00  0.00    -0.166 F 
ATOM     18  F   UNL d   1      -1.935   2.995  -0.773  0.00  0.00    -0.166 F 
ATOM     19  F   UNL d   1      -1.923   2.750   1.389  0.00  0.00    -0.166 F 
ENDBRANCH   4  16
TORSDOF 3
