REMARK  3 active torsions:
REMARK  status: ('A' for Active; 'I' for Inactive)
REMARK    1  A    between atoms: C_3  and  C_2 
REMARK    2  A    between atoms: O_13  and  C_8 
REMARK    3  A    between atoms: O_14  and  C_11 
ROOT
ATOM      1  C   UNL d   1      -0.063  -0.759  -1.194  0.00  0.00     0.125 C 
ATOM      2  C   UNL d   1       0.037  -1.740  -0.274  0.00  0.00     0.048 C 
ATOM      3  N   UNL d   1       1.847  -0.144  -2.819  0.00  0.00    -0.191 NA
ATOM      4  N   UNL d   1      -2.250   0.617  -1.244  0.00  0.00    -0.191 NA
ATOM      5  C   UNL d   1       0.997  -0.423  -2.078  0.00  0.00     0.111 C 
ATOM      6  C   UNL d   1      -1.267  -0.001  -1.251  0.00  0.00     0.111 C 
ENDROOT
BRANCH   2   7
ATOM      7  C   UNL d   1       1.244  -2.532   0.003  0.00  0.00     0.002 A 
ATOM      8  C   UNL d   1       2.249  -2.124   0.895  0.00  0.00     0.078 A 
ATOM      9  C   UNL d   1       3.394  -2.915   1.042  0.00  0.00     0.040 A 
ATOM     10  C   UNL d   1       3.541  -4.118   0.346  0.00  0.00     0.039 A 
ATOM     11  C   UNL d   1       2.538  -4.545  -0.518  0.00  0.00     0.069 A 
ATOM     12  C   UNL d   1       1.401  -3.746  -0.692  0.00  0.00     0.051 A 
BRANCH   8  13
ATOM     13  O   UNL d   1       2.301  -0.968   1.625  0.00  0.00    -0.355 OA
ATOM     14  C   UNL d   1       1.094  -0.462   2.177  0.00  0.00     0.210 C 
ENDBRANCH   8  13
BRANCH  11  15
ATOM     15  O   UNL d   1       2.547  -5.705  -1.243  0.00  0.00    -0.356 OA
ATOM     16  C   UNL d   1       3.675  -6.559  -1.077  0.00  0.00     0.210 C 
ENDBRANCH  11  15
ENDBRANCH   2   7
TORSDOF 3
