REMARK  5 active torsions:
REMARK  status: ('A' for Active; 'I' for Inactive)
REMARK    1  A    between atoms: C_5  and  S_1 
REMARK    2  A    between atoms: N_6  and  S_1 
REMARK    3  A    between atoms: C_3  and  N_10 
REMARK    4  A    between atoms: C_8  and  C_12 
REMARK    5  A    between atoms: C_9  and  C_13 
ROOT
ATOM      1  N   UNL d   1       0.481   0.890   1.016  0.00  0.00    -0.203 NA
ATOM      2  N   UNL d   1       1.244   3.652   0.870  0.00  0.00    -0.364 N 
ATOM      3  C   UNL d   1      -0.450   1.952   0.489  0.00  0.00     0.127 C 
ATOM      4  C   UNL d   1       1.500   1.498   1.954  0.00  0.00     0.127 C 
ATOM      5  C   UNL d   1       0.328   3.125  -0.145  0.00  0.00     0.140 C 
ATOM      6  C   UNL d   1       2.253   2.686   1.316  0.00  0.00     0.140 C 
ENDROOT
BRANCH   1   7
ATOM      7  S   UNL d   1       1.112  -0.185  -0.138  0.00  0.00     0.243 S 
ATOM      8  O   UNL d   1       1.260   0.500  -1.403  0.00  0.00    -0.206 OA
ATOM      9  O   UNL d   1       2.221  -0.900   0.458  0.00  0.00    -0.206 OA
BRANCH   7  10
ATOM     10  C   UNL d   1      -0.218  -1.358  -0.333  0.00  0.00     0.076 A 
ATOM     11  C   UNL d   1      -1.235  -1.115  -1.264  0.00  0.00     0.041 A 
ATOM     12  C   UNL d   1      -2.223  -2.083  -1.497  0.00  0.00     0.050 A 
ATOM     13  C   UNL d   1      -2.151  -3.304  -0.803  0.00  0.00     0.032 A 
ATOM     14  C   UNL d   1      -1.115  -3.567   0.114  0.00  0.00     0.050 A 
ATOM     15  C   UNL d   1      -0.155  -2.575   0.352  0.00  0.00     0.041 A 
BRANCH  12  16
ATOM     16  C   UNL d   1      -3.329  -1.846  -2.499  0.00  0.00     0.417 C 
ATOM     17  F   UNL d   1      -3.252  -0.633  -3.114  0.00  0.00    -0.166 F 
ATOM     18  F   UNL d   1      -3.335  -2.773  -3.495  0.00  0.00    -0.166 F 
ATOM     19  F   UNL d   1      -4.564  -1.897  -1.928  0.00  0.00    -0.166 F 
ENDBRANCH  12  16
BRANCH  14  20
ATOM     20  C   UNL d   1      -1.024  -4.915   0.793  0.00  0.00     0.417 C 
ATOM     21  F   UNL d   1       0.059  -5.042   1.607  0.00  0.00    -0.166 F 
ATOM     22  F   UNL d   1      -2.111  -5.180   1.566  0.00  0.00    -0.166 F 
ATOM     23  F   UNL d   1      -0.941  -5.936  -0.104  0.00  0.00    -0.166 F 
ENDBRANCH  14  20
ENDBRANCH   7  10
ENDBRANCH   1   7
BRANCH   2  24
ATOM     24  C   UNL d   1       1.482   5.007   0.965  0.00  0.00     0.123 A 
ATOM     25  C   UNL d   1       0.457   5.966   1.074  0.00  0.00     0.076 A 
ATOM     26  S   UNL d   1      -1.258   5.759   1.167  0.00  0.00    -0.095 SA
ATOM     27  C   UNL d   1       0.782   7.318   1.191  0.00  0.00     0.060 A 
ATOM     28  C   UNL d   1      -1.543   7.432   1.214  0.00  0.00     0.059 A 
ATOM     29  C   UNL d   1      -0.378   8.166   1.255  0.00  0.00    -0.027 A 
ATOM     30  C   UNL d   1      -0.352   9.652   1.359  0.00  0.00     0.051 C 
ATOM     31  N   UNL d   1       2.065   7.750   1.233  0.00  0.00    -0.351 N 
ATOM     32  C   UNL d   1       2.973   6.774   1.184  0.00  0.00     0.182 A 
ATOM     33  HN  UNL d   1       2.316   8.737   1.298  1.00  0.00     0.166 HD
ATOM     34  N   UNL d   1       2.755   5.455   1.065  0.00  0.00    -0.338 N 
ATOM     35  HN  UNL d   1       3.537   4.800   1.050  1.00  0.00     0.168 HD
ENDBRANCH   2  24
TORSDOF 5
