REMARK  4 active torsions:
REMARK  status: ('A' for Active; 'I' for Inactive)
REMARK    1  A    between atoms: C_6  and  N_1 
REMARK    2  A    between atoms: N_9  and  C_6 
REMARK    3  A    between atoms: C_12  and  C_7 
REMARK    4  A    between atoms: C_17  and  N_9 
ROOT
ATOM      1  N   UNL d   1      -3.072   0.970  -0.182  0.00  0.00    -0.257 N 
ATOM      2  N   UNL d   1      -1.752   1.399  -0.223  0.00  0.00    -0.298 N 
ATOM      3  HN  UNL d   1      -1.422   2.323  -0.501  1.00  0.00     0.187 HD
ATOM      4  C   UNL d   1      -1.022   0.403   0.159  0.00  0.00     0.043 C 
ATOM      5  C   UNL d   1      -1.765  -0.778   0.715  0.00  0.00     0.068 C 
ATOM      6  C   UNL d   1      -3.161  -0.474   0.153  0.00  0.00     0.153 C 
ATOM      7  C   UNL d   1       0.438   0.366   0.126  0.00  0.00    -0.005 A 
ATOM      8  C   UNL d   1      -1.086  -2.128   0.489  0.00  0.00     0.018 C 
ATOM      9  C   UNL d   1       1.034  -0.882  -0.097  0.00  0.00    -0.046 A 
ATOM     10  C   UNL d   1       0.167  -2.078  -0.393  0.00  0.00     0.040 C 
ATOM     11  C   UNL d   1       1.197   1.524   0.283  0.00  0.00     0.014 A 
ATOM     12  C   UNL d   1       2.429  -0.957  -0.153  0.00  0.00     0.008 A 
ATOM     13  C   UNL d   1       2.587   1.431   0.247  0.00  0.00     0.001 A 
ATOM     14  C   UNL d   1       3.201   0.194   0.032  0.00  0.00     0.001 A 
ENDROOT
BRANCH   1  15
ATOM     15  C   UNL d   1      -4.114   1.877  -0.294  0.00  0.00     0.194 C 
ATOM     16  S   UNL d   1      -5.645   1.639   0.361  0.00  0.00    -0.039 SA
BRANCH  15  17
ATOM     17  N   UNL d   1      -3.874   3.100  -0.874  0.00  0.00    -0.332 N 
ATOM     18  H   UNL d   1      -4.497   3.838  -0.574  0.00  0.00     0.168 HD
BRANCH  17  19
ATOM     19  C   UNL d   1      -3.007   3.418  -1.941  0.00  0.00     0.034 A 
ATOM     20  C   UNL d   1      -2.559   2.463  -2.856  0.00  0.00     0.029 A 
ATOM     21  C   UNL d   1      -1.673   2.811  -3.876  0.00  0.00     0.002 A 
ATOM     22  C   UNL d   1      -1.249   4.130  -4.003  0.00  0.00     0.000 A 
ATOM     23  C   UNL d   1      -1.739   5.103  -3.132  0.00  0.00     0.002 A 
ATOM     24  C   UNL d   1      -2.630   4.753  -2.114  0.00  0.00     0.029 A 
ENDBRANCH  17  19
ENDBRANCH  15  17
ENDBRANCH   1  15
BRANCH   6  25
ATOM     25  C   UNL d   1      -3.590  -1.291  -1.058  0.00  0.00    -0.033 A 
ATOM     26  C   UNL d   1      -4.776  -2.042  -1.004  0.00  0.00     0.011 A 
ATOM     27  C   UNL d   1      -5.178  -2.823  -2.091  0.00  0.00     0.024 A 
ATOM     28  C   UNL d   1      -4.399  -2.857  -3.245  0.00  0.00     0.034 A 
ATOM     29  C   UNL d   1      -3.232  -2.104  -3.328  0.00  0.00     0.024 A 
ATOM     30 CL   UNL d   1      -4.880  -3.837  -4.574  0.00  0.00    -0.084 Cl
ATOM     31  C   UNL d   1      -2.835  -1.321  -2.243  0.00  0.00     0.011 A 
ENDBRANCH   6  25
TORSDOF 4
