REMARK  0 active torsions:
REMARK  status: ('A' for Active; 'I' for Inactive)
ROOT
ATOM      1  N   UNL d   1       0.000   1.643   0.106  0.00  0.00    -0.358 N 
ATOM      2  C   UNL d   1      -0.702  -0.471   0.079  0.00  0.00    -0.023 A 
ATOM      3  C   UNL d   1      -1.110   0.847   0.090  0.00  0.00     0.017 A 
ATOM      4  C   UNL d   1       0.720  -0.474   0.054  0.00  0.00    -0.001 A 
ATOM      5  C   UNL d   1       1.134   0.859   0.063  0.00  0.00     0.043 A 
ATOM      6  C   UNL d   1       1.700  -1.486   0.002  0.00  0.00     0.021 A 
ATOM      7  C   UNL d   1       2.483   1.229   0.020  0.00  0.00     0.031 A 
ATOM      8  C   UNL d   1       3.062  -1.142  -0.047  0.00  0.00    -0.061 A 
ATOM      9  C   UNL d   1       3.436   0.205  -0.038  0.00  0.00     0.009 A 
ATOM     10  C   UNL d   1      -1.663  -1.612   0.022  0.00  0.00     0.041 C 
ATOM     11  C   UNL d   1      -2.516   1.325   0.073  0.00  0.00     0.057 C 
ATOM     12  C   UNL d   1       4.094  -2.229  -0.118  0.00  0.00     0.048 C 
ATOM     13  C   UNL d   1      -3.121  -1.147   0.212  0.00  0.00     0.005 C 
ATOM     14  C   UNL d   1      -3.417   0.202  -0.472  0.00  0.00     0.006 C 
ATOM     15  H   UNL d   1       0.001   2.651   0.115  0.00  0.00     0.166 HD
ENDROOT
TORSDOF 0
