REMARK  2 active torsions:
REMARK  status: ('A' for Active; 'I' for Inactive)
REMARK    1  A    between atoms: C_4  and  C_3 
REMARK    2  A    between atoms: N_8  and  C_7 
ROOT
ATOM      1  C   UNL d   1       1.246   0.686   0.034  0.00  0.00     0.031 A 
ATOM      2  C   UNL d   1      -1.257   0.690   0.038  0.00  0.00     0.031 A 
ATOM      3  C   UNL d   1      -0.004   1.543  -0.124  0.00  0.00     0.104 A 
ATOM      4  C   UNL d   1       1.190  -0.632   0.296  0.00  0.00     0.065 A 
ATOM      5  C   UNL d   1      -1.204  -0.631   0.283  0.00  0.00     0.065 A 
ATOM      6  O   UNL d   1      -0.007  -1.314   0.410  0.00  0.00    -0.318 OA
ATOM      7  C   UNL d   1       2.588   1.328  -0.081  0.00  0.00     0.159 C 
ATOM      8  C   UNL d   1      -2.598   1.341  -0.049  0.00  0.00     0.159 C 
ATOM      9  C   UNL d   1      -2.399  -1.526   0.446  0.00  0.00     0.075 C 
ATOM     10  C   UNL d   1       2.384  -1.522   0.494  0.00  0.00     0.075 C 
ATOM     11  C   UNL d   1      -3.698  -0.937  -0.132  0.00  0.00    -0.035 C 
ATOM     12  C   UNL d   1       3.692  -0.944  -0.076  0.00  0.00    -0.035 C 
ATOM     13  C   UNL d   1      -3.823   0.524   0.323  0.00  0.00     0.092 C 
ATOM     14  C   UNL d   1       3.807   0.528   0.343  0.00  0.00     0.092 C 
ATOM     15  O   UNL d   1      -2.707   2.522  -0.370  0.00  0.00    -0.293 OA
ATOM     16  O   UNL d   1       2.701   2.488  -0.473  0.00  0.00    -0.293 OA
ATOM     17  C   UNL d   1      -4.891  -1.752   0.395  0.00  0.00     0.015 C 
ATOM     18  C   UNL d   1      -3.702  -1.018  -1.673  0.00  0.00     0.015 C 
ATOM     19  C   UNL d   1       3.720  -1.067  -1.614  0.00  0.00     0.015 C 
ATOM     20  C   UNL d   1       4.879  -1.742   0.491  0.00  0.00     0.015 C 
ENDROOT
BRANCH   3  21
ATOM     21  C   UNL d   1       0.009   2.775   0.776  0.00  0.00    -0.002 A 
ATOM     22  S   UNL d   1      -0.020   2.623   2.486  0.00  0.00    -0.070 SA
ATOM     23  C   UNL d   1       0.014   4.307   2.690  0.00  0.00     0.144 A 
ATOM     24  C   UNL d   1       0.053   4.996   1.498  0.00  0.00     0.045 A 
ATOM     25  C   UNL d   1       0.048   4.104   0.386  0.00  0.00     0.018 A 
BRANCH  23  26
ATOM     26  N   UNL d   1       0.007   4.878   4.010  0.00  0.00    -0.108 N 
ATOM     27  O   UNL d   1       0.042   6.112   4.076  0.00  0.00    -0.531 OA
ATOM     28  O   UNL d   1      -0.034   4.112   4.982  0.00  0.00    -0.531 OA
ENDBRANCH  23  26
ENDBRANCH   3  21
TORSDOF 2
