REMARK  5 active torsions:
REMARK  status: ('A' for Active; 'I' for Inactive)
REMARK    1  A    between atoms: N_7  and  C_1 
REMARK    2  A    between atoms: N_10  and  C_1 
REMARK    3  A    between atoms: C_2  and  N_8 
REMARK    4  A    between atoms: C_3  and  C_4 
REMARK    5  A    between atoms: C_12  and  N_10 
ROOT
ATOM      1  N   UNL d   1       0.550   0.599   1.125  0.00  0.00    -0.355 N 
ATOM      2  N   UNL d   1      -0.305   1.532   3.652  0.00  0.00    -0.363 N 
ATOM      3  C   UNL d   1       1.023   1.898   1.647  0.00  0.00     0.145 C 
ATOM      4  C   UNL d   1      -0.674   0.060   1.762  0.00  0.00     0.145 C 
ATOM      5  C   UNL d   1       1.022   1.957   3.186  0.00  0.00     0.144 C 
ATOM      6  C   UNL d   1      -0.613   0.141   3.302  0.00  0.00     0.144 C 
ENDROOT
BRANCH   1   7
ATOM      7  C   UNL d   1       1.054   0.048  -0.036  0.00  0.00     0.174 C 
ATOM      8  S   UNL d   1       2.689  -0.211  -0.291  0.00  0.00    -0.041 SA
BRANCH   7   9
ATOM      9  N   UNL d   1       0.158  -0.453  -0.945  0.00  0.00    -0.333 N 
ATOM     10  H   UNL d   1       0.513  -1.190  -1.542  0.00  0.00     0.168 HD
BRANCH   9  11
ATOM     11  C   UNL d   1      -1.042   0.158  -1.374  0.00  0.00     0.035 A 
ATOM     12  C   UNL d   1      -1.290   1.525  -1.203  0.00  0.00     0.036 A 
ATOM     13  C   UNL d   1      -2.495   2.099  -1.623  0.00  0.00    -0.059 A 
ATOM     14  C   UNL d   1      -2.760   3.560  -1.408  0.00  0.00     0.048 C 
ATOM     15  C   UNL d   1      -3.461   1.284  -2.219  0.00  0.00     0.013 A 
ATOM     16  C   UNL d   1      -3.215  -0.081  -2.430  0.00  0.00    -0.059 A 
ATOM     17  C   UNL d   1      -1.991  -0.632  -2.025  0.00  0.00     0.036 A 
ATOM     18  C   UNL d   1      -4.281  -0.938  -3.046  0.00  0.00     0.048 C 
ENDBRANCH   9  11
ENDBRANCH   7   9
ENDBRANCH   1   7
BRANCH   2  19
ATOM     19  C   UNL d   1      -0.884   2.085   4.771  0.00  0.00     0.125 A 
ATOM     20  N   UNL d   1      -1.261   1.242   5.766  0.00  0.00    -0.350 N 
ATOM     21  C   UNL d   1      -1.935   1.739   6.832  0.00  0.00     0.106 A 
ATOM     22  HN  UNL d   1      -1.040   0.248   5.713  1.00  0.00     0.166 HD
ATOM     23  C   UNL d   1      -2.280   3.070   6.976  0.00  0.00     0.065 A 
ATOM     24  C   UNL d   1      -1.892   3.944   5.963  0.00  0.00     0.045 A 
ATOM     25  C   UNL d   1      -1.199   3.457   4.854  0.00  0.00     0.078 A 
ATOM     26 CL   UNL d   1      -0.906   4.582   3.568  0.00  0.00    -0.080 Cl
BRANCH  23  27
ATOM     27  C   UNL d   1      -3.076   3.515   8.162  0.00  0.00     0.418 C 
ATOM     28  F   UNL d   1      -3.346   4.849   8.162  0.00  0.00    -0.166 F 
ATOM     29  F   UNL d   1      -4.282   2.890   8.242  0.00  0.00    -0.166 F 
ATOM     30  F   UNL d   1      -2.443   3.261   9.338  0.00  0.00    -0.166 F 
ENDBRANCH  23  27
ENDBRANCH   2  19
TORSDOF 5
