REMARK  5 active torsions:
REMARK  status: ('A' for Active; 'I' for Inactive)
REMARK    1  A    between atoms: O_9  and  C_7 
REMARK    2  A    between atoms: C_8  and  C_12 
REMARK    3  A    between atoms: O_13  and  C_8 
REMARK    4  A    between atoms: C_12  and  O_9 
REMARK    5  A    between atoms: C_18  and  O_13 
ROOT
ATOM      1  C   UNL d   1       0.371   0.737   0.044  0.00  0.00     0.123 A 
ATOM      2  C   UNL d   1      -0.572  -1.551  -0.005  0.00  0.00    -0.043 A 
ATOM      3  O   UNL d   1      -0.943   1.261   0.078  0.00  0.00    -0.272 OA
ATOM      4  C   UNL d   1       0.591  -0.647  -0.007  0.00  0.00     0.007 A 
ATOM      5  C   UNL d   1      -2.053   0.441   0.042  0.00  0.00     0.288 A 
ATOM      6  C   UNL d   1      -1.796  -1.005   0.016  0.00  0.00     0.090 A 
ATOM      7  C   UNL d   1       1.423   1.666   0.076  0.00  0.00     0.104 A 
ATOM      8  O   UNL d   1      -3.198   0.870   0.043  0.00  0.00    -0.260 OA
ATOM      9  C   UNL d   1      -0.439  -3.047  -0.019  0.00  0.00     0.049 C 
ATOM     10  C   UNL d   1       1.920  -1.087  -0.048  0.00  0.00     0.015 A 
ATOM     11  C   UNL d   1       2.980  -0.175  -0.052  0.00  0.00     0.004 A 
ATOM     12  C   UNL d   1       2.733   1.195   0.003  0.00  0.00     0.040 A 
ENDROOT
BRANCH   7  13
ATOM     13  O   UNL d   1       1.081   2.991   0.169  0.00  0.00    -0.339 OA
BRANCH  13  14
ATOM     14  C   UNL d   1       2.102   3.847   0.661  0.00  0.00     0.286 C 
BRANCH  14  15
ATOM     15  C   UNL d   1       1.607   5.246   0.988  0.00  0.00     0.283 C 
ATOM     16  O   UNL d   1       0.487   5.690   0.788  0.00  0.00    -0.263 OA
BRANCH  15  17
ATOM     17  O   UNL d   1       2.663   5.962   1.484  0.00  0.00    -0.320 OA
BRANCH  17  18
ATOM     18  C   UNL d   1       2.466   7.379   1.575  0.00  0.00     0.174 C 
ATOM     19  C   UNL d   1       2.860   8.000   0.248  0.00  0.00     0.034 C 
ENDBRANCH  17  18
ENDBRANCH  15  17
ENDBRANCH  14  15
ENDBRANCH  13  14
ENDBRANCH   7  13
TORSDOF 5
