REMARK  5 active torsions:
REMARK  status: ('A' for Active; 'I' for Inactive)
REMARK    1  A    between atoms: N_2  and  C_1 
REMARK    2  A    between atoms: C_5  and  C_4 
REMARK       I    between atoms: N_8  and  C_5 
REMARK    3  A    between atoms: C_11  and  N_8 
REMARK    4  A    between atoms: O_15  and  C_14 
REMARK    5  A    between atoms: C_17  and  O_15 
ROOT
ATOM      1  C   UNL d   1      -1.186  -2.943  -0.571  0.00  0.00     0.280 C 
ATOM      2  N   UNL d   1      -2.226  -2.600   0.279  0.00  0.00    -0.321 N 
ATOM      3  O   UNL d   1      -0.990  -2.444  -1.678  0.00  0.00    -0.265 OA
ATOM      4  H   UNL d   1      -2.355  -3.192   1.093  0.00  0.00     0.169 HD
ENDROOT
BRANCH   2   5
ATOM      5  C   UNL d   1      -3.180  -1.578   0.060  0.00  0.00     0.037 A 
ATOM      6  C   UNL d   1      -3.024  -0.593  -0.922  0.00  0.00     0.066 A 
ATOM      7  C   UNL d   1      -4.018   0.358  -1.160  0.00  0.00     0.071 A 
ATOM      8  C   UNL d   1      -5.151   0.377  -0.351  0.00  0.00     0.037 A 
ATOM      9  C   UNL d   1      -5.308  -0.575   0.658  0.00  0.00     0.005 A 
ATOM     10  C   UNL d   1      -4.326  -1.551   0.861  0.00  0.00     0.029 A 
BRANCH   7  11
ATOM     11  O   UNL d   1      -3.979   1.306  -2.148  0.00  0.00    -0.347 OA
BRANCH  11  12
ATOM     12  C   UNL d   1      -3.194   1.017  -3.317  0.00  0.00     0.120 C 
ATOM     13  C   UNL d   1      -3.798  -0.136  -4.121  0.00  0.00     0.040 C 
ATOM     14  C   UNL d   1      -3.190   2.283  -4.173  0.00  0.00     0.040 C 
ENDBRANCH  11  12
ENDBRANCH   7  11
ENDBRANCH   2   5
BRANCH   1  15
ATOM     15  C   UNL d   1      -0.311  -3.991  -0.081  0.00  0.00     0.146 A 
ATOM     16  O   UNL d   1      -0.477  -4.529   1.172  0.00  0.00    -0.283 OA
ATOM     17  C   UNL d   1       0.524  -5.445   1.319  0.00  0.00     0.215 A 
ATOM     18  C   UNL d   1       1.318  -5.525   0.201  0.00  0.00     0.066 A 
ATOM     19  C   UNL d   1       0.774  -4.587  -0.706  0.00  0.00     0.047 A 
BRANCH  17  20
ATOM     20  N   UNL d   1       0.587  -6.136   2.569  0.00  0.00    -0.090 N 
ATOM     21  O   UNL d   1       1.532  -6.925   2.712  0.00  0.00    -0.530 OA
ATOM     22  O   UNL d   1      -0.297  -5.900   3.401  0.00  0.00    -0.530 OA
ENDBRANCH  17  20
ENDBRANCH   1  15
TORSDOF 5
