REMARK  6 active torsions:
REMARK  status: ('A' for Active; 'I' for Inactive)
REMARK    1  A    between atoms: C_2  and  S_1 
REMARK    2  A    between atoms: N_7  and  S_1 
REMARK    3  A    between atoms: C_10  and  C_3 
REMARK    4  A    between atoms: C_5  and  C_11 
REMARK    5  A    between atoms: C_20  and  N_13 
REMARK    6  A    between atoms: C_24  and  C_23 
ROOT
ATOM      1  S   UNL d   1       0.988  -0.008  -0.135  0.00  0.00     0.250 S 
ATOM      2  O   UNL d   1       1.511   1.117  -0.874  0.00  0.00    -0.205 OA
ATOM      3  O   UNL d   1       1.686  -1.274  -0.059  0.00  0.00    -0.205 OA
ENDROOT
BRANCH   1   4
ATOM      4  C   UNL d   1      -0.555  -0.404  -0.923  0.00  0.00     0.116 A 
ATOM      5  S   UNL d   1      -0.456  -0.768  -2.590  0.00  0.00    -0.075 SA
ATOM      6  C   UNL d   1      -2.140  -1.015  -2.711  0.00  0.00     0.035 A 
ATOM      7  C   UNL d   1      -2.769  -0.855  -1.492  0.00  0.00     0.023 A 
ATOM      8  C   UNL d   1      -1.851  -0.502  -0.457  0.00  0.00     0.034 A 
BRANCH   6   9
ATOM      9  C   UNL d   1      -2.843  -1.351  -3.990  0.00  0.00     0.074 A 
ATOM     10  C   UNL d   1      -2.243  -1.536  -5.256  0.00  0.00     0.077 A 
ATOM     11  C   UNL d   1      -3.298  -1.775  -6.105  0.00  0.00     0.184 A 
ATOM     12  O   UNL d   1      -4.455  -1.757  -5.392  0.00  0.00    -0.233 OA
ATOM     13  N   UNL d   1      -4.173  -1.495  -4.062  0.00  0.00    -0.260 N 
ATOM     14  HN  UNL d   1      -4.841  -1.426  -3.294  1.00  0.00     0.195 HD
BRANCH  11  15
ATOM     15  C   UNL d   1      -3.416  -2.020  -7.551  0.00  0.00     0.441 C 
ATOM     16  F   UNL d   1      -2.198  -2.050  -8.154  0.00  0.00    -0.164 F 
ATOM     17  F   UNL d   1      -4.015  -3.205  -7.828  0.00  0.00    -0.164 F 
ATOM     18  F   UNL d   1      -4.133  -1.054  -8.178  0.00  0.00    -0.164 F 
ENDBRANCH  11  15
ENDBRANCH   6   9
ENDBRANCH   1   4
BRANCH   1  19
ATOM     19  N   UNL d   1       0.604   0.490   1.451  0.00  0.00    -0.203 NA
ATOM     20  C   UNL d   1       0.300   1.951   1.620  0.00  0.00     0.127 C 
ATOM     21  C   UNL d   1       1.579   2.824   1.607  0.00  0.00     0.138 C 
ATOM     22  N   UNL d   1       2.573   2.301   2.561  0.00  0.00    -0.379 N 
ATOM     23  C   UNL d   1       2.863   0.858   2.481  0.00  0.00     0.138 C 
ATOM     24  C   UNL d   1       1.562   0.042   2.514  0.00  0.00     0.127 C 
BRANCH  22  25
ATOM     25  C   UNL d   1       3.056   3.101   3.574  0.00  0.00     0.030 A 
ATOM     26  C   UNL d   1       3.377   4.448   3.347  0.00  0.00     0.030 A 
ATOM     27  C   UNL d   1       3.851   5.285   4.369  0.00  0.00     0.017 A 
ATOM     28  C   UNL d   1       4.014   4.788   5.662  0.00  0.00     0.009 A 
ATOM     29  C   UNL d   1       3.710   3.444   5.901  0.00  0.00     0.017 A 
ATOM     30  C   UNL d   1       3.244   2.618   4.872  0.00  0.00     0.030 A 
BRANCH  28  31
ATOM     31  C   UNL d   1       4.490   5.604   6.820  0.00  0.00     0.155 C 
ATOM     32  O   UNL d   1       4.596   5.070   7.926  0.00  0.00    -0.293 OA
ATOM     33  C   UNL d   1       4.840   7.060   6.661  0.00  0.00     0.096 C 
ENDBRANCH  28  31
ENDBRANCH  22  25
ENDBRANCH   1  19
TORSDOF 6
