REMARK  4 active torsions:
REMARK  status: ('A' for Active; 'I' for Inactive)
REMARK    1  A    between atoms: C_5  and  C_1 
REMARK    2  A    between atoms: S_18  and  C_8 
REMARK    3  A    between atoms: C_11  and  C_13 
REMARK    4  A    between atoms: C_22  and  S_18 
ROOT
ATOM      1  C   UNL d   1       1.214   4.699  -1.880  0.00  0.00    -0.107 C 
ATOM      2  C   UNL d   1       1.246   5.780  -2.403  0.00  0.00     0.013 C 
ATOM      3  C   UNL d   1       1.180   3.380  -1.228  0.00  0.00     0.175 C 
ENDROOT
BRANCH   3   4
ATOM      4  S   UNL d   1      -0.308   2.451  -1.700  0.00  0.00    -0.073 SA
BRANCH   4   5
ATOM      5  C   UNL d   1      -0.099   1.027  -0.732  0.00  0.00     0.204 A 
ATOM      6  O   UNL d   1      -0.729  -0.161  -1.006  0.00  0.00    -0.267 OA
ATOM      7  C   UNL d   1      -0.267  -0.975   0.001  0.00  0.00     0.177 A 
ATOM      8  N   UNL d   1       0.554  -0.338   0.811  0.00  0.00    -0.277 N 
ATOM      9  N   UNL d   1       0.665   0.950   0.337  0.00  0.00    -0.272 N 
ATOM     10  HN  UNL d   1       1.019  -0.725   1.632  1.00  0.00     0.189 HD
ATOM     11  HN  UNL d   1       1.229   1.700   0.737  1.00  0.00     0.189 HD
BRANCH   7  12
ATOM     12  C   UNL d   1      -0.714  -2.366   0.005  0.00  0.00     0.039 A 
ATOM     13  C   UNL d   1      -0.362  -3.265   1.023  0.00  0.00     0.020 A 
ATOM     14  N   UNL d   1      -0.745  -4.574   1.021  0.00  0.00    -0.355 N 
ATOM     15  C   UNL d   1       0.471  -2.867   2.209  0.00  0.00     0.069 C 
ATOM     16  C   UNL d   1      -1.505  -5.047  -0.004  0.00  0.00     0.117 A 
ATOM     17  HN  UNL d   1      -0.464  -5.193   1.781  1.00  0.00     0.166 HD
ATOM     18  C   UNL d   1      -1.908  -4.215  -1.042  0.00  0.00     0.035 A 
ATOM     19  C   UNL d   1      -1.511  -2.874  -1.033  0.00  0.00     0.020 A 
BRANCH  16  20
ATOM     20  C   UNL d   1      -1.912  -6.516  -0.020  0.00  0.00     0.432 C 
ATOM     21  F   UNL d   1      -1.464  -7.238   1.046  0.00  0.00    -0.165 F 
ATOM     22  F   UNL d   1      -3.267  -6.681  -0.038  0.00  0.00    -0.165 F 
ATOM     23  F   UNL d   1      -1.453  -7.169  -1.129  0.00  0.00    -0.165 F 
ENDBRANCH  16  20
ENDBRANCH   7  12
ENDBRANCH   4   5
ENDBRANCH   3   4
TORSDOF 4
