REMARK  2 active torsions:
REMARK  status: ('A' for Active; 'I' for Inactive)
REMARK    1  A    between atoms: S_2  and  C_1 
REMARK    2  A    between atoms: N_9  and  S_2 
ROOT
ATOM      1  C   UNL d   1       1.042  -1.603   0.019  0.00  0.00     0.133 A 
ATOM      2  S   UNL d   1      -0.646  -1.905   0.018  0.00  0.00    -0.068 SA
ATOM      3  C   UNL d   1       1.293  -0.248  -0.002  0.00  0.00     0.042 A 
ATOM      4  C   UNL d   1       0.118   0.549  -0.016  0.00  0.00     0.048 A 
ATOM      5  C   UNL d   1      -0.999  -0.247  -0.005  0.00  0.00     0.054 A 
ATOM      6 BR   UNL d   1       3.005   0.549  -0.007  0.00  0.00    -0.049 Br
ATOM      7 BR   UNL d   1      -2.746   0.428  -0.013  0.00  0.00    -0.043 Br
ENDROOT
BRANCH   1   8
ATOM      8  S   UNL d   1       2.118  -3.005   0.050  0.00  0.00     0.247 S 
ATOM      9  O   UNL d   1       2.804  -2.965  -1.220  0.00  0.00    -0.205 OA
ATOM     10  O   UNL d   1       2.793  -2.921   1.321  0.00  0.00    -0.205 OA
BRANCH   8  11
ATOM     11  N   UNL d   1       1.222  -4.420   0.070  0.00  0.00    -0.225 NA
ATOM     12  H   UNL d   1       0.714  -4.587  -0.796  0.00  0.00     0.136 HD
ATOM     13  H   UNL d   1       0.702  -4.554   0.935  0.00  0.00     0.136 HD
ENDBRANCH   8  11
ENDBRANCH   1   8
TORSDOF 2
