REMARK  5 active torsions:
REMARK  status: ('A' for Active; 'I' for Inactive)
REMARK    1  A    between atoms: C_15  and  N_1 
REMARK    2  A    between atoms: S_5  and  C_2 
REMARK    3  A    between atoms: C_4  and  C_15 
REMARK    4  A    between atoms: C_11  and  S_5 
REMARK    5  A    between atoms: N_10  and  C_14 
ROOT
ATOM      1  C   UNL d   1       3.174  -4.875   0.109  0.00  0.00     0.168 A 
ATOM      2  N   UNL d   1       2.296  -4.184  -0.688  0.00  0.00    -0.318 N 
ATOM      3  C   UNL d   1       1.317  -3.723   0.169  0.00  0.00     0.118 A 
ATOM      4  N   UNL d   1       2.811  -4.783   1.362  0.00  0.00    -0.278 N 
ATOM      5  HN  UNL d   1       3.308  -5.172   2.164  1.00  0.00     0.189 HD
ATOM      6  N   UNL d   1       1.642  -4.069   1.401  0.00  0.00    -0.285 N 
ATOM      7  HN  UNL d   1       1.112  -3.842   2.243  1.00  0.00     0.188 HD
ATOM      8  C   UNL d   1       2.361  -3.984  -2.110  0.00  0.00     0.160 C 
ENDROOT
BRANCH   3   9
ATOM      9  C   UNL d   1       0.054  -3.030  -0.223  0.00  0.00     0.207 C 
BRANCH   9  10
ATOM     10  N   UNL d   1       0.237  -1.592  -0.401  0.00  0.00    -0.338 N 
ATOM     11  C   UNL d   1       0.481  -0.704   0.633  0.00  0.00     0.046 A 
ATOM     12  C   UNL d   1       0.693   0.548   0.055  0.00  0.00     0.003 A 
ATOM     13  C   UNL d   1       0.565  -0.900   2.022  0.00  0.00     0.030 A 
ATOM     14  C   UNL d   1       0.991   1.644   0.894  0.00  0.00     0.014 A 
ATOM     15  C   UNL d   1       0.552   0.400  -1.358  0.00  0.00     0.003 A 
ATOM     16  C   UNL d   1       1.084   1.455   2.276  0.00  0.00     0.001 A 
ATOM     17  C   UNL d   1       0.877   0.197   2.829  0.00  0.00     0.002 A 
ATOM     18  C   UNL d   1       0.178  -0.923  -1.613  0.00  0.00     0.046 A 
ATOM     19  C   UNL d   1       0.700   1.289  -2.444  0.00  0.00     0.014 A 
ATOM     20  C   UNL d   1      -0.145  -1.357  -2.911  0.00  0.00     0.030 A 
ATOM     21  C   UNL d   1       0.010  -0.455  -3.969  0.00  0.00     0.002 A 
ATOM     22  C   UNL d   1       0.451   0.844  -3.744  0.00  0.00     0.001 A 
ENDBRANCH   9  10
ENDBRANCH   3   9
BRANCH   1  23
ATOM     23  S   UNL d   1       4.581  -5.715  -0.445  0.00  0.00    -0.032 SA
BRANCH  23  24
ATOM     24  C   UNL d   1       3.893  -7.364  -0.492  0.00  0.00     0.110 A 
ATOM     25  C   UNL d   1       4.333  -8.440   0.276  0.00  0.00     0.136 A 
ATOM     26  C   UNL d   1       3.800  -9.722   0.081  0.00  0.00     0.040 A 
ATOM     27  C   UNL d   1       2.816  -9.896  -0.881  0.00  0.00     0.020 A 
ATOM     28  C   UNL d   1       2.403  -8.784  -1.594  0.00  0.00     0.089 A 
ATOM     29  N   UNL d   1       2.917  -7.538  -1.431  0.00  0.00    -0.358 N 
ATOM     30  HN  UNL d   1       2.585  -6.754  -1.994  1.00  0.00     0.166 HD
BRANCH  25  31
ATOM     31  N   UNL d   1       5.359  -8.290   1.275  0.00  0.00    -0.113 N 
ATOM     32  O   UNL d   1       6.486  -7.957   0.885  0.00  0.00    -0.532 OA
ATOM     33  O   UNL d   1       5.060  -8.599   2.435  0.00  0.00    -0.532 OA
ENDBRANCH  25  31
ENDBRANCH  23  24
ENDBRANCH   1  23
TORSDOF 5
