REMARK  3 active torsions:
REMARK  status: ('A' for Active; 'I' for Inactive)
REMARK    1  A    between atoms: C_2  and  N_1 
REMARK    2  A    between atoms: C_3  and  C_8 
REMARK    3  A    between atoms: C_4  and  C_7 
ROOT
ATOM      1  C   UNL d   1       0.058   2.298  -0.023  0.00  0.00     0.047 A 
ATOM      2  C   UNL d   1      -0.516   4.409   1.088  0.00  0.00     0.050 A 
ATOM      3  C   UNL d   1       0.941   4.429  -0.866  0.00  0.00     0.050 A 
ATOM      4  C   UNL d   1      -0.635   3.012   0.967  0.00  0.00     0.046 A 
ATOM      5  C   UNL d   1       0.832   3.030  -0.937  0.00  0.00     0.046 A 
ATOM      6  C   UNL d   1       0.264   5.109   0.156  0.00  0.00     0.032 A 
ENDROOT
BRANCH   1   7
ATOM      7  N   UNL d   1       0.018   0.878  -0.069  0.00  0.00    -0.245 N 
ATOM      8  C   UNL d   1       0.980   0.084  -0.638  0.00  0.00     0.255 A 
ATOM      9  C   UNL d   1       0.595  -1.312  -0.406  0.00  0.00     0.080 A 
ATOM     10  O   UNL d   1       2.024   0.368  -1.195  0.00  0.00    -0.268 OA
ATOM     11  C   UNL d   1      -0.547  -1.312   0.276  0.00  0.00     0.080 A 
ATOM     12  C   UNL d   1      -0.935   0.084   0.504  0.00  0.00     0.255 A 
ATOM     13  O   UNL d   1      -1.969   0.370   1.087  0.00  0.00    -0.268 OA
ENDBRANCH   1   7
BRANCH   2  14
ATOM     14  C   UNL d   1      -1.168   5.146   2.236  0.00  0.00     0.417 C 
ATOM     15  F   UNL d   1      -1.848   4.337   3.093  0.00  0.00    -0.166 F 
ATOM     16  F   UNL d   1      -0.253   5.808   2.998  0.00  0.00    -0.166 F 
ATOM     17  F   UNL d   1      -2.056   6.087   1.817  0.00  0.00    -0.166 F 
ENDBRANCH   2  14
BRANCH   3  18
ATOM     18  C   UNL d   1       1.792   5.191  -1.856  0.00  0.00     0.417 C 
ATOM     19  F   UNL d   1       2.411   4.398  -2.772  0.00  0.00    -0.166 F 
ATOM     20  F   UNL d   1       1.068   6.094  -2.573  0.00  0.00    -0.166 F 
ATOM     21  F   UNL d   1       2.780   5.902  -1.246  0.00  0.00    -0.166 F 
ENDBRANCH   3  18
TORSDOF 3
