REMARK  6 active torsions:
REMARK  status: ('A' for Active; 'I' for Inactive)
REMARK    1  A    between atoms: N_7  and  C_1 
REMARK    2  A    between atoms: N_9  and  C_1 
REMARK    3  A    between atoms: C_2  and  N_8 
REMARK    4  A    between atoms: C_3  and  C_4 
REMARK    5  A    between atoms: C_12  and  N_9 
REMARK    6  A    between atoms: C_29  and  C_17 
ROOT
ATOM      1  N   UNL d   1       0.414  -1.107  -0.799  0.00  0.00    -0.355 N 
ATOM      2  N   UNL d   1      -0.104  -2.475  -3.298  0.00  0.00    -0.363 N 
ATOM      3  C   UNL d   1       0.850  -2.498  -0.984  0.00  0.00     0.145 C 
ATOM      4  C   UNL d   1      -0.744  -0.724  -1.612  0.00  0.00     0.145 C 
ATOM      5  C   UNL d   1       1.036  -2.884  -2.462  0.00  0.00     0.144 C 
ATOM      6  C   UNL d   1      -0.567  -1.089  -3.105  0.00  0.00     0.144 C 
ENDROOT
BRANCH   1   7
ATOM      7  C   UNL d   1       1.143  -0.134  -0.117  0.00  0.00     0.174 C 
ATOM      8  S   UNL d   1       2.802   0.044  -0.262  0.00  0.00    -0.041 SA
BRANCH   7   9
ATOM      9  N   UNL d   1       0.327   0.581   0.750  0.00  0.00    -0.332 N 
ATOM     10  H   UNL d   1      -0.305  -0.015   1.269  0.00  0.00     0.168 HD
BRANCH   9  11
ATOM     11  C   UNL d   1       0.504   1.881   1.280  0.00  0.00     0.051 A 
ATOM     12  C   UNL d   1       0.035   2.195   2.563  0.00  0.00     0.038 A 
ATOM     13  C   UNL d   1       0.053   3.517   3.030  0.00  0.00     0.029 A 
ATOM     14 BR   UNL d   1      -0.598   0.844   3.742  0.00  0.00    -0.049 Br
ATOM     15  C   UNL d   1       0.511   4.560   2.212  0.00  0.00    -0.053 A 
ATOM     16  C   UNL d   1       1.021   4.230   0.947  0.00  0.00     0.010 A 
ATOM     17  C   UNL d   1       1.012   2.908   0.486  0.00  0.00     0.031 A 
BRANCH  15  18
ATOM     18  C   UNL d   1       0.442   5.996   2.711  0.00  0.00     0.010 C 
ATOM     19  C   UNL d   1       1.722   6.380   3.453  0.00  0.00     0.015 C 
ATOM     20  C   UNL d   1       0.139   7.018   1.607  0.00  0.00     0.015 C 
ENDBRANCH  15  18
ENDBRANCH   9  11
ENDBRANCH   7   9
ENDBRANCH   1   7
BRANCH   2  21
ATOM     21  C   UNL d   1      -0.933  -3.441  -3.853  0.00  0.00     0.125 A 
ATOM     22  N   UNL d   1      -1.006  -4.637  -3.211  0.00  0.00    -0.350 N 
ATOM     23  C   UNL d   1      -1.791  -5.623  -3.728  0.00  0.00     0.106 A 
ATOM     24  HN  UNL d   1      -0.479  -4.795  -2.352  1.00  0.00     0.166 HD
ATOM     25  C   UNL d   1      -2.553  -5.494  -4.877  0.00  0.00     0.065 A 
ATOM     26  C   UNL d   1      -2.465  -4.279  -5.551  0.00  0.00     0.045 A 
ATOM     27  C   UNL d   1      -1.645  -3.257  -5.054  0.00  0.00     0.078 A 
ATOM     28 CL   UNL d   1      -1.479  -1.862  -6.072  0.00  0.00    -0.080 Cl
BRANCH  25  29
ATOM     29  C   UNL d   1      -3.401  -6.628  -5.362  0.00  0.00     0.418 C 
ATOM     30  F   UNL d   1      -4.143  -6.315  -6.459  0.00  0.00    -0.166 F 
ATOM     31  F   UNL d   1      -2.667  -7.720  -5.709  0.00  0.00    -0.166 F 
ATOM     32  F   UNL d   1      -4.288  -7.055  -4.423  0.00  0.00    -0.166 F 
ENDBRANCH  25  29
ENDBRANCH   2  21
TORSDOF 6
