REMARK  5 active torsions:
REMARK  status: ('A' for Active; 'I' for Inactive)
REMARK    1  A    between atoms: C_8  and  N_1 
REMARK    2  A    between atoms: C_7  and  C_2 
REMARK    3  A    between atoms: N_12  and  C_9 
REMARK    4  A    between atoms: C_13  and  N_12 
REMARK    5  A    between atoms: O_23  and  C_15 
ROOT
ATOM      1  N   UNL d   1       3.742   0.694   0.049  0.00  0.00    -0.225 N 
ATOM      2  C   UNL d   1       3.660  -0.701  -0.030  0.00  0.00     0.139 C 
ATOM      3  N   UNL d   1       5.723  -0.089  -0.158  0.00  0.00    -0.007 NA
ATOM      4  N   UNL d   1       5.034   1.041  -0.169  0.00  0.00     0.001 NA
ATOM      5  N   UNL d   1       4.892  -1.175  -0.060  0.00  0.00    -0.270 N 
ATOM      6  HN  UNL d   1       5.171  -2.155  -0.018  1.00  0.00     0.185 HD
ENDROOT
BRANCH   2   7
ATOM      7  C   UNL d   1       2.418  -1.367  -0.199  0.00  0.00     0.068 C 
ATOM      8  C   UNL d   1       2.190  -2.639   0.149  0.00  0.00     0.092 C 
BRANCH   8   9
ATOM      9  N   UNL d   1       3.015  -3.577   0.711  0.00  0.00    -0.366 N 
ATOM     10  H   UNL d   1       4.000  -3.320   0.777  0.00  0.00     0.165 HD
BRANCH   9  11
ATOM     11  C   UNL d   1       2.692  -4.896   1.086  0.00  0.00     0.032 A 
ATOM     12  C   UNL d   1       3.719  -5.843   1.210  0.00  0.00     0.032 A 
ATOM     13  C   UNL d   1       3.440  -7.181   1.513  0.00  0.00     0.039 A 
ATOM     14  C   UNL d   1       2.127  -7.587   1.700  0.00  0.00     0.065 A 
ATOM     15  C   UNL d   1       1.087  -6.674   1.594  0.00  0.00     0.039 A 
ATOM     16  C   UNL d   1       1.373  -5.337   1.285  0.00  0.00     0.032 A 
BRANCH  14  17
ATOM     17  O   UNL d   1       1.897  -8.900   1.985  0.00  0.00    -0.361 OA
ATOM     18  H   UNL d   1       0.940  -9.039   2.072  0.00  0.00     0.217 HD
ENDBRANCH  14  17
ENDBRANCH   9  11
ENDBRANCH   8   9
ENDBRANCH   2   7
BRANCH   1  19
ATOM     19  C   UNL d   1       2.768   1.682   0.364  0.00  0.00     0.056 A 
ATOM     20  C   UNL d   1       1.628   1.361   1.115  0.00  0.00     0.032 A 
ATOM     21  C   UNL d   1       0.706   2.355   1.456  0.00  0.00     0.021 A 
ATOM     22  C   UNL d   1       0.917   3.670   1.048  0.00  0.00     0.011 A 
ATOM     23  C   UNL d   1       2.047   4.005   0.306  0.00  0.00     0.021 A 
ATOM     24 BR   UNL d   1      -0.328   5.008   1.527  0.00  0.00    -0.051 Br
ATOM     25  C   UNL d   1       2.982   3.014  -0.024  0.00  0.00     0.032 A 
ENDBRANCH   1  19
TORSDOF 5
