REMARK  3 active torsions:
REMARK  status: ('A' for Active; 'I' for Inactive)
REMARK    1  A    between atoms: C_3  and  C_1 
REMARK    2  A    between atoms: C_4  and  C_1 
REMARK    3  A    between atoms: C_5  and  C_2 
REMARK       I    between atoms: N_15  and  C_4 
ROOT
ATOM      1  C   UNL d   1       1.156  -0.152  -0.066  0.00  0.00     0.043 C 
ATOM      2  C   UNL d   1       0.515  -0.835   0.906  0.00  0.00     0.036 C 
ENDROOT
BRANCH   1   3
ATOM      3  C   UNL d   1       0.383   0.637  -0.990  0.00  0.00    -0.013 A 
ATOM      4  C   UNL d   1      -0.010   0.170  -2.227  0.00  0.00     0.062 A 
ATOM      5  S   UNL d   1      -0.923   1.334  -3.090  0.00  0.00    -0.113 SA
ATOM      6  C   UNL d   1      -0.798   2.465  -1.811  0.00  0.00     0.050 A 
ATOM      7  C   UNL d   1      -0.079   1.967  -0.746  0.00  0.00     0.020 A 
ENDBRANCH   1   3
BRANCH   1   8
ATOM      8  C   UNL d   1       2.660  -0.176  -0.221  0.00  0.00     0.250 C 
ATOM      9  O   UNL d   1       3.388  -1.068   0.197  0.00  0.00    -0.268 OA
ATOM     10  N   UNL d   1       3.209   0.874  -0.898  0.00  0.00    -0.366 N 
ATOM     11  H   UNL d   1       2.674   1.634  -1.292  0.00  0.00     0.159 HD
ATOM     12  H   UNL d   1       4.213   0.874  -1.016  0.00  0.00     0.159 HD
ENDBRANCH   1   8
BRANCH   2  13
ATOM     13  C   UNL d   1       1.137  -1.611   1.918  0.00  0.00     0.005 A 
ATOM     14  S   UNL d   1       1.405  -0.926   3.473  0.00  0.00    -0.102 SA
ATOM     15  C   UNL d   1       2.071  -2.381   4.075  0.00  0.00     0.050 A 
ATOM     16  C   UNL d   1       2.076  -3.378   3.128  0.00  0.00     0.008 A 
ATOM     17  C   UNL d   1       1.533  -2.935   1.887  0.00  0.00     0.019 A 
ENDBRANCH   2  13
TORSDOF 3
