REMARK  3 active torsions:
REMARK  status: ('A' for Active; 'I' for Inactive)
REMARK    1  A    between atoms: C_8  and  C_3 
REMARK    2  A    between atoms: C_10  and  C_4 
REMARK    3  A    between atoms: C_11  and  C_8 
ROOT
ATOM      1  N   UNL d   1       0.487   1.277   0.175  0.00  0.00    -0.336 N 
ATOM      2  HN  UNL d   1       0.835   2.222   0.339  1.00  0.00     0.168 HD
ATOM      3  C   UNL d   1      -0.858   1.004   0.118  0.00  0.00     0.104 C 
ATOM      4  C   UNL d   1       1.294   0.274   0.010  0.00  0.00     0.131 C 
ATOM      5  C   UNL d   1      -1.369  -0.412   0.121  0.00  0.00     0.286 C 
ATOM      6  N   UNL d   1      -0.393  -1.383   0.134  0.00  0.00    -0.263 N 
ATOM      7  N   UNL d   1       0.923  -1.049  -0.201  0.00  0.00    -0.282 N 
ATOM      8  O   UNL d   1      -2.565  -0.717   0.113  0.00  0.00    -0.264 OA
ATOM      9  H   UNL d   1      -0.698  -2.333  -0.043  0.00  0.00     0.190 HD
ATOM     10  H   UNL d   1       1.609  -1.740   0.101  0.00  0.00     0.188 HD
ENDROOT
BRANCH   3  11
ATOM     11  C   UNL d   1      -1.779   1.986   0.048  0.00  0.00     0.046 C 
BRANCH  11  12
ATOM     12  C   UNL d   1      -1.446   3.413  -0.013  0.00  0.00    -0.034 A 
ATOM     13  C   UNL d   1      -1.250   4.045  -1.248  0.00  0.00     0.013 A 
ATOM     14  C   UNL d   1      -0.934   5.406  -1.304  0.00  0.00     0.024 A 
ATOM     15  C   UNL d   1      -0.814   6.136  -0.124  0.00  0.00     0.034 A 
ATOM     16  C   UNL d   1      -1.010   5.519   1.111  0.00  0.00     0.024 A 
ATOM     17 CL   UNL d   1      -0.413   7.809  -0.188  0.00  0.00    -0.084 Cl
ATOM     18  C   UNL d   1      -1.323   4.157   1.166  0.00  0.00     0.013 A 
ENDBRANCH  11  12
ENDBRANCH   3  11
BRANCH   4  19
ATOM     19  C   UNL d   1       2.757   0.581   0.050  0.00  0.00     0.009 A 
ATOM     20  C   UNL d   1       3.221   1.664   0.806  0.00  0.00     0.015 A 
ATOM     21  C   UNL d   1       4.591   1.905   0.901  0.00  0.00     0.001 A 
ATOM     22  C   UNL d   1       5.492   1.077   0.232  0.00  0.00     0.000 A 
ATOM     23  C   UNL d   1       5.030   0.012  -0.541  0.00  0.00     0.001 A 
ATOM     24  C   UNL d   1       3.663  -0.238  -0.633  0.00  0.00     0.015 A 
ENDBRANCH   4  19
TORSDOF 3
