REMARK  5 active torsions:
REMARK  status: ('A' for Active; 'I' for Inactive)
REMARK    1  A    between atoms: C_2  and  C_1 
REMARK    2  A    between atoms: C_8  and  C_2 
REMARK    3  A    between atoms: C_5  and  C_9 
REMARK    4  A    between atoms: O_11  and  C_8 
REMARK    5  A    between atoms: C_14  and  O_11 
ROOT
ATOM      1  C   UNL d   1      -2.986  -2.683   0.326  0.00  0.00     0.290 C 
ATOM      2  O   UNL d   1      -3.371  -3.815   0.582  0.00  0.00    -0.260 OA
ENDROOT
BRANCH   1   3
ATOM      3  C   UNL d   1      -1.540  -2.368   0.258  0.00  0.00     0.120 C 
BRANCH   3   4
ATOM      4  C   UNL d   1      -0.970  -1.194  -0.049  0.00  0.00     0.096 A 
ATOM      5  O   UNL d   1      -1.679  -0.021  -0.336  0.00  0.00    -0.274 OA
ATOM      6  C   UNL d   1      -0.778   0.913  -0.790  0.00  0.00     0.299 A 
ATOM      7  O   UNL d   1      -1.035   2.049  -1.151  0.00  0.00    -0.259 OA
ATOM      8  C   UNL d   1       0.547   0.311  -0.759  0.00  0.00     0.052 A 
ATOM      9  C   UNL d   1       0.443  -0.966  -0.251  0.00  0.00     0.014 A 
ATOM     10  C   UNL d   1       1.750   0.863  -1.169  0.00  0.00     0.018 A 
ATOM     11  C   UNL d   1       1.579  -1.744  -0.087  0.00  0.00     0.015 A 
ATOM     12  C   UNL d   1       2.813  -1.210  -0.486  0.00  0.00     0.001 A 
ATOM     13  C   UNL d   1       2.896   0.080  -1.038  0.00  0.00     0.001 A 
ENDBRANCH   3   4
ENDBRANCH   1   3
BRANCH   1  14
ATOM     14  O   UNL d   1      -3.772  -1.586   0.026  0.00  0.00    -0.276 OA
BRANCH  14  15
ATOM     15  C   UNL d   1      -5.156  -1.689  -0.245  0.00  0.00     0.080 A 
ATOM     16  C   UNL d   1      -5.732  -2.789  -0.880  0.00  0.00     0.053 A 
ATOM     17  C   UNL d   1      -7.086  -2.753  -1.252  0.00  0.00     0.050 A 
ATOM     18  C   UNL d   1      -7.845  -1.606  -0.962  0.00  0.00     0.016 A 
ATOM     19  C   UNL d   1      -7.260  -0.510  -0.325  0.00  0.00     0.004 A 
ATOM     20  C   UNL d   1      -5.911  -0.548   0.026  0.00  0.00     0.037 A 
BRANCH  17  21
ATOM     21  C   UNL d   1      -7.723  -3.901  -1.996  0.00  0.00     0.417 C 
ATOM     22  F   UNL d   1      -6.877  -4.941  -2.232  0.00  0.00    -0.166 F 
ATOM     23  F   UNL d   1      -8.790  -4.429  -1.334  0.00  0.00    -0.166 F 
ATOM     24  F   UNL d   1      -8.195  -3.524  -3.218  0.00  0.00    -0.166 F 
ENDBRANCH  17  21
ENDBRANCH  14  15
ENDBRANCH   1  14
TORSDOF 5
