REMARK  4 active torsions:
REMARK  status: ('A' for Active; 'I' for Inactive)
REMARK    1  A    between atoms: C_3  and  C_5 
REMARK    2  A    between atoms: N_6  and  C_4 
REMARK    3  A    between atoms: C_15  and  C_7 
REMARK    4  A    between atoms: C_12  and  C_16 
ROOT
ATOM      1  N   UNL d   1       1.221   0.116   0.175  0.00  0.00    -0.319 N 
ATOM      2  HN  UNL d   1       2.219   0.235   0.352  1.00  0.00     0.169 HD
ATOM      3  C   UNL d   1       0.542  -1.002   0.034  0.00  0.00     0.182 A 
ATOM      4  C   UNL d   1       0.255   1.088   0.026  0.00  0.00     0.138 A 
ATOM      5  N   UNL d   1      -0.981   0.597  -0.162  0.00  0.00    -0.242 N 
ATOM      6  HN  UNL d   1      -1.853   1.114  -0.274  1.00  0.00     0.196 HD
ATOM      7  O   UNL d   1      -0.793  -0.780  -0.166  0.00  0.00    -0.217 OA
ENDROOT
BRANCH   4   8
ATOM      8  C   UNL d   1       0.576   2.512   0.006  0.00  0.00     0.011 A 
ATOM      9  C   UNL d   1       1.907   2.943   0.122  0.00  0.00     0.031 A 
ATOM     10  C   UNL d   1       2.240   4.306   0.024  0.00  0.00     0.048 A 
ATOM     11  C   UNL d   1       1.214   5.242  -0.174  0.00  0.00     0.016 A 
ATOM     12  C   UNL d   1      -0.113   4.829  -0.270  0.00  0.00     0.002 A 
ATOM     13  C   UNL d   1      -0.430   3.472  -0.180  0.00  0.00     0.015 A 
BRANCH  10  14
ATOM     14  C   UNL d   1       3.674   4.769   0.102  0.00  0.00     0.417 C 
ATOM     15  F   UNL d   1       4.566   3.759   0.297  0.00  0.00    -0.166 F 
ATOM     16  F   UNL d   1       4.074   5.405  -1.034  0.00  0.00    -0.166 F 
ATOM     17  F   UNL d   1       3.882   5.652   1.117  0.00  0.00    -0.166 F 
ENDBRANCH  10  14
ENDBRANCH   4   8
BRANCH   3  18
ATOM     18  C   UNL d   1       1.163  -2.358   0.073  0.00  0.00     0.027 A 
ATOM     19  C   UNL d   1       2.541  -2.619   0.339  0.00  0.00     0.060 A 
ATOM     20  C   UNL d   1       2.808  -3.972   0.321  0.00  0.00     0.144 A 
ATOM     21  S   UNL d   1       1.436  -4.910  -0.038  0.00  0.00    -0.077 SA
ATOM     22  C   UNL d   1       0.446  -3.514  -0.155  0.00  0.00     0.068 A 
BRANCH  20  23
ATOM     23  N   UNL d   1       4.082  -4.600   0.572  0.00  0.00    -0.108 N 
ATOM     24  O   UNL d   1       5.021  -3.839   0.843  0.00  0.00    -0.531 OA
ATOM     25  O   UNL d   1       4.152  -5.833   0.504  0.00  0.00    -0.531 OA
ENDBRANCH  20  23
ENDBRANCH   3  18
TORSDOF 4
