REMARK  5 active torsions:
REMARK  status: ('A' for Active; 'I' for Inactive)
REMARK    1  A    between atoms: C_14  and  N_1 
REMARK    2  A    between atoms: C_13  and  C_2 
REMARK    3  A    between atoms: C_15  and  C_8 
REMARK    4  A    between atoms: C_12  and  N_17 
REMARK    5  A    between atoms: C_16  and  N_17 
ROOT
ATOM      1  C   UNL d   1       2.577  -1.260  -0.159  0.00  0.00     0.068 C 
ATOM      2  C   UNL d   1       2.615  -2.602  -0.214  0.00  0.00     0.093 C 
ENDROOT
BRANCH   1   3
ATOM      3  C   UNL d   1       1.345  -0.567  -0.180  0.00  0.00     0.139 A 
ATOM      4  N   UNL d   1       0.581  -0.316  -1.323  0.00  0.00    -0.225 N 
ATOM      5  N   UNL d   1      -0.597   0.222  -0.909  0.00  0.00     0.001 NA
ATOM      6  N   UNL d   1      -0.500   0.386   0.398  0.00  0.00    -0.007 NA
ATOM      7  N   UNL d   1       0.687  -0.091   0.863  0.00  0.00    -0.270 N 
ATOM      8  HN  UNL d   1       1.008  -0.082   1.831  1.00  0.00     0.185 HD
BRANCH   4   9
ATOM      9  C   UNL d   1       0.824  -0.485  -2.716  0.00  0.00     0.056 A 
ATOM     10  C   UNL d   1      -0.269  -0.417  -3.603  0.00  0.00     0.033 A 
ATOM     11  C   UNL d   1      -0.080  -0.551  -4.981  0.00  0.00     0.026 A 
ATOM     12  C   UNL d   1       1.202  -0.734  -5.486  0.00  0.00     0.034 A 
ATOM     13  C   UNL d   1       2.295  -0.791  -4.622  0.00  0.00     0.026 A 
ATOM     14 CL   UNL d   1       1.442  -0.877  -7.183  0.00  0.00    -0.084 Cl
ATOM     15  C   UNL d   1       2.110  -0.672  -3.238  0.00  0.00     0.033 A 
ENDBRANCH   4   9
ENDBRANCH   1   3
BRANCH   2  16
ATOM     16  N   UNL d   1       3.726  -3.394  -0.030  0.00  0.00    -0.351 N 
ATOM     17  H   UNL d   1       4.518  -2.926   0.403  0.00  0.00     0.166 HD
BRANCH  16  18
ATOM     18  C   UNL d   1       3.813  -4.747  -0.085  0.00  0.00     0.128 A 
ATOM     19  C   UNL d   1       2.938  -5.583  -0.811  0.00  0.00     0.085 A 
ATOM     20  C   UNL d   1       3.390  -6.862  -0.585  0.00  0.00     0.087 A 
ATOM     21  O   UNL d   1       4.497  -6.792   0.208  0.00  0.00    -0.240 OA
ATOM     22  N   UNL d   1       4.770  -5.469   0.506  0.00  0.00    -0.245 N 
ATOM     23  HN  UNL d   1       5.547  -5.115   1.066  1.00  0.00     0.196 HD
BRANCH  20  24
ATOM     24  C   UNL d   1       2.952  -8.221  -1.056  0.00  0.00     0.000 C 
ATOM     25  C   UNL d   1       3.798  -8.634  -2.272  0.00  0.00     0.021 C 
ATOM     26  C   UNL d   1       3.112  -9.272   0.057  0.00  0.00     0.021 C 
ATOM     27  C   UNL d   1       1.467  -8.184  -1.470  0.00  0.00     0.021 C 
ENDBRANCH  20  24
ENDBRANCH  16  18
ENDBRANCH   2  16
TORSDOF 5
