REMARK  5 active torsions:
REMARK  status: ('A' for Active; 'I' for Inactive)
REMARK    1  A    between atoms: S_15  and  C_3 
REMARK    2  A    between atoms: C_8  and  N_9 
REMARK    3  A    between atoms: C_17  and  S_15 
REMARK    4  A    between atoms: C_16  and  C_17 
REMARK    5  A    between atoms: C_19  and  C_16 
ROOT
ATOM      1  C   UNL d   1       0.048   1.081   0.240  0.00  0.00     0.166 A 
ATOM      2  S   UNL d   1      -1.528   0.501  -0.169  0.00  0.00    -0.026 SA
ATOM      3  C   UNL d   1      -0.934  -1.082   0.084  0.00  0.00     0.130 A 
ATOM      4  N   UNL d   1       0.896   0.108   0.519  0.00  0.00    -0.278 N 
ATOM      5  HN  UNL d   1       1.870   0.269   0.776  1.00  0.00     0.189 HD
ATOM      6  N   UNL d   1       0.332  -1.144   0.426  0.00  0.00    -0.286 N 
ATOM      7  HN  UNL d   1       0.836  -2.013   0.601  1.00  0.00     0.188 HD
ATOM      8  N   UNL d   1       0.317   2.412   0.264  0.00  0.00    -0.335 N 
ATOM      9  H   UNL d   1      -0.441   3.051   0.058  0.00  0.00     0.168 HD
ENDROOT
BRANCH   8  10
ATOM     10  C   UNL d   1       1.585   2.978  -0.004  0.00  0.00     0.040 A 
ATOM     11  C   UNL d   1       2.498   2.331  -0.857  0.00  0.00     0.037 A 
ATOM     12  C   UNL d   1       3.750   2.879  -1.174  0.00  0.00    -0.054 A 
ATOM     13  C   UNL d   1       4.666   2.122  -2.094  0.00  0.00     0.049 C 
ATOM     14  C   UNL d   1       4.107   4.120  -0.627  0.00  0.00    -0.056 A 
ATOM     15  C   UNL d   1       3.214   4.763   0.243  0.00  0.00     0.016 A 
ATOM     16  C   UNL d   1       5.425   4.767  -0.952  0.00  0.00     0.049 C 
ATOM     17  C   UNL d   1       1.963   4.204   0.570  0.00  0.00    -0.035 A 
ATOM     18  C   UNL d   1       1.104   4.951   1.554  0.00  0.00     0.050 C 
ENDBRANCH   8  10
BRANCH   3  19
ATOM     19  S   UNL d   1      -1.903  -2.528  -0.084  0.00  0.00    -0.096 SA
BRANCH  19  20
ATOM     20  C   UNL d   1      -1.139  -3.544   1.227  0.00  0.00     0.165 C 
BRANCH  20  21
ATOM     21  C   UNL d   1      -1.347  -2.923   2.602  0.00  0.00     0.169 C 
ATOM     22  O   UNL d   1      -2.328  -2.231   2.869  0.00  0.00    -0.291 OA
BRANCH  21  23
ATOM     23  C   UNL d   1      -0.354  -3.200   3.689  0.00  0.00     0.010 A 
ATOM     24  C   UNL d   1       0.707  -4.102   3.548  0.00  0.00     0.015 A 
ATOM     25  C   UNL d   1       1.604  -4.303   4.604  0.00  0.00     0.001 A 
ATOM     26  C   UNL d   1       1.442  -3.617   5.806  0.00  0.00     0.000 A 
ATOM     27  C   UNL d   1       0.381  -2.730   5.961  0.00  0.00     0.001 A 
ATOM     28  C   UNL d   1      -0.513  -2.523   4.908  0.00  0.00     0.015 A 
ENDBRANCH  21  23
ENDBRANCH  20  21
ENDBRANCH  19  20
ENDBRANCH   3  19
TORSDOF 5
