REMARK  3 active torsions:
REMARK  status: ('A' for Active; 'I' for Inactive)
REMARK    1  A    between atoms: C_2  and  C_1 
REMARK    2  A    between atoms: C_15  and  C_4 
REMARK    3  A    between atoms: C_14  and  C_7 
ROOT
ATOM      1  C   UNL d   1      -0.254  -2.540  -0.046  0.00  0.00     0.183 A 
ATOM      2  C   UNL d   1       0.105  -4.651  -0.116  0.00  0.00     0.175 A 
ATOM      3  O   UNL d   1       0.779  -3.457  -0.045  0.00  0.00    -0.272 OA
ATOM      4  N   UNL d   1      -1.430  -3.138  -0.097  0.00  0.00    -0.277 N 
ATOM      5  HN  UNL d   1      -2.341  -2.680  -0.107  1.00  0.00     0.189 HD
ATOM      6  N   UNL d   1      -1.200  -4.488  -0.132  0.00  0.00    -0.277 N 
ATOM      7  HN  UNL d   1      -1.905  -5.224  -0.164  1.00  0.00     0.189 HD
ENDROOT
BRANCH   1   8
ATOM      8  C   UNL d   1      -0.105  -1.116  -0.007  0.00  0.00     0.082 A 
ATOM      9  S   UNL d   1       1.427  -0.351   0.008  0.00  0.00    -0.065 SA
ATOM     10  C   UNL d   1       0.667   1.196   0.005  0.00  0.00     0.085 A 
ATOM     11  N   UNL d   1      -0.649   1.158   0.046  0.00  0.00    -0.352 N 
ATOM     12  C   UNL d   1      -1.103  -0.153   0.012  0.00  0.00     0.027 A 
ATOM     13  HN  UNL d   1      -1.251   1.980   0.097  1.00  0.00     0.166 HD
ATOM     14  C   UNL d   1      -2.576  -0.376  -0.007  0.00  0.00     0.070 C 
BRANCH  10  15
ATOM     15  C   UNL d   1       1.452   2.445  -0.016  0.00  0.00    -0.002 A 
ATOM     16  C   UNL d   1       0.925   3.595   0.604  0.00  0.00     0.024 A 
ATOM     17  C   UNL d   1       1.643   4.780   0.549  0.00  0.00    -0.022 A 
ATOM     18  C   UNL d   1       1.351   6.098   1.157  0.00  0.00     0.068 C 
ATOM     19  C   UNL d   1       2.863   4.841  -0.100  0.00  0.00     0.075 A 
ATOM     20  C   UNL d   1       2.387   6.941   0.411  0.00  0.00     0.180 C 
ATOM     21  O   UNL d   1       3.450   6.078  -0.060  0.00  0.00    -0.350 OA
ATOM     22  C   UNL d   1       3.417   3.739  -0.714  0.00  0.00     0.038 A 
ATOM     23  C   UNL d   1       2.701   2.537  -0.676  0.00  0.00     0.017 A 
ENDBRANCH  10  15
ENDBRANCH   1   8
BRANCH   2  24
ATOM     24  C   UNL d   1       0.889  -5.885  -0.153  0.00  0.00     0.028 A 
ATOM     25  C   UNL d   1       0.432  -7.035  -0.871  0.00  0.00    -0.011 A 
ATOM     26  C   UNL d   1       1.171  -8.242  -0.764  0.00  0.00    -0.025 A 
ATOM     27  C   UNL d   1      -0.719  -7.058  -1.701  0.00  0.00     0.013 A 
ATOM     28  C   UNL d   1       0.731  -9.401  -1.428  0.00  0.00     0.012 A 
ATOM     29  C   UNL d   1       2.340  -8.282   0.008  0.00  0.00     0.012 A 
ATOM     30  C   UNL d   1      -0.419  -9.390  -2.216  0.00  0.00     0.001 A 
ATOM     31  C   UNL d   1      -1.139  -8.215  -2.360  0.00  0.00     0.001 A 
ATOM     32  C   UNL d   1       2.798  -7.148   0.674  0.00  0.00     0.002 A 
ATOM     33  C   UNL d   1       2.079  -5.959   0.594  0.00  0.00     0.017 A 
ENDBRANCH   2  24
TORSDOF 3
