REMARK  5 active torsions:
REMARK  status: ('A' for Active; 'I' for Inactive)
REMARK       I    between atoms: N_2  and  C_1 
REMARK       I    between atoms: N_7  and  C_1 
REMARK    1  A    between atoms: C_3  and  N_2 
REMARK    2  A    between atoms: C_18  and  N_7 
REMARK    3  A    between atoms: O_14  and  C_8 
REMARK    4  A    between atoms: C_9  and  C_10 
REMARK    5  A    between atoms: C_20  and  O_14 
ROOT
ATOM      1  N   UNL d   1      -3.399  -0.164  -1.789  0.00  0.00    -0.344 N 
ATOM      2  HN  UNL d   1      -4.049   0.301  -2.424  1.00  0.00     0.167 HD
ATOM      3  C   UNL d   1      -3.841  -0.988  -0.816  0.00  0.00     0.148 A 
ATOM      4  C   UNL d   1      -1.121  -0.613  -1.096  0.00  0.00     0.051 A 
ATOM      5  C   UNL d   1      -2.067   0.023  -1.890  0.00  0.00     0.119 A 
ATOM      6  C   UNL d   1      -2.987  -1.670   0.037  0.00  0.00     0.059 A 
ATOM      7  C   UNL d   1      -1.605  -1.469  -0.098  0.00  0.00     0.035 A 
ENDROOT
BRANCH   3   8
ATOM      8  O   UNL d   1      -5.210  -1.148  -0.661  0.00  0.00    -0.294 OA
BRANCH   8   9
ATOM      9  C   UNL d   1      -6.003  -0.062  -0.979  0.00  0.00     0.077 A 
ATOM     10  C   UNL d   1      -7.246  -0.298  -1.563  0.00  0.00     0.038 A 
ATOM     11  C   UNL d   1      -8.104   0.776  -1.859  0.00  0.00     0.011 A 
ATOM     12  C   UNL d   1      -7.744   2.109  -1.572  0.00  0.00    -0.050 A 
ATOM     13  C   UNL d   1      -6.481   2.316  -0.996  0.00  0.00     0.011 A 
ATOM     14  C   UNL d   1      -5.636   1.251  -0.683  0.00  0.00     0.038 A 
BRANCH  12  15
ATOM     15  C   UNL d   1      -8.701   3.280  -1.862  0.00  0.00    -0.024 C 
ATOM     16  C   UNL d   1      -8.113   4.653  -1.453  0.00  0.00     0.019 C 
ATOM     17  C   UNL d   1      -9.032   3.346  -3.366  0.00  0.00     0.019 C 
ATOM     18  C   UNL d   1     -10.016   3.102  -1.073  0.00  0.00     0.019 C 
ENDBRANCH  12  15
ENDBRANCH   8   9
ENDBRANCH   3   8
BRANCH   4  19
ATOM     19  N   UNL d   1       0.276  -0.456  -1.265  0.00  0.00    -0.307 N 
ATOM     20  C   UNL d   1       0.875   0.130  -2.373  0.00  0.00     0.325 C 
ATOM     21  N   UNL d   1       2.258  -0.013  -2.330  0.00  0.00    -0.303 N 
ATOM     22  O   UNL d   1       0.280   0.649  -3.300  0.00  0.00    -0.247 OA
ATOM     23  H   UNL d   1       2.594  -0.857  -1.886  0.00  0.00     0.171 HD
ATOM     24  H   UNL d   1       0.876  -0.882  -0.573  0.00  0.00     0.170 HD
BRANCH  21  25
ATOM     25  C   UNL d   1       2.983   0.368  -3.444  0.00  0.00     0.077 A 
ATOM     26  S   UNL d   1       4.045  -0.818  -4.027  0.00  0.00    -0.084 SA
ATOM     27  C   UNL d   1       4.463   0.156  -5.374  0.00  0.00     0.052 A 
ATOM     28  C   UNL d   1       3.881   1.404  -5.305  0.00  0.00     0.010 A 
ATOM     29  C   UNL d   1       2.991   1.519  -4.197  0.00  0.00     0.038 A 
ENDBRANCH  21  25
ENDBRANCH   4  19
TORSDOF 5
