REMARK  3 active torsions:
REMARK  status: ('A' for Active; 'I' for Inactive)
REMARK    1  A    between atoms: C_6  and  N_1 
REMARK    2  A    between atoms: C_7  and  C_6 
REMARK       I    between atoms: N_8  and  C_7 
REMARK    3  A    between atoms: C_17  and  C_9 
ROOT
ATOM      1  C   UNL d   1       3.909   1.416  -0.280  0.00  0.00     0.238 C 
ATOM      2  N   UNL d   1       3.207   2.524   0.197  0.00  0.00    -0.347 N 
ATOM      3  C   UNL d   1       2.023   4.949   1.123  0.00  0.00    -0.049 C 
ATOM      4  C   UNL d   1       2.476   4.870  -0.138  0.00  0.00     0.001 C 
ATOM      5  C   UNL d   1       3.101   3.646  -0.740  0.00  0.00     0.153 C 
ATOM      6  C   UNL d   1       2.212   2.456   1.269  0.00  0.00     0.130 C 
ATOM      7  O   UNL d   1       4.399   1.425  -1.415  0.00  0.00    -0.272 OA
ATOM      8  C   UNL d   1       2.101   3.770   2.048  0.00  0.00     0.059 C 
ENDROOT
BRANCH   1   9
ATOM      9  C   UNL d   1       4.074   0.172   0.605  0.00  0.00     0.238 C 
BRANCH   9  10
ATOM     10  N   UNL d   1       3.010  -0.794   0.409  0.00  0.00    -0.271 N 
ATOM     11  C   UNL d   1       2.186  -1.241   1.404  0.00  0.00     0.262 C 
ATOM     12  C   UNL d   1       1.340  -2.279   0.816  0.00  0.00     0.048 A 
ATOM     13  O   UNL d   1       2.130  -0.893   2.569  0.00  0.00    -0.267 OA
ATOM     14  C   UNL d   1       0.303  -3.018   1.355  0.00  0.00     0.018 A 
ATOM     15  C   UNL d   1       1.724  -2.424  -0.503  0.00  0.00     0.048 A 
ATOM     16  C   UNL d   1      -0.395  -3.867   0.489  0.00  0.00     0.001 A 
ATOM     17  C   UNL d   1      -0.042  -3.962  -0.873  0.00  0.00     0.001 A 
ATOM     18  C   UNL d   1       1.048  -3.248  -1.381  0.00  0.00     0.018 A 
ATOM     19  C   UNL d   1       2.892  -1.570  -0.714  0.00  0.00     0.262 C 
ATOM     20  O   UNL d   1       3.612  -1.649  -1.684  0.00  0.00    -0.267 OA
ENDBRANCH   9  10
ENDBRANCH   1   9
BRANCH   3  21
ATOM     21  C   UNL d   1       1.421   6.184   1.639  0.00  0.00    -0.030 A 
ATOM     22  C   UNL d   1       0.057   6.438   1.450  0.00  0.00     0.012 A 
ATOM     23  C   UNL d   1      -0.523   7.598   1.968  0.00  0.00     0.001 A 
ATOM     24  C   UNL d   1       0.257   8.514   2.672  0.00  0.00     0.000 A 
ATOM     25  C   UNL d   1       1.620   8.277   2.848  0.00  0.00     0.001 A 
ATOM     26  C   UNL d   1       2.201   7.116   2.332  0.00  0.00     0.012 A 
ENDBRANCH   3  21
TORSDOF 3
