REMARK  7 active torsions:
REMARK  status: ('A' for Active; 'I' for Inactive)
REMARK    1  A    between atoms: C_2  and  S_1 
REMARK    2  A    between atoms: N_12  and  S_1 
REMARK    3  A    between atoms: C_3  and  C_4 
REMARK    4  A    between atoms: C_16  and  C_5 
REMARK    5  A    between atoms: C_15  and  C_6 
REMARK    6  A    between atoms: O_25  and  C_15 
REMARK    7  A    between atoms: O_24  and  C_16 
ROOT
ATOM      1  C   UNL d   1      -1.909   3.985  -2.296  0.00  0.00     0.011 A 
ATOM      2  C   UNL d   1      -1.556   4.749  -3.445  0.00  0.00     0.073 A 
ATOM      3  C   UNL d   1      -3.295   3.772  -2.034  0.00  0.00     0.073 A 
ATOM      4  N   UNL d   1      -3.889   5.031  -3.996  0.00  0.00    -0.362 N 
ATOM      5  HN  UNL d   1      -4.608   5.408  -4.615  1.00  0.00     0.165 HD
ATOM      6  C   UNL d   1      -4.241   4.295  -2.922  0.00  0.00     0.022 A 
ATOM      7  C   UNL d   1      -2.575   5.271  -4.253  0.00  0.00     0.022 A 
ATOM      8  C   UNL d   1      -5.723   4.073  -2.804  0.00  0.00     0.069 C 
ATOM      9  C   UNL d   1      -2.386   6.124  -5.473  0.00  0.00     0.069 C 
ENDROOT
BRANCH   1  10
ATOM     10  C   UNL d   1      -0.891   3.417  -1.380  0.00  0.00    -0.015 A 
ATOM     11  C   UNL d   1      -0.912   3.432   0.057  0.00  0.00     0.045 A 
ATOM     12  C   UNL d   1       0.122   2.719   0.635  0.00  0.00     0.116 A 
ATOM     13  S   UNL d   1       1.182   2.101  -0.547  0.00  0.00    -0.088 SA
ATOM     14  C   UNL d   1       0.219   2.721  -1.826  0.00  0.00     0.063 A 
BRANCH  12  15
ATOM     15  S   UNL d   1       0.532   2.393   2.334  0.00  0.00     0.250 S 
ATOM     16  O   UNL d   1      -0.664   2.737   3.078  0.00  0.00    -0.205 OA
ATOM     17  O   UNL d   1       1.777   3.097   2.556  0.00  0.00    -0.205 OA
BRANCH  15  18
ATOM     18  N   UNL d   1       0.814   0.713   2.565  0.00  0.00    -0.205 NA
ATOM     19  C   UNL d   1      -0.414  -0.135   2.406  0.00  0.00     0.117 C 
ATOM     20  C   UNL d   1      -0.056  -1.620   2.309  0.00  0.00     0.089 C 
ATOM     21  S   UNL d   1       0.732  -2.236   3.833  0.00  0.00    -0.167 SA
ATOM     22  C   UNL d   1       2.050  -0.984   3.941  0.00  0.00     0.089 C 
ATOM     23  C   UNL d   1       1.502   0.442   3.872  0.00  0.00     0.117 C 
ENDBRANCH  15  18
ENDBRANCH  12  15
ENDBRANCH   1  10
BRANCH   2  24
ATOM     24  C   UNL d   1      -0.147   5.094  -3.763  0.00  0.00     0.295 C 
ATOM     25  O   UNL d   1       0.633   5.586  -2.962  0.00  0.00    -0.259 OA
BRANCH  24  26
ATOM     26  O   UNL d   1       0.128   4.784  -5.057  0.00  0.00    -0.322 OA
ATOM     27  C   UNL d   1       1.419   5.212  -5.510  0.00  0.00     0.213 C 
ENDBRANCH  24  26
ENDBRANCH   2  24
BRANCH   3  28
ATOM     28  C   UNL d   1      -3.774   2.932  -0.905  0.00  0.00     0.295 C 
ATOM     29  O   UNL d   1      -3.357   1.811  -0.653  0.00  0.00    -0.259 OA
BRANCH  28  30
ATOM     30  O   UNL d   1      -4.713   3.609  -0.196  0.00  0.00    -0.322 OA
ATOM     31  C   UNL d   1      -5.286   2.889   0.901  0.00  0.00     0.213 C 
ENDBRANCH  28  30
ENDBRANCH   3  28
TORSDOF 7
