REMARK  7 active torsions:
REMARK  status: ('A' for Active; 'I' for Inactive)
REMARK    1  A    between atoms: C_2  and  C_1 
REMARK    2  A    between atoms: C_4  and  C_1 
REMARK    3  A    between atoms: O_9  and  C_2 
REMARK    4  A    between atoms: C_8  and  C_3 
REMARK    5  A    between atoms: C_5  and  C_4 
REMARK    6  A    between atoms: O_11  and  C_5 
REMARK    7  A    between atoms: O_16  and  C_10 
ROOT
ATOM      1  C   UNL d   1       0.965  -0.560   0.643  0.00  0.00     0.026 C 
ATOM      2  C   UNL d   1       0.303  -0.889  -0.487  0.00  0.00     0.026 C 
ENDROOT
BRANCH   1   3
ATOM      3  C   UNL d   1       0.231  -0.373   1.927  0.00  0.00     0.172 C 
ATOM      4  O   UNL d   1      -0.721  -1.017   2.313  0.00  0.00    -0.646 OA
BRANCH   3   5
ATOM      5  O   UNL d   1       0.823   0.592   2.659  0.00  0.00    -0.773 OA
ATOM      6  H   UNL d   1       1.463   0.127   3.255  0.00  0.00     0.167 HD
ENDBRANCH   3   5
ENDBRANCH   1   3
BRANCH   1   7
ATOM      7  C   UNL d   1       2.455  -0.326   0.581  0.00  0.00     0.155 C 
BRANCH   7   8
ATOM      8  C   UNL d   1       3.273  -0.806   1.769  0.00  0.00     0.143 C 
ATOM      9  O   UNL d   1       2.890  -0.794   2.935  0.00  0.00    -0.650 OA
BRANCH   8  10
ATOM     10  O   UNL d   1       4.536  -1.167   1.445  0.00  0.00    -0.776 OA
ATOM     11  H   UNL d   1       4.763  -1.109   0.497  0.00  0.00     0.167 HD
ENDBRANCH   8  10
ENDBRANCH   7   8
ENDBRANCH   1   7
BRANCH   2  12
ATOM     12  C   UNL d   1      -1.147  -0.967  -0.656  0.00  0.00    -0.035 A 
ATOM     13  C   UNL d   1      -1.845   0.184  -1.036  0.00  0.00     0.014 A 
ATOM     14  C   UNL d   1      -3.233   0.152  -1.187  0.00  0.00     0.037 A 
ATOM     15  C   UNL d   1      -3.935  -1.031  -0.954  0.00  0.00     0.068 A 
ATOM     16  C   UNL d   1      -3.231  -2.185  -0.600  0.00  0.00     0.037 A 
ATOM     17  C   UNL d   1      -1.841  -2.159  -0.452  0.00  0.00     0.014 A 
BRANCH  15  18
ATOM     18  O   UNL d   1      -5.292  -1.184  -1.034  0.00  0.00    -0.356 OA
ATOM     19  C   UNL d   1      -6.051  -0.007  -1.283  0.00  0.00     0.210 C 
ENDBRANCH  15  18
ENDBRANCH   2  12
TORSDOF 7
