REMARK  7 active torsions:
REMARK  status: ('A' for Active; 'I' for Inactive)
REMARK    1  A    between atoms: C_7  and  C_1 
REMARK    2  A    between atoms: C_14  and  N_2 
REMARK    3  A    between atoms: C_8  and  C_5 
REMARK       I    between atoms: C_9  and  N_13 
REMARK    4  A    between atoms: C_10  and  C_9 
REMARK    5  A    between atoms: C_12  and  C_11 
REMARK    6  A    between atoms: O_26  and  C_12 
REMARK    7  A    between atoms: N_13  and  C_25 
ROOT
ATOM      1  C   UNL d   1       2.029   1.369   0.167  0.00  0.00     0.057 A 
ATOM      2  C   UNL d   1       3.078   1.026  -0.691  0.00  0.00     0.034 A 
ATOM      3  C   UNL d   1       2.160   2.494   0.990  0.00  0.00     0.034 A 
ATOM      4  C   UNL d   1       4.390   2.913   0.129  0.00  0.00     0.035 A 
ATOM      5  C   UNL d   1       4.256   1.785  -0.693  0.00  0.00     0.032 A 
ATOM      6  C   UNL d   1       3.335   3.250   0.976  0.00  0.00     0.032 A 
ENDROOT
BRANCH   1   7
ATOM      7  N   UNL d   1       0.807   0.645   0.200  0.00  0.00    -0.251 N 
ATOM      8  C   UNL d   1       0.524  -0.672  -0.080  0.00  0.00     0.142 C 
ATOM      9  C   UNL d   1      -0.855  -0.771  -0.133  0.00  0.00     0.072 C 
ATOM     10  C   UNL d   1      -1.349   0.499   0.237  0.00  0.00     0.134 C 
ATOM     11  N   UNL d   1      -0.330   1.324   0.524  0.00  0.00    -0.289 N 
ATOM     12  HN  UNL d   1      -0.393   2.268   0.906  1.00  0.00     0.187 HD
BRANCH   8  13
ATOM     13  C   UNL d   1       1.522  -1.747  -0.201  0.00  0.00     0.434 C 
ATOM     14  F   UNL d   1       2.744  -1.451   0.293  0.00  0.00    -0.165 F 
ATOM     15  F   UNL d   1       1.111  -2.859   0.465  0.00  0.00    -0.165 F 
ATOM     16  F   UNL d   1       1.689  -2.115  -1.496  0.00  0.00    -0.165 F 
ENDBRANCH   8  13
BRANCH  10  17
ATOM     17  C   UNL d   1      -2.799   0.896   0.353  0.00  0.00     0.434 C 
ATOM     18  F   UNL d   1      -2.984   2.198   0.701  0.00  0.00    -0.165 F 
ATOM     19  F   UNL d   1      -3.455   0.712  -0.826  0.00  0.00    -0.165 F 
ATOM     20  F   UNL d   1      -3.452   0.142   1.277  0.00  0.00    -0.165 F 
ENDBRANCH  10  17
ENDBRANCH   1   7
BRANCH   4  21
ATOM     21  N   UNL d   1       5.590   3.650   0.022  0.00  0.00    -0.323 N 
ATOM     22  C   UNL d   1       5.888   4.837   0.660  0.00  0.00     0.257 C 
ATOM     23  O   UNL d   1       5.136   5.401   1.452  0.00  0.00    -0.267 OA
ATOM     24  H   UNL d   1       6.317   3.191  -0.513  0.00  0.00     0.169 HD
BRANCH  22  25
ATOM     25  C   UNL d   1       7.177   5.553   0.352  0.00  0.00     0.049 A 
ATOM     26  C   UNL d   1       8.383   5.033  -0.152  0.00  0.00     0.053 A 
ATOM     27  C   UNL d   1       9.522   5.871  -0.230  0.00  0.00     0.019 A 
ATOM     28  C   UNL d   1       9.454   7.224   0.108  0.00  0.00     0.001 A 
ATOM     29  C   UNL d   1       8.252   7.760   0.536  0.00  0.00     0.001 A 
ATOM     30  C   UNL d   1       7.136   6.934   0.660  0.00  0.00     0.018 A 
BRANCH  26  31
ATOM     31  C   UNL d   1       8.567   3.626  -0.577  0.00  0.00     0.177 C 
ATOM     32  O   UNL d   1       7.997   2.682  -0.059  0.00  0.00    -0.646 OA
BRANCH  31  33
ATOM     33  O   UNL d   1       9.351   3.474  -1.665  0.00  0.00    -0.773 OA
ATOM     34  H   UNL d   1       9.648   4.290  -2.111  0.00  0.00     0.167 HD
ENDBRANCH  31  33
ENDBRANCH  26  31
ENDBRANCH  22  25
ENDBRANCH   4  21
TORSDOF 7
