REMARK  1 active torsions:
REMARK  status: ('A' for Active; 'I' for Inactive)
REMARK    1  A    between atoms: S_14  and  C_6 
ROOT
ATOM      1  C   UNL d   1       1.310  -0.769  -0.055  0.00  0.00     0.089 A 
ATOM      2  C   UNL d   1       0.780   0.517  -0.082  0.00  0.00     0.038 A 
ATOM      3  C   UNL d   1      -1.127  -0.855  -0.047  0.00  0.00    -0.008 A 
ATOM      4  C   UNL d   1      -0.674   0.453  -0.105  0.00  0.00    -0.029 A 
ATOM      5  S   UNL d   1       0.129  -1.994  -0.044  0.00  0.00    -0.075 SA
ATOM      6  C   UNL d   1       1.755   1.535  -0.079  0.00  0.00     0.081 A 
ATOM      7  N   UNL d   1       2.609  -1.114  -0.031  0.00  0.00    -0.346 N 
ATOM      8  HN  UNL d   1       2.937  -2.080  -0.014  1.00  0.00     0.167 HD
ATOM      9  N   UNL d   1       3.069   1.229  -0.055  0.00  0.00    -0.346 N 
ATOM     10  HN  UNL d   1       3.777   1.963  -0.054  1.00  0.00     0.167 HD
ATOM     11  C   UNL d   1      -1.649   1.601  -0.122  0.00  0.00     0.041 C 
ATOM     12  C   UNL d   1       3.422  -0.059  -0.032  0.00  0.00     0.182 A 
ATOM     13  C   UNL d   1      -2.564  -1.289  -0.003  0.00  0.00     0.051 C 
ATOM     14  C   UNL d   1      -3.102   1.151  -0.346  0.00  0.00     0.009 C 
ATOM     15  C   UNL d   1      -3.471  -0.123   0.438  0.00  0.00    -0.014 C 
ATOM     16  C   UNL d   1      -3.410   0.099   1.953  0.00  0.00     0.010 C 
ENDROOT
BRANCH   6  17
ATOM     17  S   UNL d   1       1.362   3.256  -0.111  0.00  0.00    -0.124 SA
ATOM     18  H   UNL d   1       0.239   3.190   0.607  0.00  0.00     0.108 HD
ENDBRANCH   6  17
TORSDOF 1
