REMARK  4 active torsions:
REMARK  status: ('A' for Active; 'I' for Inactive)
REMARK    1  A    between atoms: C_12  and  C_2 
REMARK    2  A    between atoms: C_5  and  O_11 
REMARK    3  A    between atoms: C_6  and  C_5 
REMARK    4  A    between atoms: O_11  and  C_16 
ROOT
ATOM      1  C   UNL d   1       2.404  -1.579   0.093  0.00  0.00    -0.008 A 
ATOM      2  C   UNL d   1       2.550  -2.383  -1.051  0.00  0.00     0.016 A 
ATOM      3  C   UNL d   1       3.421  -1.600   1.059  0.00  0.00     0.016 A 
ATOM      4  C   UNL d   1       4.667  -3.209  -0.251  0.00  0.00     0.079 A 
ATOM      5  C   UNL d   1       4.549  -2.407   0.885  0.00  0.00     0.038 A 
ATOM      6  C   UNL d   1       3.682  -3.192  -1.231  0.00  0.00     0.038 A 
ENDROOT
BRANCH   1   7
ATOM      7  C   UNL d   1       1.201  -0.768   0.264  0.00  0.00     0.063 A 
ATOM      8  N   UNL d   1       0.008  -1.105  -0.370  0.00  0.00    -0.292 N 
ATOM      9  N   UNL d   1      -0.969  -0.264  -0.074  0.00  0.00    -0.061 NA
ATOM     10  HN  UNL d   1      -0.099  -1.906  -0.992  1.00  0.00     0.183 HD
ATOM     11  S   UNL d   1      -0.483   0.959   0.956  0.00  0.00    -0.010 SA
ATOM     12  C   UNL d   1       1.129   0.376   1.042  0.00  0.00     0.096 A 
ENDBRANCH   1   7
BRANCH   4  13
ATOM     13  O   UNL d   1       5.860  -3.961  -0.330  0.00  0.00    -0.279 OA
BRANCH  13  14
ATOM     14  C   UNL d   1       5.983  -5.182  -0.989  0.00  0.00     0.268 C 
ATOM     15  O   UNL d   1       5.119  -5.772  -1.623  0.00  0.00    -0.264 OA
BRANCH  14  16
ATOM     16  C   UNL d   1       7.343  -5.747  -0.757  0.00  0.00     0.086 A 
ATOM     17  C   UNL d   1       7.932  -6.824  -1.637  0.00  0.00     0.015 A 
ATOM     18  C   UNL d   1       7.485  -7.162  -0.244  0.00  0.00     0.015 A 
ENDBRANCH  14  16
ENDBRANCH  13  14
ENDBRANCH   4  13
TORSDOF 4
