REMARK  4 active torsions:
REMARK  status: ('A' for Active; 'I' for Inactive)
REMARK    1  A    between atoms: C_2  and  C_1 
REMARK    2  A    between atoms: C_6  and  C_14 
REMARK    3  A    between atoms: O_10  and  C_13 
REMARK    4  A    between atoms: C_14  and  O_10 
ROOT
ATOM      1  O   UNL d   1      -2.119  -3.217   3.497  0.00  0.00    -0.347 OA
ENDROOT
BRANCH   1   2
ATOM      2  C   UNL d   1      -1.405  -2.535   2.549  0.00  0.00     0.069 A 
ATOM      3  C   UNL d   1      -1.803  -2.347   1.224  0.00  0.00     0.037 A 
ATOM      4  C   UNL d   1      -1.034  -1.559   0.362  0.00  0.00     0.018 A 
ATOM      5  C   UNL d   1       0.146  -0.968   0.820  0.00  0.00     0.009 A 
ATOM      6  C   UNL d   1       0.586  -1.219   2.125  0.00  0.00     0.018 A 
ATOM      7  C   UNL d   1      -0.191  -2.001   2.983  0.00  0.00     0.037 A 
BRANCH   5   8
ATOM      8  C   UNL d   1       0.945  -0.055  -0.042  0.00  0.00     0.155 C 
ATOM      9  O   UNL d   1       2.149   0.086   0.168  0.00  0.00    -0.293 OA
ATOM     10  C   UNL d   1       0.246   0.689  -1.149  0.00  0.00     0.096 C 
ENDBRANCH   5   8
ENDBRANCH   1   2
BRANCH   1  11
ATOM     11  C   UNL d   1      -3.516  -3.348   3.237  0.00  0.00     0.214 C 
BRANCH  11  12
ATOM     12  C   UNL d   1      -4.229  -3.637   4.533  0.00  0.00    -0.028 A 
ATOM     13  C   UNL d   1      -4.578  -2.588   5.397  0.00  0.00     0.051 A 
ATOM     14  C   UNL d   1      -5.261  -2.856   6.581  0.00  0.00     0.119 A 
ATOM     15  F   UNL d   1      -5.605  -1.841   7.384  0.00  0.00    -0.206 F 
ATOM     16  C   UNL d   1      -5.599  -4.154   6.936  0.00  0.00     0.084 A 
ATOM     17  C   UNL d   1      -5.233  -5.192   6.092  0.00  0.00     0.119 A 
ATOM     18  C   UNL d   1      -4.551  -4.950   4.902  0.00  0.00     0.051 A 
ATOM     19  F   UNL d   1      -5.549  -6.451   6.422  0.00  0.00    -0.206 F 
ENDBRANCH  11  12
ENDBRANCH   1  11
TORSDOF 4
