REMARK  3 active torsions:
REMARK  status: ('A' for Active; 'I' for Inactive)
REMARK    1  A    between atoms: N_2  and  S_1 
REMARK    2  A    between atoms: C_3  and  S_1 
REMARK    3  A    between atoms: N_12  and  C_11 
ROOT
ATOM      1  C   UNL d   1       0.307   0.442   1.806  0.00  0.00     0.074 A 
ATOM      2  C   UNL d   1       0.927   0.076   3.006  0.00  0.00     0.026 A 
ATOM      3  C   UNL d   1      -0.831   1.248   1.823  0.00  0.00     0.026 A 
ATOM      4  C   UNL d   1      -0.827   1.197   4.260  0.00  0.00     0.005 A 
ATOM      5  C   UNL d   1       0.363   0.464   4.224  0.00  0.00     0.025 A 
ATOM      6  C   UNL d   1      -1.380   1.637   3.052  0.00  0.00     0.025 A 
ENDROOT
BRANCH   1   7
ATOM      7  S   UNL d   1       1.067  -0.007   0.261  0.00  0.00     0.243 S 
ATOM      8  O   UNL d   1       0.750   1.026  -0.703  0.00  0.00    -0.206 OA
ATOM      9  O   UNL d   1       2.442  -0.353   0.533  0.00  0.00    -0.206 OA
BRANCH   7  10
ATOM     10  N   UNL d   1       0.249  -1.425  -0.223  0.00  0.00    -0.202 NA
ATOM     11  C   UNL d   1       0.198  -2.573   0.733  0.00  0.00     0.134 C 
ATOM     12  C   UNL d   1       1.508  -3.362   0.746  0.00  0.00     0.183 C 
ATOM     13  O   UNL d   1       1.799  -3.869  -0.563  0.00  0.00    -0.389 OA
ATOM     14  C   UNL d   1       1.937  -2.794  -1.504  0.00  0.00     0.183 C 
ATOM     15  C   UNL d   1       0.666  -1.932  -1.579  0.00  0.00     0.134 C 
ENDBRANCH   7  10
ENDBRANCH   1   7
BRANCH   4  16
ATOM     16  N   UNL d   1      -1.314   1.683   5.478  0.00  0.00    -0.303 NA
ATOM     17  H   UNL d   1      -2.298   1.931   5.461  0.00  0.00     0.124 HD
ATOM     18  H   UNL d   1      -1.078   1.105   6.279  0.00  0.00     0.124 HD
ENDBRANCH   4  16
TORSDOF 3
