REMARK  11 active torsions:
REMARK  status: ('A' for Active; 'I' for Inactive)
REMARK    1  A    between atoms: C1_1  and  C2_3 
REMARK    2  A    between atoms: O2_8  and  C2_3 
REMARK    3  A    between atoms: C5_9  and  C3_5 
REMARK    4  A    between atoms: C6_10  and  C5_9 
REMARK    5  A    between atoms: C12_16  and  C6_10 
REMARK    6  A    between atoms: C7_11  and  C8_12 
REMARK    7  A    between atoms: C8_12  and  C11_15 
REMARK    8  A    between atoms: C9_13  and  C13_17 
REMARK    9  A    between atoms: C10_14  and  C9_13 
REMARK   10  A    between atoms: C11_15  and  C10_14 
REMARK   11  A    between atoms: C13_17  and  C12_16 
ROOT
ATOM      1  C1  <1> d   1      -1.398   0.839  -0.086  0.00  0.00     0.327 C 
ATOM      2  N1  <1> d   1      -1.402  -0.638   0.073  0.00  0.00     0.113 N 
ATOM      3  S1  <1> d   1       1.145   0.028  -0.138  0.00  0.00    -0.131 SA
ATOM      4  C3  <1> d   1      -0.149  -1.185  -0.453  0.00  0.00     0.282 C 
ATOM      5  C4  <1> d   1       0.008   1.415  -0.281  0.00  0.00     0.122 C 
ATOM      6  H3  <1> d   1      -2.167  -1.079  -0.438  0.00  0.00     0.318 HD
ENDROOT
BRANCH   4   7
ATOM      7  C5  <1> d   1       0.158  -2.555   0.162  0.00  0.00     0.046 C 
BRANCH   7   8
ATOM      8  C6  <1> d   1       0.276  -2.555   1.691  0.00  0.00     0.003 C 
BRANCH   8   9
ATOM      9  C12 <1> d   1       0.561  -3.957   2.222  0.00  0.00     0.000 C 
BRANCH   9  10
ATOM     10  C13 <1> d   1       0.678  -3.926   3.742  0.00  0.00     0.000 C 
BRANCH  10  11
ATOM     11  C9  <1> d   1       0.963  -5.317   4.292  0.00  0.00     0.000 C 
BRANCH  11  12
ATOM     12  C10 <1> d   1       1.078  -5.278   5.812  0.00  0.00     0.000 C 
BRANCH  12  13
ATOM     13  C11 <1> d   1       1.364  -6.669   6.367  0.00  0.00     0.000 C 
BRANCH  13  14
ATOM     14  C8  <1> d   1       1.475  -6.632   7.888  0.00  0.00    -0.000 C 
BRANCH  14  15
ATOM     15  C7  <1> d   1       1.761  -8.021   8.448  0.00  0.00    -0.005 C 
ATOM     16  C14 <1> d   1       1.872  -7.986   9.962  0.00  0.00     0.005 C 
ENDBRANCH  14  15
ENDBRANCH  13  14
ENDBRANCH  12  13
ENDBRANCH  11  12
ENDBRANCH  10  11
ENDBRANCH   9  10
ENDBRANCH   8   9
ENDBRANCH   7   8
ENDBRANCH   4   7
BRANCH   1  17
ATOM     17  C2  <1> d   1      -2.352   1.254  -1.210  0.00  0.00     0.175 C 
ATOM     18  O1  <1> d   1      -2.067   1.921  -2.188  0.00  0.00    -0.648 OA
BRANCH  17  19
ATOM     19  O2  <1> d   1      -3.614   0.787  -1.002  0.00  0.00    -0.775 OA
ATOM     20  H6  <1> d   1      -3.705   0.336  -0.138  0.00  0.00     0.167 HD
ENDBRANCH  17  19
ENDBRANCH   1  17
TORSDOF 11
