REMARK  3 active torsions:
REMARK  status: ('A' for Active; 'I' for Inactive)
REMARK    1  A    between atoms: C_3  and  C_1 
REMARK    2  A    between atoms: N_4  and  C_10 
REMARK    3  A    between atoms: C_15  and  C_9 
ROOT
ATOM      1  C   UNL d   1      -0.315   1.074   0.001  0.00  0.00     0.134 A 
ATOM      2  N   UNL d   1       0.906   0.609  -0.410  0.00  0.00    -0.325 N 
ATOM      3  N   UNL d   1      -0.957   0.061   0.551  0.00  0.00    -0.283 N 
ATOM      4  HN  UNL d   1      -1.880   0.105   0.983  1.00  0.00     0.188 HD
ATOM      5  N   UNL d   1      -0.171  -1.066   0.444  0.00  0.00    -0.283 N 
ATOM      6  HN  UNL d   1      -0.419  -2.000   0.771  1.00  0.00     0.188 HD
ATOM      7  C   UNL d   1       0.958  -0.733  -0.153  0.00  0.00     0.132 A 
ATOM      8  H   UNL d   1       1.627   1.161  -0.852  0.00  0.00     0.169 HD
ENDROOT
BRANCH   1   9
ATOM      9  C   UNL d   1      -0.768   2.467  -0.080  0.00  0.00     0.042 A 
ATOM     10  C   UNL d   1      -0.466   3.376  -1.110  0.00  0.00     0.117 A 
ATOM     11  C   UNL d   1      -0.938   4.700  -1.103  0.00  0.00     0.043 A 
ATOM     12  C   UNL d   1      -1.735   5.150  -0.050  0.00  0.00    -0.060 A 
ATOM     13  C   UNL d   1      -2.064   4.260   0.976  0.00  0.00     0.008 A 
ATOM     14  C   UNL d   1      -2.230   6.566  -0.042  0.00  0.00     0.048 C 
ATOM     15  C   UNL d   1      -1.593   2.939   0.956  0.00  0.00     0.018 A 
BRANCH  10  16
ATOM     16  N   UNL d   1       0.342   2.997  -2.253  0.00  0.00    -0.115 N 
ATOM     17  O   UNL d   1       1.500   2.612  -2.026  0.00  0.00    -0.532 OA
ATOM     18  O   UNL d   1      -0.167   3.112  -3.374  0.00  0.00    -0.532 OA
ENDBRANCH  10  16
ENDBRANCH   1   9
BRANCH   7  19
ATOM     19  C   UNL d   1       2.084  -1.601  -0.493  0.00  0.00     0.012 A 
ATOM     20  C   UNL d   1       3.213  -1.125  -1.169  0.00  0.00     0.032 A 
ATOM     21  C   UNL d   1       4.240  -2.010  -1.457  0.00  0.00     0.088 A 
ATOM     22  N   UNL d   1       4.219  -3.315  -1.125  0.00  0.00    -0.375 N 
ATOM     23  C   UNL d   1       3.121  -3.757  -0.478  0.00  0.00     0.088 A 
ATOM     24  HN  UNL d   1       4.995  -3.938  -1.350  1.00  0.00     0.164 HD
ATOM     25  C   UNL d   1       2.044  -2.953  -0.145  0.00  0.00     0.032 A 
ENDBRANCH   7  19
TORSDOF 3
