REMARK  5 active torsions:
REMARK  status: ('A' for Active; 'I' for Inactive)
REMARK    1  A    between atoms: C_5  and  N_1 
REMARK    2  A    between atoms: C_14  and  C_3 
REMARK    3  A    between atoms: C_20  and  N_7 
REMARK    4  A    between atoms: O_23  and  C_14 
REMARK    5  A    between atoms: C_26  and  O_23 
ROOT
ATOM      1  C   UNL d   1       2.692  -3.393  -0.087  0.00  0.00     0.073 A 
ATOM      2  C   UNL d   1       1.457  -2.762   0.095  0.00  0.00     0.145 A 
ATOM      3  C   UNL d   1       3.423  -3.643   1.064  0.00  0.00     0.143 A 
ATOM      4  N   UNL d   1       4.679  -4.065   0.649  0.00  0.00    -0.239 N 
ATOM      5  N   UNL d   1       4.683  -4.364  -0.683  0.00  0.00    -0.302 N 
ATOM      6  HN  UNL d   1       5.403  -4.850  -1.217  1.00  0.00     0.186 HD
ATOM      7  C   UNL d   1       3.520  -3.868  -1.123  0.00  0.00     0.127 C 
ATOM      8  N   UNL d   1       1.009  -2.558   1.377  0.00  0.00    -0.336 N 
ATOM      9  HN  UNL d   1       0.107  -2.114   1.546  1.00  0.00     0.168 HD
ATOM     10  N   UNL d   1       3.001  -3.466   2.334  0.00  0.00    -0.336 N 
ATOM     11  HN  UNL d   1       3.561  -3.701   3.153  1.00  0.00     0.168 HD
ATOM     12  C   UNL d   1       1.775  -2.951   2.402  0.00  0.00     0.183 A 
ENDROOT
BRANCH   2  13
ATOM     13  N   UNL d   1       0.669  -2.280  -0.990  0.00  0.00    -0.222 N 
ATOM     14  C   UNL d   1      -0.436  -1.431  -0.890  0.00  0.00     0.140 A 
ATOM     15  C   UNL d   1      -0.936  -1.272  -2.166  0.00  0.00     0.101 A 
ATOM     16  N   UNL d   1      -0.865  -0.893   0.276  0.00  0.00    -0.383 N 
ATOM     17  C   UNL d   1      -0.049  -2.007  -2.976  0.00  0.00     0.129 A 
ATOM     18  N   UNL d   1       0.941  -2.589  -2.290  0.00  0.00    -0.301 N 
ATOM     19  HN  UNL d   1       1.719  -3.137  -2.655  1.00  0.00     0.186 HD
ATOM     20  H   UNL d   1      -0.477  -1.199   1.171  0.00  0.00     0.157 HD
ATOM     21  H   UNL d   1      -1.708  -0.321   0.329  0.00  0.00     0.157 HD
BRANCH  15  22
ATOM     22  C   UNL d   1      -2.119  -0.516  -2.516  0.00  0.00     0.298 C 
ATOM     23  O   UNL d   1      -2.720   0.203  -1.728  0.00  0.00    -0.259 OA
BRANCH  22  24
ATOM     24  O   UNL d   1      -2.526  -0.750  -3.799  0.00  0.00    -0.318 OA
BRANCH  24  25
ATOM     25  C   UNL d   1      -3.800  -0.180  -4.135  0.00  0.00     0.174 C 
ATOM     26  C   UNL d   1      -4.922  -1.059  -3.607  0.00  0.00     0.034 C 
ENDBRANCH  24  25
ENDBRANCH  22  24
ENDBRANCH  15  22
ENDBRANCH   2  13
BRANCH   4  27
ATOM     27  C   UNL d   1       5.878  -4.100   1.416  0.00  0.00     0.058 A 
ATOM     28  C   UNL d   1       6.970  -4.860   0.981  0.00  0.00     0.031 A 
ATOM     29  C   UNL d   1       8.156  -4.857   1.721  0.00  0.00     0.002 A 
ATOM     30  C   UNL d   1       8.269  -4.075   2.872  0.00  0.00     0.000 A 
ATOM     31  C   UNL d   1       7.193  -3.301   3.295  0.00  0.00     0.002 A 
ATOM     32  C   UNL d   1       5.998  -3.320   2.577  0.00  0.00     0.031 A 
ENDBRANCH   4  27
TORSDOF 5
