REMARK  4 active torsions:
REMARK  status: ('A' for Active; 'I' for Inactive)
REMARK    1  A    between atoms: C_2  and  S_1 
REMARK    2  A    between atoms: N_8  and  S_1 
REMARK    3  A    between atoms: C_3  and  C_7 
REMARK    4  A    between atoms: C_9  and  N_8 
ROOT
ATOM      1  S   UNL d   1       0.835   0.095  -0.004  0.00  0.00     0.269 S 
ATOM      2  O   UNL d   1      -0.181   0.439  -0.974  0.00  0.00    -0.200 OA
ATOM      3  O   UNL d   1       2.240   0.080  -0.346  0.00  0.00    -0.200 OA
ENDROOT
BRANCH   1   4
ATOM      4  C   UNL d   1       0.483  -1.603   0.412  0.00  0.00     0.121 A 
ATOM      5  S   UNL d   1      -1.042  -1.950   1.109  0.00  0.00    -0.074 SA
ATOM      6  C   UNL d   1      -0.696  -3.622   1.206  0.00  0.00     0.033 A 
ATOM      7  C   UNL d   1       0.546  -3.916   0.681  0.00  0.00     0.023 A 
ATOM      8  C   UNL d   1       1.224  -2.753   0.222  0.00  0.00     0.034 A 
BRANCH   6   9
ATOM      9  C   UNL d   1      -1.591  -4.678   1.783  0.00  0.00     0.056 A 
ATOM     10  N   UNL d   1      -1.154  -5.992   1.876  0.00  0.00    -0.353 N 
ATOM     11  C   UNL d   1      -2.077  -6.740   2.439  0.00  0.00     0.047 A 
ATOM     12  HN  UNL d   1      -0.246  -6.328   1.554  1.00  0.00     0.166 HD
ATOM     13  C   UNL d   1      -1.924  -8.194   2.719  0.00  0.00     0.076 C 
ATOM     14  S   UNL d   1      -3.528  -5.924   2.863  0.00  0.00    -0.087 SA
ATOM     15  C   UNL d   1      -2.864  -4.457   2.269  0.00  0.00     0.082 A 
ENDBRANCH   6   9
ENDBRANCH   1   4
BRANCH   1  16
ATOM     16  N   UNL d   1       0.571   1.089   1.335  0.00  0.00    -0.278 N 
ATOM     17  H   UNL d   1      -0.425   1.246   1.486  0.00  0.00     0.179 HD
BRANCH  16  18
ATOM     18  C   UNL d   1       1.387   0.944   2.498  0.00  0.00     0.064 A 
ATOM     19  C   UNL d   1       2.669   1.514   2.608  0.00  0.00     0.062 A 
ATOM     20  C   UNL d   1       3.401   1.380   3.792  0.00  0.00     0.050 A 
ATOM     21 CL   UNL d   1       3.347   2.502   1.364  0.00  0.00    -0.082 Cl
ATOM     22  C   UNL d   1       2.857   0.679   4.866  0.00  0.00     0.035 A 
ATOM     23  C   UNL d   1       1.593   0.102   4.764  0.00  0.00     0.026 A 
ATOM     24 CL   UNL d   1       3.732   0.554   6.341  0.00  0.00    -0.084 Cl
ATOM     25  C   UNL d   1       0.861   0.232   3.582  0.00  0.00     0.033 A 
ENDBRANCH  16  18
ENDBRANCH   1  16
TORSDOF 4
