REMARK  4 active torsions:
REMARK  status: ('A' for Active; 'I' for Inactive)
REMARK    1  A    between atoms: N_2  and  C_1 
REMARK    2  A    between atoms: C_8  and  C_3 
REMARK    3  A    between atoms: C_10  and  C_8 
REMARK    4  A    between atoms: C_12  and  C_10 
ROOT
ATOM      1  C   UNL d   1      -0.722   0.280   0.098  0.00  0.00     0.162 A 
ATOM      2  C   UNL d   1      -1.159  -1.041   0.004  0.00  0.00     0.133 A 
ATOM      3  N   UNL d   1       1.114  -1.024  -0.142  0.00  0.00    -0.263 N 
ATOM      4  HN  UNL d   1       2.079  -1.342  -0.235  1.00  0.00     0.194 HD
ATOM      5  C   UNL d   1       0.695   0.234   0.003  0.00  0.00     0.064 A 
ATOM      6  O   UNL d   1      -0.014  -1.802  -0.141  0.00  0.00    -0.235 OA
ATOM      7  C   UNL d   1       1.694   1.330   0.046  0.00  0.00     0.073 C 
ENDROOT
BRANCH   2   8
ATOM      8  C   UNL d   1      -2.459  -1.637   0.030  0.00  0.00     0.043 C 
BRANCH   8   9
ATOM      9  C   UNL d   1      -2.605  -2.969  -0.079  0.00  0.00     0.014 C 
BRANCH   9  10
ATOM     10  C   UNL d   1      -3.900  -3.672  -0.107  0.00  0.00    -0.033 A 
ATOM     11  C   UNL d   1      -3.992  -4.880  -0.815  0.00  0.00     0.035 A 
ATOM     12  C   UNL d   1      -5.205  -5.571  -0.881  0.00  0.00     0.036 A 
ATOM     13 CL   UNL d   1      -5.302  -7.035  -1.780  0.00  0.00    -0.084 Cl
ATOM     14  C   UNL d   1      -6.336  -5.083  -0.236  0.00  0.00     0.047 A 
ATOM     15  C   UNL d   1      -6.240  -3.902   0.493  0.00  0.00     0.036 A 
ATOM     16  C   UNL d   1      -5.033  -3.203   0.570  0.00  0.00     0.035 A 
ATOM     17 CL   UNL d   1      -7.628  -3.290   1.307  0.00  0.00    -0.084 Cl
ENDBRANCH   9  10
ENDBRANCH   8   9
ENDBRANCH   2   8
BRANCH   1  18
ATOM     18  N   UNL d   1      -1.527   1.452   0.260  0.00  0.00    -0.111 N 
ATOM     19  O   UNL d   1      -2.754   1.313   0.306  0.00  0.00    -0.532 OA
ATOM     20  O   UNL d   1      -0.934   2.537   0.342  0.00  0.00    -0.532 OA
ENDBRANCH   1  18
TORSDOF 4
