REMARK  3 active torsions:
REMARK  status: ('A' for Active; 'I' for Inactive)
REMARK    1  A    between atoms: C_6  and  N_1 
REMARK    2  A    between atoms: C_9  and  C_5 
REMARK    3  A    between atoms: O_18  and  C_12 
ROOT
ATOM      1  N   UNL d   1       0.917  -0.703   0.041  0.00  0.00    -0.297 N 
ATOM      2  C   UNL d   1      -0.454  -1.122  -0.025  0.00  0.00     0.183 A 
ATOM      3  N   UNL d   1      -1.194   0.074  -0.014  0.00  0.00    -0.331 N 
ATOM      4  C   UNL d   1       0.911   0.685   0.140  0.00  0.00     0.130 A 
ATOM      5  C   UNL d   1      -0.350   1.146   0.092  0.00  0.00     0.060 A 
ATOM      6  S   UNL d   1      -1.196  -2.605  -0.022  0.00  0.00    -0.040 SA
ATOM      7  H   UNL d   1      -2.203   0.107  -0.015  0.00  0.00     0.168 HD
ENDROOT
BRANCH   1   8
ATOM      8  C   UNL d   1       2.086  -1.508  -0.039  0.00  0.00     0.044 A 
ATOM      9  C   UNL d   1       2.111  -2.679  -0.807  0.00  0.00     0.066 A 
ATOM     10  C   UNL d   1       3.282  -3.429  -0.948  0.00  0.00     0.070 A 
ATOM     11  C   UNL d   1       4.443  -3.014  -0.298  0.00  0.00     0.037 A 
ATOM     12  C   UNL d   1       4.441  -1.853   0.471  0.00  0.00     0.005 A 
ATOM     13  C   UNL d   1       3.272  -1.098   0.588  0.00  0.00     0.030 A 
BRANCH  10  14
ATOM     14  O   UNL d   1       3.417  -4.560  -1.707  0.00  0.00    -0.356 OA
ATOM     15  C   UNL d   1       2.261  -4.993  -2.419  0.00  0.00     0.210 C 
ENDBRANCH  10  14
ENDBRANCH   1   8
BRANCH   5  16
ATOM     16  C   UNL d   1      -0.821   2.530   0.116  0.00  0.00    -0.008 A 
ATOM     17  C   UNL d   1      -1.981   2.904  -0.584  0.00  0.00     0.017 A 
ATOM     18  C   UNL d   1      -2.447   4.220  -0.543  0.00  0.00     0.043 A 
ATOM     19  C   UNL d   1      -1.754   5.167   0.198  0.00  0.00     0.116 A 
ATOM     20  C   UNL d   1      -0.601   4.826   0.893  0.00  0.00     0.043 A 
ATOM     21  F   UNL d   1      -2.203   6.427   0.244  0.00  0.00    -0.206 F 
ATOM     22  C   UNL d   1      -0.135   3.510   0.852  0.00  0.00     0.017 A 
ENDBRANCH   5  16
TORSDOF 3
