REMARK  2 active torsions:
REMARK  status: ('A' for Active; 'I' for Inactive)
REMARK    1  A    between atoms: C_7  and  C_1 
REMARK    2  A    between atoms: O_11  and  C_3 
ROOT
ATOM      1  C   UNL d   1      -1.474  -1.410  -0.063  0.00  0.00     0.088 A 
ATOM      2  C   UNL d   1      -1.999  -0.015  -0.134  0.00  0.00     0.262 A 
ATOM      3  C   UNL d   1      -0.152  -1.635   0.048  0.00  0.00     0.095 A 
ATOM      4  N   UNL d   1      -1.088   1.030  -0.027  0.00  0.00    -0.317 N 
ATOM      5  C   UNL d   1       0.802  -0.516   0.017  0.00  0.00     0.025 A 
ATOM      6  C   UNL d   1       0.321   0.803   0.009  0.00  0.00     0.050 A 
ATOM      7  O   UNL d   1      -3.210   0.168  -0.273  0.00  0.00    -0.267 OA
ATOM      8  C   UNL d   1      -1.601   2.393  -0.012  0.00  0.00     0.159 C 
ATOM      9  C   UNL d   1       2.189  -0.743   0.005  0.00  0.00     0.016 A 
ATOM     10  C   UNL d   1       1.240   1.867   0.015  0.00  0.00     0.031 A 
ATOM     11  C   UNL d   1       3.091   0.321  -0.003  0.00  0.00     0.001 A 
ATOM     12  C   UNL d   1       2.616   1.626   0.009  0.00  0.00     0.002 A 
ENDROOT
BRANCH   1  13
ATOM     13  C   UNL d   1      -2.394  -2.587  -0.055  0.00  0.00     0.017 C 
ATOM     14  N   UNL d   1      -2.133  -3.695  -0.680  0.00  0.00    -0.402 N 
ATOM     15  H   UNL d   1      -1.289  -3.609  -1.263  0.00  0.00     0.156 HD
ATOM     16  HN  UNL d   1      -2.694  -4.544  -0.604  1.00  0.00     0.156 HD
ATOM     17  C   UNL d   1      -3.680  -2.515   0.733  0.00  0.00     0.068 C 
ENDBRANCH   1  13
BRANCH   3  18
ATOM     18  O   UNL d   1       0.419  -2.888   0.208  0.00  0.00    -0.359 OA
ATOM     19  H   UNL d   1      -0.275  -3.544   0.418  0.00  0.00     0.217 HD
ENDBRANCH   3  18
TORSDOF 2
