REMARK  5 active torsions:
REMARK  status: ('A' for Active; 'I' for Inactive)
REMARK       I    between atoms: N_2  and  C_1 
REMARK    1  A    between atoms: C_5  and  C_1 
REMARK    2  A    between atoms: C_3  and  N_2 
REMARK    3  A    between atoms: O_6  and  C_5 
REMARK    4  A    between atoms: C_14  and  O_6 
REMARK    5  A    between atoms: C_7  and  C_8 
ROOT
ATOM      1  C   UNL d   1       0.411  -0.698   1.029  0.00  0.00     0.217 C 
ATOM      2  C   UNL d   1       0.136  -2.009   1.765  0.00  0.00     0.050 C 
ENDROOT
BRANCH   1   3
ATOM      3  C   UNL d   1      -0.840  -0.251   0.234  0.00  0.00     0.251 C 
ATOM      4  N   UNL d   1      -0.582   0.852  -0.576  0.00  0.00    -0.324 N 
ATOM      5  H   UNL d   1       0.394   1.120  -0.621  0.00  0.00     0.169 HD
ATOM      6  O   UNL d   1      -1.880  -0.902   0.246  0.00  0.00    -0.270 OA
BRANCH   4   7
ATOM      7  C   UNL d   1      -1.397   1.321  -1.634  0.00  0.00     0.040 A 
ATOM      8  C   UNL d   1      -2.804   1.380  -1.636  0.00  0.00    -0.034 A 
ATOM      9  C   UNL d   1      -3.469   1.762  -2.822  0.00  0.00     0.028 A 
ATOM     10  C   UNL d   1      -3.670   1.112  -0.438  0.00  0.00     0.050 C 
ATOM     11  C   UNL d   1      -2.755   2.139  -3.957  0.00  0.00     0.011 A 
ATOM     12  C   UNL d   1      -1.369   2.160  -3.932  0.00  0.00     0.021 A 
ATOM     13 BR   UNL d   1      -3.677   2.642  -5.528  0.00  0.00    -0.051 Br
ATOM     14  C   UNL d   1      -0.698   1.765  -2.772  0.00  0.00     0.031 A 
ENDBRANCH   4   7
ENDBRANCH   1   3
BRANCH   1  15
ATOM     15  O   UNL d   1       0.779   0.341   1.948  0.00  0.00    -0.337 OA
BRANCH  15  16
ATOM     16  C   UNL d   1       2.044   0.221   2.462  0.00  0.00     0.070 A 
ATOM     17  C   UNL d   1       3.179   0.138   1.666  0.00  0.00     0.037 A 
ATOM     18  C   UNL d   1       4.442   0.029   2.259  0.00  0.00     0.011 A 
ATOM     19  C   UNL d   1       4.608   0.020   3.659  0.00  0.00    -0.050 A 
ATOM     20  C   UNL d   1       3.446   0.138   4.439  0.00  0.00     0.011 A 
ATOM     21  C   UNL d   1       2.180   0.247   3.847  0.00  0.00     0.037 A 
BRANCH  19  22
ATOM     22  C   UNL d   1       6.019  -0.108   4.264  0.00  0.00    -0.024 C 
ATOM     23  C   UNL d   1       6.048  -0.072   5.809  0.00  0.00     0.019 C 
ATOM     24  C   UNL d   1       6.648  -1.450   3.828  0.00  0.00     0.019 C 
ATOM     25  C   UNL d   1       6.908   1.052   3.767  0.00  0.00     0.019 C 
ENDBRANCH  19  22
ENDBRANCH  15  16
ENDBRANCH   1  15
TORSDOF 5
