REMARK  3 active torsions:
REMARK  status: ('A' for Active; 'I' for Inactive)
REMARK    1  A    between atoms: O_5  and  C_1 
REMARK    2  A    between atoms: C_2  and  O_5 
REMARK    3  A    between atoms: N_4  and  C_3 
REMARK       I    between atoms: C_8  and  N_4 
ROOT
ATOM      1  C   UNL d   1       1.036  -2.412  -0.406  0.00  0.00     0.106 A 
ATOM      2  C   UNL d   1       0.004  -3.330  -0.687  0.00  0.00     0.068 A 
ATOM      3  N   UNL d   1       5.004  -4.209  -2.568  0.00  0.00    -0.191 NA
ATOM      4  C   UNL d   1       3.936  -4.032  -2.143  0.00  0.00     0.099 C 
ATOM      5  C   UNL d   1       2.340  -2.678  -0.860  0.00  0.00     0.062 A 
ATOM      6  C   UNL d   1       0.314  -4.498  -1.407  0.00  0.00     0.034 A 
ATOM      7  C   UNL d   1       2.617  -3.813  -1.631  0.00  0.00     0.047 A 
ATOM      8  C   UNL d   1       1.602  -4.729  -1.894  0.00  0.00     0.025 A 
ENDROOT
BRANCH   1   9
ATOM      9  O   UNL d   1       0.773  -1.363   0.425  0.00  0.00    -0.253 OA
BRANCH   9  10
ATOM     10  C   UNL d   1       1.425  -0.122   0.181  0.00  0.00     0.530 C 
ATOM     11  F   UNL d   1       2.021  -0.056  -1.032  0.00  0.00    -0.144 F 
ATOM     12  F   UNL d   1       2.374   0.063   1.127  0.00  0.00    -0.144 F 
ATOM     13  F   UNL d   1       0.545   0.896   0.267  0.00  0.00    -0.144 F 
ENDBRANCH   9  10
ENDBRANCH   1   9
BRANCH   2  14
ATOM     14  N   UNL d   1      -1.355  -3.214  -0.298  0.00  0.00    -0.325 N 
ATOM     15  C   UNL d   1      -2.061  -2.072   0.032  0.00  0.00     0.218 C 
ATOM     16  O   UNL d   1      -1.658  -0.916  -0.002  0.00  0.00    -0.274 OA
ATOM     17  C   UNL d   1      -3.494  -2.360   0.418  0.00  0.00     0.117 C 
ATOM     18  H   UNL d   1      -1.917  -4.043  -0.443  0.00  0.00     0.169 HD
ENDBRANCH   2  14
TORSDOF 3
