REMARK  7 active torsions:
REMARK  status: ('A' for Active; 'I' for Inactive)
REMARK    1  A    between atoms: C_4  and  C_2 
REMARK    2  A    between atoms: C_6  and  C_3 
REMARK    3  A    between atoms: O_12  and  C_4 
REMARK    4  A    between atoms: C_5  and  C_14 
REMARK    5  A    between atoms: N_7  and  O_12 
REMARK    6  A    between atoms: C_15  and  C_11 
REMARK    7  A    between atoms: N_27  and  C_11 
ROOT
ATOM      1  N   UNL d   1      -2.570   2.240  -0.178  0.00  0.00    -0.246 N 
ATOM      2  HN  UNL d   1      -1.849   2.925  -0.406  1.00  0.00     0.196 HD
ATOM      3  C   UNL d   1      -3.811   2.556   0.035  0.00  0.00     0.109 C 
ENDROOT
BRANCH   1   4
ATOM      4  O   UNL d   1      -2.317   0.851  -0.063  0.00  0.00    -0.193 OA
BRANCH   4   5
ATOM      5  C   UNL d   1      -0.971   0.631  -0.291  0.00  0.00     0.322 C 
ATOM      6  O   UNL d   1      -0.160   1.503  -0.604  0.00  0.00    -0.257 OA
BRANCH   5   7
ATOM      7  C   UNL d   1      -0.589  -0.764  -0.127  0.00  0.00     0.082 A 
ATOM      8  S   UNL d   1      -1.665  -2.031   0.284  0.00  0.00    -0.083 SA
ATOM      9  C   UNL d   1      -0.414  -3.217   0.288  0.00  0.00     0.023 A 
ATOM     10  C   UNL d   1       0.797  -2.645  -0.049  0.00  0.00     0.022 A 
ATOM     11  C   UNL d   1       0.698  -1.248  -0.283  0.00  0.00     0.026 A 
BRANCH   9  12
ATOM     12  C   UNL d   1      -0.651  -4.611   0.608  0.00  0.00     0.021 A 
ATOM     13  S   UNL d   1       0.597  -5.587   1.289  0.00  0.00    -0.101 SA
ATOM     14  C   UNL d   1      -0.398  -6.973   1.331  0.00  0.00     0.050 A 
ATOM     15  C   UNL d   1      -1.658  -6.714   0.846  0.00  0.00     0.008 A 
ATOM     16  C   UNL d   1      -1.806  -5.353   0.436  0.00  0.00     0.021 A 
ENDBRANCH   9  12
ENDBRANCH   5   7
ENDBRANCH   4   5
ENDBRANCH   1   4
BRANCH   3  17
ATOM     17  C   UNL d   1      -4.167   4.013  -0.035  0.00  0.00     0.004 A 
ATOM     18  C   UNL d   1      -3.385   4.885  -0.804  0.00  0.00     0.015 A 
ATOM     19  C   UNL d   1      -3.702   6.246  -0.872  0.00  0.00     0.017 A 
ATOM     20  C   UNL d   1      -4.798   6.759  -0.163  0.00  0.00     0.048 A 
ATOM     21  C   UNL d   1      -5.569   5.882   0.617  0.00  0.00     0.017 A 
ATOM     22  C   UNL d   1      -5.258   4.518   0.680  0.00  0.00     0.015 A 
BRANCH  20  23
ATOM     23  C   UNL d   1      -5.148   8.228  -0.219  0.00  0.00     0.417 C 
ATOM     24  F   UNL d   1      -4.335   8.956  -1.035  0.00  0.00    -0.166 F 
ATOM     25  F   UNL d   1      -6.415   8.441  -0.673  0.00  0.00    -0.166 F 
ATOM     26  F   UNL d   1      -5.085   8.826   1.002  0.00  0.00    -0.166 F 
ENDBRANCH  20  23
ENDBRANCH   3  17
BRANCH   3  27
ATOM     27  N   UNL d   1      -4.801   1.641   0.302  0.00  0.00    -0.286 NA
ATOM     28  H   UNL d   1      -4.524   0.691   0.079  0.00  0.00     0.125 HD
ATOM     29  H   UNL d   1      -5.717   1.869  -0.069  0.00  0.00     0.125 HD
ENDBRANCH   3  27
TORSDOF 7
