REMARK  4 active torsions:
REMARK  status: ('A' for Active; 'I' for Inactive)
REMARK    1  A    between atoms: C_7  and  C_1 
REMARK    2  A    between atoms: C_9  and  C_2 
REMARK       I    between atoms: N_15  and  C_7 
REMARK    3  A    between atoms: C_8  and  C_21 
REMARK    4  A    between atoms: C_21  and  N_15 
ROOT
ATOM      1  C   UNL d   1       3.673  -1.402   0.157  0.00  0.00     0.250 C 
ATOM      2  N   UNL d   1       4.836  -0.733  -0.102  0.00  0.00    -0.351 N 
ATOM      3  O   UNL d   1       3.636  -2.588   0.464  0.00  0.00    -0.268 OA
ATOM      4  H   UNL d   1       4.848   0.213  -0.462  0.00  0.00     0.163 HD
ENDROOT
BRANCH   2   5
ATOM      5  C   UNL d   1       6.121  -1.377   0.016  0.00  0.00     0.180 C 
BRANCH   5   6
ATOM      6  C   UNL d   1       7.207  -0.375  -0.234  0.00  0.00     0.034 A 
ATOM      7  N   UNL d   1       6.882   0.948  -0.545  0.00  0.00    -0.351 N 
ATOM      8  C   UNL d   1       7.977   1.667  -0.726  0.00  0.00     0.091 A 
ATOM      9  HN  UNL d   1       5.931   1.310  -0.622  1.00  0.00     0.166 HD
ATOM     10  S   UNL d   1       9.447   0.790  -0.539  0.00  0.00    -0.081 SA
ATOM     11  C   UNL d   1       8.563  -0.631  -0.190  0.00  0.00     0.078 A 
BRANCH   8  12
ATOM     12  C   UNL d   1       7.909   3.075  -1.049  0.00  0.00     0.038 A 
ATOM     13  S   UNL d   1       9.288   4.056  -1.353  0.00  0.00    -0.099 SA
ATOM     14  C   UNL d   1       8.340   5.450  -1.623  0.00  0.00     0.050 A 
ATOM     15  C   UNL d   1       6.995   5.191  -1.489  0.00  0.00     0.008 A 
ATOM     16  C   UNL d   1       6.749   3.826  -1.161  0.00  0.00     0.022 A 
ENDBRANCH   8  12
ENDBRANCH   5   6
ENDBRANCH   2   5
BRANCH   1  17
ATOM     17  C   UNL d   1       2.420  -0.617  -0.006  0.00  0.00     0.034 C 
ATOM     18  C   UNL d   1       2.372   0.715   0.136  0.00  0.00     0.029 C 
ATOM     19  C   UNL d   1       1.072   1.360  -0.009  0.00  0.00    -0.002 A 
ATOM     20  C   UNL d   1       0.905   2.714   0.298  0.00  0.00     0.014 A 
ATOM     21  C   UNL d   1      -0.014   0.625  -0.497  0.00  0.00     0.079 A 
ATOM     22  C   UNL d   1      -0.336   3.327   0.113  0.00  0.00     0.001 A 
ATOM     23  C   UNL d   1      -1.410   2.594  -0.391  0.00  0.00     0.003 A 
ATOM     24  C   UNL d   1      -1.248   1.244  -0.702  0.00  0.00     0.037 A 
ATOM     25  O   UNL d   1       0.078  -0.696  -0.843  0.00  0.00    -0.346 OA
ATOM     26  C   UNL d   1       1.175  -1.422  -0.253  0.00  0.00     0.220 C 
ENDBRANCH   1  17
TORSDOF 4
