REMARK  3 active torsions:
REMARK  status: ('A' for Active; 'I' for Inactive)
REMARK    1  A    between atoms: C_5  and  C_3 
REMARK    2  A    between atoms: C_13  and  N_7 
REMARK    3  A    between atoms: O_22  and  C_15 
ROOT
ATOM      1  C   UNL d   1       1.277  -1.478   0.158  0.00  0.00     0.056 A 
ATOM      2  C   UNL d   1       0.002  -0.746   0.114  0.00  0.00     0.021 A 
ATOM      3  C   UNL d   1       2.413  -0.776   0.026  0.00  0.00     0.004 A 
ATOM      4  O   UNL d   1       1.170   1.389  -0.114  0.00  0.00    -0.346 OA
ATOM      5  C   UNL d   1       0.028   0.648  -0.016  0.00  0.00     0.081 A 
ATOM      6  C   UNL d   1       2.430   0.707  -0.178  0.00  0.00     0.217 A 
ATOM      7  C   UNL d   1      -1.252  -1.376   0.215  0.00  0.00     0.040 A 
ATOM      8 CL   UNL d   1       1.246  -3.200   0.349  0.00  0.00    -0.083 Cl
ATOM      9  C   UNL d   1      -1.159   1.391  -0.037  0.00  0.00     0.039 A 
ATOM     10  C   UNL d   1      -2.433  -0.631   0.193  0.00  0.00     0.035 A 
ATOM     11  C   UNL d   1      -2.393   0.751   0.068  0.00  0.00     0.026 A 
ATOM     12 CL   UNL d   1      -3.950  -1.433   0.328  0.00  0.00    -0.084 Cl
ENDROOT
BRANCH   3  13
ATOM     13  C   UNL d   1       3.745  -1.433   0.090  0.00  0.00     0.099 C 
ATOM     14  N   UNL d   1       4.850  -0.844  -0.243  0.00  0.00    -0.365 N 
ATOM     15  HN  UNL d   1       4.858   0.123  -0.567  1.00  0.00     0.165 HD
BRANCH  14  16
ATOM     16  C   UNL d   1       6.042  -1.591  -0.140  0.00  0.00     0.032 A 
ATOM     17  C   UNL d   1       6.144  -2.921  -0.569  0.00  0.00     0.032 A 
ATOM     18  C   UNL d   1       7.333  -3.634  -0.401  0.00  0.00     0.039 A 
ATOM     19  C   UNL d   1       8.458  -3.020   0.144  0.00  0.00     0.068 A 
ATOM     20  C   UNL d   1       8.384  -1.683   0.533  0.00  0.00     0.039 A 
ATOM     21  C   UNL d   1       7.181  -0.977   0.390  0.00  0.00     0.032 A 
BRANCH  19  22
ATOM     22  O   UNL d   1       9.544  -3.835   0.300  0.00  0.00    -0.356 OA
ATOM     23  C   UNL d   1      10.815  -3.205   0.205  0.00  0.00     0.210 C 
ENDBRANCH  19  22
ENDBRANCH  14  16
ENDBRANCH   3  13
TORSDOF 3
