REMARK  2 active torsions:
REMARK  status: ('A' for Active; 'I' for Inactive)
REMARK    1  A    between atoms: C_6  and  C_1 
REMARK    2  A    between atoms: C_5  and  C_2 
ROOT
ATOM      1  C   UNL d   1      -1.325  -1.138   0.734  0.00  0.00     0.078 A 
ATOM      2  C   UNL d   1      -0.138  -1.368  -0.124  0.00  0.00     0.017 A 
ATOM      3  N   UNL d   1      -1.497   0.192   0.809  0.00  0.00    -0.260 N 
ATOM      4  HN  UNL d   1      -2.285   0.657   1.260  1.00  0.00     0.195 HD
ATOM      5  O   UNL d   1      -0.474   0.819   0.200  0.00  0.00    -0.242 OA
ATOM      6  C   UNL d   1       0.354  -0.082  -0.348  0.00  0.00     0.082 A 
ATOM      7  C   UNL d   1       1.511   0.536  -1.031  0.00  0.00     0.079 C 
ENDROOT
BRANCH   2   8
ATOM      8  C   UNL d   1       0.494  -2.649  -0.631  0.00  0.00     0.099 C 
ATOM      9  S   UNL d   1       1.376  -2.470  -2.243  0.00  0.00    -0.117 SA
ATOM     10  C   UNL d   1       3.075  -2.830  -1.842  0.00  0.00     0.028 A 
ATOM     11  C   UNL d   1       3.525  -4.038  -1.282  0.00  0.00     0.051 A 
ATOM     12  C   UNL d   1       4.034  -1.897  -2.287  0.00  0.00     0.021 A 
ATOM     13  C   UNL d   1       4.898  -4.314  -1.223  0.00  0.00     0.031 A 
ATOM     14  N   UNL d   1       2.667  -5.019  -0.760  0.00  0.00    -0.326 N 
ATOM     15  C   UNL d   1       5.829  -3.358  -1.623  0.00  0.00     0.002 A 
ATOM     16  C   UNL d   1       5.399  -2.147  -2.145  0.00  0.00     0.002 A 
ATOM     17  C   UNL d   1       1.591  -4.800   0.054  0.00  0.00     0.223 C 
ATOM     18  H   UNL d   1       2.983  -5.980  -0.739  0.00  0.00     0.169 HD
ATOM     19  C   UNL d   1       1.264  -3.381   0.455  0.00  0.00     0.123 C 
ATOM     20  O   UNL d   1       0.976  -5.757   0.521  0.00  0.00    -0.273 OA
ENDBRANCH   2   8
BRANCH   1  21
ATOM     21  C   UNL d   1      -2.268  -1.983   1.572  0.00  0.00     0.036 C 
ATOM     22  C   UNL d   1      -2.412  -3.385   1.486  0.00  0.00     0.048 C 
ATOM     23 CL   UNL d   1      -2.082  -4.343   0.093  0.00  0.00    -0.083 Cl
ATOM     24  C   UNL d   1      -3.080  -4.144   2.476  0.00  0.00     0.025 C 
ATOM     25  C   UNL d   1      -3.769  -3.537   3.505  0.00  0.00     0.003 C 
ATOM     26  C   UNL d   1      -3.811  -2.158   3.532  0.00  0.00     0.025 C 
ATOM     27  C   UNL d   1      -3.073  -1.390   2.604  0.00  0.00     0.048 C 
ATOM     28 CL   UNL d   1      -3.341   0.316   2.862  0.00  0.00    -0.083 Cl
ENDBRANCH   1  21
TORSDOF 2
