REMARK  4 active torsions:
REMARK  status: ('A' for Active; 'I' for Inactive)
REMARK    1  A    between atoms: S_10  and  C_3 
REMARK    2  A    between atoms: C_8  and  C_7 
REMARK    3  A    between atoms: C_11  and  C_8 
REMARK    4  A    between atoms: C_9  and  S_10 
ROOT
ATOM      1  C   UNL d   1      -5.877  -1.764   0.058  0.00  0.00     0.063 C 
ATOM      2  C   UNL d   1      -4.581  -1.456  -0.113  0.00  0.00     0.057 C 
ENDROOT
BRANCH   2   3
ATOM      3  S   UNL d   1      -4.094   0.204  -0.015  0.00  0.00    -0.058 SA
BRANCH   3   4
ATOM      4  C   UNL d   1      -2.362   0.103  -0.210  0.00  0.00     0.192 A 
ATOM      5  N   UNL d   1      -1.619   1.196  -0.201  0.00  0.00    -0.328 N 
ATOM      6  C   UNL d   1      -0.342   0.738  -0.377  0.00  0.00     0.068 A 
ATOM      7  HN  UNL d   1      -1.928   2.162  -0.089  1.00  0.00     0.168 HD
ATOM      8  C   UNL d   1      -0.352  -0.642  -0.486  0.00  0.00     0.105 A 
ATOM      9  C   UNL d   1       0.877   1.423  -0.455  0.00  0.00     0.032 A 
ATOM     10  C   UNL d   1       0.785  -1.423  -0.671  0.00  0.00     0.040 A 
ATOM     11  O   UNL d   1      -1.649  -1.060  -0.377  0.00  0.00    -0.285 OA
ATOM     12  C   UNL d   1       1.997  -0.724  -0.748  0.00  0.00     0.003 A 
ATOM     13  C   UNL d   1       2.046   0.672  -0.643  0.00  0.00     0.002 A 
ENDBRANCH   3   4
ENDBRANCH   2   3
BRANCH   1  14
ATOM     14  C   UNL d   1      -6.344  -3.173  -0.018  0.00  0.00     0.182 C 
ATOM     15  O   UNL d   1      -5.686  -4.044  -0.572  0.00  0.00    -0.288 OA
BRANCH  14  16
ATOM     16  C   UNL d   1      -7.672  -3.490   0.579  0.00  0.00     0.014 A 
ATOM     17  C   UNL d   1      -8.428  -4.533   0.022  0.00  0.00     0.018 A 
ATOM     18  C   UNL d   1      -9.655  -4.891   0.588  0.00  0.00     0.043 A 
ATOM     19  C   UNL d   1     -10.116  -4.215   1.711  0.00  0.00     0.116 A 
ATOM     20  C   UNL d   1      -9.378  -3.180   2.277  0.00  0.00     0.043 A 
ATOM     21  F   UNL d   1     -11.282  -4.571   2.266  0.00  0.00    -0.206 F 
ATOM     22  C   UNL d   1      -8.152  -2.815   1.713  0.00  0.00     0.018 A 
ENDBRANCH  14  16
ENDBRANCH   1  14
TORSDOF 4
