REMARK  4 active torsions:
REMARK  status: ('A' for Active; 'I' for Inactive)
REMARK    1  A    between atoms: C_7  and  N_1 
REMARK    2  A    between atoms: S_17  and  C_2 
REMARK    3  A    between atoms: C_8  and  C_12 
REMARK    4  A    between atoms: C_9  and  C_11 
ROOT
ATOM      1  N   UNL d   1       2.422  -0.604  -0.048  0.00  0.00    -0.258 N 
ATOM      2  C   UNL d   1       2.307   0.783   0.022  0.00  0.00     0.152 A 
ATOM      3  C   UNL d   1       1.269  -1.403  -0.043  0.00  0.00     0.266 A 
ATOM      4  N   UNL d   1       1.181   1.418   0.073  0.00  0.00    -0.336 N 
ATOM      5  HN  UNL d   1       1.162   2.435   0.140  1.00  0.00     0.168 HD
ATOM      6  C   UNL d   1      -0.025  -0.702  -0.004  0.00  0.00     0.059 A 
ATOM      7  C   UNL d   1      -0.008   0.688   0.035  0.00  0.00     0.049 A 
ATOM      8  O   UNL d   1       1.262  -2.632  -0.043  0.00  0.00    -0.267 OA
ATOM      9  C   UNL d   1      -1.232  -1.411  -0.028  0.00  0.00     0.019 A 
ATOM     10  C   UNL d   1      -1.225   1.373   0.014  0.00  0.00     0.030 A 
ATOM     11  C   UNL d   1      -2.440  -0.716  -0.043  0.00  0.00     0.001 A 
ATOM     12  C   UNL d   1      -2.435   0.679  -0.031  0.00  0.00     0.002 A 
ENDROOT
BRANCH   1  13
ATOM     13  C   UNL d   1       3.670  -1.298  -0.106  0.00  0.00     0.046 A 
ATOM     14  C   UNL d   1       3.922  -2.179  -1.168  0.00  0.00     0.046 A 
ATOM     15  C   UNL d   1       5.134  -2.879  -1.258  0.00  0.00     0.050 A 
ATOM     16  C   UNL d   1       6.095  -2.694  -0.251  0.00  0.00     0.032 A 
ATOM     17  C   UNL d   1       5.854  -1.835   0.835  0.00  0.00     0.050 A 
ATOM     18  C   UNL d   1       4.633  -1.143   0.898  0.00  0.00     0.046 A 
BRANCH  15  19
ATOM     19  C   UNL d   1       5.408  -3.816  -2.412  0.00  0.00     0.417 C 
ATOM     20  F   UNL d   1       4.395  -3.878  -3.318  0.00  0.00    -0.166 F 
ATOM     21  F   UNL d   1       6.514  -3.448  -3.116  0.00  0.00    -0.166 F 
ATOM     22  F   UNL d   1       5.631  -5.094  -2.004  0.00  0.00    -0.166 F 
ENDBRANCH  15  19
BRANCH  17  23
ATOM     23  C   UNL d   1       6.895  -1.672   1.917  0.00  0.00     0.417 C 
ATOM     24  F   UNL d   1       6.528  -0.802   2.897  0.00  0.00    -0.166 F 
ATOM     25  F   UNL d   1       7.181  -2.846   2.543  0.00  0.00    -0.166 F 
ATOM     26  F   UNL d   1       8.077  -1.208   1.427  0.00  0.00    -0.166 F 
ENDBRANCH  17  23
ENDBRANCH   1  13
BRANCH   2  27
ATOM     27  S   UNL d   1       3.723   1.823  -0.038  0.00  0.00    -0.106 SA
ATOM     28  H   UNL d   1       4.559   0.985  -0.660  0.00  0.00     0.110 HD
ENDBRANCH   2  27
TORSDOF 4
