REMARK  5 active torsions:
REMARK  status: ('A' for Active; 'I' for Inactive)
REMARK    1  A    between atoms: C_9  and  N_1 
REMARK    2  A    between atoms: C_8  and  C_2 
REMARK    3  A    between atoms: C_7  and  C_10 
REMARK    4  A    between atoms: O_20  and  C_8 
REMARK    5  A    between atoms: C_22  and  O_20 
ROOT
ATOM      1  N   UNL d   1      -0.275  -1.084   0.104  0.00  0.00    -0.260 N 
ATOM      2  C   UNL d   1      -0.334   1.137  -0.042  0.00  0.00     0.087 C 
ATOM      3  N   UNL d   1       1.001  -0.679   0.301  0.00  0.00    -0.297 N 
ATOM      4  HN  UNL d   1       1.804  -1.259   0.544  1.00  0.00     0.187 HD
ATOM      5  C   UNL d   1      -1.137  -0.003  -0.029  0.00  0.00     0.049 C 
ATOM      6  C   UNL d   1       0.988   0.640   0.111  0.00  0.00     0.041 C 
ATOM      7  C   UNL d   1      -2.623  -0.124  -0.048  0.00  0.00     0.071 C 
ATOM      8  C   UNL d   1       2.278   1.379   0.093  0.00  0.00     0.071 C 
ENDROOT
BRANCH   1   9
ATOM      9  C   UNL d   1      -0.538  -2.484   0.062  0.00  0.00     0.056 A 
ATOM     10  C   UNL d   1       0.296  -3.340   0.801  0.00  0.00     0.032 A 
ATOM     11  C   UNL d   1       0.083  -4.721   0.781  0.00  0.00     0.018 A 
ATOM     12  C   UNL d   1      -0.936  -5.272  -0.006  0.00  0.00     0.048 A 
ATOM     13  C   UNL d   1      -1.742  -4.414  -0.770  0.00  0.00     0.018 A 
ATOM     14  C   UNL d   1      -1.551  -3.027  -0.732  0.00  0.00     0.032 A 
BRANCH  12  15
ATOM     15  C   UNL d   1      -1.158  -6.766  -0.055  0.00  0.00     0.417 C 
ATOM     16  F   UNL d   1      -0.316  -7.472   0.749  0.00  0.00    -0.166 F 
ATOM     17  F   UNL d   1      -2.418  -7.115   0.328  0.00  0.00    -0.166 F 
ATOM     18  F   UNL d   1      -0.995  -7.275  -1.308  0.00  0.00    -0.166 F 
ENDBRANCH  12  15
ENDBRANCH   1   9
BRANCH   2  19
ATOM     19  C   UNL d   1      -0.766   2.520  -0.201  0.00  0.00     0.297 C 
ATOM     20  O   UNL d   1      -1.925   2.856  -0.412  0.00  0.00    -0.259 OA
BRANCH  19  21
ATOM     21  O   UNL d   1       0.282   3.392  -0.162  0.00  0.00    -0.318 OA
BRANCH  21  22
ATOM     22  C   UNL d   1       0.039   4.691  -0.716  0.00  0.00     0.174 C 
ATOM     23  C   UNL d   1       0.274   4.615  -2.214  0.00  0.00     0.034 C 
ENDBRANCH  21  22
ENDBRANCH  19  21
ENDBRANCH   2  19
TORSDOF 5
