REMARK  2 active torsions:
REMARK  status: ('A' for Active; 'I' for Inactive)
REMARK    1  A    between atoms: C_4  and  C_3 
REMARK       I    between atoms: N_6  and  C_4 
REMARK    2  A    between atoms: C_10  and  N_6 
ROOT
ATOM      1  C   UNL d   1       3.114   0.036   0.241  0.00  0.00     0.270 C 
ATOM      2  N   UNL d   1       3.765   1.252   0.253  0.00  0.00    -0.322 N 
ATOM      3  O   UNL d   1       1.924  -0.189   0.402  0.00  0.00    -0.266 OA
ATOM      4  H   UNL d   1       4.756   1.215   0.032  0.00  0.00     0.169 HD
ENDROOT
BRANCH   1   5
ATOM      5  C   UNL d   1       4.038  -1.153   0.007  0.00  0.00     0.094 C 
ATOM      6  N   UNL d   1       5.321  -0.946  -0.083  0.00  0.00    -0.297 N 
ATOM      7  N   UNL d   1       6.122  -2.044  -0.208  0.00  0.00    -0.270 N 
ATOM      8  HN  UNL d   1       5.710  -0.003  -0.060  1.00  0.00     0.187 HD
ATOM      9  C   UNL d   1       5.712  -3.334  -0.440  0.00  0.00     0.236 C 
ATOM     10  H   UNL d   1       7.122  -1.899  -0.099  0.00  0.00     0.190 HD
ATOM     11  O   UNL d   1       6.511  -4.265  -0.489  0.00  0.00    -0.272 OA
ATOM     12  C   UNL d   1       4.249  -3.513  -0.734  0.00  0.00     0.111 C 
ATOM     13  C   UNL d   1       3.402  -2.515   0.018  0.00  0.00     0.073 C 
ENDBRANCH   1   5
BRANCH   2  14
ATOM     14  C   UNL d   1       3.203   2.504   0.578  0.00  0.00     0.037 A 
ATOM     15  C   UNL d   1       1.896   2.659   1.040  0.00  0.00     0.072 A 
ATOM     16  C   UNL d   1       1.420   3.922   1.383  0.00  0.00     0.124 A 
ATOM     17  F   UNL d   1       0.165   4.035   1.842  0.00  0.00    -0.205 F 
ATOM     18  C   UNL d   1       2.220   5.059   1.272  0.00  0.00    -0.023 A 
ATOM     19  C   UNL d   1       3.525   4.910   0.797  0.00  0.00     0.012 A 
ATOM     20  C   UNL d   1       1.667   6.395   1.665  0.00  0.00     0.051 C 
ATOM     21  C   UNL d   1       4.014   3.640   0.458  0.00  0.00     0.030 A 
ENDBRANCH   2  14
TORSDOF 2
