REMARK  6 active torsions:
REMARK  status: ('A' for Active; 'I' for Inactive)
REMARK    1  A    between atoms: C_8  and  C_1 
REMARK    2  A    between atoms: C_15  and  C_4 
REMARK    3  A    between atoms: N_5  and  C_9 
REMARK       I    between atoms: C_6  and  N_5 
REMARK    4  A    between atoms: C_12  and  C_6 
REMARK       I    between atoms: N_11  and  C_8 
REMARK    5  A    between atoms: C_9  and  N_13 
REMARK    6  A    between atoms: N_13  and  N_11 
ROOT
ATOM      1  C   UNL d   1      -1.313  -7.535  -1.316  0.00  0.00     0.275 C 
ATOM      2  N   UNL d   1      -1.659  -6.189  -1.316  0.00  0.00    -0.263 N 
ATOM      3  O   UNL d   1      -0.267  -7.926  -1.822  0.00  0.00    -0.266 OA
ATOM      4  H   UNL d   1      -2.381  -5.811  -0.715  0.00  0.00     0.190 HD
ENDROOT
BRANCH   1   5
ATOM      5  C   UNL d   1      -2.254  -8.440  -0.667  0.00  0.00     0.094 A 
ATOM      6  C   UNL d   1      -1.999  -9.742  -0.098  0.00  0.00     0.083 A 
ATOM      7  N   UNL d   1      -3.150 -10.284   0.337  0.00  0.00    -0.259 N 
ATOM      8  O   UNL d   1      -4.141  -9.389   0.070  0.00  0.00    -0.241 OA
ATOM      9  HN  UNL d   1      -3.260 -11.195   0.782  1.00  0.00     0.195 HD
ATOM     10  C   UNL d   1      -3.625  -8.288  -0.527  0.00  0.00     0.090 A 
ATOM     11  C   UNL d   1      -4.652  -7.295  -0.909  0.00  0.00     0.080 C 
BRANCH   6  12
ATOM     12  C   UNL d   1      -0.760 -10.506   0.105  0.00  0.00    -0.006 A 
ATOM     13  C   UNL d   1      -0.800 -11.912   0.055  0.00  0.00     0.014 A 
ATOM     14  C   UNL d   1       0.324 -12.681   0.367  0.00  0.00     0.001 A 
ATOM     15  C   UNL d   1       1.512 -12.054   0.727  0.00  0.00     0.000 A 
ATOM     16  C   UNL d   1       1.576 -10.662   0.762  0.00  0.00     0.001 A 
ATOM     17  C   UNL d   1       0.447  -9.890   0.456  0.00  0.00     0.014 A 
ENDBRANCH   6  12
ENDBRANCH   1   5
BRANCH   2  18
ATOM     18  N   UNL d   1      -0.758  -5.258  -1.866  0.00  0.00    -0.273 N 
ATOM     19  H   UNL d   1      -0.040  -5.639  -2.498  0.00  0.00     0.189 HD
BRANCH  18  20
ATOM     20  C   UNL d   1      -0.603  -3.993  -1.349  0.00  0.00     0.193 C 
ATOM     21  S   UNL d   1      -1.573  -3.323  -0.159  0.00  0.00    -0.039 SA
BRANCH  20  22
ATOM     22  N   UNL d   1       0.414  -3.228  -1.883  0.00  0.00    -0.299 N 
ATOM     23  C   UNL d   1       1.320  -3.613  -2.850  0.00  0.00     0.253 C 
ATOM     24  O   UNL d   1       1.302  -4.707  -3.407  0.00  0.00    -0.268 OA
ATOM     25  H   UNL d   1       0.524  -2.318  -1.456  0.00  0.00     0.171 HD
BRANCH  23  26
ATOM     26  C   UNL d   1       2.377  -2.605  -3.166  0.00  0.00     0.002 C 
ATOM     27  C   UNL d   1       3.628  -3.102  -3.253  0.00  0.00    -0.019 C 
ATOM     28  C   UNL d   1       4.868  -2.354  -3.623  0.00  0.00     0.036 C 
ATOM     29  C   UNL d   1       1.997  -1.191  -3.468  0.00  0.00     0.054 C 
ENDBRANCH  23  26
ENDBRANCH  20  22
ENDBRANCH  18  20
ENDBRANCH   2  18
TORSDOF 6
