REMARK  7 active torsions:
REMARK  status: ('A' for Active; 'I' for Inactive)
REMARK    1  A    between atoms: C_2  and  C_1 
REMARK    2  A    between atoms: O_7  and  C_1 
REMARK    3  A    between atoms: N_3  and  O_7 
REMARK    4  A    between atoms: C_13  and  C_8 
REMARK    5  A    between atoms: C_14  and  C_8 
REMARK    6  A    between atoms: C_18  and  C_13 
REMARK    7  A    between atoms: C_17  and  C_14 
ROOT
ATOM      1  N   UNL d   1      -1.234  -0.932   0.707  0.00  0.00    -0.265 N 
ATOM      2  HN  UNL d   1      -1.804  -0.509  -0.026  1.00  0.00     0.194 HD
ATOM      3  C   UNL d   1      -1.717  -1.326   1.850  0.00  0.00     0.019 C 
ENDROOT
BRANCH   3   4
ATOM      4  C   UNL d   1      -0.894  -1.848   3.017  0.00  0.00     0.093 C 
BRANCH   4   5
ATOM      5  C   UNL d   1      -0.769  -3.357   3.067  0.00  0.00    -0.053 A 
ATOM      6  C   UNL d   1      -0.644  -4.135   1.907  0.00  0.00     0.007 A 
ATOM      7  C   UNL d   1      -0.495  -5.522   1.987  0.00  0.00     0.001 A 
ATOM      8  C   UNL d   1      -0.453  -6.149   3.229  0.00  0.00     0.000 A 
ATOM      9  C   UNL d   1      -0.550  -5.390   4.392  0.00  0.00     0.001 A 
ATOM     10  C   UNL d   1      -0.700  -4.003   4.312  0.00  0.00     0.007 A 
ENDBRANCH   4   5
ENDBRANCH   3   4
BRANCH   3  11
ATOM     11  C   UNL d   1      -3.229  -1.299   2.016  0.00  0.00     0.093 C 
BRANCH  11  12
ATOM     12  C   UNL d   1      -3.800  -0.012   2.563  0.00  0.00    -0.053 A 
ATOM     13  C   UNL d   1      -3.566   1.214   1.923  0.00  0.00     0.007 A 
ATOM     14  C   UNL d   1      -4.209   2.376   2.355  0.00  0.00     0.001 A 
ATOM     15  C   UNL d   1      -5.093   2.330   3.432  0.00  0.00     0.000 A 
ATOM     16  C   UNL d   1      -5.323   1.122   4.087  0.00  0.00     0.001 A 
ATOM     17  C   UNL d   1      -4.681  -0.042   3.655  0.00  0.00     0.007 A 
ENDBRANCH  11  12
ENDBRANCH   3  11
BRANCH   1  18
ATOM     18  O   UNL d   1       0.151  -1.148   0.582  0.00  0.00    -0.195 OA
BRANCH  18  19
ATOM     19  C   UNL d   1       0.703  -0.098  -0.090  0.00  0.00     0.315 C 
ATOM     20  O   UNL d   1       0.493   1.088   0.131  0.00  0.00    -0.257 OA
BRANCH  19  21
ATOM     21  C   UNL d   1       1.623  -0.565  -1.165  0.00  0.00     0.043 A 
ATOM     22  C   UNL d   1       2.432   0.390  -1.799  0.00  0.00     0.043 A 
ATOM     23  C   UNL d   1       3.248   0.029  -2.877  0.00  0.00     0.056 A 
ATOM     24 CL   UNL d   1       4.201   1.268  -3.614  0.00  0.00    -0.083 Cl
ATOM     25  C   UNL d   1       3.259  -1.294  -3.332  0.00  0.00     0.055 A 
ATOM     26  C   UNL d   1       2.458  -2.251  -2.701  0.00  0.00     0.026 A 
ATOM     27 CL   UNL d   1       4.224  -1.808  -4.670  0.00  0.00    -0.083 Cl
ATOM     28  C   UNL d   1       1.642  -1.891  -1.621  0.00  0.00     0.019 A 
ENDBRANCH  19  21
ENDBRANCH  18  19
ENDBRANCH   1  18
TORSDOF 7
