REMARK  4 active torsions:
REMARK  status: ('A' for Active; 'I' for Inactive)
REMARK    1  A    between atoms: N_2  and  S_1 
REMARK    2  A    between atoms: C_4  and  S_1 
REMARK    3  A    between atoms: C_6  and  N_2 
REMARK    4  A    between atoms: C_3  and  C_11 
ROOT
ATOM      1  N   UNL d   1       2.085  -3.823   1.870  0.00  0.00    -0.191 NA
ATOM      2  C   UNL d   1       1.762  -2.255  -1.299  0.00  0.00     0.043 A 
ATOM      3  C   UNL d   1       2.276  -3.529   0.762  0.00  0.00     0.101 C 
ATOM      4  C   UNL d   1       2.538  -3.196  -0.605  0.00  0.00     0.066 A 
ATOM      5  C   UNL d   1       3.577  -3.865  -1.269  0.00  0.00     0.024 A 
ATOM      6  C   UNL d   1       2.056  -1.966  -2.637  0.00  0.00     0.026 A 
ATOM      7  C   UNL d   1       3.846  -3.594  -2.611  0.00  0.00     0.002 A 
ATOM      8  C   UNL d   1       3.090  -2.642  -3.292  0.00  0.00     0.002 A 
ENDROOT
BRANCH   2   9
ATOM      9  N   UNL d   1       0.694  -1.535  -0.651  0.00  0.00    -0.180 NA
ATOM     10  H   UNL d   1      -0.087  -1.353  -1.287  0.00  0.00     0.146 HD
BRANCH   9  11
ATOM     11  S   UNL d   1       1.121  -0.023   0.013  0.00  0.00     0.245 S 
ATOM     12  O   UNL d   1       0.352   0.955  -0.727  0.00  0.00    -0.206 OA
ATOM     13  O   UNL d   1       2.559   0.074   0.138  0.00  0.00    -0.206 OA
BRANCH  11  14
ATOM     14  C   UNL d   1       0.433  -0.136   1.650  0.00  0.00     0.074 A 
ATOM     15  C   UNL d   1       1.225  -0.621   2.693  0.00  0.00     0.025 A 
ATOM     16  C   UNL d   1       0.710  -0.671   3.990  0.00  0.00     0.018 A 
ATOM     17  C   UNL d   1      -0.590  -0.213   4.263  0.00  0.00     0.048 A 
ATOM     18  C   UNL d   1      -1.368   0.288   3.205  0.00  0.00     0.018 A 
ATOM     19  C   UNL d   1      -0.860   0.332   1.903  0.00  0.00     0.025 A 
BRANCH  17  20
ATOM     20  C   UNL d   1      -1.116  -0.255   5.678  0.00  0.00     0.417 C 
ATOM     21  F   UNL d   1      -2.374   0.253   5.806  0.00  0.00    -0.166 F 
ATOM     22  F   UNL d   1      -1.173  -1.520   6.179  0.00  0.00    -0.166 F 
ATOM     23  F   UNL d   1      -0.340   0.456   6.543  0.00  0.00    -0.166 F 
ENDBRANCH  17  20
ENDBRANCH  11  14
ENDBRANCH   9  11
ENDBRANCH   2   9
TORSDOF 4
