REMARK  7 active torsions:
REMARK  status: ('A' for Active; 'I' for Inactive)
REMARK    1  A    between atoms: C_9  and  C_3 
REMARK    2  A    between atoms: C_11  and  C_5 
REMARK    3  A    between atoms: C_10  and  C_16 
REMARK    4  A    between atoms: O_20  and  C_10 
REMARK    5  A    between atoms: O_15  and  C_17 
REMARK    6  A    between atoms: C_16  and  O_15 
REMARK    7  A    between atoms: C_25  and  O_20 
ROOT
ATOM      1  N   UNL d   1      -0.866   1.416  -0.626  0.00  0.00    -0.357 N 
ATOM      2  HN  UNL d   1      -0.752   2.161  -1.313  1.00  0.00     0.166 HD
ATOM      3  C   UNL d   1      -2.032   1.210  -0.092  0.00  0.00     0.021 C 
ATOM      4  N   UNL d   1      -0.870  -1.604  -0.428  0.00  0.00    -0.282 NA
ATOM      5  C   UNL d   1      -2.180  -1.282   0.152  0.00  0.00     0.099 C 
ATOM      6  C   UNL d   1      -2.310   0.067   0.860  0.00  0.00     0.082 C 
ATOM      7  C   UNL d   1       0.242   0.623  -0.270  0.00  0.00     0.053 A 
ATOM      8  C   UNL d   1       0.239  -0.784  -0.165  0.00  0.00     0.035 A 
ATOM      9  C   UNL d   1       1.444   1.319  -0.062  0.00  0.00     0.031 A 
ATOM     10  C   UNL d   1       1.459  -1.445   0.056  0.00  0.00     0.026 A 
ATOM     11  C   UNL d   1       2.634   0.649   0.217  0.00  0.00     0.002 A 
ATOM     12  C   UNL d   1       2.646  -0.739   0.262  0.00  0.00     0.002 A 
ATOM     13  H   UNL d   1      -0.921  -1.767  -1.431  0.00  0.00     0.128 HD
ENDROOT
BRANCH   3  14
ATOM     14  C   UNL d   1      -3.137   2.164  -0.429  0.00  0.00    -0.013 A 
ATOM     15  C   UNL d   1      -3.139   2.791  -1.682  0.00  0.00     0.016 A 
ATOM     16  C   UNL d   1      -4.133   3.721  -2.009  0.00  0.00     0.037 A 
ATOM     17  C   UNL d   1      -5.122   4.036  -1.076  0.00  0.00     0.069 A 
ATOM     18  C   UNL d   1      -5.127   3.402   0.167  0.00  0.00     0.037 A 
ATOM     19  C   UNL d   1      -4.129   2.484   0.500  0.00  0.00     0.016 A 
BRANCH  17  20
ATOM     20  O   UNL d   1      -6.160   4.899  -1.277  0.00  0.00    -0.342 OA
BRANCH  20  21
ATOM     21  C   UNL d   1      -5.898   6.013  -2.120  0.00  0.00     0.286 C 
BRANCH  21  22
ATOM     22  C   UNL d   1      -7.148   6.873  -2.201  0.00  0.00     0.283 C 
ATOM     23  O   UNL d   1      -8.204   6.666  -1.621  0.00  0.00    -0.263 OA
BRANCH  22  24
ATOM     24  O   UNL d   1      -6.937   7.878  -3.106  0.00  0.00    -0.320 OA
BRANCH  24  25
ATOM     25  C   UNL d   1      -8.128   8.509  -3.596  0.00  0.00     0.174 C 
ATOM     26  C   UNL d   1      -8.610   7.722  -4.802  0.00  0.00     0.034 C 
ENDBRANCH  24  25
ENDBRANCH  22  24
ENDBRANCH  21  22
ENDBRANCH  20  21
ENDBRANCH  17  20
ENDBRANCH   3  14
BRANCH   5  27
ATOM     27  C   UNL d   1      -3.308  -1.522  -0.849  0.00  0.00    -0.040 A 
ATOM     28  C   UNL d   1      -3.239  -1.073  -2.178  0.00  0.00     0.009 A 
ATOM     29  C   UNL d   1      -4.298  -1.291  -3.061  0.00  0.00     0.001 A 
ATOM     30  C   UNL d   1      -5.448  -1.945  -2.626  0.00  0.00     0.000 A 
ATOM     31  C   UNL d   1      -5.541  -2.381  -1.307  0.00  0.00     0.001 A 
ATOM     32  C   UNL d   1      -4.479  -2.173  -0.425  0.00  0.00     0.009 A 
ENDBRANCH   5  27
TORSDOF 7
