REMARK  2 active torsions:
REMARK  status: ('A' for Active; 'I' for Inactive)
REMARK       I    between atoms: N_2  and  C_1 
REMARK    1  A    between atoms: C_4  and  C_1 
REMARK    2  A    between atoms: C_7  and  N_2 
ROOT
ATOM      1  C   UNL d   1       1.302   0.110  -0.049  0.00  0.00     0.256 C 
ATOM      2  N   UNL d   1       0.558   1.277  -0.018  0.00  0.00    -0.323 N 
ATOM      3  O   UNL d   1       2.502   0.028  -0.291  0.00  0.00    -0.267 OA
ATOM      4  H   UNL d   1      -0.420   1.214   0.224  0.00  0.00     0.169 HD
ENDROOT
BRANCH   1   5
ATOM      5  C   UNL d   1       0.564  -1.163   0.210  0.00  0.00     0.035 A 
ATOM      6  C   UNL d   1       1.134  -2.344  -0.278  0.00  0.00     0.034 A 
ATOM      7  C   UNL d   1       0.466  -3.535  -0.070  0.00  0.00     0.088 A 
ATOM      8  N   UNL d   1      -0.711  -3.623   0.583  0.00  0.00    -0.375 N 
ATOM      9  C   UNL d   1      -1.234  -2.475   1.061  0.00  0.00     0.088 A 
ATOM     10  HN  UNL d   1      -1.185  -4.518   0.709  1.00  0.00     0.164 HD
ATOM     11  C   UNL d   1      -0.642  -1.231   0.909  0.00  0.00     0.034 A 
ENDBRANCH   1   5
BRANCH   2  12
ATOM     12  C   UNL d   1       1.005   2.575  -0.360  0.00  0.00     0.035 A 
ATOM     13  C   UNL d   1       2.269   2.850  -0.892  0.00  0.00     0.032 A 
ATOM     14  C   UNL d   1       2.623   4.155  -1.248  0.00  0.00     0.044 A 
ATOM     15  C   UNL d   1       1.716   5.188  -1.063  0.00  0.00     0.116 A 
ATOM     16  C   UNL d   1       0.459   4.940  -0.528  0.00  0.00     0.044 A 
ATOM     17  F   UNL d   1       2.054   6.437  -1.408  0.00  0.00    -0.206 F 
ATOM     18  C   UNL d   1       0.102   3.634  -0.181  0.00  0.00     0.032 A 
ENDBRANCH   2  12
TORSDOF 2
