REMARK  2 active torsions:
REMARK  status: ('A' for Active; 'I' for Inactive)
REMARK    1  A    between atoms: N_7  and  N_1 
REMARK    2  A    between atoms: C_10  and  N_7 
ROOT
ATOM      1  N   UNL d   1       2.416  -0.511   0.011  0.00  0.00    -0.229 N 
ATOM      2  C   UNL d   1       1.298  -1.353   0.053  0.00  0.00     0.277 A 
ATOM      3  C   UNL d   1       2.325   0.847  -0.180  0.00  0.00     0.140 A 
ATOM      4  C   UNL d   1       1.162   1.511  -0.176  0.00  0.00     0.039 A 
ATOM      5  C   UNL d   1      -0.026  -0.666   0.011  0.00  0.00     0.045 A 
ATOM      6  C   UNL d   1      -0.093   0.739  -0.064  0.00  0.00    -0.002 A 
ATOM      7  O   UNL d   1       1.349  -2.582   0.095  0.00  0.00    -0.265 OA
ATOM      8 BR   UNL d   1       1.160   3.380  -0.307  0.00  0.00    -0.049 Br
ATOM      9  C   UNL d   1      -1.196  -1.442   0.039  0.00  0.00     0.018 A 
ATOM     10  C   UNL d   1      -1.365   1.337  -0.072  0.00  0.00     0.014 A 
ATOM     11  C   UNL d   1      -2.445  -0.826   0.006  0.00  0.00     0.001 A 
ATOM     12  C   UNL d   1      -2.528   0.562  -0.039  0.00  0.00     0.001 A 
ENDROOT
BRANCH   1  13
ATOM     13  N   UNL d   1       3.670  -1.166   0.036  0.00  0.00    -0.292 N 
ATOM     14  H   UNL d   1       3.851  -1.708  -0.804  0.00  0.00     0.187 HD
BRANCH  13  15
ATOM     15  C   UNL d   1       4.779  -0.546   0.645  0.00  0.00     0.048 A 
ATOM     16  C   UNL d   1       4.662   0.302   1.757  0.00  0.00     0.032 A 
ATOM     17  C   UNL d   1       5.766   1.002   2.250  0.00  0.00     0.021 A 
ATOM     18  C   UNL d   1       7.017   0.806   1.673  0.00  0.00     0.011 A 
ATOM     19  C   UNL d   1       7.176  -0.107   0.635  0.00  0.00     0.021 A 
ATOM     20 BR   UNL d   1       8.502   1.794   2.294  0.00  0.00    -0.051 Br
ATOM     21  C   UNL d   1       6.061  -0.786   0.131  0.00  0.00     0.032 A 
ENDBRANCH  13  15
ENDBRANCH   1  13
TORSDOF 2
