REMARK  6 active torsions:
REMARK  status: ('A' for Active; 'I' for Inactive)
REMARK    1  A    between atoms: C_8  and  C_1 
REMARK    2  A    between atoms: C_14  and  C_6 
REMARK    3  A    between atoms: C_9  and  C_15 
REMARK       I    between atoms: N_12  and  C_9 
REMARK    4  A    between atoms: C_16  and  N_12 
REMARK    5  A    between atoms: C_15  and  C_14 
REMARK    6  A    between atoms: C_18  and  C_16 
ROOT
ATOM      1  C   UNL d   1      -0.348  -3.354   3.011  0.00  0.00     0.154 A 
ATOM      2  N   UNL d   1       0.831  -3.094   2.331  0.00  0.00    -0.322 N 
ATOM      3  HN  UNL d   1       1.791  -3.217   2.652  1.00  0.00     0.169 HD
ATOM      4  N   UNL d   1      -1.452  -3.069   2.297  0.00  0.00    -0.241 N 
ATOM      5  HN  UNL d   1      -2.427  -3.172   2.578  1.00  0.00     0.196 HD
ATOM      6  C   UNL d   1       0.406  -2.651   1.172  0.00  0.00     0.148 A 
ATOM      7  O   UNL d   1      -0.953  -2.599   1.082  0.00  0.00    -0.223 OA
ENDROOT
BRANCH   6   8
ATOM      8  C   UNL d   1       1.173  -2.214  -0.018  0.00  0.00     0.096 C 
BRANCH   8   9
ATOM      9  C   UNL d   1       2.679  -2.365   0.154  0.00  0.00     0.111 C 
BRANCH   9  10
ATOM     10  C   UNL d   1       3.147  -3.794  -0.042  0.00  0.00     0.218 C 
ATOM     11  N   UNL d   1       2.939  -4.638   1.024  0.00  0.00    -0.357 N 
ATOM     12  H   UNL d   1       2.607  -4.240   1.899  0.00  0.00     0.162 HD
ATOM     13  O   UNL d   1       3.673  -4.151  -1.090  0.00  0.00    -0.274 OA
BRANCH  11  14
ATOM     14  C   UNL d   1       3.483  -5.978   0.996  0.00  0.00     0.161 C 
BRANCH  14  15
ATOM     15  C   UNL d   1       3.097  -6.899   2.133  0.00  0.00    -0.040 A 
ATOM     16  C   UNL d   1       2.089  -6.614   3.063  0.00  0.00     0.012 A 
ATOM     17  C   UNL d   1       1.771  -7.516   4.081  0.00  0.00     0.043 A 
ATOM     18  C   UNL d   1       2.450  -8.721   4.177  0.00  0.00     0.116 A 
ATOM     19  C   UNL d   1       3.440  -9.044   3.259  0.00  0.00     0.043 A 
ATOM     20  F   UNL d   1       2.146  -9.584   5.155  0.00  0.00    -0.206 F 
ATOM     21  C   UNL d   1       3.759  -8.139   2.244  0.00  0.00     0.012 A 
ENDBRANCH  14  15
ENDBRANCH  11  14
ENDBRANCH   9  10
ENDBRANCH   8   9
ENDBRANCH   6   8
BRANCH   1  22
ATOM     22  C   UNL d   1      -0.361  -3.961   4.347  0.00  0.00     0.078 A 
ATOM     23  N   UNL d   1       0.844  -4.073   4.969  0.00  0.00    -0.363 N 
ATOM     24  C   UNL d   1       0.880  -4.722   6.153  0.00  0.00     0.088 A 
ATOM     25  HN  UNL d   1       1.690  -3.681   4.557  1.00  0.00     0.165 HD
ATOM     26  C   UNL d   1      -0.234  -5.277   6.757  0.00  0.00     0.017 A 
ATOM     27  C   UNL d   1      -1.463  -5.141   6.121  0.00  0.00     0.004 A 
ATOM     28  C   UNL d   1      -1.533  -4.472   4.900  0.00  0.00     0.033 A 
ENDBRANCH   1  22
TORSDOF 6
