REMARK  5 active torsions:
REMARK  status: ('A' for Active; 'I' for Inactive)
REMARK    1  A    between atoms: N_2  and  C_1 
REMARK    2  A    between atoms: N_6  and  C_1 
REMARK    3  A    between atoms: C_3  and  N_2 
REMARK    4  A    between atoms: C_8  and  N_6 
REMARK    5  A    between atoms: O_16  and  C_10 
ROOT
ATOM      1  C   UNL d   1       1.011   0.077  -0.081  0.00  0.00     0.177 C 
ATOM      2  S   UNL d   1       0.935   0.729   1.464  0.00  0.00    -0.040 SA
ENDROOT
BRANCH   1   3
ATOM      3  N   UNL d   1       2.044  -0.779  -0.334  0.00  0.00    -0.319 N 
ATOM      4  H   UNL d   1       2.623  -0.961   0.473  0.00  0.00     0.169 HD
BRANCH   3   5
ATOM      5  C   UNL d   1       2.255  -1.577  -1.467  0.00  0.00     0.107 A 
ATOM      6  N   UNL d   1       1.544  -1.363  -2.592  0.00  0.00    -0.346 N 
ATOM      7  C   UNL d   1       1.718  -2.217  -3.629  0.00  0.00     0.007 A 
ATOM      8  HN  UNL d   1       0.893  -0.580  -2.661  1.00  0.00     0.167 HD
ATOM      9  C   UNL d   1       0.899  -1.979  -4.861  0.00  0.00     0.068 C 
ATOM     10  C   UNL d   1       2.608  -3.285  -3.579  0.00  0.00     0.025 A 
ATOM     11  C   UNL d   1       3.353  -3.477  -2.422  0.00  0.00     0.006 A 
ATOM     12  C   UNL d   1       3.183  -2.606  -1.352  0.00  0.00     0.048 A 
ENDBRANCH   3   5
ENDBRANCH   1   3
BRANCH   1  13
ATOM     13  N   UNL d   1       0.143   0.338  -1.106  0.00  0.00    -0.333 N 
ATOM     14  H   UNL d   1       0.535   0.221  -2.040  0.00  0.00     0.168 HD
BRANCH  13  15
ATOM     15  C   UNL d   1      -1.244   0.545  -1.033  0.00  0.00     0.034 A 
ATOM     16  C   UNL d   1      -1.868   1.307  -2.023  0.00  0.00     0.032 A 
ATOM     17  C   UNL d   1      -3.255   1.508  -1.989  0.00  0.00     0.039 A 
ATOM     18  C   UNL d   1      -4.024   0.901  -0.996  0.00  0.00     0.068 A 
ATOM     19  C   UNL d   1      -3.410   0.080  -0.054  0.00  0.00     0.039 A 
ATOM     20  C   UNL d   1      -2.026  -0.082  -0.058  0.00  0.00     0.032 A 
BRANCH  18  21
ATOM     21  O   UNL d   1      -5.385   0.996  -0.892  0.00  0.00    -0.356 OA
ATOM     22  C   UNL d   1      -5.917   2.274  -1.218  0.00  0.00     0.210 C 
ENDBRANCH  18  21
ENDBRANCH  13  15
ENDBRANCH   1  13
TORSDOF 5
