REMARK  4 active torsions:
REMARK  status: ('A' for Active; 'I' for Inactive)
REMARK    1  A    between atoms: N_2  and  S_1 
REMARK    2  A    between atoms: C_5  and  S_1 
REMARK    3  A    between atoms: C_15  and  C_4 
REMARK    4  A    between atoms: O_27  and  C_24 
ROOT
ATOM      1  N   UNL d   1       0.557  -0.829   1.298  0.00  0.00    -0.293 N 
ATOM      2  C   UNL d   1       0.696  -2.892   2.660  0.00  0.00    -0.017 A 
ATOM      3  C   UNL d   1       1.013  -2.253   1.323  0.00  0.00     0.163 C 
ATOM      4  C   UNL d   1       0.385  -2.155   3.785  0.00  0.00    -0.007 A 
ATOM      5  C   UNL d   1       0.844  -0.041   2.543  0.00  0.00     0.142 C 
ATOM      6  S   UNL d   1       0.160  -3.112   5.171  0.00  0.00    -0.106 SA
ATOM      7  C   UNL d   1       0.237  -0.672   3.804  0.00  0.00     0.067 C 
ATOM      8  C   UNL d   1       0.691  -4.297   2.958  0.00  0.00     0.018 A 
ATOM      9  C   UNL d   1       0.442  -4.549   4.289  0.00  0.00     0.051 A 
ENDROOT
BRANCH   1  10
ATOM     10  S   UNL d   1       0.881   0.061  -0.116  0.00  0.00     0.261 S 
ATOM     11  O   UNL d   1       2.312   0.173  -0.271  0.00  0.00    -0.200 OA
ATOM     12  O   UNL d   1       0.052   1.251  -0.083  0.00  0.00    -0.200 OA
BRANCH  10  13
ATOM     13  C   UNL d   1       0.253  -0.948  -1.436  0.00  0.00     0.081 A 
ATOM     14  C   UNL d   1       1.135  -1.481  -2.382  0.00  0.00     0.052 A 
ATOM     15  C   UNL d   1       0.630  -2.282  -3.406  0.00  0.00     0.074 A 
ATOM     16 CL   UNL d   1       1.718  -2.987  -4.538  0.00  0.00    -0.081 Cl
ATOM     17  C   UNL d   1      -0.741  -2.520  -3.494  0.00  0.00     0.138 A 
ATOM     18  C   UNL d   1      -1.621  -1.964  -2.567  0.00  0.00     0.045 A 
ATOM     19  F   UNL d   1      -1.240  -3.292  -4.471  0.00  0.00    -0.204 F 
ATOM     20  C   UNL d   1      -1.126  -1.171  -1.530  0.00  0.00     0.028 A 
ENDBRANCH  10  13
ENDBRANCH   1  10
BRANCH   3  21
ATOM     21  C   UNL d   1       2.483  -2.568   1.093  0.00  0.00    -0.030 A 
ATOM     22  C   UNL d   1       2.851  -3.355  -0.013  0.00  0.00     0.012 A 
ATOM     23  C   UNL d   1       4.182  -3.729  -0.226  0.00  0.00     0.037 A 
ATOM     24  C   UNL d   1       5.168  -3.343   0.679  0.00  0.00     0.068 A 
ATOM     25  C   UNL d   1       4.828  -2.538   1.762  0.00  0.00     0.037 A 
ATOM     26  C   UNL d   1       3.502  -2.161   1.973  0.00  0.00     0.012 A 
BRANCH  24  27
ATOM     27  O   UNL d   1       6.489  -3.681   0.585  0.00  0.00    -0.356 OA
ATOM     28  C   UNL d   1       6.734  -4.965   0.022  0.00  0.00     0.210 C 
ENDBRANCH  24  27
ENDBRANCH   3  21
TORSDOF 4
