REMARK  1 active torsions:
REMARK  status: ('A' for Active; 'I' for Inactive)
REMARK    1  A    between atoms: C_4  and  N_1 
ROOT
ATOM      1  N   UNL d   1      -0.810  -0.960  -0.279  0.00  0.00    -0.225 N 
ATOM      2  C   UNL d   1       0.541  -0.994  -0.080  0.00  0.00     0.375 C 
ATOM      3  C   UNL d   1      -1.240   0.323  -0.098  0.00  0.00     0.262 C 
ATOM      4  O   UNL d   1       1.023   0.280   0.075  0.00  0.00    -0.289 OA
ATOM      5  C   UNL d   1      -0.033   1.200  -0.188  0.00  0.00     0.222 C 
ATOM      6  O   UNL d   1       1.289  -1.955  -0.046  0.00  0.00    -0.237 OA
ATOM      7  O   UNL d   1      -2.375   0.746   0.077  0.00  0.00    -0.270 OA
ATOM      8  C   UNL d   1       0.084   1.741  -1.605  0.00  0.00     0.050 C 
ENDROOT
BRANCH   1   9
ATOM      9  C   UNL d   1      -1.637  -2.054  -0.659  0.00  0.00     0.051 A 
ATOM     10  C   UNL d   1      -1.199  -3.384  -0.585  0.00  0.00     0.054 A 
ATOM     11  C   UNL d   1      -1.989  -4.426  -1.083  0.00  0.00     0.037 A 
ATOM     12 CL   UNL d   1      -1.417  -6.048  -0.989  0.00  0.00    -0.084 Cl
ATOM     13  C   UNL d   1      -3.221  -4.171  -1.672  0.00  0.00     0.048 A 
ATOM     14  C   UNL d   1      -3.673  -2.863  -1.738  0.00  0.00     0.037 A 
ATOM     15  C   UNL d   1      -2.901  -1.816  -1.229  0.00  0.00     0.054 A 
ATOM     16 CL   UNL d   1      -5.177  -2.515  -2.501  0.00  0.00    -0.084 Cl
ENDBRANCH   1   9
TORSDOF 1
