REMARK  3 active torsions:
REMARK  status: ('A' for Active; 'I' for Inactive)
REMARK    1  A    between atoms: C_4  and  C_1 
REMARK       I    between atoms: N_7  and  C_4 
REMARK    2  A    between atoms: C_9  and  N_7 
REMARK    3  A    between atoms: N_8  and  C_10 
ROOT
ATOM      1  C   UNL d   1       4.833  -0.355  -1.229  0.00  0.00     0.264 C 
ATOM      2  N   UNL d   1       4.552  -1.181  -0.154  0.00  0.00    -0.320 N 
ATOM      3  O   UNL d   1       4.626  -0.644  -2.402  0.00  0.00    -0.267 OA
ATOM      4  H   UNL d   1       4.986  -0.960   0.734  0.00  0.00     0.169 HD
ENDROOT
BRANCH   2   5
ATOM      5  C   UNL d   1       4.063  -2.502  -0.231  0.00  0.00     0.061 A 
ATOM      6  C   UNL d   1       4.522  -3.432   0.743  0.00  0.00     0.057 A 
ATOM      7  C   UNL d   1       3.890  -4.687   0.759  0.00  0.00     0.031 A 
ATOM      8  C   UNL d   1       2.880  -5.016  -0.154  0.00  0.00     0.002 A 
ATOM      9  C   UNL d   1       2.481  -4.098  -1.120  0.00  0.00     0.002 A 
ATOM     10  C   UNL d   1       3.078  -2.843  -1.165  0.00  0.00     0.032 A 
BRANCH   6  11
ATOM     11  N   UNL d   1       5.557  -3.105   1.633  0.00  0.00    -0.379 N 
ATOM     12  C   UNL d   1       5.651  -3.757   2.946  0.00  0.00     0.123 C 
ATOM     13  C   UNL d   1       6.747  -4.824   2.970  0.00  0.00     0.020 C 
ATOM     14  C   UNL d   1       8.081  -4.237   2.524  0.00  0.00     0.003 C 
ATOM     15  C   UNL d   1       7.941  -3.639   1.133  0.00  0.00     0.020 C 
ATOM     16  C   UNL d   1       6.829  -2.598   1.079  0.00  0.00     0.123 C 
ENDBRANCH   6  11
ENDBRANCH   2   5
BRANCH   1  17
ATOM     17  C   UNL d   1       5.514   0.863  -0.833  0.00  0.00     0.096 A 
ATOM     18  S   UNL d   1       4.825   1.863   0.363  0.00  0.00    -0.082 SA
ATOM     19  C   UNL d   1       6.101   3.011   0.256  0.00  0.00     0.017 A 
ATOM     20  C   UNL d   1       6.219   4.204   0.992  0.00  0.00     0.020 A 
ATOM     21  C   UNL d   1       7.069   2.619  -0.672  0.00  0.00     0.004 A 
ATOM     22  C   UNL d   1       7.337   5.013   0.797  0.00  0.00     0.001 A 
ATOM     23  C   UNL d   1       8.323   4.645  -0.107  0.00  0.00     0.001 A 
ATOM     24  C   UNL d   1       8.198   3.463  -0.841  0.00  0.00     0.014 A 
ATOM     25  C   UNL d   1       6.700   1.377  -1.308  0.00  0.00     0.068 A 
ATOM     26 CL   UNL d   1       7.702   0.621  -2.484  0.00  0.00    -0.082 Cl
ENDBRANCH   1  17
TORSDOF 3
