REMARK  7 active torsions:
REMARK  status: ('A' for Active; 'I' for Inactive)
REMARK    1  A    between atoms: C_5  and  N_1 
REMARK    2  A    between atoms: C_17  and  C_3 
REMARK    3  A    between atoms: O_24  and  C_12 
REMARK    4  A    between atoms: O_25  and  C_14 
REMARK    5  A    between atoms: O_26  and  C_15 
REMARK    6  A    between atoms: C_20  and  C_17 
REMARK    7  A    between atoms: O_27  and  C_18 
ROOT
ATOM      1  C   UNL d   1       4.335   0.687   1.824  0.00  0.00     0.139 C 
ATOM      2  C   UNL d   1       3.333   1.133   1.034  0.00  0.00     0.120 C 
ATOM      3  C   UNL d   1       4.535  -0.684   2.156  0.00  0.00     0.112 C 
ATOM      4  C   UNL d   1       5.274   1.615   2.345  0.00  0.00     0.112 C 
ATOM      5  N   UNL d   1       4.693  -1.802   2.412  0.00  0.00    -0.191 NA
ATOM      6  N   UNL d   1       6.051   2.372   2.762  0.00  0.00    -0.191 NA
ENDROOT
BRANCH   2   7
ATOM      7  N   UNL d   1       2.287   0.485   0.357  0.00  0.00    -0.378 N 
ATOM      8  C   UNL d   1       1.259   1.260  -0.430  0.00  0.00     0.121 C 
ATOM      9  C   UNL d   1      -0.124   0.660  -0.219  0.00  0.00    -0.026 A 
ATOM     10  C   UNL d   1      -1.259   1.457  -0.013  0.00  0.00     0.049 A 
ATOM     11  C   UNL d   1      -0.266  -0.731  -0.240  0.00  0.00    -0.045 A 
ATOM     12  C   UNL d   1      -2.526   0.877   0.179  0.00  0.00     0.102 A 
ATOM     13  C   UNL d   1      -2.653  -0.524   0.125  0.00  0.00     0.102 A 
ATOM     14  C   UNL d   1      -1.520  -1.312  -0.094  0.00  0.00     0.047 A 
ATOM     15  C   UNL d   1       0.969  -1.562  -0.368  0.00  0.00     0.059 C 
ATOM     16  C   UNL d   1       2.039  -0.970   0.537  0.00  0.00     0.128 C 
BRANCH   8  17
ATOM     17  C   UNL d   1       1.658   1.286  -1.933  0.00  0.00     0.068 C 
BRANCH  17  18
ATOM     18  C   UNL d   1       0.766   2.090  -2.863  0.00  0.00    -0.053 A 
ATOM     19  C   UNL d   1       0.178   1.483  -3.995  0.00  0.00     0.046 A 
ATOM     20  C   UNL d   1      -0.499   2.253  -4.953  0.00  0.00     0.102 A 
ATOM     21  C   UNL d   1      -0.697   3.623  -4.719  0.00  0.00     0.101 A 
ATOM     22  C   UNL d   1      -0.130   4.220  -3.589  0.00  0.00     0.040 A 
ATOM     23  C   UNL d   1       0.616   3.469  -2.680  0.00  0.00     0.010 A 
BRANCH  20  24
ATOM     24  O   UNL d   1      -0.836   1.793  -6.194  0.00  0.00    -0.353 OA
ATOM     25  C   UNL d   1      -1.195   0.435  -6.375  0.00  0.00     0.210 C 
ENDBRANCH  20  24
BRANCH  21  26
ATOM     26  O   UNL d   1      -1.360   4.501  -5.541  0.00  0.00    -0.353 OA
ATOM     27  C   UNL d   1      -2.448   3.963  -6.289  0.00  0.00     0.210 C 
ENDBRANCH  21  26
ENDBRANCH  17  18
ENDBRANCH   8  17
BRANCH  12  28
ATOM     28  O   UNL d   1      -3.653   1.615   0.423  0.00  0.00    -0.353 OA
ATOM     29  C   UNL d   1      -3.536   3.027   0.515  0.00  0.00     0.210 C 
ENDBRANCH  12  28
BRANCH  13  30
ATOM     30  O   UNL d   1      -3.774  -1.298   0.273  0.00  0.00    -0.353 OA
ATOM     31  C   UNL d   1      -5.009  -0.666   0.559  0.00  0.00     0.210 C 
ENDBRANCH  13  30
ENDBRANCH   2   7
TORSDOF 7
