REMARK  6 active torsions:
REMARK  status: ('A' for Active; 'I' for Inactive)
REMARK    1  A    between atoms: C_8  and  N_1 
REMARK    2  A    between atoms: S_9  and  C_2 
REMARK    3  A    between atoms: C_17  and  S_9 
REMARK    4  A    between atoms: C_18  and  C_17 
REMARK    5  A    between atoms: O_21  and  C_18 
REMARK    6  A    between atoms: O_22  and  C_18 
ROOT
ATOM      1  N   UNL d   1       2.338  -0.821  -0.148  0.00  0.00    -0.258 N 
ATOM      2  C   UNL d   1       2.348   0.575  -0.213  0.00  0.00     0.154 A 
ATOM      3  C   UNL d   1       1.126  -1.515   0.012  0.00  0.00     0.270 A 
ATOM      4  N   UNL d   1       1.280   1.308  -0.135  0.00  0.00    -0.335 N 
ATOM      5  HN  UNL d   1       1.345   2.326  -0.142  1.00  0.00     0.168 HD
ATOM      6  C   UNL d   1      -0.097  -0.713   0.010  0.00  0.00     0.098 A 
ATOM      7  C   UNL d   1       0.035   0.671  -0.039  0.00  0.00     0.053 A 
ATOM      8  O   UNL d   1       1.028  -2.727   0.198  0.00  0.00    -0.266 OA
ATOM      9  C   UNL d   1      -1.362  -1.306   0.053  0.00  0.00     0.134 A 
ATOM     10  F   UNL d   1      -1.517  -2.636   0.086  0.00  0.00    -0.205 F 
ATOM     11  C   UNL d   1      -1.126   1.454  -0.051  0.00  0.00     0.031 A 
ATOM     12  C   UNL d   1      -2.393   0.862  -0.009  0.00  0.00     0.005 A 
ATOM     13  C   UNL d   1      -2.510  -0.522   0.042  0.00  0.00     0.043 A 
ENDROOT
BRANCH   1  14
ATOM     14  C   UNL d   1       3.518  -1.633  -0.132  0.00  0.00     0.045 A 
ATOM     15  C   UNL d   1       3.610  -2.730  -1.003  0.00  0.00     0.037 A 
ATOM     16  C   UNL d   1       4.654  -3.661  -0.905  0.00  0.00    -0.054 A 
ATOM     17  C   UNL d   1       4.667  -4.842  -1.835  0.00  0.00     0.049 C 
ATOM     18  C   UNL d   1       5.634  -3.486   0.089  0.00  0.00    -0.056 A 
ATOM     19  C   UNL d   1       5.565  -2.366   0.933  0.00  0.00     0.009 A 
ATOM     20  C   UNL d   1       6.722  -4.503   0.298  0.00  0.00     0.049 C 
ATOM     21  C   UNL d   1       4.518  -1.447   0.827  0.00  0.00     0.031 A 
ENDBRANCH   1  14
BRANCH   2  22
ATOM     22  S   UNL d   1       3.868   1.381  -0.579  0.00  0.00    -0.088 SA
BRANCH  22  23
ATOM     23  C   UNL d   1       3.525   3.125  -0.182  0.00  0.00     0.143 C 
BRANCH  23  24
ATOM     24  C   UNL d   1       3.495   3.466   1.322  0.00  0.00     0.268 C 
BRANCH  24  25
ATOM     25  O   UNL d   1       4.722   3.006   1.908  0.00  0.00    -0.365 OA
ATOM     26  C   UNL d   1       4.740   3.135   3.321  0.00  0.00     0.204 C 
ENDBRANCH  24  25
BRANCH  24  27
ATOM     27  O   UNL d   1       3.416   4.884   1.521  0.00  0.00    -0.365 OA
ATOM     28  C   UNL d   1       2.200   5.473   1.094  0.00  0.00     0.204 C 
ENDBRANCH  24  27
ENDBRANCH  23  24
ENDBRANCH  22  23
ENDBRANCH   2  22
TORSDOF 6
