REMARK  2 active torsions:
REMARK  status: ('A' for Active; 'I' for Inactive)
REMARK    1  A    between atoms: C_3  and  C_1 
REMARK       I    between atoms: N_6  and  C_3 
REMARK    2  A    between atoms: C_11  and  N_6 
ROOT
ATOM      1  C   UNL d   1      -1.551  -2.811   0.071  0.00  0.00     0.259 C 
ATOM      2  N   UNL d   1      -0.365  -3.520  -0.007  0.00  0.00    -0.323 N 
ATOM      3  O   UNL d   1      -2.671  -3.317   0.110  0.00  0.00    -0.267 OA
ATOM      4  H   UNL d   1       0.490  -2.984   0.119  0.00  0.00     0.169 HD
ENDROOT
BRANCH   1   5
ATOM      5  C   UNL d   1      -1.462  -1.323   0.153  0.00  0.00     0.066 A 
ATOM      6  C   UNL d   1      -0.288  -0.586   0.082  0.00  0.00     0.092 A 
ATOM      7  O   UNL d   1       0.982  -1.102  -0.008  0.00  0.00    -0.339 OA
ATOM      8  C   UNL d   1      -0.308   0.802   0.111  0.00  0.00    -0.021 A 
ATOM      9  C   UNL d   1       1.881   0.046  -0.073  0.00  0.00     0.064 A 
ATOM     10  C   UNL d   1       2.617  -0.020  -1.414  0.00  0.00     0.046 C 
ATOM     11  C   UNL d   1       2.877  -0.082   1.083  0.00  0.00     0.046 C 
ATOM     12  C   UNL d   1       1.064   1.349   0.048  0.00  0.00     0.079 A 
ATOM     13  C   UNL d   1      -1.496   1.512   0.209  0.00  0.00     0.010 A 
ATOM     14  C   UNL d   1      -2.684   0.796   0.317  0.00  0.00     0.002 A 
ATOM     15  C   UNL d   1      -2.667  -0.605   0.295  0.00  0.00     0.020 A 
ENDBRANCH   1   5
BRANCH   2  16
ATOM     16  C   UNL d   1      -0.255  -4.929  -0.053  0.00  0.00     0.036 A 
ATOM     17  C   UNL d   1      -1.319  -5.767  -0.399  0.00  0.00     0.055 A 
ATOM     18  C   UNL d   1      -1.194  -7.160  -0.313  0.00  0.00     0.058 A 
ATOM     19 CL   UNL d   1      -2.569  -8.119  -0.737  0.00  0.00    -0.082 Cl
ATOM     20  C   UNL d   1       0.010  -7.723   0.107  0.00  0.00     0.055 A 
ATOM     21  C   UNL d   1       1.099  -6.894   0.391  0.00  0.00     0.028 A 
ATOM     22 CL   UNL d   1       0.215  -9.425   0.316  0.00  0.00    -0.083 Cl
ATOM     23  C   UNL d   1       0.971  -5.501   0.296  0.00  0.00     0.031 A 
ENDBRANCH   2  16
TORSDOF 2
