REMARK  7 active torsions:
REMARK  status: ('A' for Active; 'I' for Inactive)
REMARK    1  A    between atoms: C_11  and  C_1 
REMARK    2  A    between atoms: C_2  and  C_11 
REMARK    3  A    between atoms: N_21  and  C_3 
REMARK    4  A    between atoms: N_22  and  C_4 
REMARK    5  A    between atoms: C_14  and  C_11 
REMARK    6  A    between atoms: O_26  and  C_16 
REMARK    7  A    between atoms: O_27  and  C_24 
ROOT
ATOM      1  C   UNL d   1      -1.476   2.434  -0.102  0.00  0.00     0.102 C 
ENDROOT
BRANCH   1   2
ATOM      2  C   UNL d   1      -1.035   3.219  -1.341  0.00  0.00     0.061 A 
ATOM      3  C   UNL d   1      -1.169   2.829  -2.634  0.00  0.00     0.092 A 
ATOM      4  N   UNL d   1      -0.840   3.707  -3.624  0.00  0.00    -0.323 N 
ATOM      5  C   UNL d   1      -0.363   4.966  -3.431  0.00  0.00     0.179 A 
ATOM      6  H   UNL d   1      -0.950   3.409  -4.588  0.00  0.00     0.169 HD
ATOM      7  N   UNL d   1      -0.172   5.347  -2.144  0.00  0.00    -0.300 N 
ATOM      8  S   UNL d   1      -0.056   5.987  -4.705  0.00  0.00    -0.040 SA
ATOM      9  C   UNL d   1      -0.494   4.584  -1.057  0.00  0.00     0.258 A 
ATOM     10  H   UNL d   1       0.175   6.277  -1.953  0.00  0.00     0.171 HD
ATOM     11  O   UNL d   1      -0.404   5.042   0.078  0.00  0.00    -0.267 OA
BRANCH   3  12
ATOM     12  N   UNL d   1      -1.696   1.627  -3.035  0.00  0.00    -0.288 NA
ATOM     13  H   UNL d   1      -2.211   1.105  -2.330  0.00  0.00     0.125 HD
ATOM     14  H   UNL d   1      -2.217   1.679  -3.907  0.00  0.00     0.125 HD
ENDBRANCH   3  12
ENDBRANCH   1   2
BRANCH   1  15
ATOM     15  C   UNL d   1      -0.841   1.030  -0.064  0.00  0.00     0.061 A 
ATOM     16  C   UNL d   1      -1.395  -0.204  -0.091  0.00  0.00     0.092 A 
ATOM     17  N   UNL d   1      -0.587  -1.308  -0.025  0.00  0.00    -0.323 N 
ATOM     18  C   UNL d   1       0.772  -1.293  -0.006  0.00  0.00     0.179 A 
ATOM     19  H   UNL d   1      -1.021  -2.221  -0.079  0.00  0.00     0.169 HD
ATOM     20  N   UNL d   1       1.356  -0.075  -0.006  0.00  0.00    -0.300 N 
ATOM     21  S   UNL d   1       1.661  -2.696   0.012  0.00  0.00    -0.040 SA
ATOM     22  C   UNL d   1       0.668   1.099   0.006  0.00  0.00     0.258 A 
ATOM     23  H   UNL d   1       2.365  -0.013   0.005  0.00  0.00     0.171 HD
ATOM     24  O   UNL d   1       1.277   2.163   0.068  0.00  0.00    -0.267 OA
BRANCH  16  25
ATOM     25  N   UNL d   1      -2.728  -0.501  -0.212  0.00  0.00    -0.288 NA
ATOM     26  H   UNL d   1      -3.376   0.274  -0.120  0.00  0.00     0.125 HD
ATOM     27  H   UNL d   1      -3.007  -1.264   0.401  0.00  0.00     0.125 HD
ENDBRANCH  16  25
ENDBRANCH   1  15
BRANCH   1  28
ATOM     28  C   UNL d   1      -2.998   2.591   0.152  0.00  0.00    -0.042 A 
ATOM     29  C   UNL d   1      -3.839   3.269  -0.762  0.00  0.00     0.047 A 
ATOM     30  C   UNL d   1      -5.188   3.520  -0.504  0.00  0.00     0.101 A 
ATOM     31  C   UNL d   1      -5.731   3.043   0.690  0.00  0.00     0.099 A 
ATOM     32  C   UNL d   1      -4.939   2.357   1.610  0.00  0.00     0.040 A 
ATOM     33  C   UNL d   1      -3.575   2.157   1.357  0.00  0.00     0.011 A 
BRANCH  30  34
ATOM     34  O   UNL d   1      -6.019   4.222  -1.338  0.00  0.00    -0.353 OA
ATOM     35  C   UNL d   1      -5.438   4.832  -2.486  0.00  0.00     0.210 C 
ENDBRANCH  30  34
BRANCH  31  36
ATOM     36  O   UNL d   1      -7.054   3.271   0.953  0.00  0.00    -0.358 OA
ATOM     37  H   UNL d   1      -7.239   3.046   1.877  0.00  0.00     0.217 HD
ENDBRANCH  31  36
ENDBRANCH   1  28
TORSDOF 7
