REMARK  4 active torsions:
REMARK  status: ('A' for Active; 'I' for Inactive)
REMARK    1  A    between atoms: C_2  and  C_1 
REMARK       I    between atoms: N_3  and  C_1 
REMARK    2  A    between atoms: O_6  and  C_2 
REMARK    3  A    between atoms: C_7  and  N_3 
REMARK    4  A    between atoms: C_15  and  O_6 
ROOT
ATOM      1  C   UNL d   1       1.182   0.216  -0.022  0.00  0.00     0.256 C 
ATOM      2  N   UNL d   1       0.372  -0.021   1.080  0.00  0.00    -0.325 N 
ATOM      3  O   UNL d   1       2.410   0.277   0.006  0.00  0.00    -0.270 OA
ATOM      4  H   UNL d   1      -0.620  -0.147   0.900  0.00  0.00     0.169 HD
ENDROOT
BRANCH   2   5
ATOM      5  C   UNL d   1       0.760  -0.027   2.440  0.00  0.00     0.037 A 
ATOM      6  C   UNL d   1       2.086   0.056   2.869  0.00  0.00     0.061 A 
ATOM      7  C   UNL d   1       2.424   0.088   4.218  0.00  0.00     0.061 A 
ATOM      8  N   UNL d   1       3.724   0.165   4.575  0.00  0.00    -0.363 N 
ATOM      9  C   UNL d   1       1.398   0.041   5.192  0.00  0.00     0.059 A 
ATOM     10  C   UNL d   1       3.986   0.198   5.897  0.00  0.00     0.105 A 
ATOM     11  HN  UNL d   1       4.469   0.196   3.879  1.00  0.00     0.165 HD
ATOM     12  C   UNL d   1       2.984   0.156   6.845  0.00  0.00     0.105 A 
ATOM     13  N   UNL d   1       1.677   0.078   6.511  0.00  0.00    -0.363 N 
ATOM     14  HN  UNL d   1       0.943   0.049   7.218  1.00  0.00     0.165 HD
ATOM     15  C   UNL d   1       0.079  -0.045   4.766  0.00  0.00     0.034 A 
ATOM     16  C   UNL d   1      -0.247  -0.087   3.406  0.00  0.00     0.032 A 
ENDBRANCH   2   5
BRANCH   1  17
ATOM     17  C   UNL d   1       0.406   0.431  -1.359  0.00  0.00     0.141 C 
ATOM     18  C   UNL d   1      -0.696   1.492  -1.122  0.00  0.00     0.057 C 
ATOM     19  C   UNL d   1       1.321   1.042  -2.440  0.00  0.00     0.057 C 
BRANCH  17  20
ATOM     20  O   UNL d   1      -0.309  -0.720  -1.814  0.00  0.00    -0.331 OA
BRANCH  20  21
ATOM     21  C   UNL d   1       0.287  -1.910  -2.108  0.00  0.00     0.070 A 
ATOM     22  C   UNL d   1      -0.619  -2.937  -2.406  0.00  0.00     0.038 A 
ATOM     23  C   UNL d   1      -0.174  -4.215  -2.758  0.00  0.00     0.026 A 
ATOM     24  C   UNL d   1       1.190  -4.470  -2.833  0.00  0.00     0.034 A 
ATOM     25  C   UNL d   1       2.103  -3.462  -2.538  0.00  0.00     0.026 A 
ATOM     26 CL   UNL d   1       1.749  -6.031  -3.287  0.00  0.00    -0.084 Cl
ATOM     27  C   UNL d   1       1.651  -2.189  -2.160  0.00  0.00     0.038 A 
ENDBRANCH  20  21
ENDBRANCH  17  20
ENDBRANCH   1  17
TORSDOF 4
