REMARK  9 active torsions:
REMARK  status: ('A' for Active; 'I' for Inactive)
REMARK    1  A    between atoms: C_12  and  N_6 
REMARK    2  A    between atoms: N_17  and  C_10 
REMARK    3  A    between atoms: C_11  and  C_12 
REMARK    4  A    between atoms: C_27  and  N_17 
REMARK    5  A    between atoms: O_22  and  C_28 
REMARK    6  A    between atoms: O_24  and  C_29 
REMARK    7  A    between atoms: C_30  and  O_24 
REMARK    8  A    between atoms: C_29  and  C_27 
REMARK    9  A    between atoms: C_28  and  C_30 
ROOT
ATOM      1  C   UNL d   1      -0.231  -0.827  -0.075  0.00  0.00     0.146 A 
ATOM      2  C   UNL d   1      -0.504   0.507  -0.108  0.00  0.00     0.151 A 
ATOM      3  N   UNL d   1      -1.355  -1.579  -0.015  0.00  0.00    -0.316 N 
ATOM      4  HN  UNL d   1      -1.419  -2.597   0.007  1.00  0.00     0.170 HD
ATOM      5  N   UNL d   1       1.050  -1.322  -0.044  0.00  0.00    -0.287 N 
ATOM      6  N   UNL d   1      -1.884   0.591  -0.129  0.00  0.00    -0.311 N 
ATOM      7  N   UNL d   1       1.824   0.934  -0.043  0.00  0.00    -0.269 N 
ATOM      8  C   UNL d   1       2.125  -0.437  -0.020  0.00  0.00     0.332 A 
ATOM      9  C   UNL d   1       0.536   1.483  -0.071  0.00  0.00     0.282 A 
ATOM     10  C   UNL d   1      -2.345  -0.716   0.007  0.00  0.00     0.162 A 
ATOM     11  O   UNL d   1       3.287  -0.850   0.027  0.00  0.00    -0.246 OA
ATOM     12  O   UNL d   1       0.328   2.694  -0.042  0.00  0.00    -0.265 OA
ATOM     13  C   UNL d   1       1.318  -2.744  -0.014  0.00  0.00     0.163 C 
ATOM     14  C   UNL d   1       2.928   1.875  -0.004  0.00  0.00     0.164 C 
ENDROOT
BRANCH   6  15
ATOM     15  C   UNL d   1      -2.696   1.811  -0.024  0.00  0.00     0.174 C 
BRANCH  15  16
ATOM     16  C   UNL d   1      -2.946   2.508  -1.351  0.00  0.00     0.004 C 
ATOM     17  C   UNL d   1      -3.725   1.928  -2.376  0.00  0.00     0.043 C 
ATOM     18 CL   UNL d   1      -4.708   0.530  -2.150  0.00  0.00    -0.084 Cl
ATOM     19  C   UNL d   1      -3.848   2.522  -3.639  0.00  0.00     0.024 C 
ATOM     20  C   UNL d   1      -3.251   3.744  -3.903  0.00  0.00     0.003 C 
ATOM     21  C   UNL d   1      -2.579   4.397  -2.880  0.00  0.00     0.024 C 
ATOM     22  C   UNL d   1      -2.447   3.802  -1.615  0.00  0.00     0.043 C 
ATOM     23 CL   UNL d   1      -1.763   4.816  -0.390  0.00  0.00    -0.084 Cl
ENDBRANCH  15  16
ENDBRANCH   6  15
BRANCH  10  24
ATOM     24  N   UNL d   1      -3.650  -1.013   0.200  0.00  0.00    -0.262 NA
ATOM     25  H   UNL d   1      -4.297  -0.648  -0.502  0.00  0.00     0.130 HD
BRANCH  24  26
ATOM     26  C   UNL d   1      -3.984  -2.410   0.497  0.00  0.00     0.121 C 
BRANCH  26  27
ATOM     27  C   UNL d   1      -5.438  -2.508   0.974  0.00  0.00     0.182 C 
BRANCH  27  28
ATOM     28  O   UNL d   1      -6.350  -2.291  -0.114  0.00  0.00    -0.388 OA
BRANCH  28  29
ATOM     29  C   UNL d   1      -7.703  -2.361   0.344  0.00  0.00     0.193 C 
BRANCH  29  30
ATOM     30  C   UNL d   1      -8.670  -2.147  -0.814  0.00  0.00     0.190 C 
BRANCH  30  31
ATOM     31  O   UNL d   1     -10.012  -2.205  -0.341  0.00  0.00    -0.399 OA
ATOM     32  H   UNL d   1     -10.590  -2.062  -1.110  0.00  0.00     0.209 HD
ENDBRANCH  30  31
ENDBRANCH  29  30
ENDBRANCH  28  29
ENDBRANCH  27  28
ENDBRANCH  26  27
ENDBRANCH  24  26
ENDBRANCH  10  24
TORSDOF 9
