REMARK  4 active torsions:
REMARK  status: ('A' for Active; 'I' for Inactive)
REMARK    1  A    between atoms: C_11  and  N_1 
REMARK    2  A    between atoms: N_12  and  N_7 
REMARK    3  A    between atoms: N_9  and  C_13 
REMARK    4  A    between atoms: C_16  and  N_12 
ROOT
ATOM      1  N   UNL d   1      -3.181  -0.685   1.757  0.00  0.00    -0.218 N 
ATOM      2  C   UNL d   1      -3.630   0.453   1.092  0.00  0.00     0.296 A 
ATOM      3  C   UNL d   1      -2.333   1.127   0.722  0.00  0.00     0.137 A 
ATOM      4  N   UNL d   1      -1.788  -0.817   1.813  0.00  0.00    -0.293 N 
ATOM      5  HN  UNL d   1      -1.275  -1.581   2.254  1.00  0.00     0.187 HD
ATOM      6  C   UNL d   1      -1.265   0.204   1.204  0.00  0.00     0.056 A 
ATOM      7  N   UNL d   1      -2.280   2.281   0.140  0.00  0.00    -0.310 N 
ATOM      8  HN  UNL d   1      -3.131   2.786  -0.104  1.00  0.00     0.181 HD
ATOM      9  O   UNL d   1      -4.729   0.883   0.815  0.00  0.00    -0.264 OA
ATOM     10  C   UNL d   1       0.184   0.395   0.960  0.00  0.00     0.072 C 
ENDROOT
BRANCH   7  11
ATOM     11  N   UNL d   1      -1.052   2.800  -0.138  0.00  0.00    -0.205 NA
ATOM     12  H   UNL d   1      -0.663   2.473  -1.026  0.00  0.00     0.153 HD
BRANCH  11  13
ATOM     13  C   UNL d   1      -1.010   4.222  -0.148  0.00  0.00     0.027 A 
ATOM     14  C   UNL d   1      -1.778   4.991   0.726  0.00  0.00     0.027 A 
ATOM     15  C   UNL d   1      -1.701   6.391   0.712  0.00  0.00     0.031 A 
ATOM     16  C   UNL d   1      -0.862   7.083  -0.177  0.00  0.00     0.030 A 
ATOM     17  C   UNL d   1      -0.044   6.287  -0.995  0.00  0.00     0.031 A 
ATOM     18  C   UNL d   1      -0.099   4.885  -0.969  0.00  0.00     0.027 A 
BRANCH  16  19
ATOM     19  N   UNL d   1      -0.817   8.489  -0.175  0.00  0.00    -0.381 N 
ATOM     20  C   UNL d   1       0.190   9.148  -1.024  0.00  0.00     0.123 C 
ATOM     21  C   UNL d   1       0.385  10.597  -0.585  0.00  0.00     0.020 C 
ATOM     22  C   UNL d   1      -0.931  11.362  -0.561  0.00  0.00     0.003 C 
ATOM     23  C   UNL d   1      -1.969  10.619   0.273  0.00  0.00     0.020 C 
ATOM     24  C   UNL d   1      -2.129   9.169  -0.185  0.00  0.00     0.123 C 
ENDBRANCH  16  19
ENDBRANCH  11  13
ENDBRANCH   7  11
BRANCH   1  25
ATOM     25  C   UNL d   1      -3.969  -1.745   2.266  0.00  0.00     0.060 A 
ATOM     26  C   UNL d   1      -5.349  -1.821   2.036  0.00  0.00     0.031 A 
ATOM     27  C   UNL d   1      -6.093  -2.913   2.498  0.00  0.00     0.002 A 
ATOM     28  C   UNL d   1      -5.472  -3.932   3.215  0.00  0.00     0.000 A 
ATOM     29  C   UNL d   1      -4.107  -3.860   3.475  0.00  0.00     0.002 A 
ATOM     30  C   UNL d   1      -3.363  -2.777   3.002  0.00  0.00     0.031 A 
ENDBRANCH   1  25
TORSDOF 4
