REMARK  0 active torsions:
REMARK  status: ('A' for Active; 'I' for Inactive)
ROOT
ATOM      1  C   UNL d   1      -0.681  -1.220   1.457  0.00  0.00     0.184 C 
ATOM      2  N   UNL d   1      -2.022  -0.894   1.318  0.00  0.00    -0.302 N 
ATOM      3  N   UNL d   1       0.194  -0.450   0.705  0.00  0.00    -0.302 N 
ATOM      4  C   UNL d   1      -2.595   0.089   0.535  0.00  0.00     0.152 C 
ATOM      5  C   UNL d   1      -0.083   0.648  -0.088  0.00  0.00     0.152 C 
ATOM      6  S   UNL d   1      -1.668   1.244  -0.315  0.00  0.00    -0.018 SA
ATOM      7  N   UNL d   1      -3.893   0.117   0.487  0.00  0.00    -0.369 N 
ATOM      8  HN  UNL d   1      -4.482   0.808   0.021  1.00  0.00     0.161 HD
ATOM      9  N   UNL d   1       0.925   1.228  -0.660  0.00  0.00    -0.369 N 
ATOM     10  HN  UNL d   1       0.898   2.009  -1.316  1.00  0.00     0.161 HD
ATOM     11  S   UNL d   1      -0.153  -2.480   2.452  0.00  0.00    -0.040 SA
ATOM     12  C   UNL d   1       1.600  -0.725   0.524  0.00  0.00     0.153 C 
ATOM     13  C   UNL d   1      -3.114  -1.508   2.038  0.00  0.00     0.153 C 
ATOM     14  C   UNL d   1      -4.331  -1.066   1.251  0.00  0.00     0.142 C 
ATOM     15  C   UNL d   1       2.120   0.521  -0.162  0.00  0.00     0.142 C 
ENDROOT
TORSDOF 0
