REMARK  7 active torsions:
REMARK  status: ('A' for Active; 'I' for Inactive)
REMARK    1  A    between atoms: O_6  and  C_1 
REMARK    2  A    between atoms: C_11  and  C_1 
REMARK    3  A    between atoms: C_12  and  C_2 
REMARK    4  A    between atoms: N_15  and  C_2 
REMARK    5  A    between atoms: N_3  and  O_6 
REMARK    6  A    between atoms: C_8  and  O_9 
REMARK    7  A    between atoms: O_9  and  C_12 
ROOT
ATOM      1  C   UNL d   1       0.388  -3.568  -0.242  0.00  0.00     0.120 C 
ATOM      2  N   UNL d   1       0.927  -2.431   0.069  0.00  0.00    -0.243 N 
ATOM      3  HN  UNL d   1       0.388  -1.588   0.266  1.00  0.00     0.196 HD
ENDROOT
BRANCH   1   4
ATOM      4  C   UNL d   1      -1.151  -3.634  -0.201  0.00  0.00     0.253 C 
BRANCH   4   5
ATOM      5  O   UNL d   1      -1.710  -3.680  -1.510  0.00  0.00    -0.342 OA
BRANCH   5   6
ATOM      6  C   UNL d   1      -3.086  -3.673  -1.539  0.00  0.00     0.091 A 
ATOM      7  C   UNL d   1      -3.739  -2.896  -2.510  0.00  0.00     0.069 A 
ATOM      8  C   UNL d   1      -5.133  -2.913  -2.620  0.00  0.00     0.050 A 
ATOM      9 CL   UNL d   1      -2.855  -1.882  -3.595  0.00  0.00    -0.081 Cl
ATOM     10  C   UNL d   1      -5.880  -3.720  -1.766  0.00  0.00     0.035 A 
ATOM     11  C   UNL d   1      -5.248  -4.503  -0.804  0.00  0.00     0.026 A 
ATOM     12 CL   UNL d   1      -7.594  -3.768  -1.908  0.00  0.00    -0.084 Cl
ATOM     13  C   UNL d   1      -3.854  -4.484  -0.695  0.00  0.00     0.040 A 
ENDBRANCH   5   6
ENDBRANCH   4   5
ENDBRANCH   1   4
BRANCH   1  14
ATOM     14  N   UNL d   1       1.083  -4.717  -0.537  0.00  0.00    -0.386 N 
ATOM     15  H   UNL d   1       2.056  -4.706  -0.256  0.00  0.00     0.157 HD
ATOM     16  H   UNL d   1       0.610  -5.603  -0.406  0.00  0.00     0.157 HD
ENDBRANCH   1  14
BRANCH   2  17
ATOM     17  O   UNL d   1       2.339  -2.480   0.106  0.00  0.00    -0.193 OA
BRANCH  17  18
ATOM     18  C   UNL d   1       2.789  -1.343   0.727  0.00  0.00     0.315 C 
ATOM     19  O   UNL d   1       2.106  -0.437   1.182  0.00  0.00    -0.257 OA
BRANCH  18  20
ATOM     20  C   UNL d   1       4.272  -1.333   0.863  0.00  0.00     0.041 A 
ATOM     21  C   UNL d   1       4.830  -0.343   1.689  0.00  0.00     0.017 A 
ATOM     22  C   UNL d   1       6.210  -0.258   1.870  0.00  0.00     0.001 A 
ATOM     23  C   UNL d   1       7.049  -1.161   1.223  0.00  0.00     0.000 A 
ATOM     24  C   UNL d   1       6.507  -2.148   0.396  0.00  0.00     0.001 A 
ATOM     25  C   UNL d   1       5.121  -2.237   0.213  0.00  0.00     0.017 A 
ENDBRANCH  18  20
ENDBRANCH  17  18
ENDBRANCH   2  17
TORSDOF 7
