REMARK  1 active torsions:
REMARK  status: ('A' for Active; 'I' for Inactive)
REMARK    1  A    between atoms: C_4  and  N_1 
ROOT
ATOM      1  N   UNL d   1       0.703   1.030  -0.587  0.00  0.00    -0.236 N 
ATOM      2  C   UNL d   1       1.397  -0.145  -0.284  0.00  0.00     0.241 C 
ATOM      3  C   UNL d   1      -0.490   1.316   0.086  0.00  0.00     0.241 C 
ATOM      4  S   UNL d   1      -0.895  -1.260   0.836  0.00  0.00    -0.150 SA
ATOM      5  O   UNL d   1      -0.753   2.335   0.726  0.00  0.00    -0.272 OA
ATOM      6  O   UNL d   1       2.623  -0.217  -0.158  0.00  0.00    -0.272 OA
ATOM      7  C   UNL d   1       0.590  -1.426  -0.159  0.00  0.00     0.178 C 
ATOM      8  C   UNL d   1      -1.520   0.209   0.008  0.00  0.00     0.178 C 
ENDROOT
BRANCH   1   9
ATOM      9  C   UNL d   1       1.416   2.119  -1.201  0.00  0.00     0.117 A 
ATOM     10  N   UNL d   1       0.926   3.374  -1.095  0.00  0.00    -0.352 N 
ATOM     11  C   UNL d   1       1.579   4.393  -1.699  0.00  0.00     0.089 A 
ATOM     12  HN  UNL d   1       0.072   3.552  -0.566  1.00  0.00     0.166 HD
ATOM     13  C   UNL d   1       2.693   4.224  -2.495  0.00  0.00     0.017 A 
ATOM     14  C   UNL d   1       3.163   2.934  -2.673  0.00  0.00     0.005 A 
ATOM     15  C   UNL d   1       2.523   1.877  -2.023  0.00  0.00     0.049 A 
ENDBRANCH   1   9
TORSDOF 1
