REMARK  5 active torsions:
REMARK  status: ('A' for Active; 'I' for Inactive)
REMARK    1  A    between atoms: N_2  and  C_1 
REMARK    2  A    between atoms: N_5  and  C_3 
REMARK    3  A    between atoms: C_4  and  C_7 
REMARK    4  A    between atoms: C_10  and  C_14 
REMARK    5  A    between atoms: O_22  and  C_16 
ROOT
ATOM      1  N   UNL d   1       0.527  -2.614   0.367  0.00  0.00    -0.379 N 
ATOM      2  C   UNL d   1       0.598  -3.413  -0.874  0.00  0.00     0.123 C 
ATOM      3  C   UNL d   1       1.443  -2.985   1.452  0.00  0.00     0.123 C 
ATOM      4  C   UNL d   1       1.683  -5.328   0.536  0.00  0.00     0.024 C 
ATOM      5  C   UNL d   1       0.782  -4.916  -0.637  0.00  0.00     0.029 C 
ATOM      6  C   UNL d   1       1.349  -4.469   1.759  0.00  0.00     0.029 C 
ENDROOT
BRANCH   1   7
ATOM      7  C   UNL d   1       0.191  -1.257   0.189  0.00  0.00     0.063 A 
ATOM      8  C   UNL d   1       0.897  -0.116   0.633  0.00  0.00     0.130 A 
ATOM      9  C   UNL d   1       0.396   1.200   0.523  0.00  0.00     0.054 A 
ATOM     10  C   UNL d   1      -0.848   1.433  -0.065  0.00  0.00     0.050 A 
ATOM     11  C   UNL d   1      -1.548   0.334  -0.568  0.00  0.00     0.018 A 
ATOM     12  C   UNL d   1      -1.043  -0.970  -0.434  0.00  0.00     0.032 A 
BRANCH   8  13
ATOM     13  N   UNL d   1       2.249  -0.194   1.149  0.00  0.00    -0.113 N 
ATOM     14  O   UNL d   1       3.152  -0.412   0.329  0.00  0.00    -0.532 OA
ATOM     15  O   UNL d   1       2.403   0.025   2.355  0.00  0.00    -0.532 OA
ENDBRANCH   8  13
BRANCH  10  16
ATOM     16  C   UNL d   1      -1.433   2.820  -0.153  0.00  0.00     0.417 C 
ATOM     17  F   UNL d   1      -0.658   3.773   0.434  0.00  0.00    -0.166 F 
ATOM     18  F   UNL d   1      -1.620   3.227  -1.438  0.00  0.00    -0.166 F 
ATOM     19  F   UNL d   1      -2.650   2.905   0.450  0.00  0.00    -0.166 F 
ENDBRANCH  10  16
ENDBRANCH   1   7
BRANCH   4  20
ATOM     20  C   UNL d   1       3.180  -5.397   0.245  0.00  0.00    -0.021 A 
ATOM     21  C   UNL d   1       3.973  -6.467   0.708  0.00  0.00     0.074 A 
ATOM     22  C   UNL d   1       5.340  -6.542   0.406  0.00  0.00     0.037 A 
ATOM     23  C   UNL d   1       5.952  -5.538  -0.339  0.00  0.00     0.003 A 
ATOM     24  C   UNL d   1       5.197  -4.465  -0.792  0.00  0.00     0.001 A 
ATOM     25  C   UNL d   1       3.832  -4.396  -0.499  0.00  0.00     0.010 A 
BRANCH  21  26
ATOM     26  O   UNL d   1       3.448  -7.556   1.358  0.00  0.00    -0.355 OA
ATOM     27  C   UNL d   1       3.116  -7.285   2.718  0.00  0.00     0.210 C 
ENDBRANCH  21  26
ENDBRANCH   4  20
TORSDOF 5
