REMARK  4 active torsions:
REMARK  status: ('A' for Active; 'I' for Inactive)
REMARK    1  A    between atoms: C_5  and  C_15 
REMARK    2  A    between atoms: C_16  and  C_6 
REMARK    3  A    between atoms: C_18  and  C_7 
REMARK    4  A    between atoms: C_19  and  C_8 
ROOT
ATOM      1  C   UNL d   1       1.619   4.496  -1.085  0.00  0.00     0.011 A 
ATOM      2  C   UNL d   1       0.564   2.561  -0.037  0.00  0.00     0.011 A 
ATOM      3  C   UNL d   1       1.300   3.131  -1.088  0.00  0.00     0.030 A 
ATOM      4  C   UNL d   1       1.186   5.292  -0.012  0.00  0.00     0.022 A 
ATOM      5  C   UNL d   1       0.135   3.381   1.018  0.00  0.00     0.022 A 
ATOM      6  C   UNL d   1       0.444   4.747   1.041  0.00  0.00    -0.060 A 
ATOM      7  C   UNL d   1       0.002   5.600   2.192  0.00  0.00     0.048 C 
ENDROOT
BRANCH   1   8
ATOM      8  C   UNL d   1       2.401   5.097  -2.158  0.00  0.00     0.138 A 
ATOM      9  N   UNL d   1       2.757   6.428  -2.131  0.00  0.00    -0.322 N 
ATOM     10  C   UNL d   1       3.450   6.568  -3.237  0.00  0.00     0.156 A 
ATOM     11  HN  UNL d   1       2.536   7.131  -1.426  1.00  0.00     0.169 HD
ATOM     12  O   UNL d   1       3.544   5.411  -3.956  0.00  0.00    -0.222 OA
ATOM     13  N   UNL d   1       2.850   4.438  -3.239  0.00  0.00    -0.242 N 
ATOM     14  HN  UNL d   1       2.714   3.456  -3.480  1.00  0.00     0.196 HD
BRANCH  10  15
ATOM     15  C   UNL d   1       4.131   7.785  -3.786  0.00  0.00     0.016 C 
ATOM     16  C   UNL d   1       3.929   8.974  -2.828  0.00  0.00     0.023 C 
ATOM     17  C   UNL d   1       5.638   7.517  -3.931  0.00  0.00     0.023 C 
ATOM     18  C   UNL d   1       3.532   8.146  -5.154  0.00  0.00     0.023 C 
ENDBRANCH  10  15
ENDBRANCH   1   8
BRANCH   2  19
ATOM     19  C   UNL d   1       0.279   1.130  -0.036  0.00  0.00     0.138 A 
ATOM     20  N   UNL d   1       0.751   0.288  -1.020  0.00  0.00    -0.322 N 
ATOM     21  C   UNL d   1       0.328  -0.890  -0.624  0.00  0.00     0.156 A 
ATOM     22  HN  UNL d   1       1.295   0.522  -1.850  1.00  0.00     0.169 HD
ATOM     23  O   UNL d   1      -0.393  -0.835   0.535  0.00  0.00    -0.222 OA
ATOM     24  N   UNL d   1      -0.425   0.501   0.921  0.00  0.00    -0.242 N 
ATOM     25  HN  UNL d   1      -0.877   0.909   1.739  1.00  0.00     0.196 HD
BRANCH  21  26
ATOM     26  C   UNL d   1       0.541  -2.243  -1.234  0.00  0.00     0.016 C 
ATOM     27  C   UNL d   1       1.364  -2.115  -2.529  0.00  0.00     0.023 C 
ATOM     28  C   UNL d   1       1.310  -3.139  -0.247  0.00  0.00     0.023 C 
ATOM     29  C   UNL d   1      -0.814  -2.887  -1.569  0.00  0.00     0.023 C 
ENDBRANCH  21  26
ENDBRANCH   2  19
TORSDOF 4
