REMARK  6 active torsions:
REMARK  status: ('A' for Active; 'I' for Inactive)
REMARK    1  A    between atoms: C_3  and  C_1 
REMARK    2  A    between atoms: S_7  and  C_2 
REMARK       I    between atoms: C_6  and  N_11 
REMARK    3  A    between atoms: O_19  and  C_6 
REMARK    4  A    between atoms: C_18  and  S_7 
REMARK    5  A    between atoms: N_11  and  C_12 
REMARK    6  A    between atoms: C_20  and  O_19 
ROOT
ATOM      1  C   UNL d   1       4.711  -3.912  -2.200  0.00  0.00    -0.091 C 
ATOM      2  C   UNL d   1       4.659  -3.847  -3.396  0.00  0.00     0.014 C 
ATOM      3  C   UNL d   1       4.705  -3.952  -0.730  0.00  0.00     0.273 C 
ENDROOT
BRANCH   3   4
ATOM      4  O   UNL d   1       3.355  -3.769  -0.277  0.00  0.00    -0.292 OA
BRANCH   4   5
ATOM      5  C   UNL d   1       3.035  -2.474  -0.032  0.00  0.00     0.366 C 
ATOM      6  N   UNL d   1       1.671  -2.347   0.006  0.00  0.00    -0.301 N 
ATOM      7  H   UNL d   1       1.166  -3.218  -0.099  0.00  0.00     0.171 HD
ATOM      8  O   UNL d   1       3.861  -1.581   0.079  0.00  0.00    -0.238 OA
BRANCH   6   9
ATOM      9  C   UNL d   1       0.947  -1.138   0.037  0.00  0.00     0.053 A 
ATOM     10  C   UNL d   1       1.546   0.113   0.095  0.00  0.00     0.050 A 
ATOM     11  C   UNL d   1       0.790   1.304   0.097  0.00  0.00     0.083 A 
ATOM     12  C   UNL d   1      -0.591   1.188   0.026  0.00  0.00     0.089 A 
ATOM     13  N   UNL d   1      -1.202  -0.028  -0.031  0.00  0.00    -0.357 N 
ATOM     14  C   UNL d   1      -0.436  -1.147  -0.021  0.00  0.00     0.118 A 
ATOM     15  HN  UNL d   1      -2.218  -0.096  -0.081  1.00  0.00     0.166 HD
BRANCH  11  16
ATOM     16  C   UNL d   1       1.569   2.582   0.181  0.00  0.00     0.420 C 
ATOM     17  F   UNL d   1       0.857   3.733   0.255  0.00  0.00    -0.166 F 
ATOM     18  F   UNL d   1       2.389   2.595   1.272  0.00  0.00    -0.166 F 
ATOM     19  F   UNL d   1       2.400   2.733  -0.891  0.00  0.00    -0.166 F 
ENDBRANCH  11  16
BRANCH  12  20
ATOM     20  S   UNL d   1      -1.733   2.549   0.077  0.00  0.00    -0.072 SA
BRANCH  20  21
ATOM     21  C   UNL d   1      -1.882   3.056  -1.630  0.00  0.00     0.007 A 
ATOM     22  C   UNL d   1      -1.790   2.168  -2.707  0.00  0.00     0.019 A 
ATOM     23  C   UNL d   1      -1.921   2.627  -4.022  0.00  0.00     0.001 A 
ATOM     24  C   UNL d   1      -2.166   3.976  -4.272  0.00  0.00     0.000 A 
ATOM     25  C   UNL d   1      -2.292   4.865  -3.208  0.00  0.00     0.001 A 
ATOM     26  C   UNL d   1      -2.152   4.406  -1.895  0.00  0.00     0.019 A 
ENDBRANCH  20  21
ENDBRANCH  12  20
ENDBRANCH   6   9
ENDBRANCH   4   5
ENDBRANCH   3   4
TORSDOF 6
