REMARK  6 active torsions:
REMARK  status: ('A' for Active; 'I' for Inactive)
REMARK    1  A    between atoms: C_2  and  S_1 
REMARK    2  A    between atoms: C_4  and  S_1 
REMARK    3  A    between atoms: C_3  and  C_5 
REMARK    4  A    between atoms: C_15  and  C_6 
REMARK    5  A    between atoms: O_25  and  C_13 
REMARK    6  A    between atoms: O_26  and  C_17 
ROOT
ATOM      1  C   UNL d   1       0.497  -0.480   1.622  0.00  0.00     0.146 C 
ATOM      2  C   UNL d   1      -0.335   0.307   2.330  0.00  0.00     0.046 C 
ATOM      3  C   UNL d   1       0.974  -0.172   0.324  0.00  0.00     0.112 C 
ATOM      4  N   UNL d   1       1.368   0.066  -0.740  0.00  0.00    -0.191 NA
ENDROOT
BRANCH   1   5
ATOM      5  S   UNL d   1       0.922  -2.022   2.298  0.00  0.00     0.232 S 
ATOM      6  O   UNL d   1      -0.018  -3.011   1.791  0.00  0.00    -0.215 OA
ATOM      7  O   UNL d   1       1.123  -1.907   3.734  0.00  0.00    -0.215 OA
BRANCH   5   8
ATOM      8  C   UNL d   1       2.517  -2.402   1.581  0.00  0.00     0.134 A 
ATOM      9  N   UNL d   1       3.472  -1.468   1.831  0.00  0.00    -0.356 N 
ATOM     10  C   UNL d   1       4.690  -1.708   1.293  0.00  0.00     0.105 A 
ATOM     11  HN  UNL d   1       3.282  -0.636   2.389  1.00  0.00     0.166 HD
ATOM     12  C   UNL d   1       4.989  -2.818   0.511  0.00  0.00     0.063 A 
ATOM     13  C   UNL d   1       3.964  -3.745   0.270  0.00  0.00     0.020 A 
ATOM     14  C   UNL d   1       2.700  -3.542   0.817  0.00  0.00     0.043 A 
BRANCH  12  15
ATOM     15  C   UNL d   1       6.365  -3.015  -0.050  0.00  0.00     0.418 C 
ATOM     16  F   UNL d   1       7.243  -2.036   0.300  0.00  0.00    -0.166 F 
ATOM     17  F   UNL d   1       6.927  -4.185   0.362  0.00  0.00    -0.166 F 
ATOM     18  F   UNL d   1       6.372  -3.056  -1.410  0.00  0.00    -0.166 F 
ENDBRANCH  12  15
ENDBRANCH   5   8
ENDBRANCH   1   5
BRANCH   2  19
ATOM     19  C   UNL d   1      -0.825   1.601   1.849  0.00  0.00    -0.031 A 
ATOM     20  C   UNL d   1      -0.063   2.760   2.039  0.00  0.00     0.051 A 
ATOM     21  C   UNL d   1      -0.508   4.002   1.557  0.00  0.00     0.102 A 
ATOM     22  C   UNL d   1      -1.709   4.065   0.833  0.00  0.00     0.101 A 
ATOM     23  C   UNL d   1      -2.471   2.902   0.662  0.00  0.00     0.040 A 
ATOM     24  C   UNL d   1      -2.037   1.676   1.166  0.00  0.00     0.014 A 
BRANCH  21  25
ATOM     25  O   UNL d   1       0.207   5.155   1.749  0.00  0.00    -0.353 OA
ATOM     26  C   UNL d   1       0.944   5.234   2.965  0.00  0.00     0.210 C 
ENDBRANCH  21  25
BRANCH  22  27
ATOM     27  O   UNL d   1      -2.304   5.178   0.297  0.00  0.00    -0.353 OA
ATOM     28  C   UNL d   1      -1.446   6.223  -0.146  0.00  0.00     0.210 C 
ENDBRANCH  22  27
ENDBRANCH   2  19
TORSDOF 6
