REMARK  4 active torsions:
REMARK  status: ('A' for Active; 'I' for Inactive)
REMARK    1  A    between atoms: S_2  and  C_1 
REMARK    2  A    between atoms: C_7  and  C_1 
REMARK    3  A    between atoms: C_4  and  C_3 
REMARK    4  A    between atoms: N_8  and  C_7 
ROOT
ATOM      1  C   UNL d   1       1.045  -0.032   0.083  0.00  0.00     0.122 C 
ATOM      2  C   UNL d   1       0.352   0.541   1.083  0.00  0.00     0.052 C 
ENDROOT
BRANCH   1   3
ATOM      3  S   UNL d   1       0.344  -0.890  -1.264  0.00  0.00     0.180 S 
ATOM      4  O   UNL d   1       1.345  -1.775  -1.835  0.00  0.00    -0.222 OA
ATOM      5  O   UNL d   1      -0.955  -1.441  -0.931  0.00  0.00    -0.222 OA
ATOM      6  C   UNL d   1       0.082   0.395  -2.459  0.00  0.00     0.167 C 
ENDBRANCH   1   3
BRANCH   1   7
ATOM      7  C   UNL d   1       2.565  -0.032   0.083  0.00  0.00    -0.025 C 
BRANCH   7   8
ATOM      8  N   UNL d   1       3.826  -0.032   0.083  0.00  0.00    -0.365 N 
ATOM      9  HN2 UNL d   1       2.806  -0.032   0.083  1.00  0.00     0.165 HD
ATOM     10  HN1 UNL d   1       4.846  -0.032   0.083  1.00  0.00     0.165 HD
ENDBRANCH   7   8
ENDBRANCH   1   7
BRANCH   2  11
ATOM     11  C   UNL d   1      -1.065   0.527   1.187  0.00  0.00     0.008 A 
ATOM     12  S   UNL d   1      -2.006   1.807   0.524  0.00  0.00    -0.078 SA
ATOM     13  C   UNL d   1      -3.453   1.030   0.926  0.00  0.00     0.075 A 
ATOM     14 CL   UNL d   1      -4.952   1.724   0.461  0.00  0.00    -0.076 Cl
ATOM     15  C   UNL d   1      -3.271  -0.134   1.624  0.00  0.00     0.033 A 
ATOM     16  C   UNL d   1      -1.881  -0.412   1.801  0.00  0.00     0.021 A 
ENDBRANCH   2  11
TORSDOF 4
