REMARK  4 active torsions:
REMARK  status: ('A' for Active; 'I' for Inactive)
REMARK    1  A    between atoms: C_7  and  N_1 
REMARK    2  A    between atoms: C_6  and  C_7 
REMARK    3  A    between atoms: C_8  and  C_6 
REMARK    4  A    between atoms: O_10  and  C_8 
ROOT
ATOM      1  N   UNL d   1       1.619  -1.052  -0.024  0.00  0.00    -0.355 N 
ATOM      2  C   UNL d   1       2.421   0.063  -0.015  0.00  0.00     0.099 A 
ATOM      3  C   UNL d   1       1.617   1.184  -0.012  0.00  0.00    -0.034 A 
ATOM      4  C   UNL d   1       0.289  -0.675  -0.005  0.00  0.00     0.045 A 
ATOM      5  C   UNL d   1       0.265   0.725  -0.011  0.00  0.00    -0.002 A 
ATOM      6  C   UNL d   1       2.067   2.602  -0.003  0.00  0.00     0.050 C 
ATOM      7  C   UNL d   1      -0.896  -1.429   0.018  0.00  0.00     0.030 A 
ATOM      8  C   UNL d   1      -0.983   1.383  -0.005  0.00  0.00     0.014 A 
ATOM      9  C   UNL d   1      -2.119  -0.752   0.004  0.00  0.00     0.002 A 
ATOM     10  C   UNL d   1      -2.165   0.637  -0.004  0.00  0.00     0.001 A 
ENDROOT
BRANCH   1  11
ATOM     11  C   UNL d   1       2.122  -2.420  -0.008  0.00  0.00     0.139 C 
BRANCH  11  12
ATOM     12  C   UNL d   1       1.702  -3.229  -1.229  0.00  0.00     0.130 C 
BRANCH  12  13
ATOM     13  C   UNL d   1       2.251  -4.627  -1.166  0.00  0.00     0.141 C 
ATOM     14  O   UNL d   1       2.955  -5.068  -0.272  0.00  0.00    -0.650 OA
BRANCH  13  15
ATOM     15  O   UNL d   1       1.867  -5.382  -2.223  0.00  0.00    -0.776 OA
ATOM     16  H   UNL d   1       1.294  -4.912  -2.865  0.00  0.00     0.167 HD
ENDBRANCH  13  15
ENDBRANCH  12  13
ENDBRANCH  11  12
ENDBRANCH   1  11
TORSDOF 4
