REMARK  4 active torsions:
REMARK  status: ('A' for Active; 'I' for Inactive)
REMARK    1  A    between atoms: N_11  and  C_3 
REMARK    2  A    between atoms: C_15  and  C_4 
REMARK       I    between atoms: C_5  and  N_9 
REMARK    3  A    between atoms: C_7  and  C_5 
REMARK    4  A    between atoms: N_9  and  N_11 
ROOT
ATOM      1  N   UNL d   1       1.437  -0.667   0.032  0.00  0.00    -0.334 N 
ATOM      2  HN  UNL d   1       2.331  -1.158   0.047  1.00  0.00     0.168 HD
ATOM      3  C   UNL d   1       0.257  -1.251   0.002  0.00  0.00     0.163 A 
ATOM      4  C   UNL d   1       1.291   0.715   0.041  0.00  0.00     0.051 A 
ATOM      5  S   UNL d   1      -1.088  -0.177  -0.001  0.00  0.00    -0.062 SA
ATOM      6  C   UNL d   1      -0.018   1.156   0.046  0.00  0.00     0.083 A 
ENDROOT
BRANCH   3   7
ATOM      7  N   UNL d   1       0.052  -2.589  -0.025  0.00  0.00    -0.277 N 
ATOM      8  H   UNL d   1      -0.902  -2.942   0.085  0.00  0.00     0.189 HD
BRANCH   7   9
ATOM      9  N   UNL d   1       1.028  -3.478   0.438  0.00  0.00    -0.263 N 
ATOM     10  C   UNL d   1       0.624  -4.701   0.948  0.00  0.00     0.277 C 
ATOM     11  O   UNL d   1      -0.563  -5.031   0.930  0.00  0.00    -0.265 OA
ATOM     12  H   UNL d   1       1.966  -3.103   0.568  0.00  0.00     0.190 HD
BRANCH  10  13
ATOM     13  C   UNL d   1       1.681  -5.542   1.498  0.00  0.00     0.074 A 
ATOM     14  S   UNL d   1       3.327  -5.063   1.491  0.00  0.00    -0.097 SA
ATOM     15  C   UNL d   1       3.830  -6.518   2.228  0.00  0.00     0.050 A 
ATOM     16  C   UNL d   1       2.772  -7.358   2.489  0.00  0.00     0.009 A 
ATOM     17  C   UNL d   1       1.531  -6.794   2.069  0.00  0.00     0.025 A 
ENDBRANCH  10  13
ENDBRANCH   7   9
ENDBRANCH   3   7
BRANCH   4  18
ATOM     18  C   UNL d   1       2.440   1.614  -0.009  0.00  0.00    -0.009 A 
ATOM     19  C   UNL d   1       3.586   1.237  -0.721  0.00  0.00     0.014 A 
ATOM     20  C   UNL d   1       4.674   2.108  -0.834  0.00  0.00     0.001 A 
ATOM     21  C   UNL d   1       4.632   3.361  -0.225  0.00  0.00     0.000 A 
ATOM     22  C   UNL d   1       3.507   3.740   0.504  0.00  0.00     0.001 A 
ATOM     23  C   UNL d   1       2.417   2.871   0.613  0.00  0.00     0.014 A 
ENDBRANCH   4  18
TORSDOF 4
