REMARK  4 active torsions:
REMARK  status: ('A' for Active; 'I' for Inactive)
REMARK    1  A    between atoms: C_2  and  N_1 
REMARK       I    between atoms: C_3  and  N_1 
REMARK    2  A    between atoms: C_10  and  C_3 
REMARK    3  A    between atoms: O_6  and  C_10 
REMARK    4  A    between atoms: C_7  and  O_6 
ROOT
ATOM      1  C   UNL d   1       3.240  -1.297  -0.003  0.00  0.00     0.217 C 
ATOM      2  C   UNL d   1       2.318  -2.478   0.277  0.00  0.00     0.050 C 
ENDROOT
BRANCH   1   3
ATOM      3  O   UNL d   1       3.810  -0.893   1.246  0.00  0.00    -0.335 OA
BRANCH   3   4
ATOM      4  C   UNL d   1       5.093  -0.410   1.212  0.00  0.00     0.091 A 
ATOM      5  C   UNL d   1       5.907  -0.650   2.332  0.00  0.00     0.069 A 
ATOM      6  C   UNL d   1       7.215  -0.161   2.383  0.00  0.00     0.050 A 
ATOM      7 CL   UNL d   1       5.330  -1.570   3.676  0.00  0.00    -0.081 Cl
ATOM      8  C   UNL d   1       7.707   0.586   1.318  0.00  0.00     0.035 A 
ATOM      9  C   UNL d   1       6.906   0.848   0.208  0.00  0.00     0.026 A 
ATOM     10 CL   UNL d   1       9.314   1.198   1.372  0.00  0.00    -0.084 Cl
ATOM     11  C   UNL d   1       5.599   0.355   0.155  0.00  0.00     0.040 A 
ENDBRANCH   3   4
ENDBRANCH   1   3
BRANCH   1  12
ATOM     12  C   UNL d   1       2.421  -0.181  -0.669  0.00  0.00     0.252 C 
ATOM     13  N   UNL d   1       1.903   0.720   0.235  0.00  0.00    -0.305 N 
ATOM     14  H   UNL d   1       2.155   0.648   1.210  0.00  0.00     0.171 HD
ATOM     15  O   UNL d   1       2.281  -0.169  -1.889  0.00  0.00    -0.270 OA
BRANCH  13  16
ATOM     16  C   UNL d   1       1.177   1.808  -0.159  0.00  0.00     0.150 A 
ATOM     17  N   UNL d   1       0.750   2.128  -1.352  0.00  0.00    -0.346 N 
ATOM     18  C   UNL d   1       0.081   3.333  -1.293  0.00  0.00     0.097 A 
ATOM     19  HN  UNL d   1       0.889   1.572  -2.196  1.00  0.00     0.167 HD
ATOM     20  C   UNL d   1       0.019   3.916  -0.045  0.00  0.00     0.070 A 
ATOM     21  S   UNL d   1       0.800   2.901   1.100  0.00  0.00    -0.064 SA
ENDBRANCH  13  16
ENDBRANCH   1  12
TORSDOF 4
