REMARK  7 active torsions:
REMARK  status: ('A' for Active; 'I' for Inactive)
REMARK    1  A    between atoms: N_2  and  C_1 
REMARK    2  A    between atoms: N_9  and  C_1 
REMARK    3  A    between atoms: C_3  and  N_2 
REMARK    4  A    between atoms: N_5  and  N_9 
REMARK    5  A    between atoms: O_21  and  C_7 
REMARK    6  A    between atoms: O_22  and  C_11 
REMARK    7  A    between atoms: C_18  and  C_17 
ROOT
ATOM      1  N   UNL d   1       3.470  -0.286  -1.013  0.00  0.00    -0.309 N 
ATOM      2  HN  UNL d   1       3.157  -1.094  -1.550  1.00  0.00     0.186 HD
ATOM      3  C   UNL d   1       4.718   0.056  -0.902  0.00  0.00     0.118 C 
ENDROOT
BRANCH   1   4
ATOM      4  N   UNL d   1       2.618   0.545  -0.339  0.00  0.00    -0.277 N 
ATOM      5  H   UNL d   1       2.984   1.293   0.242  0.00  0.00     0.189 HD
BRANCH   4   6
ATOM      6  C   UNL d   1       1.250   0.397  -0.349  0.00  0.00     0.186 C 
ATOM      7  S   UNL d   1       0.334   1.427   0.593  0.00  0.00    -0.040 SA
BRANCH   6   8
ATOM      8  N   UNL d   1       0.789  -0.602  -1.165  0.00  0.00    -0.361 N 
ATOM      9  H   UNL d   1       1.541  -1.030  -1.697  0.00  0.00     0.162 HD
BRANCH   8  10
ATOM     10  C   UNL d   1      -0.589  -0.791  -1.590  0.00  0.00     0.088 C 
ATOM     11  C   UNL d   1      -1.088   0.283  -2.589  0.00  0.00     0.009 C 
ATOM     12  C   UNL d   1      -2.303  -0.415  -3.201  0.00  0.00     0.011 C 
ATOM     13  C   UNL d   1      -0.144   0.374  -3.803  0.00  0.00     0.007 C 
ATOM     14  C   UNL d   1      -1.486  -1.616  -3.676  0.00  0.00    -0.012 C 
ATOM     15  C   UNL d   1      -0.831  -2.103  -2.367  0.00  0.00     0.030 C 
ATOM     16  C   UNL d   1      -0.414  -0.941  -4.547  0.00  0.00     0.005 C 
ENDBRANCH   8  10
ENDBRANCH   6   8
ENDBRANCH   4   6
ENDBRANCH   1   4
BRANCH   3  17
ATOM     17  C   UNL d   1       5.825  -0.736  -1.480  0.00  0.00    -0.017 A 
ATOM     18  C   UNL d   1       7.141  -0.263  -1.343  0.00  0.00     0.052 A 
ATOM     19  C   UNL d   1       8.207  -1.009  -1.856  0.00  0.00     0.102 A 
ATOM     20  C   UNL d   1       7.934  -2.229  -2.495  0.00  0.00     0.099 A 
ATOM     21  C   UNL d   1       6.628  -2.699  -2.634  0.00  0.00     0.040 A 
ATOM     22  C   UNL d   1       5.568  -1.947  -2.125  0.00  0.00     0.016 A 
BRANCH  19  23
ATOM     23  O   UNL d   1       9.528  -0.656  -1.789  0.00  0.00    -0.353 OA
ATOM     24  C   UNL d   1       9.865   0.574  -1.165  0.00  0.00     0.210 C 
ENDBRANCH  19  23
BRANCH  20  25
ATOM     25  O   UNL d   1       8.975  -2.969  -2.988  0.00  0.00    -0.358 OA
ATOM     26  H   UNL d   1       8.632  -3.788  -3.375  0.00  0.00     0.217 HD
ENDBRANCH  20  25
ENDBRANCH   3  17
TORSDOF 7
