REMARK  13 active torsions:
REMARK  status: ('A' for Active; 'I' for Inactive)
REMARK    1  A    between atoms: C_15  and  N_9 
REMARK    2  A    between atoms: C_11  and  O_16 
REMARK    3  A    between atoms: C_13  and  C_11 
REMARK    4  A    between atoms: C_12  and  O_24 
REMARK    5  A    between atoms: C_14  and  C_12 
REMARK    6  A    between atoms: C_23  and  C_15 
REMARK    7  A    between atoms: O_16  and  C_23 
REMARK    8  A    between atoms: O_36  and  C_21 
REMARK    9  A    between atoms: O_37  and  C_22 
REMARK   10  A    between atoms: C_35  and  C_23 
REMARK   11  A    between atoms: O_24  and  C_35 
REMARK   12  A    between atoms: O_39  and  C_25 
REMARK   13  A    between atoms: O_38  and  C_26 
ROOT
ATOM      1  C   UNL d   1       3.757   2.555   0.004  0.00  0.00     0.174 C 
ENDROOT
BRANCH   1   2
ATOM      2  O   UNL d   1       4.367   1.519  -0.850  0.00  0.00    -0.308 OA
BRANCH   2   3
ATOM      3  C   UNL d   1       4.595   1.763  -2.166  0.00  0.00     0.293 C 
ATOM      4  O   UNL d   1       4.083   2.672  -2.799  0.00  0.00    -0.259 OA
BRANCH   3   5
ATOM      5  C   UNL d   1       5.648   0.855  -2.744  0.00  0.00     0.042 A 
ATOM      6  C   UNL d   1       6.173  -0.265  -2.080  0.00  0.00     0.057 A 
ATOM      7  C   UNL d   1       7.191  -1.048  -2.675  0.00  0.00     0.102 A 
ATOM      8  C   UNL d   1       7.683  -0.731  -3.948  0.00  0.00     0.101 A 
ATOM      9  C   UNL d   1       7.169   0.397  -4.596  0.00  0.00     0.040 A 
ATOM     10  C   UNL d   1       6.161   1.175  -4.010  0.00  0.00     0.020 A 
BRANCH   7  11
ATOM     11  O   UNL d   1       7.630  -2.169  -2.022  0.00  0.00    -0.353 OA
ATOM     12  C   UNL d   1       8.379  -1.873  -0.843  0.00  0.00     0.210 C 
ENDBRANCH   7  11
BRANCH   8  13
ATOM     13  O   UNL d   1       8.667  -1.358  -4.664  0.00  0.00    -0.353 OA
ATOM     14  C   UNL d   1       8.944  -2.724  -4.388  0.00  0.00     0.210 C 
ENDBRANCH   8  13
ENDBRANCH   3   5
ENDBRANCH   2   3
ENDBRANCH   1   2
BRANCH   1  15
ATOM     15  C   UNL d   1       2.218   2.613  -0.058  0.00  0.00     0.165 C 
BRANCH  15  16
ATOM     16  N   UNL d   1       1.594   3.061   1.187  0.00  0.00    -0.333 N 
ATOM     17  C   UNL d   1       0.890   4.213   1.462  0.00  0.00     0.149 A 
ATOM     18  C   UNL d   1       0.388   4.035   2.719  0.00  0.00     0.145 A 
ATOM     19  C   UNL d   1       0.639   5.397   0.710  0.00  0.00     0.282 A 
ATOM     20  N   UNL d   1      -0.428   4.963   3.327  0.00  0.00    -0.287 N 
ATOM     21  N   UNL d   1       0.783   2.851   3.261  0.00  0.00    -0.336 N 
ATOM     22  C   UNL d   1      -0.737   6.150   2.660  0.00  0.00     0.332 A 
ATOM     23  C   UNL d   1      -0.977   4.762   4.654  0.00  0.00     0.163 C 
ATOM     24  N   UNL d   1      -0.179   6.322   1.378  0.00  0.00    -0.269 N 
ATOM     25  O   UNL d   1      -1.460   7.001   3.177  0.00  0.00    -0.246 OA
ATOM     26  C   UNL d   1      -0.463   7.562   0.682  0.00  0.00     0.164 C 
ATOM     27  C   UNL d   1       1.515   2.288   2.325  0.00  0.00     0.185 A 
ATOM     28  HN  UNL d   1       0.561   2.484   4.187  1.00  0.00     0.168 HD
ATOM     29  O   UNL d   1       1.115   5.590  -0.406  0.00  0.00    -0.265 OA
ENDBRANCH  15  16
ENDBRANCH   1  15
BRANCH   1  30
ATOM     30  C   UNL d   1       4.392   3.947  -0.187  0.00  0.00     0.213 C 
BRANCH  30  31
ATOM     31  O   UNL d   1       5.821   3.821  -0.288  0.00  0.00    -0.315 OA
BRANCH  31  32
ATOM     32  C   UNL d   1       6.471   3.588   0.873  0.00  0.00     0.293 C 
ATOM     33  O   UNL d   1       5.989   3.670   1.991  0.00  0.00    -0.259 OA
BRANCH  32  34
ATOM     34  C   UNL d   1       7.844   3.094   0.597  0.00  0.00     0.042 A 
ATOM     35  C   UNL d   1       8.701   2.889   1.686  0.00  0.00     0.057 A 
ATOM     36  C   UNL d   1       9.979   2.334   1.510  0.00  0.00     0.102 A 
ATOM     37  C   UNL d   1      10.386   1.962   0.214  0.00  0.00     0.101 A 
ATOM     38  C   UNL d   1       9.525   2.185  -0.871  0.00  0.00     0.040 A 
ATOM     39  C   UNL d   1       8.267   2.755  -0.689  0.00  0.00     0.020 A 
BRANCH  36  40
ATOM     40  O   UNL d   1      10.838   2.116   2.553  0.00  0.00    -0.353 OA
ATOM     41  C   UNL d   1      10.478   2.608   3.839  0.00  0.00     0.210 C 
ENDBRANCH  36  40
BRANCH  37  42
ATOM     42  O   UNL d   1      11.555   1.370  -0.183  0.00  0.00    -0.353 OA
ATOM     43  C   UNL d   1      12.572   1.137   0.778  0.00  0.00     0.210 C 
ENDBRANCH  37  42
ENDBRANCH  32  34
ENDBRANCH  31  32
ENDBRANCH  30  31
ENDBRANCH   1  30
TORSDOF 13
