REMARK  5 active torsions:
REMARK  status: ('A' for Active; 'I' for Inactive)
REMARK    1  A    between atoms: C_11  and  N_1 
REMARK    2  A    between atoms: C_10  and  C_6 
REMARK       I    between atoms: C_8  and  N_9 
REMARK    3  A    between atoms: C_12  and  C_8 
REMARK    4  A    between atoms: N_9  and  C_10 
REMARK    5  A    between atoms: N_14  and  C_13 
ROOT
ATOM      1  N   UNL d   1      -0.126  -1.095   0.567  0.00  0.00    -0.197 N 
ATOM      2  N   UNL d   1       1.176  -0.707   0.457  0.00  0.00    -0.280 N 
ATOM      3  HN  UNL d   1       2.018  -1.280   0.502  1.00  0.00     0.189 HD
ATOM      4  N   UNL d   1      -1.049  -0.098   0.482  0.00  0.00    -0.282 N 
ATOM      5  HN  UNL d   1      -2.066  -0.165   0.525  1.00  0.00     0.189 HD
ATOM      6  C   UNL d   1       1.072   0.621   0.275  0.00  0.00     0.069 A 
ATOM      7  C   UNL d   1      -0.288   0.992   0.328  0.00  0.00     0.049 A 
ATOM      8  C   UNL d   1      -0.875   2.348   0.233  0.00  0.00     0.072 C 
ENDROOT
BRANCH   6   9
ATOM      9  C   UNL d   1       2.261   1.495   0.050  0.00  0.00     0.183 C 
BRANCH   9  10
ATOM     10  N   UNL d   1       3.473   0.724   0.196  0.00  0.00    -0.351 N 
ATOM     11  C   UNL d   1       4.713   1.289   0.039  0.00  0.00     0.251 C 
ATOM     12  O   UNL d   1       4.885   2.464  -0.262  0.00  0.00    -0.268 OA
ATOM     13  H   UNL d   1       3.353  -0.282   0.246  0.00  0.00     0.163 HD
BRANCH  11  14
ATOM     14  C   UNL d   1       5.869   0.373   0.241  0.00  0.00     0.032 A 
ATOM     15  C   UNL d   1       7.050   0.587  -0.467  0.00  0.00     0.019 A 
ATOM     16  C   UNL d   1       8.148  -0.271  -0.287  0.00  0.00     0.030 A 
ATOM     17  C   UNL d   1       8.119  -1.351   0.614  0.00  0.00     0.029 A 
ATOM     18  C   UNL d   1       6.923  -1.511   1.338  0.00  0.00     0.030 A 
ATOM     19  C   UNL d   1       5.812  -0.676   1.157  0.00  0.00     0.019 A 
BRANCH  17  20
ATOM     20  N   UNL d   1       9.206  -2.185   0.826  0.00  0.00    -0.390 N 
ATOM     21  C   UNL d   1       9.030  -3.583   1.219  0.00  0.00     0.149 C 
ATOM     22  C   UNL d   1      10.558  -1.843   0.397  0.00  0.00     0.149 C 
ENDBRANCH  17  20
ENDBRANCH  11  14
ENDBRANCH   9  10
ENDBRANCH   6   9
BRANCH   1  23
ATOM     23  C   UNL d   1      -0.481  -2.459   0.753  0.00  0.00     0.074 A 
ATOM     24  C   UNL d   1       0.521  -3.412   0.983  0.00  0.00     0.033 A 
ATOM     25  C   UNL d   1       0.185  -4.755   1.154  0.00  0.00     0.002 A 
ATOM     26  C   UNL d   1      -1.150  -5.154   1.079  0.00  0.00     0.000 A 
ATOM     27  C   UNL d   1      -2.150  -4.212   0.849  0.00  0.00     0.002 A 
ATOM     28  C   UNL d   1      -1.825  -2.860   0.694  0.00  0.00     0.033 A 
ENDBRANCH   1  23
TORSDOF 5
