REMARK  5 active torsions:
REMARK  status: ('A' for Active; 'I' for Inactive)
REMARK    1  A    between atoms: C_6  and  C_1 
REMARK    2  A    between atoms: O_15  and  C_6 
REMARK    3  A    between atoms: N_11  and  C_9 
REMARK    4  A    between atoms: C_16  and  N_11 
REMARK    5  A    between atoms: C_17  and  N_11 
ROOT
ATOM      1  C   UNL d   1      -1.918  -1.239  -0.141  0.00  0.00     0.114 A 
ATOM      2  C   UNL d   1      -2.159   0.215  -0.156  0.00  0.00     0.305 A 
ATOM      3  C   UNL d   1      -0.667  -1.721  -0.099  0.00  0.00     0.039 A 
ATOM      4  O   UNL d   1      -1.057   1.063  -0.161  0.00  0.00    -0.274 OA
ATOM      5  C   UNL d   1       0.254   0.551  -0.101  0.00  0.00     0.091 A 
ATOM      6  C   UNL d   1       0.469  -0.818  -0.061  0.00  0.00    -0.001 A 
ATOM      7  C   UNL d   1       1.313   1.465  -0.051  0.00  0.00     0.067 A 
ATOM      8  C   UNL d   1       2.641   1.022   0.071  0.00  0.00     0.032 A 
ATOM      9  O   UNL d   1      -3.308   0.650  -0.171  0.00  0.00    -0.259 OA
ATOM     10  C   UNL d   1       1.774  -1.282   0.028  0.00  0.00     0.016 A 
ATOM     11  C   UNL d   1       2.836  -0.371   0.099  0.00  0.00     0.030 A 
ENDROOT
BRANCH   8  12
ATOM     12  N   UNL d   1       3.696   1.921   0.207  0.00  0.00    -0.382 N 
BRANCH  12  13
ATOM     13  C   UNL d   1       3.740   3.115  -0.647  0.00  0.00     0.118 C 
ATOM     14  C   UNL d   1       3.437   4.371   0.157  0.00  0.00     0.026 C 
ENDBRANCH  12  13
BRANCH  12  15
ATOM     15  C   UNL d   1       4.962   1.520   0.839  0.00  0.00     0.118 C 
ATOM     16  C   UNL d   1       4.777   1.261   2.329  0.00  0.00     0.026 C 
ENDBRANCH  12  15
ENDBRANCH   8  12
BRANCH   1  17
ATOM     17  C   UNL d   1      -3.023  -2.229  -0.164  0.00  0.00     0.182 C 
ATOM     18  O   UNL d   1      -2.833  -3.438  -0.164  0.00  0.00    -0.646 OA
BRANCH  17  19
ATOM     19  O   UNL d   1      -4.267  -1.710  -0.186  0.00  0.00    -0.772 OA
ATOM     20  H   UNL d   1      -4.315  -0.724  -0.181  0.00  0.00     0.167 HD
ENDBRANCH  17  19
ENDBRANCH   1  17
TORSDOF 5
