REMARK  7 active torsions:
REMARK  status: ('A' for Active; 'I' for Inactive)
REMARK    1  A    between atoms: C_10  and  C_2 
REMARK    2  A    between atoms: C_16  and  C_4 
REMARK    3  A    between atoms: O_18  and  C_10 
REMARK    4  A    between atoms: S_17  and  C_16 
REMARK    5  A    between atoms: C_26  and  S_17 
REMARK    6  A    between atoms: C_27  and  O_18 
REMARK    7  A    between atoms: C_20  and  C_26 
ROOT
ATOM      1  C   UNL d   1      -0.560   0.681   0.043  0.00  0.00     0.062 A 
ATOM      2  C   UNL d   1      -1.993   0.811   0.025  0.00  0.00     0.086 A 
ATOM      3  C   UNL d   1      -0.304  -0.690   0.073  0.00  0.00     0.132 A 
ATOM      4  C   UNL d   1      -2.490  -0.485   0.106  0.00  0.00     0.080 A 
ATOM      5  O   UNL d   1      -1.467  -1.387   0.110  0.00  0.00    -0.309 OA
ATOM      6  C   UNL d   1       0.561   1.537   0.011  0.00  0.00     0.172 A 
ATOM      7  C   UNL d   1       0.975  -1.245   0.058  0.00  0.00     0.192 A 
ATOM      8  C   UNL d   1       1.853   1.002   0.005  0.00  0.00     0.197 A 
ATOM      9  C   UNL d   1       2.055  -0.369   0.023  0.00  0.00     0.199 A 
ATOM     10  F   UNL d   1       0.422   2.868  -0.014  0.00  0.00    -0.202 F 
ATOM     11  F   UNL d   1       1.165  -2.569   0.062  0.00  0.00    -0.200 F 
ATOM     12  F   UNL d   1       2.908   1.828  -0.026  0.00  0.00    -0.199 F 
ATOM     13  F   UNL d   1       3.303  -0.857   0.001  0.00  0.00    -0.199 F 
ENDROOT
BRANCH   4  14
ATOM     14  C   UNL d   1      -3.856  -1.073   0.183  0.00  0.00     0.140 C 
BRANCH  14  15
ATOM     15  S   UNL d   1      -4.336  -1.274   1.927  0.00  0.00    -0.158 SA
BRANCH  15  16
ATOM     16  C   UNL d   1      -5.919  -2.135   1.681  0.00  0.00     0.112 C 
BRANCH  16  17
ATOM     17  C   UNL d   1      -6.580  -2.439   3.003  0.00  0.00    -0.049 A 
ATOM     18  C   UNL d   1      -7.412  -1.490   3.617  0.00  0.00     0.009 A 
ATOM     19  C   UNL d   1      -7.994  -1.753   4.859  0.00  0.00     0.024 A 
ATOM     20  C   UNL d   1      -7.746  -2.966   5.497  0.00  0.00     0.034 A 
ATOM     21  C   UNL d   1      -6.922  -3.919   4.903  0.00  0.00     0.024 A 
ATOM     22 CL   UNL d   1      -8.454  -3.285   7.033  0.00  0.00    -0.084 Cl
ATOM     23  C   UNL d   1      -6.338  -3.656   3.661  0.00  0.00     0.009 A 
ENDBRANCH  16  17
ENDBRANCH  15  16
ENDBRANCH  14  15
ENDBRANCH   4  14
BRANCH   2  24
ATOM     24  C   UNL d   1      -2.818   2.001  -0.104  0.00  0.00     0.296 C 
ATOM     25  O   UNL d   1      -4.034   1.963  -0.246  0.00  0.00    -0.259 OA
BRANCH  24  26
ATOM     26  O   UNL d   1      -2.078   3.137  -0.155  0.00  0.00    -0.318 OA
BRANCH  26  27
ATOM     27  C   UNL d   1      -2.723   4.306  -0.674  0.00  0.00     0.174 C 
ATOM     28  C   UNL d   1      -2.567   4.308  -2.185  0.00  0.00     0.034 C 
ENDBRANCH  26  27
ENDBRANCH  24  26
ENDBRANCH   2  24
TORSDOF 7
