REMARK  4 active torsions:
REMARK  status: ('A' for Active; 'I' for Inactive)
REMARK    1  A    between atoms: C_6  and  N_1 
REMARK    2  A    between atoms: N_10  and  C_6 
REMARK       I    between atoms: C_9  and  N_11 
REMARK    3  A    between atoms: C_14  and  N_10 
REMARK    4  A    between atoms: N_11  and  C_13 
ROOT
ATOM      1  N   UNL d   1       3.966   1.335   0.167  0.00  0.00    -0.276 NA
ATOM      2  H   UNL d   1       3.372   2.090  -0.187  0.00  0.00     0.129 HD
ENDROOT
BRANCH   1   3
ATOM      3  C   UNL d   1       3.386   0.043  -0.155  0.00  0.00     0.230 C 
BRANCH   3   4
ATOM      4  N   UNL d   1       1.954   0.158  -0.302  0.00  0.00    -0.267 N 
ATOM      5  C   UNL d   1       1.299   1.227  -0.851  0.00  0.00     0.262 C 
ATOM      6  C   UNL d   1      -0.086   0.823  -1.053  0.00  0.00     0.048 A 
ATOM      7  O   UNL d   1       1.736   2.320  -1.161  0.00  0.00    -0.267 OA
ATOM      8  C   UNL d   1      -1.163   1.542  -1.531  0.00  0.00     0.018 A 
ATOM      9  C   UNL d   1      -0.183  -0.512  -0.706  0.00  0.00     0.048 A 
ATOM     10  C   UNL d   1      -2.377   0.862  -1.655  0.00  0.00     0.001 A 
ATOM     11  C   UNL d   1      -2.478  -0.502  -1.313  0.00  0.00     0.001 A 
ATOM     12  C   UNL d   1      -1.367  -1.210  -0.836  0.00  0.00     0.018 A 
ATOM     13  C   UNL d   1       1.145  -0.949  -0.276  0.00  0.00     0.262 C 
ATOM     14  O   UNL d   1       1.435  -2.103  -0.021  0.00  0.00    -0.267 OA
ENDBRANCH   3   4
ENDBRANCH   1   3
BRANCH   1  15
ATOM     15  C   UNL d   1       5.298   1.572  -0.202  0.00  0.00     0.009 A 
ATOM     16  C   UNL d   1       5.703   2.893  -0.432  0.00  0.00     0.026 A 
ATOM     17  C   UNL d   1       7.035   3.210  -0.723  0.00  0.00     0.031 A 
ATOM     18  C   UNL d   1       8.010   2.211  -0.758  0.00  0.00     0.034 A 
ATOM     19  C   UNL d   1       7.620   0.895  -0.512  0.00  0.00     0.031 A 
ATOM     20  C   UNL d   1       6.283   0.583  -0.220  0.00  0.00     0.026 A 
BRANCH  18  21
ATOM     21  N   UNL d   1       9.342   2.607  -1.014  0.00  0.00    -0.328 N 
ATOM     22  C   UNL d   1      10.464   1.798  -1.049  0.00  0.00     0.218 C 
ATOM     23  O   UNL d   1      10.495   0.578  -0.909  0.00  0.00    -0.274 OA
ATOM     24  C   UNL d   1      11.742   2.562  -1.284  0.00  0.00     0.117 C 
ATOM     25  H   UNL d   1       9.483   3.599  -1.159  0.00  0.00     0.169 HD
ENDBRANCH  18  21
ENDBRANCH   1  15
TORSDOF 4
