REMARK  3 active torsions:
REMARK  status: ('A' for Active; 'I' for Inactive)
REMARK    1  A    between atoms: N_12  and  N_6 
REMARK       I    between atoms: C_9  and  N_12 
REMARK    2  A    between atoms: O_18  and  C_9 
REMARK    3  A    between atoms: C_21  and  O_18 
ROOT
ATOM      1  S   UNL d   1      -1.313   1.699   0.149  0.00  0.00     0.180 S 
ATOM      2  C   UNL d   1       0.109   0.664   0.085  0.00  0.00     0.071 A 
ATOM      3  C   UNL d   1      -0.003  -0.725  -0.013  0.00  0.00     0.011 A 
ATOM      4  C   UNL d   1      -1.319  -1.451  -0.025  0.00  0.00     0.039 C 
ATOM      5  C   UNL d   1      -2.643   0.642  -0.378  0.00  0.00     0.115 C 
ATOM      6  N   UNL d   1      -1.304  -2.703  -0.370  0.00  0.00    -0.300 N 
ATOM      7  HN  UNL d   1      -0.421  -3.135  -0.643  1.00  0.00     0.186 HD
ATOM      8  C   UNL d   1      -2.560  -0.673   0.380  0.00  0.00     0.079 C 
ATOM      9  O   UNL d   1      -1.133   2.724  -0.859  0.00  0.00    -0.222 OA
ATOM     10  O   UNL d   1      -1.504   2.030   1.548  0.00  0.00    -0.222 OA
ATOM     11  C   UNL d   1       1.362   1.295   0.100  0.00  0.00     0.026 A 
ATOM     12  C   UNL d   1       1.179  -1.482  -0.101  0.00  0.00     0.038 A 
ATOM     13  C   UNL d   1       2.427  -0.855  -0.078  0.00  0.00     0.035 A 
ATOM     14  C   UNL d   1       2.523   0.531   0.024  0.00  0.00     0.025 A 
ATOM     15 CL   UNL d   1       3.862  -1.799  -0.170  0.00  0.00    -0.084 Cl
ATOM     16  C   UNL d   1      -3.987   1.328  -0.161  0.00  0.00     0.027 C 
ENDROOT
BRANCH   6  17
ATOM     17  N   UNL d   1      -2.435  -3.450  -0.374  0.00  0.00    -0.245 N 
ATOM     18  C   UNL d   1      -2.455  -4.697  -0.951  0.00  0.00     0.379 C 
ATOM     19  O   UNL d   1      -1.506  -5.294  -1.440  0.00  0.00    -0.237 OA
ATOM     20  H   UNL d   1      -3.328  -3.098  -0.067  0.00  0.00     0.192 HD
BRANCH  18  21
ATOM     21  O   UNL d   1      -3.742  -5.140  -0.961  0.00  0.00    -0.303 OA
BRANCH  21  22
ATOM     22  C   UNL d   1      -3.997  -6.270  -1.807  0.00  0.00     0.176 C 
ATOM     23  C   UNL d   1      -4.325  -5.764  -3.201  0.00  0.00     0.034 C 
ENDBRANCH  21  22
ENDBRANCH  18  21
ENDBRANCH   6  17
TORSDOF 3
