REMARK  3 active torsions:
REMARK  status: ('A' for Active; 'I' for Inactive)
REMARK    1  A    between atoms: C_6  and  C_1 
REMARK    2  A    between atoms: O_9  and  C_6 
REMARK    3  A    between atoms: C_13  and  O_9 
ROOT
ATOM      1  C   UNL d   1      -3.477  -1.277   0.388  0.00  0.00     0.307 C 
ATOM      2  O   UNL d   1      -3.830  -2.431   0.610  0.00  0.00    -0.258 OA
ENDROOT
BRANCH   1   3
ATOM      3  C   UNL d   1      -2.095  -0.825   0.302  0.00  0.00     0.104 A 
ATOM      4  S   UNL d   1      -0.856  -2.064   0.384  0.00  0.00    -0.074 SA
ATOM      5  C   UNL d   1       0.345  -0.924   0.220  0.00  0.00     0.058 A 
ATOM      6  S   UNL d   1       2.012  -1.025   0.163  0.00  0.00    -0.094 SA
ATOM      7  C   UNL d   1      -0.121   0.326   0.112  0.00  0.00     0.012 A 
ATOM      8  C   UNL d   1       2.123   0.699  -0.017  0.00  0.00     0.052 A 
ATOM      9  C   UNL d   1       0.875   1.307  -0.028  0.00  0.00     0.022 A 
ATOM     10  C   UNL d   1      -1.525   0.442   0.160  0.00  0.00     0.069 A 
ATOM     11 CL   UNL d   1      -2.337   1.946   0.059  0.00  0.00    -0.082 Cl
ENDBRANCH   1   3
BRANCH   1  12
ATOM     12  O   UNL d   1      -4.360  -0.218   0.173  0.00  0.00    -0.275 OA
BRANCH  12  13
ATOM     13  C   UNL d   1      -5.760  -0.395   0.072  0.00  0.00     0.079 A 
ATOM     14  C   UNL d   1      -6.542   0.689   0.482  0.00  0.00     0.039 A 
ATOM     15  C   UNL d   1      -7.931   0.637   0.333  0.00  0.00     0.026 A 
ATOM     16  C   UNL d   1      -8.524  -0.492  -0.230  0.00  0.00     0.034 A 
ATOM     17  C   UNL d   1      -7.743  -1.573  -0.638  0.00  0.00     0.026 A 
ATOM     18 CL   UNL d   1     -10.231  -0.544  -0.442  0.00  0.00    -0.084 Cl
ATOM     19  C   UNL d   1      -6.353  -1.522  -0.494  0.00  0.00     0.039 A 
ENDBRANCH  12  13
ENDBRANCH   1  12
TORSDOF 3
