REMARK  5 active torsions:
REMARK  status: ('A' for Active; 'I' for Inactive)
REMARK    1  A    between atoms: N_2  and  S_1 
REMARK    2  A    between atoms: C_3  and  S_1 
REMARK    3  A    between atoms: C_6  and  C_9 
REMARK    4  A    between atoms: C_18  and  C_10 
REMARK    5  A    between atoms: O_19  and  C_11 
ROOT
ATOM      1  N   UNL d   1       0.032   1.497  -0.736  0.00  0.00    -0.206 NA
ATOM      2  C   UNL d   1       0.180   2.709   0.116  0.00  0.00     0.108 C 
ATOM      3  C   UNL d   1       0.599   1.566  -2.117  0.00  0.00     0.108 C 
ATOM      4  C   UNL d   1       0.963   4.076  -1.983  0.00  0.00     0.024 C 
ATOM      5  C   UNL d   1       0.304   4.054  -0.598  0.00  0.00     0.025 C 
ATOM      6  C   UNL d   1       0.401   2.910  -2.796  0.00  0.00     0.025 C 
ENDROOT
BRANCH   1   7
ATOM      7  S   UNL d   1       0.572   0.033   0.057  0.00  0.00     0.243 S 
ATOM      8  O   UNL d   1       1.972   0.250   0.402  0.00  0.00    -0.206 OA
ATOM      9  O   UNL d   1       0.186  -1.083  -0.775  0.00  0.00    -0.206 OA
BRANCH   7  10
ATOM     10  C   UNL d   1      -0.360  -0.062   1.557  0.00  0.00     0.074 A 
ATOM     11  C   UNL d   1      -1.741  -0.253   1.501  0.00  0.00     0.025 A 
ATOM     12  C   UNL d   1      -2.474  -0.332   2.691  0.00  0.00     0.009 A 
ATOM     13  C   UNL d   1      -1.840  -0.222   3.941  0.00  0.00    -0.055 A 
ATOM     14  C   UNL d   1      -0.443  -0.081   3.974  0.00  0.00     0.009 A 
ATOM     15  C   UNL d   1       0.295  -0.004   2.789  0.00  0.00     0.025 A 
BRANCH  13  16
ATOM     16  C   UNL d   1      -2.627  -0.219   5.243  0.00  0.00     0.010 C 
ATOM     17  C   UNL d   1      -3.610   0.955   5.288  0.00  0.00     0.015 C 
ATOM     18  C   UNL d   1      -3.352  -1.542   5.494  0.00  0.00     0.015 C 
ENDBRANCH  13  16
ENDBRANCH   7  10
ENDBRANCH   1   7
BRANCH   4  19
ATOM     19  C   UNL d   1       2.492   4.200  -2.028  0.00  0.00    -0.021 A 
ATOM     20  C   UNL d   1       3.138   5.062  -2.951  0.00  0.00     0.074 A 
ATOM     21  C   UNL d   1       4.541   5.109  -3.017  0.00  0.00     0.037 A 
ATOM     22  C   UNL d   1       5.319   4.369  -2.134  0.00  0.00     0.003 A 
ATOM     23  C   UNL d   1       4.701   3.554  -1.196  0.00  0.00     0.001 A 
ATOM     24  C   UNL d   1       3.307   3.459  -1.155  0.00  0.00     0.010 A 
BRANCH  20  25
ATOM     25  O   UNL d   1       2.348   5.830  -3.773  0.00  0.00    -0.355 OA
ATOM     26  C   UNL d   1       2.964   7.010  -4.295  0.00  0.00     0.210 C 
ENDBRANCH  20  25
ENDBRANCH   4  19
TORSDOF 5
