REMARK  5 active torsions:
REMARK  status: ('A' for Active; 'I' for Inactive)
REMARK    1  A    between atoms: C_4  and  N_1 
REMARK    2  A    between atoms: C_3  and  C_2 
REMARK       I    between atoms: N_10  and  C_3 
REMARK    3  A    between atoms: N_6  and  N_10 
REMARK    4  A    between atoms: C_16  and  C_14 
REMARK    5  A    between atoms: O_25  and  C_17 
ROOT
ATOM      1  C   UNL d   1       2.214  -1.443  -0.065  0.00  0.00     0.287 C 
ATOM      2  N   UNL d   1       3.419  -0.764   0.106  0.00  0.00    -0.265 N 
ATOM      3  O   UNL d   1       2.157  -2.653  -0.279  0.00  0.00    -0.264 OA
ATOM      4  H   UNL d   1       3.438   0.221   0.339  0.00  0.00     0.190 HD
ENDROOT
BRANCH   1   5
ATOM      5  C   UNL d   1       1.022  -0.619   0.056  0.00  0.00     0.109 A 
ATOM      6  N   UNL d   1      -0.195  -1.037   0.608  0.00  0.00    -0.318 N 
ATOM      7  C   UNL d   1      -1.139  -0.062   0.321  0.00  0.00     0.098 A 
ATOM      8  C   UNL d   1      -0.538   0.985  -0.333  0.00  0.00     0.020 A 
ATOM      9  C   UNL d   1       0.822   0.644  -0.487  0.00  0.00     0.037 A 
BRANCH   6  10
ATOM     10  C   UNL d   1      -0.480  -2.216   1.370  0.00  0.00     0.039 A 
ATOM     11  C   UNL d   1       0.502  -2.823   2.165  0.00  0.00     0.033 A 
ATOM     12  C   UNL d   1       0.204  -3.977   2.897  0.00  0.00     0.044 A 
ATOM     13  C   UNL d   1      -1.073  -4.518   2.841  0.00  0.00     0.116 A 
ATOM     14  C   UNL d   1      -2.066  -3.921   2.077  0.00  0.00     0.044 A 
ATOM     15  F   UNL d   1      -1.353  -5.629   3.535  0.00  0.00    -0.206 F 
ATOM     16  C   UNL d   1      -1.776  -2.765   1.347  0.00  0.00     0.033 A 
ENDBRANCH   6  10
ENDBRANCH   1   5
BRANCH   2  17
ATOM     17  N   UNL d   1       4.578  -1.483   0.060  0.00  0.00    -0.308 N 
ATOM     18  C   UNL d   1       5.650  -0.942   0.539  0.00  0.00     0.118 C 
ATOM     19  HN  UNL d   1       4.598  -2.421  -0.340  1.00  0.00     0.186 HD
BRANCH  18  20
ATOM     20  C   UNL d   1       6.929  -1.692   0.530  0.00  0.00    -0.019 A 
ATOM     21  C   UNL d   1       7.019  -2.924  -0.125  0.00  0.00     0.015 A 
ATOM     22  C   UNL d   1       8.214  -3.646  -0.115  0.00  0.00     0.037 A 
ATOM     23  C   UNL d   1       9.331  -3.147   0.558  0.00  0.00     0.068 A 
ATOM     24  C   UNL d   1       9.237  -1.912   1.211  0.00  0.00     0.037 A 
ATOM     25  C   UNL d   1       8.044  -1.179   1.197  0.00  0.00     0.015 A 
BRANCH  23  26
ATOM     26  O   UNL d   1      10.549  -3.761   0.658  0.00  0.00    -0.356 OA
ATOM     27  C   UNL d   1      10.689  -5.022   0.013  0.00  0.00     0.210 C 
ENDBRANCH  23  26
ENDBRANCH  18  20
ENDBRANCH   2  17
TORSDOF 5
