REMARK  6 active torsions:
REMARK  status: ('A' for Active; 'I' for Inactive)
REMARK    1  A    between atoms: C_3  and  C_1 
REMARK    2  A    between atoms: C_4  and  C_2 
REMARK    3  A    between atoms: C_5  and  C_3 
REMARK    4  A    between atoms: C_6  and  C_3 
REMARK    5  A    between atoms: C_7  and  C_4 
REMARK    6  A    between atoms: C_8  and  C_4 
ROOT
ATOM      1  C   UNL d   1       1.095  -0.062  -0.073  0.00  0.00    -0.016 C 
ATOM      2  C   UNL d   1       0.399  -0.755   0.848  0.00  0.00    -0.016 C 
ENDROOT
BRANCH   1   3
ATOM      3  C   UNL d   1       2.591   0.181  -0.013  0.00  0.00     0.074 C 
BRANCH   3   4
ATOM      4  C   UNL d   1       3.256  -0.354  -1.279  0.00  0.00    -0.046 A 
ATOM      5  C   UNL d   1       3.426   0.435  -2.428  0.00  0.00     0.008 A 
ATOM      6  C   UNL d   1       4.046  -0.088  -3.565  0.00  0.00     0.001 A 
ATOM      7  C   UNL d   1       4.484  -1.411  -3.577  0.00  0.00     0.000 A 
ATOM      8  C   UNL d   1       4.293  -2.217  -2.458  0.00  0.00     0.001 A 
ATOM      9  C   UNL d   1       3.679  -1.694  -1.319  0.00  0.00     0.008 A 
ENDBRANCH   3   4
BRANCH   3  10
ATOM     10  C   UNL d   1       2.966   1.627   0.354  0.00  0.00    -0.046 A 
ATOM     11  C   UNL d   1       2.010   2.639   0.564  0.00  0.00     0.008 A 
ATOM     12  C   UNL d   1       2.393   3.922   0.963  0.00  0.00     0.001 A 
ATOM     13  C   UNL d   1       3.737   4.222   1.158  0.00  0.00     0.000 A 
ATOM     14  C   UNL d   1       4.702   3.240   0.947  0.00  0.00     0.001 A 
ATOM     15  C   UNL d   1       4.320   1.955   0.552  0.00  0.00     0.008 A 
ENDBRANCH   3  10
ENDBRANCH   1   3
BRANCH   2  16
ATOM     16  C   UNL d   1      -1.116  -0.840   0.863  0.00  0.00     0.074 C 
BRANCH  16  17
ATOM     17  C   UNL d   1      -1.565  -2.298   0.824  0.00  0.00    -0.046 A 
ATOM     18  C   UNL d   1      -1.839  -3.037   1.986  0.00  0.00     0.008 A 
ATOM     19  C   UNL d   1      -2.271  -4.363   1.899  0.00  0.00     0.001 A 
ATOM     20  C   UNL d   1      -2.412  -4.976   0.655  0.00  0.00     0.000 A 
ATOM     21  C   UNL d   1      -2.108  -4.271  -0.505  0.00  0.00     0.001 A 
ATOM     22  C   UNL d   1      -1.683  -2.943  -0.421  0.00  0.00     0.008 A 
ENDBRANCH  16  17
BRANCH  16  23
ATOM     23  C   UNL d   1      -1.767   0.028   1.955  0.00  0.00    -0.046 A 
ATOM     24  C   UNL d   1      -1.020   0.775   2.885  0.00  0.00     0.008 A 
ATOM     25  C   UNL d   1      -1.649   1.621   3.803  0.00  0.00     0.001 A 
ATOM     26  C   UNL d   1      -3.036   1.733   3.812  0.00  0.00     0.000 A 
ATOM     27  C   UNL d   1      -3.796   0.992   2.911  0.00  0.00     0.001 A 
ATOM     28  C   UNL d   1      -3.168   0.149   1.990  0.00  0.00     0.008 A 
ENDBRANCH  16  23
ENDBRANCH   2  16
TORSDOF 6
