REMARK  3 active torsions:
REMARK  status: ('A' for Active; 'I' for Inactive)
REMARK    1  A    between atoms: C_8  and  C_1 
REMARK    2  A    between atoms: C_10  and  N_2 
REMARK    3  A    between atoms: S_11  and  C_5 
ROOT
ATOM      1  C   UNL d   1      -0.151  -1.337   0.108  0.00  0.00     0.140 A 
ATOM      2  N   UNL d   1       1.101  -0.706   0.047  0.00  0.00    -0.275 N 
ATOM      3  N   UNL d   1      -1.075  -0.411   0.309  0.00  0.00    -0.282 N 
ATOM      4  HN  UNL d   1      -2.074  -0.589   0.421  1.00  0.00     0.188 HD
ATOM      5  C   UNL d   1       0.803   0.643   0.170  0.00  0.00     0.165 A 
ATOM      6  N   UNL d   1      -0.484   0.817   0.342  0.00  0.00    -0.278 N 
ATOM      7  HN  UNL d   1      -0.958   1.710   0.477  1.00  0.00     0.189 HD
ENDROOT
BRANCH   1   8
ATOM      8  C   UNL d   1      -0.444  -2.787   0.075  0.00  0.00     0.021 A 
ATOM      9  C   UNL d   1      -1.525  -3.321  -0.695  0.00  0.00    -0.012 A 
ATOM     10  C   UNL d   1      -1.722  -4.728  -0.709  0.00  0.00    -0.025 A 
ATOM     11  C   UNL d   1      -2.440  -2.542  -1.453  0.00  0.00     0.013 A 
ATOM     12  C   UNL d   1      -2.779  -5.292  -1.445  0.00  0.00     0.012 A 
ATOM     13  C   UNL d   1      -0.871  -5.564   0.023  0.00  0.00     0.012 A 
ATOM     14  C   UNL d   1      -3.667  -4.494  -2.159  0.00  0.00     0.001 A 
ATOM     15  C   UNL d   1      -3.499  -3.118  -2.161  0.00  0.00     0.001 A 
ATOM     16  C   UNL d   1       0.145  -5.036   0.809  0.00  0.00     0.002 A 
ATOM     17  C   UNL d   1       0.339  -3.660   0.854  0.00  0.00     0.016 A 
ENDBRANCH   1   8
BRANCH   2  18
ATOM     18  C   UNL d   1       2.387  -1.308  -0.082  0.00  0.00     0.043 A 
ATOM     19  C   UNL d   1       2.586  -2.384  -0.956  0.00  0.00     0.030 A 
ATOM     20  C   UNL d   1       3.836  -3.005  -1.025  0.00  0.00     0.002 A 
ATOM     21  C   UNL d   1       4.892  -2.549  -0.237  0.00  0.00     0.000 A 
ATOM     22  C   UNL d   1       4.702  -1.473   0.626  0.00  0.00     0.002 A 
ATOM     23  C   UNL d   1       3.453  -0.855   0.711  0.00  0.00     0.030 A 
ENDBRANCH   2  18
BRANCH   5  24
ATOM     24  S   UNL d   1       1.900   1.971  -0.064  0.00  0.00    -0.105 SA
ATOM     25  H   UNL d   1       2.895   1.329  -0.691  0.00  0.00     0.110 HD
ENDBRANCH   5  24
TORSDOF 3
