REMARK  3 active torsions:
REMARK  status: ('A' for Active; 'I' for Inactive)
REMARK       I    between atoms: C_2  and  N_1 
REMARK    1  A    between atoms: C_15  and  C_2 
REMARK    2  A    between atoms: N_16  and  C_10 
REMARK    3  A    between atoms: N_17  and  C_11 
ROOT
ATOM      1  N   UNL d   1       0.013  -1.279   0.956  0.00  0.00    -0.276 N 
ATOM      2  C   UNL d   1       0.005  -2.362   1.859  0.00  0.00     0.263 C 
ATOM      3  S   UNL d   1       0.002   1.753   0.332  0.00  0.00    -0.086 SA
ATOM      4  C   UNL d   1      -1.336   0.605   0.063  0.00  0.00     0.035 A 
ATOM      5  C   UNL d   1       1.343   0.616   0.051  0.00  0.00     0.035 A 
ATOM      6  C   UNL d   1       1.222  -0.735   0.389  0.00  0.00     0.060 A 
ATOM      7  C   UNL d   1      -1.212  -0.753   0.401  0.00  0.00     0.060 A 
ATOM      8  C   UNL d   1       2.541   1.115  -0.490  0.00  0.00     0.050 A 
ATOM      9  C   UNL d   1      -2.534   1.110  -0.478  0.00  0.00     0.050 A 
ATOM     10  C   UNL d   1       3.642   0.299  -0.766  0.00  0.00     0.030 A 
ATOM     11  C   UNL d   1      -3.648   0.298  -0.735  0.00  0.00     0.030 A 
ATOM     12  C   UNL d   1      -2.325  -1.565   0.164  0.00  0.00     0.034 A 
ATOM     13  C   UNL d   1       2.309  -1.571   0.109  0.00  0.00     0.034 A 
ATOM     14  O   UNL d   1      -0.910  -3.174   2.002  0.00  0.00    -0.267 OA
ATOM     15  C   UNL d   1       3.486  -1.062  -0.465  0.00  0.00     0.031 A 
ATOM     16  C   UNL d   1      -3.508  -1.051  -0.396  0.00  0.00     0.031 A 
ENDROOT
BRANCH   2  17
ATOM     17  C   UNL d   1       1.125  -2.494   2.850  0.00  0.00     0.032 A 
ATOM     18  C   UNL d   1       1.804  -1.386   3.376  0.00  0.00     0.017 A 
ATOM     19  C   UNL d   1       2.818  -1.563   4.321  0.00  0.00     0.001 A 
ATOM     20  C   UNL d   1       3.131  -2.841   4.781  0.00  0.00     0.000 A 
ATOM     21  C   UNL d   1       2.427  -3.945   4.303  0.00  0.00     0.001 A 
ATOM     22  C   UNL d   1       1.427  -3.773   3.343  0.00  0.00     0.017 A 
ENDBRANCH   2  17
BRANCH  10  23
ATOM     23  N   UNL d   1       4.813   0.796  -1.317  0.00  0.00    -0.390 N 
ATOM     24  C   UNL d   1       4.837   1.999  -2.146  0.00  0.00     0.149 C 
ATOM     25  C   UNL d   1       6.107   0.162  -1.097  0.00  0.00     0.149 C 
ENDBRANCH  10  23
BRANCH  11  26
ATOM     26  N   UNL d   1      -4.789   0.803  -1.337  0.00  0.00    -0.390 N 
ATOM     27  C   UNL d   1      -5.262   2.155  -1.051  0.00  0.00     0.149 C 
ATOM     28  C   UNL d   1      -5.734  -0.052  -2.045  0.00  0.00     0.149 C 
ENDBRANCH  11  26
TORSDOF 3
