REMARK  2 active torsions:
REMARK  status: ('A' for Active; 'I' for Inactive)
REMARK    1  A    between atoms: N_3  and  C_1 
REMARK    2  A    between atoms: C_2  and  N_3 
ROOT
ATOM      1  C   UNL d   1       1.441  -0.257   0.083  0.00  0.00     0.046 A 
ATOM      2  C   UNL d   1       1.001   1.083   0.141  0.00  0.00    -0.034 A 
ATOM      3  C   UNL d   1       0.483  -1.295  -0.021  0.00  0.00    -0.034 A 
ATOM      4  C   UNL d   1      -0.383   1.352   0.124  0.00  0.00     0.015 A 
ATOM      5  C   UNL d   1      -0.891  -0.983  -0.036  0.00  0.00     0.015 A 
ATOM      6  C   UNL d   1      -1.334   0.335   0.028  0.00  0.00    -0.061 A 
ATOM      7  C   UNL d   1       1.887   2.302   0.112  0.00  0.00     0.050 C 
ATOM      8  C   UNL d   1       0.828  -2.764  -0.015  0.00  0.00     0.050 C 
ATOM      9  C   UNL d   1      -2.795   0.668  -0.022  0.00  0.00     0.048 C 
ENDROOT
BRANCH   1  10
ATOM     10  N   UNL d   1       2.805  -0.621  -0.013  0.00  0.00    -0.333 N 
ATOM     11  H   UNL d   1       3.017  -1.371  -0.665  0.00  0.00     0.168 HD
BRANCH  10  12
ATOM     12  C   UNL d   1       3.904  -0.165   0.625  0.00  0.00     0.170 C 
ATOM     13  S   UNL d   1       5.426  -0.528   0.062  0.00  0.00    -0.041 SA
ATOM     14  N   UNL d   1       3.751   0.529   1.765  0.00  0.00    -0.376 N 
ATOM     15  H   UNL d   1       2.895   0.404   2.298  0.00  0.00     0.158 HD
ATOM     16  H   UNL d   1       4.587   0.741   2.296  0.00  0.00     0.158 HD
ENDBRANCH  10  12
ENDBRANCH   1  10
TORSDOF 2
