REMARK  5 active torsions:
REMARK  status: ('A' for Active; 'I' for Inactive)
REMARK       I    between atoms: N_3  and  C_1 
REMARK    1  A    between atoms: C_8  and  C_1 
REMARK    2  A    between atoms: O_5  and  C_2 
REMARK    3  A    between atoms: C_4  and  N_3 
REMARK    4  A    between atoms: C_12  and  O_5 
REMARK    5  A    between atoms: O_21  and  C_13 
ROOT
ATOM      1  C   UNL d   1       2.938  -3.515   0.599  0.00  0.00     0.175 A 
ATOM      2  C   UNL d   1       2.673  -2.572  -0.402  0.00  0.00     0.087 A 
ATOM      3  N   UNL d   1       2.240  -4.670   0.765  0.00  0.00    -0.345 N 
ATOM      4  HN  UNL d   1       2.435  -5.304   1.540  1.00  0.00     0.167 HD
ATOM      5  C   UNL d   1       1.658  -2.892  -1.307  0.00  0.00     0.035 A 
ATOM      6  C   UNL d   1       1.281  -4.938  -0.141  0.00  0.00     0.090 A 
ATOM      7  C   UNL d   1       0.963  -4.095  -1.188  0.00  0.00     0.019 A 
ENDROOT
BRANCH   2   8
ATOM      8  N   UNL d   1       3.403  -1.355  -0.457  0.00  0.00    -0.319 N 
ATOM      9  C   UNL d   1       3.508  -0.544  -1.573  0.00  0.00     0.256 C 
ATOM     10  O   UNL d   1       3.107  -0.857  -2.693  0.00  0.00    -0.267 OA
ATOM     11  H   UNL d   1       3.980  -1.166   0.352  0.00  0.00     0.169 HD
BRANCH   9  12
ATOM     12  C   UNL d   1       4.197   0.778  -1.423  0.00  0.00     0.032 A 
ATOM     13  C   UNL d   1       4.632   1.307  -0.200  0.00  0.00     0.017 A 
ATOM     14  C   UNL d   1       5.267   2.557  -0.161  0.00  0.00     0.007 A 
ATOM     15  C   UNL d   1       5.473   3.297  -1.332  0.00  0.00    -0.062 A 
ATOM     16  C   UNL d   1       5.006   2.787  -2.545  0.00  0.00     0.007 A 
ATOM     17  C   UNL d   1       6.149   4.636  -1.279  0.00  0.00     0.048 C 
ATOM     18  C   UNL d   1       4.381   1.540  -2.587  0.00  0.00     0.017 A 
ENDBRANCH   9  12
ENDBRANCH   2   8
BRANCH   1  19
ATOM     19  O   UNL d   1       4.017  -3.266   1.448  0.00  0.00    -0.292 OA
BRANCH  19  20
ATOM     20  C   UNL d   1       4.734  -4.363   1.879  0.00  0.00     0.078 A 
ATOM     21  C   UNL d   1       5.057  -5.446   1.055  0.00  0.00     0.040 A 
ATOM     22  C   UNL d   1       5.751  -6.544   1.566  0.00  0.00     0.039 A 
ATOM     23  C   UNL d   1       6.161  -6.556   2.899  0.00  0.00     0.068 A 
ATOM     24  C   UNL d   1       5.902  -5.439   3.699  0.00  0.00     0.039 A 
ATOM     25  C   UNL d   1       5.194  -4.344   3.195  0.00  0.00     0.040 A 
BRANCH  23  26
ATOM     26  O   UNL d   1       6.821  -7.577   3.526  0.00  0.00    -0.356 OA
ATOM     27  C   UNL d   1       6.901  -8.811   2.821  0.00  0.00     0.210 C 
ENDBRANCH  23  26
ENDBRANCH  19  20
ENDBRANCH   1  19
TORSDOF 5
