REMARK  6 active torsions:
REMARK  status: ('A' for Active; 'I' for Inactive)
REMARK    1  A    between atoms: C_12  and  C_3 
REMARK    2  A    between atoms: O_22  and  C_7 
REMARK    3  A    between atoms: C_11  and  C_8 
REMARK    4  A    between atoms: O_23  and  C_9 
REMARK    5  A    between atoms: O_24  and  C_10 
REMARK       I    between atoms: C_13  and  N_16 
REMARK    6  A    between atoms: N_16  and  C_21 
ROOT
ATOM      1  N   UNL d   1      -0.808   0.179   0.161  0.00  0.00    -0.331 N 
ATOM      2  HN  UNL d   1      -1.805  -0.013   0.258  1.00  0.00     0.168 HD
ATOM      3  C   UNL d   1      -0.218   1.324   0.078  0.00  0.00     0.162 A 
ATOM      4  C   UNL d   1       0.222  -0.715   0.089  0.00  0.00     0.111 A 
ATOM      5  O   UNL d   1       1.130   1.327  -0.025  0.00  0.00    -0.256 OA
ATOM      6  C   UNL d   1       1.516   0.017  -0.016  0.00  0.00     0.316 A 
ATOM      7  C   UNL d   1       0.134  -2.053   0.076  0.00  0.00     0.047 C 
ATOM      8  O   UNL d   1       2.646  -0.423  -0.089  0.00  0.00    -0.257 OA
ENDROOT
BRANCH   7   9
ATOM      9  C   UNL d   1      -1.101  -2.870   0.121  0.00  0.00    -0.028 A 
ATOM     10  C   UNL d   1      -2.391  -2.333   0.044  0.00  0.00     0.051 A 
ATOM     11  C   UNL d   1      -3.536  -3.135   0.078  0.00  0.00     0.105 A 
ATOM     12  C   UNL d   1      -3.406  -4.525   0.154  0.00  0.00     0.135 A 
ATOM     13  C   UNL d   1      -2.117  -5.095   0.156  0.00  0.00     0.105 A 
ATOM     14  C   UNL d   1      -0.983  -4.265   0.184  0.00  0.00     0.051 A 
BRANCH  11  15
ATOM     15  O   UNL d   1      -4.704  -2.431  -0.069  0.00  0.00    -0.353 OA
ATOM     16  C   UNL d   1      -5.762  -2.821   0.794  0.00  0.00     0.210 C 
ENDBRANCH  11  15
BRANCH  12  17
ATOM     17  O   UNL d   1      -4.532  -5.302   0.043  0.00  0.00    -0.351 OA
ATOM     18  C   UNL d   1      -4.749  -6.155   1.167  0.00  0.00     0.210 C 
ENDBRANCH  12  17
BRANCH  13  19
ATOM     19  O   UNL d   1      -2.043  -6.467   0.111  0.00  0.00    -0.353 OA
ATOM     20  C   UNL d   1      -0.834  -7.026  -0.388  0.00  0.00     0.210 C 
ENDBRANCH  13  19
ENDBRANCH   7   9
BRANCH   3  21
ATOM     21  C   UNL d   1      -0.907   2.621   0.084  0.00  0.00     0.015 A 
ATOM     22  C   UNL d   1      -2.304   2.629   0.175  0.00  0.00     0.018 A 
ATOM     23  C   UNL d   1      -3.001   3.840   0.191  0.00  0.00     0.030 A 
ATOM     24  C   UNL d   1      -2.312   5.056   0.119  0.00  0.00     0.034 A 
ATOM     25  C   UNL d   1      -0.917   5.037   0.018  0.00  0.00     0.030 A 
ATOM     26  C   UNL d   1      -0.213   3.825  -0.001  0.00  0.00     0.018 A 
BRANCH  24  27
ATOM     27  N   UNL d   1      -3.085   6.233   0.163  0.00  0.00    -0.328 N 
ATOM     28  C   UNL d   1      -2.630   7.537   0.130  0.00  0.00     0.218 C 
ATOM     29  O   UNL d   1      -1.463   7.905   0.032  0.00  0.00    -0.274 OA
ATOM     30  C   UNL d   1      -3.737   8.556   0.232  0.00  0.00     0.117 C 
ATOM     31  H   UNL d   1      -4.086   6.100   0.240  0.00  0.00     0.169 HD
ENDBRANCH  24  27
ENDBRANCH   3  21
TORSDOF 6
