REMARK  1 active torsions:
REMARK  status: ('A' for Active; 'I' for Inactive)
REMARK    1  A    between atoms: C_8  and  C_1 
ROOT
ATOM      1  C   UNL d   1      -1.517   0.259   0.129  0.00  0.00    -0.012 C 
ATOM      2  C   UNL d   1      -0.715   0.998   1.247  0.00  0.00     0.019 C 
ATOM      3  C   UNL d   1      -0.969   0.737  -1.244  0.00  0.00     0.019 C 
ATOM      4  C   UNL d   1      -1.193  -1.261   0.268  0.00  0.00     0.019 C 
ATOM      5  C   UNL d   1       0.794   0.731   1.134  0.00  0.00    -0.013 C 
ATOM      6  C   UNL d   1       0.544   0.472  -1.359  0.00  0.00    -0.013 C 
ATOM      7  C   UNL d   1       0.319  -1.527   0.155  0.00  0.00    -0.013 C 
ATOM      8  C   UNL d   1       1.282   1.221  -0.239  0.00  0.00     0.009 C 
ATOM      9  C   UNL d   1       1.052  -0.773   1.271  0.00  0.00     0.009 C 
ATOM     10  C   UNL d   1       0.813  -1.034  -1.214  0.00  0.00     0.009 C 
ENDROOT
BRANCH   1  11
ATOM     11  C   UNL d   1      -3.025   0.563   0.191  0.00  0.00    -0.049 A 
ATOM     12  C   UNL d   1      -3.506   1.793   0.676  0.00  0.00     0.008 A 
ATOM     13  C   UNL d   1      -4.868   2.101   0.678  0.00  0.00     0.001 A 
ATOM     14  C   UNL d   1      -5.790   1.189   0.182  0.00  0.00     0.000 A 
ATOM     15  C   UNL d   1      -5.346  -0.035  -0.304  0.00  0.00     0.001 A 
ATOM     16  C   UNL d   1      -3.982  -0.344  -0.300  0.00  0.00     0.008 A 
ENDBRANCH   1  11
TORSDOF 1
