REMARK  3 active torsions:
REMARK  status: ('A' for Active; 'I' for Inactive)
REMARK    1  A    between atoms: C_2  and  C_1 
REMARK    2  A    between atoms: O_8  and  N_4 
REMARK    3  A    between atoms: O_10  and  C_7 
ROOT
ATOM      1  C   UNL d   1       2.766  -0.538   0.182  0.00  0.00     0.066 C 
ATOM      2  C   UNL d   1       3.296  -1.422  -0.954  0.00  0.00     0.018 C 
ATOM      3  N   UNL d   1       4.148  -1.060  -1.869  0.00  0.00    -0.277 N 
ATOM      4  HN  UNL d   1       4.477  -1.671  -2.617  1.00  0.00     0.193 HD
ATOM      5  C   UNL d   1       3.162  -1.290   1.471  0.00  0.00     0.015 C 
ATOM      6  C   UNL d   1       2.764  -2.844  -1.006  0.00  0.00     0.055 C 
ATOM      7  C   UNL d   1       2.577  -2.705   1.532  0.00  0.00     0.001 C 
ATOM      8  C   UNL d   1       2.990  -3.548   0.326  0.00  0.00     0.006 C 
ENDROOT
BRANCH   1   9
ATOM      9  C   UNL d   1       1.277  -0.216   0.026  0.00  0.00    -0.046 A 
ATOM     10  C   UNL d   1       0.717  -0.061  -1.258  0.00  0.00     0.044 A 
ATOM     11  C   UNL d   1      -0.649   0.177  -1.434  0.00  0.00     0.068 A 
ATOM     12  C   UNL d   1      -1.463   0.324  -0.313  0.00  0.00     0.037 A 
ATOM     13  C   UNL d   1      -0.921   0.242   0.969  0.00  0.00     0.003 A 
ATOM     14  C   UNL d   1       0.439  -0.018   1.135  0.00  0.00     0.008 A 
BRANCH  11  15
ATOM     15  O   UNL d   1      -1.296   0.280  -2.635  0.00  0.00    -0.356 OA
ATOM     16  C   UNL d   1      -0.517   0.055  -3.804  0.00  0.00     0.210 C 
ENDBRANCH  11  15
ENDBRANCH   1   9
BRANCH   3  17
ATOM     17  O   UNL d   1       4.559   0.265  -1.707  0.00  0.00    -0.290 OA
ATOM     18  H   UNL d   1       5.205   0.377  -2.430  0.00  0.00     0.244 HD
ENDBRANCH   3  17
TORSDOF 3
