REMARK  4 active torsions:
REMARK  status: ('A' for Active; 'I' for Inactive)
REMARK    1  A    between atoms: C_4  and  C_8 
REMARK    2  A    between atoms: O_15  and  C_4 
REMARK    3  A    between atoms: C_12  and  N_5 
REMARK    4  A    between atoms: C_16  and  C_12 
ROOT
ATOM      1  C   UNL d   1      -4.272  -3.695   3.224  0.00  0.00     0.037 A 
ATOM      2  C   UNL d   1      -4.904  -2.456   3.382  0.00  0.00     0.019 A 
ATOM      3  C   UNL d   1      -3.038  -3.765   2.567  0.00  0.00     0.019 A 
ATOM      4  C   UNL d   1      -3.041  -1.355   2.263  0.00  0.00    -0.030 A 
ATOM      5  C   UNL d   1      -2.426  -2.603   2.093  0.00  0.00     0.010 A 
ATOM      6  C   UNL d   1      -4.286  -1.294   2.911  0.00  0.00     0.010 A 
ENDROOT
BRANCH   4   7
ATOM      7  C   UNL d   1      -2.378  -0.093   1.752  0.00  0.00     0.311 C 
BRANCH   7   8
ATOM      8  N   UNL d   1      -2.224  -0.045   0.287  0.00  0.00     0.094 N 
ATOM      9  C   UNL d   1      -3.484  -0.109  -0.471  0.00  0.00     0.287 C 
ATOM     10  C   UNL d   1      -4.419   1.067  -0.265  0.00  0.00     0.170 C 
ATOM     11  S   UNL d   1      -3.614   2.597  -0.667  0.00  0.00     0.147 S 
ATOM     12  C   UNL d   1      -2.028   2.462   0.118  0.00  0.00     0.170 C 
ATOM     13  O   UNL d   1      -4.341   3.659   0.002  0.00  0.00    -0.228 OA
ATOM     14  O   UNL d   1      -3.406   2.639  -2.103  0.00  0.00    -0.228 OA
ATOM     15  C   UNL d   1      -1.410   1.101  -0.154  0.00  0.00     0.287 C 
ENDBRANCH   7   8
ENDBRANCH   4   7
BRANCH   1  16
ATOM     16  C   UNL d   1      -4.893  -4.961   3.687  0.00  0.00     0.176 C 
ATOM     17  O   UNL d   1      -4.707  -6.030   3.129  0.00  0.00    -0.646 OA
BRANCH  16  18
ATOM     18  O   UNL d   1      -5.644  -4.833   4.800  0.00  0.00    -0.773 OA
ATOM     19  H   UNL d   1      -5.566  -3.977   5.258  0.00  0.00     0.167 HD
ENDBRANCH  16  18
ENDBRANCH   1  16
TORSDOF 4
