REMARK  7 active torsions:
REMARK  status: ('A' for Active; 'I' for Inactive)
REMARK    1  A    between atoms: C_9  and  C_1 
REMARK    2  A    between atoms: C_7  and  C_2 
REMARK    3  A    between atoms: C_13  and  C_8 
REMARK    4  A    between atoms: O_17  and  C_9 
REMARK    5  A    between atoms: O_15  and  C_13 
REMARK    6  A    between atoms: C_16  and  O_15 
REMARK    7  A    between atoms: C_25  and  O_17 
ROOT
ATOM      1  C   UNL d   1       1.396   2.397   0.043  0.00  0.00     0.047 A 
ATOM      2  C   UNL d   1       2.238   2.789  -0.997  0.00  0.00    -0.014 A 
ATOM      3  S   UNL d   1       1.312   3.604   1.269  0.00  0.00    -0.099 SA
ATOM      4  C   UNL d   1       2.409   4.620   0.460  0.00  0.00     0.051 A 
ATOM      5  C   UNL d   1       2.825   4.077  -0.731  0.00  0.00     0.018 A 
ENDROOT
BRANCH   1   6
ATOM      6  C   UNL d   1       0.646   1.164   0.156  0.00  0.00     0.093 A 
ATOM      7  S   UNL d   1       0.323   0.393   1.655  0.00  0.00    -0.063 SA
ATOM      8  C   UNL d   1      -0.410  -0.925   0.835  0.00  0.00     0.104 A 
ATOM      9  C   UNL d   1      -0.418  -0.669  -0.530  0.00  0.00     0.029 A 
ATOM     10  N   UNL d   1       0.185   0.526  -0.900  0.00  0.00    -0.352 N 
ATOM     11  C   UNL d   1      -0.949  -1.531  -1.621  0.00  0.00     0.070 C 
ATOM     12  HN  UNL d   1       0.262   0.863  -1.859  1.00  0.00     0.166 HD
BRANCH   8  13
ATOM     13  C   UNL d   1      -0.829  -2.077   1.599  0.00  0.00     0.302 C 
ATOM     14  O   UNL d   1      -0.738  -2.211   2.816  0.00  0.00    -0.259 OA
BRANCH  13  15
ATOM     15  O   UNL d   1      -1.245  -3.063   0.756  0.00  0.00    -0.317 OA
BRANCH  15  16
ATOM     16  C   UNL d   1      -1.184  -4.394   1.282  0.00  0.00     0.174 C 
ATOM     17  C   UNL d   1       0.215  -4.931   1.030  0.00  0.00     0.034 C 
ENDBRANCH  15  16
ENDBRANCH  13  15
ENDBRANCH   8  13
ENDBRANCH   1   6
BRANCH   2  18
ATOM     18  C   UNL d   1       2.564   1.991  -2.236  0.00  0.00     0.215 C 
BRANCH  18  19
ATOM     19  O   UNL d   1       3.744   1.212  -2.015  0.00  0.00    -0.347 OA
BRANCH  19  20
ATOM     20  C   UNL d   1       4.207   0.479  -3.073  0.00  0.00     0.069 A 
ATOM     21  C   UNL d   1       5.572   0.179  -3.026  0.00  0.00     0.038 A 
ATOM     22  C   UNL d   1       6.168  -0.592  -4.027  0.00  0.00     0.026 A 
ATOM     23  C   UNL d   1       5.389  -1.077  -5.074  0.00  0.00     0.034 A 
ATOM     24  C   UNL d   1       4.026  -0.792  -5.126  0.00  0.00     0.026 A 
ATOM     25 CL   UNL d   1       6.111  -2.043  -6.301  0.00  0.00    -0.084 Cl
ATOM     26  C   UNL d   1       3.433  -0.014  -4.124  0.00  0.00     0.038 A 
ENDBRANCH  19  20
ENDBRANCH  18  19
ENDBRANCH   2  18
TORSDOF 7
