REMARK  3 active torsions:
REMARK  status: ('A' for Active; 'I' for Inactive)
REMARK    1  A    between atoms: C_3  and  C_1 
REMARK    2  A    between atoms: C_10  and  C_2 
REMARK    3  A    between atoms: C_15  and  C_11 
ROOT
ATOM      1  C   UNL d   1      -2.628   1.517   0.035  0.00  0.00     0.157 A 
ATOM      2  N   UNL d   1      -2.919   2.367  -0.999  0.00  0.00    -0.317 N 
ATOM      3  HN  UNL d   1      -2.396   2.529  -1.860  1.00  0.00     0.169 HD
ATOM      4  N   UNL d   1      -3.525   1.509   1.031  0.00  0.00    -0.241 N 
ATOM      5  HN  UNL d   1      -3.521   0.951   1.885  1.00  0.00     0.196 HD
ATOM      6  C   UNL d   1      -4.043   2.920  -0.599  0.00  0.00     0.182 A 
ATOM      7  O   UNL d   1      -4.467   2.452   0.614  0.00  0.00    -0.217 OA
ENDROOT
BRANCH   1   8
ATOM      8  C   UNL d   1      -1.425   0.693  -0.002  0.00  0.00     0.119 A 
ATOM      9  C   UNL d   1      -0.237   0.925  -0.655  0.00  0.00     0.191 A 
ATOM     10  O   UNL d   1       0.580  -0.156  -0.412  0.00  0.00    -0.291 OA
ATOM     11  C   UNL d   1      -0.169  -0.976   0.386  0.00  0.00     0.121 A 
ATOM     12  N   UNL d   1      -1.366  -0.512   0.670  0.00  0.00    -0.335 N 
ATOM     13  C   UNL d   1       0.457  -2.247   0.799  0.00  0.00     0.098 C 
ATOM     14  HN  UNL d   1      -2.084  -0.943   1.252  1.00  0.00     0.168 HD
BRANCH   9  15
ATOM     15  C   UNL d   1       0.309   2.016  -1.478  0.00  0.00     0.442 C 
ATOM     16  F   UNL d   1      -0.483   3.114  -1.546  0.00  0.00    -0.164 F 
ATOM     17  F   UNL d   1       1.504   2.450  -0.994  0.00  0.00    -0.164 F 
ATOM     18  F   UNL d   1       0.535   1.618  -2.758  0.00  0.00    -0.164 F 
ENDBRANCH   9  15
ENDBRANCH   1   8
BRANCH   6  19
ATOM     19  C   UNL d   1      -4.870   3.930  -1.247  0.00  0.00     0.017 A 
ATOM     20  C   UNL d   1      -4.498   4.426  -2.508  0.00  0.00     0.016 A 
ATOM     21  C   UNL d   1      -5.269   5.397  -3.150  0.00  0.00     0.001 A 
ATOM     22  C   UNL d   1      -6.421   5.888  -2.540  0.00  0.00     0.000 A 
ATOM     23  C   UNL d   1      -6.804   5.407  -1.290  0.00  0.00     0.001 A 
ATOM     24  C   UNL d   1      -6.034   4.436  -0.648  0.00  0.00     0.016 A 
ENDBRANCH   6  19
TORSDOF 3
