REMARK  4 active torsions:
REMARK  status: ('A' for Active; 'I' for Inactive)
REMARK    1  A    between atoms: C_3  and  C_1 
REMARK    2  A    between atoms: N_5  and  C_2 
REMARK       I    between atoms: N_15  and  C_3 
REMARK       I    between atoms: C_4  and  N_5 
REMARK    3  A    between atoms: C_6  and  C_4 
REMARK    4  A    between atoms: N_17  and  N_15 
ROOT
ATOM      1  C   UNL d   1       0.093   1.329  -0.275  0.00  0.00     0.100 C 
ATOM      2  C   UNL d   1       1.417   0.889  -0.259  0.00  0.00     0.058 C 
ATOM      3  S   UNL d   1      -0.982   0.014   0.103  0.00  0.00    -0.094 SA
ATOM      4  C   UNL d   1       1.489  -0.541  -0.113  0.00  0.00     0.038 C 
ATOM      5  C   UNL d   1       0.270  -1.131   0.102  0.00  0.00     0.053 C 
ENDROOT
BRANCH   2   6
ATOM      6  N   UNL d   1       2.615   1.586  -0.412  0.00  0.00    -0.321 N 
ATOM      7  C   UNL d   1       2.897   2.879  -0.010  0.00  0.00     0.263 C 
ATOM      8  O   UNL d   1       2.079   3.598   0.546  0.00  0.00    -0.267 OA
ATOM      9  H   UNL d   1       3.437   1.016  -0.582  0.00  0.00     0.169 HD
BRANCH   7  10
ATOM     10  C   UNL d   1       4.257   3.325  -0.309  0.00  0.00     0.072 A 
ATOM     11  S   UNL d   1       5.348   2.372  -1.233  0.00  0.00    -0.097 SA
ATOM     12  C   UNL d   1       6.565   3.567  -1.166  0.00  0.00     0.050 A 
ATOM     13  C   UNL d   1       6.168   4.667  -0.441  0.00  0.00     0.009 A 
ATOM     14  C   UNL d   1       4.837   4.528   0.051  0.00  0.00     0.025 A 
ENDBRANCH   7  10
ENDBRANCH   2   6
BRANCH   1  15
ATOM     15  C   UNL d   1      -0.583   2.584  -0.623  0.00  0.00     0.274 C 
ATOM     16  O   UNL d   1      -1.752   2.845  -0.318  0.00  0.00    -0.266 OA
ATOM     17  N   UNL d   1       0.122   3.448  -1.464  0.00  0.00    -0.289 N 
ATOM     18  H   UNL d   1       1.126   3.338  -1.506  0.00  0.00     0.183 HD
BRANCH  17  19
ATOM     19  N   UNL d   1      -0.425   4.714  -1.797  0.00  0.00    -0.247 NA
ATOM     20  H   UNL d   1      -1.448   4.621  -1.740  0.00  0.00     0.143 HD
ATOM     21  H   UNL d   1      -0.212   4.920  -2.772  0.00  0.00     0.143 HD
ENDBRANCH  17  19
ENDBRANCH   1  15
TORSDOF 4
