REMARK  9 active torsions:
REMARK  status: ('A' for Active; 'I' for Inactive)
REMARK    1  A    between atoms: C_7  and  C_1 
REMARK    2  A    between atoms: C_24  and  C_2 
REMARK    3  A    between atoms: O_22  and  C_3 
REMARK    4  A    between atoms: N_8  and  C_4 
REMARK       I    between atoms: C_11  and  N_8 
REMARK    5  A    between atoms: C_9  and  C_25 
REMARK    6  A    between atoms: C_26  and  C_11 
REMARK    7  A    between atoms: S_21  and  C_26 
REMARK    8  A    between atoms: C_25  and  S_21 
REMARK    9  A    between atoms: O_27  and  C_24 
ROOT
ATOM      1  C   UNL d   1       0.402  -7.048   3.211  0.00  0.00     0.177 C 
ENDROOT
BRANCH   1   2
ATOM      2  S   UNL d   1      -0.727  -7.925   4.343  0.00  0.00    -0.155 SA
BRANCH   2   3
ATOM      3  C   UNL d   1       0.400  -9.270   4.830  0.00  0.00     0.115 C 
BRANCH   3   4
ATOM      4  C   UNL d   1      -0.261 -10.330   5.677  0.00  0.00    -0.022 A 
ATOM      5  C   UNL d   1      -0.363 -10.272   7.087  0.00  0.00     0.009 A 
ATOM      6  C   UNL d   1      -0.910 -11.389   7.747  0.00  0.00     0.096 A 
ATOM      7  C   UNL d   1      -1.382 -12.480   7.013  0.00  0.00     0.039 A 
ATOM      8  N   UNL d   1      -1.326 -12.523   5.662  0.00  0.00    -0.367 N 
ATOM      9  C   UNL d   1      -1.979 -13.668   7.707  0.00  0.00     0.071 C 
ATOM     10  C   UNL d   1      -0.769 -11.464   5.036  0.00  0.00     0.096 A 
ATOM     11  HN  UNL d   1      -1.688 -13.320   5.139  1.00  0.00     0.165 HD
BRANCH   5  12
ATOM     12  C   UNL d   1       0.098  -9.036   7.826  0.00  0.00     0.206 C 
BRANCH  12  13
ATOM     13  O   UNL d   1      -0.116  -9.137   9.234  0.00  0.00    -0.396 OA
ATOM     14  H   UNL d   1      -0.776  -8.454   9.461  0.00  0.00     0.209 HD
ENDBRANCH  12  13
ENDBRANCH   5  12
BRANCH   6  15
ATOM     15  O   UNL d   1      -0.984 -11.463   9.112  0.00  0.00    -0.358 OA
ATOM     16  H   UNL d   1      -0.513 -10.681   9.470  0.00  0.00     0.217 HD
ENDBRANCH   6  15
ENDBRANCH   3   4
ENDBRANCH   2   3
ENDBRANCH   1   2
BRANCH   1  17
ATOM     17  C   UNL d   1      -0.185  -5.831   2.500  0.00  0.00     0.231 C 
ATOM     18  N   UNL d   1      -1.525  -5.592   2.719  0.00  0.00    -0.325 N 
ATOM     19  H   UNL d   1      -1.991  -6.231   3.362  0.00  0.00     0.169 HD
ATOM     20  O   UNL d   1       0.549  -5.155   1.777  0.00  0.00    -0.272 OA
BRANCH  18  21
ATOM     21  C   UNL d   1      -2.341  -4.574   2.165  0.00  0.00     0.057 A 
ATOM     22  C   UNL d   1      -1.868  -3.622   1.252  0.00  0.00     0.047 A 
ATOM     23  C   UNL d   1      -2.717  -2.635   0.715  0.00  0.00     0.050 A 
ATOM     24  C   UNL d   1      -4.064  -2.610   1.100  0.00  0.00     0.018 A 
ATOM     25  C   UNL d   1      -4.551  -3.544   2.011  0.00  0.00     0.027 A 
ATOM     26  C   UNL d   1      -3.697  -4.518   2.541  0.00  0.00     0.060 A 
ATOM     27 CL   UNL d   1      -4.357  -5.649   3.673  0.00  0.00    -0.082 Cl
BRANCH  23  28
ATOM     28  C   UNL d   1      -2.197  -1.615  -0.273  0.00  0.00     0.417 C 
ATOM     29  F   UNL d   1      -0.864  -1.715  -0.523  0.00  0.00    -0.166 F 
ATOM     30  F   UNL d   1      -2.402  -0.337   0.152  0.00  0.00    -0.166 F 
ATOM     31  F   UNL d   1      -2.814  -1.708  -1.483  0.00  0.00    -0.166 F 
ENDBRANCH  23  28
ENDBRANCH  18  21
ENDBRANCH   1  17
TORSDOF 9
