REMARK  4 active torsions:
REMARK  status: ('A' for Active; 'I' for Inactive)
REMARK       I    between atoms: C_16  and  N_13 
REMARK    1  A    between atoms: C_21  and  C_14 
REMARK    2  A    between atoms: O_26  and  C_16 
REMARK    3  A    between atoms: C_31  and  O_26 
REMARK    4  A    between atoms: O_30  and  C_27 
ROOT
ATOM      1  N   UNL d   1       2.005   0.517   0.158  0.00  0.00    -0.196 N 
ATOM      2  C   UNL d   1      -0.386   0.156   0.001  0.00  0.00     0.075 A 
ATOM      3  C   UNL d   1      -0.073  -1.184   0.028  0.00  0.00     0.093 A 
ATOM      4  C   UNL d   1       0.719   1.113   0.053  0.00  0.00     0.282 A 
ATOM      5  C   UNL d   1       2.120  -0.868   0.284  0.00  0.00     0.170 A 
ATOM      6  N   UNL d   1       1.152  -1.722   0.186  0.00  0.00    -0.329 N 
ATOM      7  HN  UNL d   1       1.306  -2.729   0.225  1.00  0.00     0.168 HD
ATOM      8  N   UNL d   1       3.090   1.412   0.182  0.00  0.00    -0.292 N 
ATOM      9  HN  UNL d   1       2.910   2.410   0.297  1.00  0.00     0.187 HD
ATOM     10  C   UNL d   1      -1.816   0.356  -0.025  0.00  0.00    -0.023 A 
ATOM     11  C   UNL d   1      -2.493  -0.857  -0.051  0.00  0.00     0.010 A 
ATOM     12  S   UNL d   1      -1.442  -2.191  -0.079  0.00  0.00    -0.074 SA
ATOM     13  N   UNL d   1      -4.601   0.219   0.352  0.00  0.00    -0.323 N 
ATOM     14  C   UNL d   1       4.319   0.998   0.062  0.00  0.00     0.046 C 
ATOM     15  S   UNL d   1       3.655  -1.563   0.709  0.00  0.00    -0.086 SA
ATOM     16  C   UNL d   1      -5.405   0.332   1.468  0.00  0.00     0.363 C 
ATOM     17  C   UNL d   1      -3.984  -1.045  -0.051  0.00  0.00     0.174 C 
ATOM     18  C   UNL d   1      -2.586   1.650   0.053  0.00  0.00     0.061 C 
ATOM     19  O   UNL d   1       0.510   2.327  -0.001  0.00  0.00    -0.265 OA
ATOM     20  C   UNL d   1       4.725  -0.438  -0.141  0.00  0.00     0.142 C 
ATOM     21  C   UNL d   1      -4.075   1.427  -0.296  0.00  0.00     0.133 C 
ATOM     22  O   UNL d   1      -5.784   1.401   1.933  0.00  0.00    -0.238 OA
ENDROOT
BRANCH  14  23
ATOM     23  C   UNL d   1       5.447   1.999   0.060  0.00  0.00    -0.011 A 
ATOM     24  C   UNL d   1       5.290   3.258   0.652  0.00  0.00     0.016 A 
ATOM     25  C   UNL d   1       6.375   4.151   0.726  0.00  0.00     0.037 A 
ATOM     26  C   UNL d   1       7.620   3.792   0.207  0.00  0.00     0.068 A 
ATOM     27  C   UNL d   1       7.770   2.551  -0.406  0.00  0.00     0.037 A 
ATOM     28  C   UNL d   1       6.692   1.670  -0.500  0.00  0.00     0.016 A 
BRANCH  26  29
ATOM     29  O   UNL d   1       8.769   4.527   0.274  0.00  0.00    -0.356 OA
ATOM     30  C   UNL d   1       8.614   5.936   0.368  0.00  0.00     0.210 C 
ENDBRANCH  26  29
ENDBRANCH  14  23
BRANCH  16  31
ATOM     31  O   UNL d   1      -5.704  -0.877   2.016  0.00  0.00    -0.304 OA
BRANCH  31  32
ATOM     32  C   UNL d   1      -6.289  -0.857   3.326  0.00  0.00     0.176 C 
ATOM     33  C   UNL d   1      -5.174  -0.804   4.355  0.00  0.00     0.034 C 
ENDBRANCH  31  32
ENDBRANCH  16  31
TORSDOF 4
