REMARK  6 active torsions:
REMARK  status: ('A' for Active; 'I' for Inactive)
REMARK    1  A    between atoms: C_18  and  N_1 
REMARK    2  A    between atoms: C_2  and  C_12 
REMARK    3  A    between atoms: C_17  and  C_7 
REMARK    4  A    between atoms: C_16  and  C_8 
REMARK       I    between atoms: C_12  and  N_15 
REMARK    5  A    between atoms: N_15  and  C_17 
REMARK    6  A    between atoms: O_26  and  C_22 
ROOT
ATOM      1  C   UNL d   1       4.641   1.297   0.035  0.00  0.00     0.271 C 
ATOM      2  N   UNL d   1       3.420   0.682   0.056  0.00  0.00    -0.350 N 
ATOM      3  O   UNL d   1       4.752   2.511  -0.100  0.00  0.00    -0.266 OA
ATOM      4  H   UNL d   1       3.358  -0.322   0.212  0.00  0.00     0.163 HD
ENDROOT
BRANCH   2   5
ATOM      5  C   UNL d   1       2.210   1.464   0.082  0.00  0.00     0.183 C 
BRANCH   5   6
ATOM      6  C   UNL d   1       1.032   0.583   0.282  0.00  0.00     0.069 A 
ATOM      7  N   UNL d   1       1.153  -0.742   0.448  0.00  0.00    -0.280 N 
ATOM      8  N   UNL d   1      -0.141  -1.148   0.536  0.00  0.00    -0.197 N 
ATOM      9  HN  UNL d   1       2.002  -1.304   0.497  1.00  0.00     0.189 HD
ATOM     10  N   UNL d   1      -1.077  -0.160   0.484  0.00  0.00    -0.282 N 
ATOM     11  C   UNL d   1      -0.330   0.942   0.345  0.00  0.00     0.049 A 
ATOM     12  HN  UNL d   1      -2.092  -0.240   0.537  1.00  0.00     0.189 HD
ATOM     13  C   UNL d   1      -0.936   2.290   0.277  0.00  0.00     0.072 C 
BRANCH   8  14
ATOM     14  C   UNL d   1      -0.477  -2.518   0.665  0.00  0.00     0.074 A 
ATOM     15  C   UNL d   1       0.538  -3.471   0.837  0.00  0.00     0.033 A 
ATOM     16  C   UNL d   1       0.214  -4.822   0.956  0.00  0.00     0.002 A 
ATOM     17  C   UNL d   1      -1.119  -5.225   0.891  0.00  0.00     0.000 A 
ATOM     18  C   UNL d   1      -2.132  -4.281   0.716  0.00  0.00     0.002 A 
ATOM     19  C   UNL d   1      -1.817  -2.925   0.610  0.00  0.00     0.033 A 
ENDBRANCH   8  14
ENDBRANCH   5   6
ENDBRANCH   2   5
BRANCH   1  20
ATOM     20  C   UNL d   1       5.766   0.398   0.252  0.00  0.00     0.137 A 
ATOM     21  C   UNL d   1       6.998   0.748   0.775  0.00  0.00     0.119 A 
ATOM     22  O   UNL d   1       7.783  -0.374   0.774  0.00  0.00    -0.303 OA
ATOM     23  C   UNL d   1       6.964  -1.349   0.293  0.00  0.00     0.234 A 
ATOM     24  N   UNL d   1       5.744  -0.964  -0.011  0.00  0.00    -0.340 N 
ATOM     25  HN  UNL d   1       4.969  -1.529  -0.357  1.00  0.00     0.167 HD
BRANCH  21  26
ATOM     26  C   UNL d   1       7.568   1.958   1.346  0.00  0.00     0.000 A 
ATOM     27  C   UNL d   1       6.766   2.804   2.125  0.00  0.00     0.017 A 
ATOM     28  C   UNL d   1       7.247   4.026   2.597  0.00  0.00     0.037 A 
ATOM     29  C   UNL d   1       8.552   4.415   2.307  0.00  0.00     0.068 A 
ATOM     30  C   UNL d   1       9.384   3.546   1.598  0.00  0.00     0.037 A 
ATOM     31  C   UNL d   1       8.897   2.325   1.113  0.00  0.00     0.017 A 
BRANCH  29  32
ATOM     32  O   UNL d   1       9.110   5.602   2.689  0.00  0.00    -0.356 OA
ATOM     33  C   UNL d   1       8.191   6.688   2.799  0.00  0.00     0.210 C 
ENDBRANCH  29  32
ENDBRANCH  21  26
ENDBRANCH   1  20
TORSDOF 6
