REMARK  4 active torsions:
REMARK  status: ('A' for Active; 'I' for Inactive)
REMARK    1  A    between atoms: N_8  and  C_1 
REMARK    2  A    between atoms: C_10  and  C_2 
REMARK       I    between atoms: C_7  and  N_8 
REMARK       I    between atoms: N_9  and  C_7 
REMARK    3  A    between atoms: C_12  and  N_9 
REMARK    4  A    between atoms: O_19  and  C_13 
ROOT
ATOM      1  C   UNL d   1       1.932  -2.421   0.297  0.00  0.00     0.325 C 
ATOM      2  N   UNL d   1       0.574  -2.329   0.042  0.00  0.00    -0.304 N 
ATOM      3  N   UNL d   1       2.286  -3.730   0.583  0.00  0.00    -0.309 N 
ATOM      4  O   UNL d   1       2.711  -1.480   0.177  0.00  0.00    -0.247 OA
ATOM      5  H   UNL d   1       0.139  -3.183  -0.282  0.00  0.00     0.171 HD
ATOM      6  H   UNL d   1       1.538  -4.349   0.865  0.00  0.00     0.170 HD
ENDROOT
BRANCH   2   7
ATOM      7  C   UNL d   1      -0.061  -1.155  -0.357  0.00  0.00     0.097 C 
ATOM      8  C   UNL d   1      -1.052  -1.108  -1.319  0.00  0.00     0.137 C 
ATOM      9  O   UNL d   1      -1.539   0.159  -1.398  0.00  0.00    -0.235 OA
ATOM     10  N   UNL d   1      -0.800   0.991  -0.584  0.00  0.00    -0.263 N 
ATOM     11  C   UNL d   1       0.136   0.215  -0.017  0.00  0.00     0.058 C 
ATOM     12  HN  UNL d   1      -0.938   1.991  -0.442  1.00  0.00     0.194 HD
ATOM     13  C   UNL d   1       1.172   0.862   0.820  0.00  0.00     0.072 C 
BRANCH   8  14
ATOM     14  C   UNL d   1      -1.503  -2.007  -2.372  0.00  0.00     0.002 A 
ATOM     15  C   UNL d   1      -2.824  -1.998  -2.834  0.00  0.00     0.014 A 
ATOM     16  C   UNL d   1      -3.187  -2.755  -3.952  0.00  0.00     0.001 A 
ATOM     17  C   UNL d   1      -2.235  -3.527  -4.617  0.00  0.00     0.000 A 
ATOM     18  C   UNL d   1      -0.920  -3.555  -4.161  0.00  0.00     0.001 A 
ATOM     19  C   UNL d   1      -0.558  -2.799  -3.047  0.00  0.00     0.014 A 
ENDBRANCH   8  14
ENDBRANCH   2   7
BRANCH   3  20
ATOM     20  C   UNL d   1       3.553  -4.317   0.384  0.00  0.00     0.036 A 
ATOM     21  C   UNL d   1       4.679  -3.590  -0.012  0.00  0.00     0.032 A 
ATOM     22  C   UNL d   1       5.833  -4.247  -0.442  0.00  0.00     0.039 A 
ATOM     23  C   UNL d   1       5.869  -5.638  -0.488  0.00  0.00     0.068 A 
ATOM     24  C   UNL d   1       4.808  -6.370   0.040  0.00  0.00     0.039 A 
ATOM     25  C   UNL d   1       3.652  -5.712   0.476  0.00  0.00     0.032 A 
BRANCH  23  26
ATOM     26  O   UNL d   1       6.903  -6.349  -1.034  0.00  0.00    -0.356 OA
ATOM     27  C   UNL d   1       7.416  -5.757  -2.232  0.00  0.00     0.210 C 
ENDBRANCH  23  26
ENDBRANCH   3  20
TORSDOF 4
