REMARK  7 active torsions:
REMARK  status: ('A' for Active; 'I' for Inactive)
REMARK    1  A    between atoms: N_3  and  C_1 
REMARK    2  A    between atoms: C_7  and  C_2 
REMARK       I    between atoms: C_4  and  N_3 
REMARK    3  A    between atoms: C_5  and  C_4 
REMARK    4  A    between atoms: O_17  and  C_6 
REMARK    5  A    between atoms: O_18  and  C_7 
REMARK    6  A    between atoms: O_19  and  C_8 
REMARK    7  A    between atoms: O_20  and  C_9 
ROOT
ATOM      1  N   UNL d   1       0.335   3.777   1.403  0.00  0.00    -0.316 N 
ATOM      2  C   UNL d   1       0.748   3.341   0.161  0.00  0.00     0.256 C 
ATOM      3  O   UNL d   1      -0.002   3.136  -0.791  0.00  0.00    -0.267 OA
ATOM      4  H   UNL d   1       0.961   4.322   1.981  0.00  0.00     0.169 HD
ENDROOT
BRANCH   2   5
ATOM      5  C   UNL d   1       2.216   3.107  -0.019  0.00  0.00     0.037 A 
ATOM      6  C   UNL d   1       2.616   2.358  -1.135  0.00  0.00     0.057 A 
ATOM      7  C   UNL d   1       3.957   1.985  -1.330  0.00  0.00     0.105 A 
ATOM      8  C   UNL d   1       4.937   2.410  -0.410  0.00  0.00     0.135 A 
ATOM      9  C   UNL d   1       4.539   3.232   0.668  0.00  0.00     0.105 A 
ATOM     10  C   UNL d   1       3.188   3.543   0.878  0.00  0.00     0.057 A 
BRANCH   7  11
ATOM     11  O   UNL d   1       4.345   1.248  -2.417  0.00  0.00    -0.353 OA
ATOM     12  C   UNL d   1       3.356   0.441  -3.049  0.00  0.00     0.210 C 
ENDBRANCH   7  11
BRANCH   8  13
ATOM     13  O   UNL d   1       6.268   2.083  -0.431  0.00  0.00    -0.351 OA
ATOM     14  C   UNL d   1       6.742   1.073  -1.306  0.00  0.00     0.210 C 
ENDBRANCH   8  13
BRANCH   9  15
ATOM     15  O   UNL d   1       5.364   3.745   1.643  0.00  0.00    -0.353 OA
ATOM     16  C   UNL d   1       6.636   4.210   1.198  0.00  0.00     0.210 C 
ENDBRANCH   9  15
ENDBRANCH   2   5
BRANCH   1  17
ATOM     17  C   UNL d   1      -0.986   3.786   1.795  0.00  0.00     0.093 C 
ATOM     18  C   UNL d   1      -2.107   3.032   1.498  0.00  0.00     0.073 C 
ATOM     19  C   UNL d   1      -3.266   3.618   2.133  0.00  0.00     0.028 C 
ATOM     20  C   UNL d   1      -2.963   4.698   2.929  0.00  0.00     0.053 C 
ATOM     21  S   UNL d   1      -1.286   5.007   2.949  0.00  0.00    -0.083 SA
BRANCH  18  22
ATOM     22  C   UNL d   1      -2.186   1.807   0.700  0.00  0.00     0.295 C 
ATOM     23  O   UNL d   1      -3.238   1.423   0.199  0.00  0.00    -0.259 OA
BRANCH  22  24
ATOM     24  O   UNL d   1      -1.022   1.094   0.676  0.00  0.00    -0.322 OA
ATOM     25  C   UNL d   1      -0.991  -0.019  -0.220  0.00  0.00     0.213 C 
ENDBRANCH  22  24
ENDBRANCH  18  22
ENDBRANCH   1  17
TORSDOF 7
