REMARK  3 active torsions:
REMARK  status: ('A' for Active; 'I' for Inactive)
REMARK    1  A    between atoms: C_7  and  N_1 
REMARK    2  A    between atoms: N_5  and  N_3 
REMARK    3  A    between atoms: C_11  and  C_13 
ROOT
ATOM      1  N   UNL d   1      -3.017   4.993  -0.898  0.00  0.00    -0.290 N 
ATOM      2  HN  UNL d   1      -3.432   5.918  -1.005  1.00  0.00     0.187 HD
ATOM      3  C   UNL d   1      -2.118   4.517  -1.712  0.00  0.00     0.032 C 
ATOM      4  C   UNL d   1      -1.441   3.167  -1.526  0.00  0.00     0.070 C 
ENDROOT
BRANCH   1   5
ATOM      5  N   UNL d   1      -3.360   4.118   0.133  0.00  0.00    -0.132 N 
ATOM      6  C   UNL d   1      -4.209   4.618   0.966  0.00  0.00     0.688 C 
ATOM      7  N   UNL d   1      -4.739   5.882   1.001  0.00  0.00    -0.224 N 
ATOM      8  N   UNL d   1      -4.649   3.979   2.095  0.00  0.00    -0.224 N 
ATOM      9  C   UNL d   1      -5.272   6.223   2.305  0.00  0.00     0.158 C 
ATOM     10  H   UNL d   1      -4.237   6.556   0.439  0.00  0.00     0.177 HD
ATOM     11  C   UNL d   1      -5.045   4.934   3.116  0.00  0.00     0.158 C 
ATOM     12  H   UNL d   1      -4.101   3.173   2.361  0.00  0.00     0.177 HD
ATOM     13  HN  UNL d   1      -2.978   3.176   0.219  1.00  0.00     0.205 HD
ENDBRANCH   1   5
BRANCH   3  14
ATOM     14  C   UNL d   1      -1.707   5.347  -2.899  0.00  0.00    -0.012 A 
ATOM     15  C   UNL d   1      -2.290   6.611  -3.088  0.00  0.00     0.016 A 
ATOM     16  C   UNL d   1      -1.964   7.394  -4.203  0.00  0.00     0.037 A 
ATOM     17  C   UNL d   1      -1.049   6.907  -5.143  0.00  0.00     0.102 A 
ATOM     18  C   UNL d   1      -0.448   5.655  -4.963  0.00  0.00     0.037 A 
ATOM     19  C   UNL d   1      -0.775   4.884  -3.840  0.00  0.00     0.016 A 
BRANCH  17  20
ATOM     20  N   UNL d   1      -0.722   7.707  -6.330  0.00  0.00    -0.116 N 
ATOM     21  O   UNL d   1       0.076   7.225  -7.147  0.00  0.00    -0.532 OA
ATOM     22  O   UNL d   1      -1.263   8.815  -6.446  0.00  0.00    -0.532 OA
ENDBRANCH  17  20
ENDBRANCH   3  14
TORSDOF 3
