REMARK  8 active torsions:
REMARK  status: ('A' for Active; 'I' for Inactive)
REMARK    1  A    between atoms: C_4  and  C_1 
REMARK    2  A    between atoms: C_6  and  N_2 
REMARK    3  A    between atoms: N_3  and  C_5 
REMARK    4  A    between atoms: C_9  and  N_12 
REMARK    5  A    between atoms: N_25  and  C_9 
REMARK    6  A    between atoms: N_12  and  C_28 
REMARK    7  A    between atoms: C_31  and  N_25 
REMARK    8  A    between atoms: C_26  and  C_31 
ROOT
ATOM      1  N   UNL d   1      -0.846   4.564  -6.658  0.00  0.00    -0.364 N 
ATOM      2  N   UNL d   1      -0.341   3.871  -3.909  0.00  0.00    -0.364 N 
ATOM      3  C   UNL d   1       0.662   4.625  -4.663  0.00  0.00     0.144 C 
ATOM      4  C   UNL d   1      -1.731   4.055  -4.360  0.00  0.00     0.144 C 
ATOM      5  C   UNL d   1      -1.888   3.866  -5.885  0.00  0.00     0.144 C 
ATOM      6  C   UNL d   1       0.531   4.378  -6.184  0.00  0.00     0.144 C 
ENDROOT
BRANCH   1   7
ATOM      7  C   UNL d   1      -1.174   5.560  -7.553  0.00  0.00     0.103 A 
ATOM      8  N   UNL d   1      -2.344   6.218  -7.427  0.00  0.00    -0.350 N 
ATOM      9  C   UNL d   1      -2.629   7.228  -8.305  0.00  0.00     0.119 A 
ATOM     10  HN  UNL d   1      -3.005   5.967  -6.691  1.00  0.00     0.166 HD
ATOM     11  C   UNL d   1      -1.783   7.631  -9.332  0.00  0.00     0.050 A 
ATOM     12  C   UNL d   1      -0.596   6.931  -9.473  0.00  0.00     0.035 A 
ATOM     13  C   UNL d   1      -0.303   5.887  -8.596  0.00  0.00     0.051 A 
BRANCH  11  14
ATOM     14  N   UNL d   1      -1.986   8.752 -10.155  0.00  0.00    -0.332 N 
ATOM     15  H   UNL d   1      -1.176   9.082 -10.667  0.00  0.00     0.168 HD
BRANCH  14  16
ATOM     16  C   UNL d   1      -3.147   9.364 -10.548  0.00  0.00     0.172 C 
ATOM     17  S   UNL d   1      -4.651   8.669 -10.727  0.00  0.00    -0.041 SA
BRANCH  16  18
ATOM     18  N   UNL d   1      -2.998  10.688 -10.889  0.00  0.00    -0.364 N 
ATOM     19  H   UNL d   1      -3.867  11.089 -11.223  0.00  0.00     0.162 HD
BRANCH  18  20
ATOM     20  C   UNL d   1      -2.165  11.603 -10.130  0.00  0.00     0.148 C 
BRANCH  20  21
ATOM     21  C   UNL d   1      -0.805  11.681 -10.745  0.00  0.00    -0.018 C 
ATOM     22  C   UNL d   1       0.322  11.309 -10.123  0.00  0.00     0.008 C 
ENDBRANCH  20  21
ENDBRANCH  18  20
ENDBRANCH  16  18
ENDBRANCH  14  16
ENDBRANCH  11  14
ENDBRANCH   1   7
BRANCH   2  23
ATOM     23  C   UNL d   1      -0.014   2.906  -2.983  0.00  0.00     0.103 A 
ATOM     24  C   UNL d   1       1.116   3.036  -2.175  0.00  0.00     0.049 A 
ATOM     25  C   UNL d   1       1.424   2.067  -1.217  0.00  0.00     0.021 A 
ATOM     26  C   UNL d   1       0.599   0.957  -1.075  0.00  0.00     0.063 A 
ATOM     27  C   UNL d   1      -0.503   0.891  -1.911  0.00  0.00     0.106 A 
ATOM     28  N   UNL d   1      -0.820   1.834  -2.835  0.00  0.00    -0.352 N 
ATOM     29  HN  UNL d   1      -1.657   1.733  -3.409  1.00  0.00     0.166 HD
BRANCH  26  30
ATOM     30  C   UNL d   1       0.879  -0.103  -0.056  0.00  0.00     0.418 C 
ATOM     31  F   UNL d   1      -0.021  -1.125  -0.062  0.00  0.00    -0.166 F 
ATOM     32  F   UNL d   1       0.879   0.385   1.215  0.00  0.00    -0.166 F 
ATOM     33  F   UNL d   1       2.100  -0.683  -0.229  0.00  0.00    -0.166 F 
ENDBRANCH  26  30
ENDBRANCH   2  23
TORSDOF 8
