REMARK  8 active torsions:
REMARK  status: ('A' for Active; 'I' for Inactive)
REMARK    1  A    between atoms: C_7  and  C_1 
REMARK    2  A    between atoms: O_9  and  C_1 
REMARK    3  A    between atoms: C_2  and  O_6 
REMARK    4  A    between atoms: C_8  and  C_2 
REMARK    5  A    between atoms: C_3  and  C_12 
REMARK    6  A    between atoms: N_15  and  C_3 
REMARK    7  A    between atoms: O_6  and  N_4 
REMARK    8  A    between atoms: C_12  and  O_9 
ROOT
ATOM      1  C   UNL d   1      -1.474   0.356   2.640  0.00  0.00     0.100 C 
ATOM      2  N   UNL d   1      -0.722   0.643   3.658  0.00  0.00    -0.248 N 
ATOM      3  HN  UNL d   1      -1.087   0.922   4.569  1.00  0.00     0.196 HD
ENDROOT
BRANCH   1   4
ATOM      4  C   UNL d   1      -3.002   0.470   2.859  0.00  0.00     0.250 C 
BRANCH   4   5
ATOM      5  O   UNL d   1      -3.792  -0.527   2.205  0.00  0.00    -0.314 OA
BRANCH   5   6
ATOM      6  C   UNL d   1      -4.064  -0.304   0.894  0.00  0.00     0.266 C 
ATOM      7  O   UNL d   1      -3.626   0.653   0.263  0.00  0.00    -0.264 OA
BRANCH   6   8
ATOM      8  C   UNL d   1      -4.908  -1.417   0.261  0.00  0.00     0.037 C 
ATOM      9  C   UNL d   1      -5.337  -2.501   1.260  0.00  0.00     0.025 C 
ATOM     10  C   UNL d   1      -6.167  -0.795  -0.363  0.00  0.00     0.025 C 
ATOM     11  C   UNL d   1      -4.051  -2.060  -0.839  0.00  0.00     0.025 C 
ENDBRANCH   6   8
ENDBRANCH   5   6
ENDBRANCH   4   5
ENDBRANCH   1   4
BRANCH   1  12
ATOM     12  N   UNL d   1      -1.012   0.021   1.387  0.00  0.00    -0.289 NA
ATOM     13  H   UNL d   1      -1.625   0.307   0.623  0.00  0.00     0.125 HD
ATOM     14  H   UNL d   1      -0.048   0.291   1.233  0.00  0.00     0.125 HD
ENDBRANCH   1  12
BRANCH   2  15
ATOM     15  O   UNL d   1       0.658   0.530   3.369  0.00  0.00    -0.194 OA
BRANCH  15  16
ATOM     16  C   UNL d   1       1.378   0.944   4.459  0.00  0.00     0.315 C 
ATOM     17  O   UNL d   1       0.936   1.430   5.494  0.00  0.00    -0.257 OA
BRANCH  16  18
ATOM     18  C   UNL d   1       2.841   0.730   4.265  0.00  0.00     0.041 A 
ATOM     19  C   UNL d   1       3.695   1.050   5.337  0.00  0.00     0.019 A 
ATOM     20  C   UNL d   1       5.076   0.864   5.234  0.00  0.00     0.025 A 
ATOM     21  C   UNL d   1       5.617   0.357   4.057  0.00  0.00     0.034 A 
ATOM     22  C   UNL d   1       4.786   0.040   2.981  0.00  0.00     0.025 A 
ATOM     23 CL   UNL d   1       7.314   0.119   3.929  0.00  0.00    -0.084 Cl
ATOM     24  C   UNL d   1       3.400   0.224   3.082  0.00  0.00     0.019 A 
ENDBRANCH  16  18
ENDBRANCH  15  16
ENDBRANCH   2  15
TORSDOF 8
