REMARK  3 active torsions:
REMARK  status: ('A' for Active; 'I' for Inactive)
REMARK    1  A    between atoms: O_3  and  C_1 
REMARK    2  A    between atoms: C_4  and  O_3 
REMARK    3  A    between atoms: C_8  and  C_4 
ROOT
ATOM      1  C   UNL d   1       1.366  -1.206  -0.634  0.00  0.00     0.128 A 
ATOM      2  C   UNL d   1       0.114  -0.701  -0.270  0.00  0.00     0.080 A 
ATOM      3  C   UNL d   1      -0.013   0.692  -0.075  0.00  0.00     0.015 A 
ATOM      4  C   UNL d   1       2.469  -0.378  -0.868  0.00  0.00     0.072 A 
ATOM      5  C   UNL d   1       1.129   1.517  -0.250  0.00  0.00     0.048 A 
ATOM      6  C   UNL d   1       2.354   0.987  -0.654  0.00  0.00     0.051 A 
ATOM      7  N   UNL d   1      -0.934  -1.545  -0.130  0.00  0.00    -0.363 N 
ATOM      8  HN  UNL d   1      -0.813  -2.549  -0.262  1.00  0.00     0.165 HD
ATOM      9 CL   UNL d   1       3.970  -1.002  -1.447  0.00  0.00    -0.081 Cl
ATOM     10 CL   UNL d   1       1.064   3.231   0.003  0.00  0.00    -0.083 Cl
ATOM     11  C   UNL d   1      -1.294   1.175   0.273  0.00  0.00     0.017 A 
ATOM     12  C   UNL d   1      -2.143  -1.035   0.189  0.00  0.00     0.088 A 
ATOM     13  C   UNL d   1      -2.372   0.305   0.399  0.00  0.00     0.018 A 
ENDROOT
BRANCH   1  14
ATOM     14  O   UNL d   1       1.466  -2.600  -0.800  0.00  0.00    -0.270 OA
BRANCH  14  15
ATOM     15  C   UNL d   1       2.081  -3.220   0.285  0.00  0.00     0.305 C 
ATOM     16  O   UNL d   1       2.682  -2.634   1.182  0.00  0.00    -0.258 OA
BRANCH  15  17
ATOM     17  C   UNL d   1       1.902  -4.653   0.177  0.00  0.00     0.080 A 
ATOM     18  S   UNL d   1       3.070  -5.704   0.861  0.00  0.00    -0.096 SA
ATOM     19  C   UNL d   1       2.196  -7.095   0.385  0.00  0.00     0.050 A 
ATOM     20  C   UNL d   1       1.026  -6.772  -0.266  0.00  0.00     0.009 A 
ATOM     21  C   UNL d   1       0.865  -5.362  -0.402  0.00  0.00     0.025 A 
ENDBRANCH  15  17
ENDBRANCH  14  15
ENDBRANCH   1  14
TORSDOF 3
