REMARK  2 active torsions:
REMARK  status: ('A' for Active; 'I' for Inactive)
REMARK       I    between atoms: N_2  and  C_1 
REMARK       I    between atoms: N_3  and  C_1 
REMARK    1  A    between atoms: C_5  and  N_2 
REMARK    2  A    between atoms: C_6  and  N_3 
ROOT
ATOM      1  C   UNL d   1       0.737  -0.025   0.426  0.00  0.00     0.322 C 
ATOM      2  N   UNL d   1       0.322  -1.256  -0.153  0.00  0.00    -0.334 N 
ATOM      3  N   UNL d   1       2.090   0.074   0.666  0.00  0.00    -0.309 N 
ATOM      4  O   UNL d   1      -0.069   0.881   0.656  0.00  0.00    -0.247 OA
ATOM      5  C   UNL d   1       1.097  -2.491  -0.003  0.00  0.00     0.155 C 
ATOM      6  H   UNL d   1       2.663  -0.692   0.366  0.00  0.00     0.170 HD
ENDROOT
BRANCH   2   7
ATOM      7  C   UNL d   1      -1.138  -1.396  -0.453  0.00  0.00     0.088 C 
ATOM      8  C   UNL d   1      -1.623  -2.807  -0.878  0.00  0.00     0.025 C 
ATOM      9  C   UNL d   1      -1.320  -3.180  -2.335  0.00  0.00     0.002 C 
ATOM     10  C   UNL d   1      -1.773  -2.110  -3.318  0.00  0.00     0.000 C 
ATOM     11  C   UNL d   1      -1.248  -0.736  -2.925  0.00  0.00     0.002 C 
ATOM     12  C   UNL d   1      -1.659  -0.380  -1.499  0.00  0.00     0.025 C 
ENDBRANCH   2   7
BRANCH   3  13
ATOM     13  C   UNL d   1       2.843   1.206   1.046  0.00  0.00     0.036 A 
ATOM     14  C   UNL d   1       2.305   2.463   1.317  0.00  0.00     0.029 A 
ATOM     15  C   UNL d   1       3.151   3.560   1.523  0.00  0.00     0.002 A 
ATOM     16  C   UNL d   1       4.536   3.403   1.476  0.00  0.00     0.000 A 
ATOM     17  C   UNL d   1       5.081   2.139   1.275  0.00  0.00     0.002 A 
ATOM     18  C   UNL d   1       4.237   1.046   1.071  0.00  0.00     0.029 A 
ENDBRANCH   3  13
TORSDOF 2
