REMARK  3 active torsions:
REMARK  status: ('A' for Active; 'I' for Inactive)
REMARK    1  A    between atoms: C_2  and  C_1 
REMARK    2  A    between atoms: C_16  and  C_8 
REMARK    3  A    between atoms: C_13  and  C_15 
ROOT
ATOM      1  C   UNL d   1       0.833  -0.646  -0.575  0.00  0.00     0.184 A 
ATOM      2  O   UNL d   1       0.612   0.667  -0.928  0.00  0.00    -0.272 OA
ATOM      3  N   UNL d   1       0.127  -0.983   0.488  0.00  0.00    -0.276 N 
ATOM      4  HN  UNL d   1       0.112  -1.898   0.938  1.00  0.00     0.189 HD
ATOM      5  N   UNL d   1      -0.585   0.130   0.878  0.00  0.00    -0.277 N 
ATOM      6  HN  UNL d   1      -1.224   0.200   1.669  1.00  0.00     0.189 HD
ATOM      7  C   UNL d   1      -0.276   1.085   0.027  0.00  0.00     0.174 A 
ENDROOT
BRANCH   7   8
ATOM      8  C   UNL d   1      -0.702   2.477  -0.013  0.00  0.00     0.017 A 
ATOM      9  C   UNL d   1      -0.298   3.346  -1.036  0.00  0.00     0.017 A 
ATOM     10  C   UNL d   1      -0.691   4.688  -1.033  0.00  0.00     0.017 A 
ATOM     11  C   UNL d   1      -1.498   5.193  -0.004  0.00  0.00     0.048 A 
ATOM     12  C   UNL d   1      -1.918   4.322   1.012  0.00  0.00     0.017 A 
ATOM     13  C   UNL d   1      -1.524   2.980   1.005  0.00  0.00     0.017 A 
BRANCH  11  14
ATOM     14  C   UNL d   1      -1.907   6.646   0.029  0.00  0.00     0.417 C 
ATOM     15  F   UNL d   1      -1.417   7.372  -1.014  0.00  0.00    -0.166 F 
ATOM     16  F   UNL d   1      -3.258   6.807  -0.005  0.00  0.00    -0.166 F 
ATOM     17  F   UNL d   1      -1.482   7.278   1.157  0.00  0.00    -0.166 F 
ENDBRANCH  11  14
ENDBRANCH   7   8
BRANCH   1  18
ATOM     18  C   UNL d   1       1.722  -1.520  -1.266  0.00  0.00     0.095 A 
ATOM     19  C   UNL d   1       2.069  -2.845  -1.028  0.00  0.00     0.041 A 
ATOM     20  N   UNL d   1       2.995  -3.368  -1.931  0.00  0.00    -0.296 N 
ATOM     21  C   UNL d   1       1.595  -3.761   0.042  0.00  0.00     0.071 C 
ATOM     22  N   UNL d   1       3.358  -2.483  -2.841  0.00  0.00    -0.061 NA
ATOM     23  HN  UNL d   1       3.350  -4.323  -1.892  1.00  0.00     0.183 HD
ATOM     24  S   UNL d   1       2.607  -1.008  -2.646  0.00  0.00     0.006 SA
ENDBRANCH   1  18
TORSDOF 3
