REMARK  6 active torsions:
REMARK  status: ('A' for Active; 'I' for Inactive)
REMARK    1  A    between atoms: C_3  and  C_1 
REMARK    2  A    between atoms: C_4  and  C_1 
REMARK    3  A    between atoms: C_8  and  C_2 
REMARK    4  A    between atoms: O_14  and  C_3 
REMARK    5  A    between atoms: N_5  and  C_4 
REMARK    6  A    between atoms: C_15  and  O_14 
ROOT
ATOM      1  C   UNL d   1       1.048  -0.068   0.055  0.00  0.00     0.104 C 
ATOM      2  C   UNL d   1       0.350   0.707   0.908  0.00  0.00     0.065 C 
ENDROOT
BRANCH   1   3
ATOM      3  C   UNL d   1       0.330  -1.044  -0.785  0.00  0.00     0.302 C 
ATOM      4  O   UNL d   1      -0.880  -1.230  -0.739  0.00  0.00    -0.259 OA
BRANCH   3   5
ATOM      5  O   UNL d   1       1.215  -1.747  -1.528  0.00  0.00    -0.317 OA
BRANCH   5   6
ATOM      6  C   UNL d   1       0.723  -2.966  -2.101  0.00  0.00     0.174 C 
ATOM      7  C   UNL d   1       0.861  -4.065  -1.063  0.00  0.00     0.034 C 
ENDBRANCH   5   6
ENDBRANCH   3   5
ENDBRANCH   1   3
BRANCH   1   8
ATOM      8  C   UNL d   1       2.568  -0.068   0.055  0.00  0.00    -0.031 C 
BRANCH   8   9
ATOM      9  N   UNL d   1       3.829  -0.068   0.055  0.00  0.00    -0.365 N 
ATOM     10  HN2 UNL d   1       2.809  -0.068   0.055  1.00  0.00     0.165 HD
ATOM     11  HN1 UNL d   1       4.849  -0.068   0.055  1.00  0.00     0.165 HD
ENDBRANCH   8   9
ENDBRANCH   1   8
BRANCH   2  12
ATOM     12  C   UNL d   1       0.985   1.624   1.797  0.00  0.00     0.076 A 
ATOM     13  O   UNL d   1       2.161   2.279   1.504  0.00  0.00    -0.323 OA
ATOM     14  C   UNL d   1       2.520   3.033   2.568  0.00  0.00     0.142 A 
ATOM     15  C   UNL d   1       1.588   2.920   3.563  0.00  0.00     0.027 A 
ATOM     16  C   UNL d   1       0.596   2.035   3.067  0.00  0.00     0.039 A 
ENDBRANCH   2  12
TORSDOF 6
