REMARK  5 active torsions:
REMARK  status: ('A' for Active; 'I' for Inactive)
REMARK    1  A    between atoms: C_10  and  C_1 
REMARK    2  A    between atoms: O_13  and  C_9 
REMARK    3  A    between atoms: O_18  and  C_10 
REMARK    4  A    between atoms: C_15  and  O_13 
REMARK    5  A    between atoms: C_23  and  O_18 
ROOT
ATOM      1  C   UNL d   1      -2.335  -0.195   0.072  0.00  0.00     0.127 A 
ATOM      2  N   UNL d   1      -0.195  -0.667   0.065  0.00  0.00    -0.247 N 
ATOM      3  N   UNL d   1      -1.659   1.017   0.074  0.00  0.00    -0.335 N 
ATOM      4  HN  UNL d   1      -2.067   1.952   0.087  1.00  0.00     0.168 HD
ATOM      5  C   UNL d   1      -0.380   0.706   0.055  0.00  0.00     0.127 A 
ATOM      6  C   UNL d   1      -1.430  -1.241   0.090  0.00  0.00     0.154 A 
ATOM      7  N   UNL d   1       0.980  -1.344  -0.004  0.00  0.00    -0.272 N 
ATOM      8  HN  UNL d   1       1.053  -2.362   0.006  1.00  0.00     0.189 HD
ATOM      9  C   UNL d   1       1.994  -0.550  -0.084  0.00  0.00     0.163 A 
ATOM     10  C   UNL d   1       0.777   1.515  -0.002  0.00  0.00     0.054 A 
ATOM     11  C   UNL d   1       1.983   0.931  -0.061  0.00  0.00     0.061 A 
ENDROOT
BRANCH   9  12
ATOM     12  O   UNL d   1       3.308  -0.972  -0.230  0.00  0.00    -0.292 OA
BRANCH  12  13
ATOM     13  C   UNL d   1       3.551  -2.296  -0.652  0.00  0.00     0.080 A 
ATOM     14  C   UNL d   1       2.858  -2.858  -1.725  0.00  0.00     0.079 A 
ATOM     15  C   UNL d   1       3.180  -4.145  -2.131  0.00  0.00     0.119 A 
ATOM     16  F   UNL d   1       2.509  -4.702  -3.147  0.00  0.00    -0.206 F 
ATOM     17  C   UNL d   1       4.197  -4.862  -1.508  0.00  0.00     0.042 A 
ATOM     18  C   UNL d   1       4.908  -4.279  -0.457  0.00  0.00     0.006 A 
ATOM     19  C   UNL d   1       4.588  -2.989  -0.028  0.00  0.00     0.037 A 
ENDBRANCH  12  13
ENDBRANCH   9  12
BRANCH   1  20
ATOM     20  C   UNL d   1      -3.785  -0.339  -0.035  0.00  0.00     0.311 C 
ATOM     21  O   UNL d   1      -4.349  -1.427  -0.104  0.00  0.00    -0.258 OA
BRANCH  20  22
ATOM     22  O   UNL d   1      -4.412   0.866  -0.149  0.00  0.00    -0.317 OA
BRANCH  22  23
ATOM     23  C   UNL d   1      -5.726   0.822  -0.715  0.00  0.00     0.175 C 
ATOM     24  C   UNL d   1      -5.591   0.902  -2.226  0.00  0.00     0.034 C 
ENDBRANCH  22  23
ENDBRANCH  20  22
ENDBRANCH   1  20
TORSDOF 5
