REMARK  3 active torsions:
REMARK  status: ('A' for Active; 'I' for Inactive)
REMARK       I    between atoms: N_2  and  C_1 
REMARK    1  A    between atoms: C_5  and  C_1 
REMARK    2  A    between atoms: C_4  and  N_3 
REMARK    3  A    between atoms: O_17  and  C_11 
ROOT
ATOM      1  C   UNL d   1       0.964   0.175   0.002  0.00  0.00     0.253 C 
ATOM      2  N   UNL d   1       0.536   0.231  -1.331  0.00  0.00    -0.345 N 
ATOM      3  N   UNL d   1      -0.541  -0.132  -3.981  0.00  0.00    -0.376 N 
ATOM      4  C   UNL d   1       1.095  -0.786  -2.242  0.00  0.00     0.146 C 
ATOM      5  C   UNL d   1      -0.736   0.839  -1.743  0.00  0.00     0.146 C 
ATOM      6  C   UNL d   1       0.865  -0.526  -3.752  0.00  0.00     0.143 C 
ATOM      7  C   UNL d   1      -0.878   1.094  -3.245  0.00  0.00     0.143 C 
ATOM      8  O   UNL d   1       1.909  -0.529   0.365  0.00  0.00    -0.267 OA
ENDROOT
BRANCH   1   9
ATOM      9  C   UNL d   1       0.326   1.039   1.035  0.00  0.00     0.032 A 
ATOM     10  C   UNL d   1      -1.055   1.075   1.258  0.00  0.00     0.017 A 
ATOM     11  C   UNL d   1      -1.597   1.997   2.157  0.00  0.00     0.007 A 
ATOM     12  C   UNL d   1      -0.761   2.842   2.897  0.00  0.00    -0.062 A 
ATOM     13  C   UNL d   1       0.626   2.733   2.742  0.00  0.00     0.007 A 
ATOM     14  C   UNL d   1      -1.353   3.878   3.805  0.00  0.00     0.048 C 
ATOM     15  C   UNL d   1       1.167   1.835   1.818  0.00  0.00     0.017 A 
ENDBRANCH   1   9
BRANCH   3  16
ATOM     16  C   UNL d   1      -1.109  -0.346  -5.239  0.00  0.00     0.064 A 
ATOM     17  C   UNL d   1      -1.206  -1.630  -5.829  0.00  0.00     0.094 A 
ATOM     18  C   UNL d   1      -1.882  -1.828  -7.043  0.00  0.00     0.039 A 
ATOM     19  C   UNL d   1      -2.492  -0.764  -7.699  0.00  0.00     0.003 A 
ATOM     20  C   UNL d   1      -2.390   0.511  -7.165  0.00  0.00     0.002 A 
ATOM     21  C   UNL d   1      -1.704   0.711  -5.960  0.00  0.00     0.032 A 
BRANCH  17  22
ATOM     22  O   UNL d   1      -0.632  -2.763  -5.309  0.00  0.00    -0.354 OA
ATOM     23  C   UNL d   1      -1.193  -3.158  -4.060  0.00  0.00     0.210 C 
ENDBRANCH  17  22
ENDBRANCH   3  16
TORSDOF 3
