REMARK  6 active torsions:
REMARK  status: ('A' for Active; 'I' for Inactive)
REMARK    1  A    between atoms: C_3  and  C_1 
REMARK    2  A    between atoms: C_2  and  C_4 
REMARK    3  A    between atoms: C_9  and  C_5 
REMARK    4  A    between atoms: C_11  and  C_9 
REMARK    5  A    between atoms: C_10  and  O_12 
REMARK    6  A    between atoms: O_12  and  C_11 
ROOT
ATOM      1  C   UNL d   1       0.593   1.205   0.746  0.00  0.00     0.049 A 
ATOM      2  C   UNL d   1      -0.084   2.391   2.776  0.00  0.00     0.049 A 
ATOM      3  C   UNL d   1       0.700   3.640   0.837  0.00  0.00     0.013 A 
ATOM      4  C   UNL d   1       0.103   1.194   2.063  0.00  0.00     0.032 A 
ATOM      5  C   UNL d   1       0.226   3.614   2.153  0.00  0.00     0.031 A 
ATOM      6  C   UNL d   1       0.871   2.438   0.139  0.00  0.00     0.031 A 
ENDROOT
BRANCH   3   7
ATOM      7  C   UNL d   1       1.107   4.905   0.159  0.00  0.00     0.183 C 
ATOM      8  O   UNL d   1       1.987   4.851  -0.699  0.00  0.00    -0.290 OA
BRANCH   7   9
ATOM      9  C   UNL d   1       0.497   6.236   0.592  0.00  0.00     0.262 C 
BRANCH   9  10
ATOM     10  O   UNL d   1      -0.854   6.234   1.041  0.00  0.00    -0.314 OA
BRANCH  10  11
ATOM     11  C   UNL d   1      -1.772   5.927   0.084  0.00  0.00     0.255 C 
ATOM     12  O   UNL d   1      -1.509   5.589  -1.059  0.00  0.00    -0.266 OA
ATOM     13  C   UNL d   1      -3.158   5.997   0.646  0.00  0.00     0.126 C 
ENDBRANCH  10  11
ENDBRANCH   9  10
ENDBRANCH   7   9
ENDBRANCH   3   7
BRANCH   1  14
ATOM     14  C   UNL d   1       0.846  -0.077  -0.014  0.00  0.00     0.417 C 
ATOM     15  F   UNL d   1       0.700  -1.192   0.753  0.00  0.00    -0.166 F 
ATOM     16  F   UNL d   1       2.107  -0.138  -0.522  0.00  0.00    -0.166 F 
ATOM     17  F   UNL d   1       0.002  -0.233  -1.069  0.00  0.00    -0.166 F 
ENDBRANCH   1  14
BRANCH   2  18
ATOM     18  C   UNL d   1      -0.589   2.380   4.201  0.00  0.00     0.417 C 
ATOM     19  F   UNL d   1      -0.808   1.131   4.694  0.00  0.00    -0.166 F 
ATOM     20  F   UNL d   1       0.281   2.978   5.060  0.00  0.00    -0.166 F 
ATOM     21  F   UNL d   1      -1.767   3.050   4.333  0.00  0.00    -0.166 F 
ENDBRANCH   2  18
TORSDOF 6
