REMARK  5 active torsions:
REMARK  status: ('A' for Active; 'I' for Inactive)
REMARK    1  A    between atoms: C_11  and  N_1 
REMARK       I    between atoms: C_2  and  N_4 
REMARK    2  A    between atoms: C_7  and  C_2 
REMARK    3  A    between atoms: C_3  and  C_10 
REMARK    4  A    between atoms: C_17  and  C_11 
REMARK    5  A    between atoms: N_12  and  C_17 
ROOT
ATOM      1  C   UNL d   1       4.170  -6.820  -2.604  0.00  0.00     0.253 C 
ATOM      2  N   UNL d   1       3.292  -6.013  -1.877  0.00  0.00    -0.345 N 
ATOM      3  N   UNL d   1       3.282  -3.650  -0.098  0.00  0.00     0.093 N 
ATOM      4  O   UNL d   1       4.712  -6.429  -3.637  0.00  0.00    -0.267 OA
ATOM      5  C   UNL d   1       2.980  -4.682  -2.409  0.00  0.00     0.156 C 
ATOM      6  C   UNL d   1       2.957  -6.161  -0.456  0.00  0.00     0.156 C 
ATOM      7  C   UNL d   1       3.563  -5.017   0.388  0.00  0.00     0.292 C 
ATOM      8  C   UNL d   1       3.618  -3.574  -1.544  0.00  0.00     0.292 C 
ENDROOT
BRANCH   1   9
ATOM      9  C   UNL d   1       4.482  -8.211  -2.170  0.00  0.00     0.033 A 
ATOM     10  C   UNL d   1       3.532  -9.056  -1.583  0.00  0.00     0.033 A 
ATOM     11  C   UNL d   1       3.876 -10.359  -1.185  0.00  0.00     0.048 A 
ATOM     12  C   UNL d   1       5.165 -10.841  -1.465  0.00  0.00     0.016 A 
ATOM     13  C   UNL d   1       6.098 -10.027  -2.108  0.00  0.00     0.002 A 
ATOM     14  C   UNL d   1       5.760  -8.718  -2.453  0.00  0.00     0.017 A 
BRANCH  11  15
ATOM     15  C   UNL d   1       2.887 -11.241  -0.463  0.00  0.00     0.417 C 
ATOM     16  F   UNL d   1       1.724 -10.603  -0.152  0.00  0.00    -0.166 F 
ATOM     17  F   UNL d   1       2.534 -12.340  -1.182  0.00  0.00    -0.166 F 
ATOM     18  F   UNL d   1       3.378 -11.706   0.719  0.00  0.00    -0.166 F 
ENDBRANCH  11  15
ENDBRANCH   1   9
BRANCH   3  19
ATOM     19  C   UNL d   1       1.906  -3.181   0.170  0.00  0.00     0.292 C 
BRANCH  19  20
ATOM     20  C   UNL d   1       1.591  -3.042   1.670  0.00  0.00     0.159 C 
BRANCH  20  21
ATOM     21  N   UNL d   1       0.333  -2.345   1.926  0.00  0.00    -0.353 N 
ATOM     22  C   UNL d   1      -0.903  -2.947   2.090  0.00  0.00     0.008 A 
ATOM     23  C   UNL d   1      -1.804  -1.955   2.428  0.00  0.00     0.026 A 
ATOM     24  C   UNL d   1      -1.181  -4.402   1.938  0.00  0.00     0.068 C 
ATOM     25  C   UNL d   1      -1.113  -0.729   2.443  0.00  0.00     0.026 A 
ATOM     26  C   UNL d   1       0.204  -0.980   2.114  0.00  0.00     0.008 A 
ATOM     27  C   UNL d   1       1.311   0.011   1.993  0.00  0.00     0.068 C 
ENDBRANCH  20  21
ENDBRANCH  19  20
ENDBRANCH   3  19
TORSDOF 5
