REMARK  5 active torsions:
REMARK  status: ('A' for Active; 'I' for Inactive)
REMARK    1  A    between atoms: C_4  and  C_1 
REMARK    2  A    between atoms: C_2  and  C_3 
REMARK    3  A    between atoms: C_6  and  C_5 
REMARK    4  A    between atoms: N_18  and  C_6 
REMARK    5  A    between atoms: O_19  and  N_10 
ROOT
ATOM      1  C   UNL d   1       5.514  -5.459  -0.036  0.00  0.00     0.049 A 
ATOM      2  C   UNL d   1       5.064  -3.071  -0.304  0.00  0.00     0.049 A 
ATOM      3  C   UNL d   1       3.232  -4.618   0.160  0.00  0.00     0.005 A 
ATOM      4  C   UNL d   1       5.964  -4.150  -0.273  0.00  0.00     0.032 A 
ATOM      5  C   UNL d   1       4.143  -5.682   0.176  0.00  0.00     0.031 A 
ATOM      6  C   UNL d   1       3.700  -3.318  -0.077  0.00  0.00     0.031 A 
ENDROOT
BRANCH   3   7
ATOM      7  C   UNL d   1       1.764  -4.861   0.355  0.00  0.00     0.108 C 
ATOM      8  N   UNL d   1       0.943  -3.856   0.237  0.00  0.00    -0.258 N 
ATOM      9  HN  UNL d   1       1.225  -2.902   0.008  1.00  0.00     0.195 HD
BRANCH   8  10
ATOM     10  O   UNL d   1      -0.384  -4.260   0.469  0.00  0.00    -0.289 OA
ATOM     11  H   UNL d   1      -0.880  -3.440   0.286  0.00  0.00     0.244 HD
ENDBRANCH   8  10
BRANCH   7  12
ATOM     12  N   UNL d   1       1.310  -6.128   0.644  0.00  0.00    -0.287 NA
ATOM     13  H   UNL d   1       1.810  -6.608   1.383  0.00  0.00     0.125 HD
ATOM     14  H   UNL d   1       0.316  -6.075   0.856  0.00  0.00     0.125 HD
ENDBRANCH   7  12
ENDBRANCH   3   7
BRANCH   2  15
ATOM     15  C   UNL d   1       5.538  -1.666  -0.591  0.00  0.00     0.417 C 
ATOM     16  F   UNL d   1       6.874  -1.586  -0.837  0.00  0.00    -0.166 F 
ATOM     17  F   UNL d   1       5.294  -0.812   0.440  0.00  0.00    -0.166 F 
ATOM     18  F   UNL d   1       4.927  -1.125  -1.682  0.00  0.00    -0.166 F 
ENDBRANCH   2  15
BRANCH   1  19
ATOM     19  C   UNL d   1       6.472  -6.627  -0.015  0.00  0.00     0.417 C 
ATOM     20  F   UNL d   1       7.761  -6.279  -0.282  0.00  0.00    -0.166 F 
ATOM     21  F   UNL d   1       6.494  -7.254   1.192  0.00  0.00    -0.166 F 
ATOM     22  F   UNL d   1       6.144  -7.582  -0.928  0.00  0.00    -0.166 F 
ENDBRANCH   1  19
TORSDOF 5
