REMARK  2 active torsions:
REMARK  status: ('A' for Active; 'I' for Inactive)
REMARK    1  A    between atoms: C_5  and  O_16 
REMARK    2  A    between atoms: C_6  and  O_15 
ROOT
ATOM      1  C   UNL d   1       1.253   0.681   0.013  0.00  0.00     0.083 A 
ATOM      2  C   UNL d   1      -1.254  -0.676  -0.026  0.00  0.00     0.083 A 
ATOM      3  N   UNL d   1       1.193  -0.688   0.067  0.00  0.00    -0.257 N 
ATOM      4  N   UNL d   1      -1.193   0.693  -0.077  0.00  0.00    -0.257 N 
ATOM      5  C   UNL d   1       0.029   1.514  -0.089  0.00  0.00     0.293 A 
ATOM      6  C   UNL d   1      -0.027  -1.513   0.037  0.00  0.00     0.293 A 
ATOM      7  N   UNL d   1      -2.414   1.267  -0.163  0.00  0.00    -0.307 N 
ATOM      8  HN  UNL d   1      -2.638   2.258  -0.261  1.00  0.00     0.186 HD
ATOM      9  N   UNL d   1       2.407  -1.262   0.208  0.00  0.00    -0.307 N 
ATOM     10  HN  UNL d   1       2.625  -2.251   0.333  1.00  0.00     0.186 HD
ATOM     11  C   UNL d   1      -2.594  -1.000  -0.026  0.00  0.00     0.050 A 
ATOM     12  C   UNL d   1       2.588   1.005   0.048  0.00  0.00     0.050 A 
ATOM     13  C   UNL d   1      -3.260   0.234  -0.091  0.00  0.00     0.109 A 
ATOM     14  C   UNL d   1       3.257  -0.233   0.147  0.00  0.00     0.109 A 
ENDROOT
BRANCH   5  15
ATOM     15  O   UNL d   1       0.141   2.211  -1.325  0.00  0.00    -0.369 OA
ATOM     16  H   UNL d   1      -0.512   1.818  -1.934  0.00  0.00     0.212 HD
ENDBRANCH   5  15
BRANCH   6  17
ATOM     17  O   UNL d   1      -0.138  -2.267   1.243  0.00  0.00    -0.369 OA
ATOM     18  H   UNL d   1       0.578  -1.967   1.828  0.00  0.00     0.212 HD
ENDBRANCH   6  17
TORSDOF 2
