REMARK  3 active torsions:
REMARK  status: ('A' for Active; 'I' for Inactive)
REMARK       I    between atoms: N_2  and  C_1 
REMARK    1  A    between atoms: C_3  and  C_1 
REMARK       I    between atoms: C_4  and  N_2 
REMARK       I    between atoms: N_6  and  C_4 
REMARK    2  A    between atoms: C_5  and  C_7 
REMARK    3  A    between atoms: C_17  and  N_6 
ROOT
ATOM      1  C   UNL d   1       1.116   0.466   0.085  0.00  0.00     0.265 C 
ATOM      2  N   UNL d   1       0.454  -0.344   0.994  0.00  0.00    -0.275 N 
ATOM      3  C   UNL d   1       0.972  -1.212   1.932  0.00  0.00     0.327 C 
ATOM      4  N   UNL d   1       2.333  -1.181   2.080  0.00  0.00    -0.309 N 
ATOM      5  O   UNL d   1       2.327   0.658   0.127  0.00  0.00    -0.267 OA
ATOM      6  O   UNL d   1       0.180  -1.939   2.526  0.00  0.00    -0.247 OA
ATOM      7  H   UNL d   1      -0.545  -0.474   0.901  0.00  0.00     0.173 HD
ATOM      8  H   UNL d   1       2.807  -0.459   1.541  0.00  0.00     0.170 HD
ENDROOT
BRANCH   4   9
ATOM      9  C   UNL d   1       3.134  -2.039   2.858  0.00  0.00     0.036 A 
ATOM     10  C   UNL d   1       2.633  -3.133   3.567  0.00  0.00     0.030 A 
ATOM     11  C   UNL d   1       3.493  -3.982   4.273  0.00  0.00     0.018 A 
ATOM     12  C   UNL d   1       4.874  -3.750   4.287  0.00  0.00     0.048 A 
ATOM     13  C   UNL d   1       5.373  -2.638   3.595  0.00  0.00     0.018 A 
ATOM     14  C   UNL d   1       4.511  -1.794   2.885  0.00  0.00     0.030 A 
BRANCH  12  15
ATOM     15  C   UNL d   1       5.812  -4.679   5.018  0.00  0.00     0.417 C 
ATOM     16  F   UNL d   1       5.188  -5.741   5.600  0.00  0.00    -0.166 F 
ATOM     17  F   UNL d   1       6.760  -5.211   4.197  0.00  0.00    -0.166 F 
ATOM     18  F   UNL d   1       6.493  -4.054   6.018  0.00  0.00    -0.166 F 
ENDBRANCH  12  15
ENDBRANCH   4   9
BRANCH   1  19
ATOM     19  C   UNL d   1       0.268   1.137  -0.934  0.00  0.00     0.109 A 
ATOM     20  C   UNL d   1       0.702   2.314  -1.544  0.00  0.00     0.135 A 
ATOM     21  F   UNL d   1       1.868   2.882  -1.210  0.00  0.00    -0.205 F 
ATOM     22  C   UNL d   1      -0.083   2.961  -2.501  0.00  0.00     0.043 A 
ATOM     23  C   UNL d   1      -1.319   2.430  -2.869  0.00  0.00     0.006 A 
ATOM     24  C   UNL d   1      -1.762   1.251  -2.275  0.00  0.00     0.043 A 
ATOM     25  C   UNL d   1      -0.971   0.617  -1.318  0.00  0.00     0.135 A 
ATOM     26  F   UNL d   1      -1.439  -0.512  -0.767  0.00  0.00    -0.205 F 
ENDBRANCH   1  19
TORSDOF 3
