REMARK  7 active torsions:
REMARK  status: ('A' for Active; 'I' for Inactive)
REMARK    1  A    between atoms: C_9  and  C_1 
REMARK    2  A    between atoms: N_13  and  C_4 
REMARK    3  A    between atoms: S_12  and  C_8 
REMARK    4  A    between atoms: C_11  and  C_9 
REMARK    5  A    between atoms: C_16  and  S_12 
REMARK    6  A    between atoms: C_19  and  C_16 
REMARK    7  A    between atoms: O_26  and  C_17 
ROOT
ATOM      1  C   UNL d   1      -2.099   0.345  -0.024  0.00  0.00     0.085 A 
ATOM      2  C   UNL d   1       0.238   0.767   0.001  0.00  0.00     0.051 A 
ATOM      3  C   UNL d   1       0.085  -0.613  -0.085  0.00  0.00     0.095 A 
ATOM      4  C   UNL d   1      -1.076   1.322   0.001  0.00  0.00     0.062 A 
ATOM      5  S   UNL d   1      -1.512  -1.319  -0.227  0.00  0.00    -0.065 SA
ATOM      6  N   UNL d   1       1.104  -1.420  -0.083  0.00  0.00    -0.319 N 
ATOM      7  HN  UNL d   1       1.096  -2.439  -0.113  1.00  0.00     0.175 HD
ATOM      8  C   UNL d   1       1.552   1.120  -0.004  0.00  0.00     0.073 A 
ATOM      9  S   UNL d   1       2.448  -0.392  -0.018  0.00  0.00    -0.006 SA
ENDROOT
BRANCH   1  10
ATOM     10  C   UNL d   1      -3.544   0.602  -0.003  0.00  0.00     0.201 C 
ATOM     11  O   UNL d   1      -4.024   1.673  -0.377  0.00  0.00    -0.286 OA
BRANCH  10  12
ATOM     12  C   UNL d   1      -4.506  -0.420   0.509  0.00  0.00     0.018 A 
ATOM     13  C   UNL d   1      -4.192  -1.233   1.607  0.00  0.00     0.052 A 
ATOM     14  C   UNL d   1      -5.085  -2.218   2.034  0.00  0.00     0.069 A 
ATOM     15  C   UNL d   1      -6.324  -2.337   1.399  0.00  0.00     0.037 A 
ATOM     16  C   UNL d   1      -6.668  -1.494   0.342  0.00  0.00     0.004 A 
ATOM     17  C   UNL d   1      -5.760  -0.535  -0.107  0.00  0.00     0.015 A 
BRANCH  14  18
ATOM     18  O   UNL d   1      -4.866  -3.105   3.050  0.00  0.00    -0.356 OA
ATOM     19  C   UNL d   1      -3.552  -3.140   3.599  0.00  0.00     0.210 C 
ENDBRANCH  14  18
ENDBRANCH  10  12
ENDBRANCH   1  10
BRANCH   4  20
ATOM     20  N   UNL d   1      -1.340   2.650   0.050  0.00  0.00    -0.397 N 
ATOM     21  H   UNL d   1      -0.676   3.313  -0.343  0.00  0.00     0.156 HD
ATOM     22  H   UNL d   1      -2.305   2.954  -0.125  0.00  0.00     0.156 HD
ENDBRANCH   4  20
BRANCH   8  23
ATOM     23  S   UNL d   1       2.378   2.648  -0.137  0.00  0.00    -0.116 SA
BRANCH  23  24
ATOM     24  C   UNL d   1       1.811   3.600   1.300  0.00  0.00     0.118 C 
BRANCH  24  25
ATOM     25  C   UNL d   1       2.687   4.821   1.501  0.00  0.00    -0.048 A 
ATOM     26  C   UNL d   1       2.628   5.899   0.597  0.00  0.00     0.011 A 
ATOM     27  C   UNL d   1       3.462   7.007   0.756  0.00  0.00     0.043 A 
ATOM     28  C   UNL d   1       4.349   7.046   1.821  0.00  0.00     0.116 A 
ATOM     29  C   UNL d   1       4.423   5.998   2.732  0.00  0.00     0.043 A 
ATOM     30  F   UNL d   1       5.154   8.110   1.974  0.00  0.00    -0.206 F 
ATOM     31  C   UNL d   1       3.594   4.883   2.570  0.00  0.00     0.011 A 
ENDBRANCH  24  25
ENDBRANCH  23  24
ENDBRANCH   8  23
TORSDOF 7
