REMARK  4 active torsions:
REMARK  status: ('A' for Active; 'I' for Inactive)
REMARK    1  A    between atoms: C_2  and  S_1 
REMARK    2  A    between atoms: N_3  and  S_1 
REMARK    3  A    between atoms: C_9  and  C_12 
REMARK    4  A    between atoms: O_20  and  C_13 
ROOT
ATOM      1  N   UNL d   1       0.385  -1.585  -0.008  0.00  0.00    -0.307 N 
ATOM      2  C   UNL d   1      -1.025  -1.944  -0.194  0.00  0.00     0.136 C 
ATOM      3  C   UNL d   1       1.367  -2.535   0.530  0.00  0.00     0.136 C 
ATOM      4  C   UNL d   1      -0.105  -4.351  -0.536  0.00  0.00     0.024 C 
ATOM      5  C   UNL d   1      -1.316  -3.436  -0.330  0.00  0.00     0.030 C 
ATOM      6  C   UNL d   1       0.928  -3.989   0.532  0.00  0.00     0.030 C 
ENDROOT
BRANCH   1   7
ATOM      7  S   UNL d   1       0.779   0.071   0.050  0.00  0.00     0.263 S 
ATOM      8  O   UNL d   1      -0.456   0.802   0.249  0.00  0.00    -0.200 OA
ATOM      9  O   UNL d   1       1.908   0.271   0.932  0.00  0.00    -0.200 OA
BRANCH   7  10
ATOM     10  C   UNL d   1       1.324   0.435  -1.593  0.00  0.00     0.118 A 
ATOM     11  C   UNL d   1       2.510  -0.115  -2.066  0.00  0.00     0.142 A 
ATOM     12  C   UNL d   1       2.971   0.191  -3.343  0.00  0.00     0.086 A 
ATOM     13  F   UNL d   1       3.256  -0.931  -1.314  0.00  0.00    -0.204 F 
ATOM     14  C   UNL d   1       2.250   1.077  -4.130  0.00  0.00     0.119 A 
ATOM     15  C   UNL d   1       1.078   1.664  -3.661  0.00  0.00     0.044 A 
ATOM     16  F   UNL d   1       2.695   1.385  -5.355  0.00  0.00    -0.206 F 
ATOM     17  C   UNL d   1       0.608   1.344  -2.385  0.00  0.00     0.031 A 
ENDBRANCH   7  10
ENDBRANCH   1   7
BRANCH   4  18
ATOM     18  C   UNL d   1       0.452  -4.485  -1.953  0.00  0.00    -0.021 A 
ATOM     19  C   UNL d   1       1.325  -5.549  -2.278  0.00  0.00     0.074 A 
ATOM     20  C   UNL d   1       1.841  -5.681  -3.576  0.00  0.00     0.037 A 
ATOM     21  C   UNL d   1       1.434  -4.814  -4.586  0.00  0.00     0.003 A 
ATOM     22  C   UNL d   1       0.527  -3.803  -4.299  0.00  0.00     0.001 A 
ATOM     23  C   UNL d   1       0.054  -3.631  -2.995  0.00  0.00     0.010 A 
BRANCH  19  24
ATOM     24  O   UNL d   1       1.641  -6.434  -1.275  0.00  0.00    -0.355 OA
ATOM     25  C   UNL d   1       1.839  -7.782  -1.700  0.00  0.00     0.210 C 
ENDBRANCH  19  24
ENDBRANCH   4  18
TORSDOF 4
