REMARK  4 active torsions:
REMARK  status: ('A' for Active; 'I' for Inactive)
REMARK    1  A    between atoms: N_2  and  C_1 
REMARK    2  A    between atoms: C_3  and  C_1 
REMARK    3  A    between atoms: C_4  and  N_2 
REMARK    4  A    between atoms: O_11  and  N_5 
ROOT
ATOM      1  C   UNL d   1       1.185   0.125  -0.230  0.00  0.00     0.137 C 
ATOM      2  N   UNL d   1       2.317   0.637  -0.627  0.00  0.00    -0.252 N 
ATOM      3  HN  UNL d   1       2.802   1.391  -0.142  1.00  0.00     0.196 HD
ENDROOT
BRANCH   1   4
ATOM      4  N   UNL d   1       0.504  -0.957  -0.768  0.00  0.00    -0.340 N 
ATOM      5  H   UNL d   1      -0.490  -1.006  -0.592  0.00  0.00     0.167 HD
BRANCH   4   6
ATOM      6  C   UNL d   1       1.047  -2.224  -1.097  0.00  0.00     0.039 A 
ATOM      7  C   UNL d   1       0.369  -3.080  -1.992  0.00  0.00    -0.035 A 
ATOM      8  C   UNL d   1      -0.948  -2.733  -2.632  0.00  0.00     0.050 C 
ATOM      9  C   UNL d   1       0.939  -4.323  -2.333  0.00  0.00     0.009 A 
ATOM     10  C   UNL d   1       2.175  -4.711  -1.823  0.00  0.00     0.001 A 
ATOM     11  C   UNL d   1       2.857  -3.864  -0.960  0.00  0.00     0.002 A 
ATOM     12  C   UNL d   1       2.297  -2.635  -0.603  0.00  0.00     0.030 A 
ENDBRANCH   4   6
ENDBRANCH   1   4
BRANCH   1  13
ATOM     13  C   UNL d   1       0.539   0.836   0.919  0.00  0.00     0.025 A 
ATOM     14  C   UNL d   1       0.680   2.212   1.055  0.00  0.00     0.102 A 
ATOM     15  N   UNL d   1       0.136   2.933   2.069  0.00  0.00    -0.374 N 
ATOM     16  C   UNL d   1      -0.561   2.244   2.997  0.00  0.00     0.087 A 
ATOM     17  HN  UNL d   1       0.249   3.946   2.126  1.00  0.00     0.164 HD
ATOM     18  C   UNL d   1      -0.751   0.871   2.951  0.00  0.00     0.018 A 
ATOM     19  C   UNL d   1      -0.195   0.153   1.893  0.00  0.00     0.018 A 
ENDBRANCH   1  13
BRANCH   2  20
ATOM     20  O   UNL d   1       2.787   0.032  -1.797  0.00  0.00    -0.288 OA
ATOM     21  H   UNL d   1       3.694   0.378  -1.868  0.00  0.00     0.244 HD
ENDBRANCH   2  20
TORSDOF 4
