REMARK  5 active torsions:
REMARK  status: ('A' for Active; 'I' for Inactive)
REMARK    1  A    between atoms: C_2  and  S_1 
REMARK    2  A    between atoms: N_3  and  S_1 
REMARK    3  A    between atoms: C_4  and  N_3 
REMARK    4  A    between atoms: O_8  and  C_5 
REMARK    5  A    between atoms: C_7  and  O_8 
ROOT
ATOM      1  C   UNL d   1       0.193   2.511   3.853  0.00  0.00     0.074 A 
ATOM      2  C   UNL d   1      -0.239   2.499   2.525  0.00  0.00     0.170 A 
ATOM      3  N   UNL d   1       0.612   2.352   1.476  0.00  0.00    -0.345 N 
ATOM      4  HN  UNL d   1       0.283   2.436   0.514  1.00  0.00     0.167 HD
ATOM      5  C   UNL d   1       1.540   2.240   4.101  0.00  0.00     0.030 A 
ATOM      6  C   UNL d   1       1.904   2.090   1.748  0.00  0.00     0.090 A 
ATOM      7  C   UNL d   1       2.406   2.006   3.034  0.00  0.00     0.019 A 
ENDROOT
BRANCH   2   8
ATOM      8  O   UNL d   1      -1.611   2.636   2.277  0.00  0.00    -0.291 OA
BRANCH   8   9
ATOM      9  C   UNL d   1      -2.076   2.135   1.082  0.00  0.00     0.084 C 
ATOM     10  C   UNL d   1      -3.043   2.837   0.375  0.00  0.00    -0.017 C 
ATOM     11  C   UNL d   1      -3.393   2.445  -0.924  0.00  0.00    -0.043 C 
ATOM     12  C   UNL d   1      -3.784   4.067   0.791  0.00  0.00     0.042 C 
ATOM     13  C   UNL d   1      -4.390   3.380  -1.531  0.00  0.00     0.040 C 
ATOM     14  C   UNL d   1      -2.796   1.343  -1.535  0.00  0.00    -0.055 C 
ATOM     15  C   UNL d   1      -4.770   4.301  -0.366  0.00  0.00     0.009 C 
ATOM     16  C   UNL d   1      -1.937   0.555  -0.765  0.00  0.00     0.010 C 
ATOM     17  C   UNL d   1      -3.045   1.009  -2.973  0.00  0.00     0.049 C 
ATOM     18  C   UNL d   1      -1.607   0.928   0.540  0.00  0.00     0.038 C 
ENDBRANCH   8   9
ENDBRANCH   2   8
BRANCH   1  19
ATOM     19  N   UNL d   1      -0.711   2.810   4.928  0.00  0.00    -0.177 NA
ATOM     20  H   UNL d   1      -0.363   3.559   5.527  0.00  0.00     0.146 HD
BRANCH  19  21
ATOM     21  S   UNL d   1      -1.163   1.527   5.931  0.00  0.00     0.252 S 
ATOM     22  O   UNL d   1       0.029   1.061   6.601  0.00  0.00    -0.205 OA
ATOM     23  O   UNL d   1      -2.297   1.999   6.702  0.00  0.00    -0.205 OA
BRANCH  21  24
ATOM     24  C   UNL d   1      -1.801   0.196   4.949  0.00  0.00     0.115 A 
ATOM     25  S   UNL d   1      -0.798  -1.177   4.750  0.00  0.00    -0.089 SA
ATOM     26  C   UNL d   1      -1.987  -2.001   3.841  0.00  0.00     0.051 A 
ATOM     27  C   UNL d   1      -3.113  -1.233   3.650  0.00  0.00     0.009 A 
ATOM     28  C   UNL d   1      -3.005   0.040   4.283  0.00  0.00     0.033 A 
ENDBRANCH  21  24
ENDBRANCH  19  21
ENDBRANCH   1  19
TORSDOF 5
