REMARK  4 active torsions:
REMARK  status: ('A' for Active; 'I' for Inactive)
REMARK    1  A    between atoms: N_7  and  N_1 
REMARK    2  A    between atoms: C_9  and  N_2 
REMARK       I    between atoms: C_8  and  N_7 
REMARK    3  A    between atoms: C_13  and  C_8 
REMARK    4  A    between atoms: N_10  and  C_13 
ROOT
ATOM      1  N   UNL d   1       0.475   1.323   0.038  0.00  0.00    -0.248 N 
ATOM      2  N   UNL d   1      -0.892  -0.987   0.161  0.00  0.00    -0.308 N 
ATOM      3  C   UNL d   1      -1.621   0.182   0.447  0.00  0.00     0.244 C 
ATOM      4  C   UNL d   1       1.097   0.282  -0.634  0.00  0.00     0.257 C 
ATOM      5  C   UNL d   1      -0.968   1.465  -0.048  0.00  0.00     0.255 C 
ATOM      6  C   UNL d   1       0.171  -0.922  -0.853  0.00  0.00     0.236 C 
ATOM      7  O   UNL d   1       2.228   0.354  -1.110  0.00  0.00    -0.270 OA
ATOM      8  O   UNL d   1      -2.760   0.204   0.913  0.00  0.00    -0.271 OA
ENDROOT
BRANCH   1   9
ATOM      9  N   UNL d   1       1.163   2.537   0.187  0.00  0.00    -0.263 N 
ATOM     10  C   UNL d   1       1.241   3.116   1.444  0.00  0.00     0.264 C 
ATOM     11  O   UNL d   1       0.667   2.670   2.437  0.00  0.00    -0.270 OA
ATOM     12  H   UNL d   1       1.869   2.785  -0.508  0.00  0.00     0.190 HD
BRANCH  10  13
ATOM     13  C   UNL d   1       2.113   4.378   1.516  0.00  0.00     0.376 C 
BRANCH  13  14
ATOM     14  N   UNL d   1       2.278   5.010   0.187  0.00  0.00     0.101 N 
ATOM     15  C   UNL d   1       1.034   5.658  -0.299  0.00  0.00     0.299 C 
ATOM     16  C   UNL d   1       0.743   7.058   0.265  0.00  0.00     0.198 C 
ATOM     17  O   UNL d   1       1.866   7.927   0.102  0.00  0.00    -0.388 OA
ATOM     18  C   UNL d   1       3.009   7.383   0.768  0.00  0.00     0.198 C 
ATOM     19  C   UNL d   1       3.376   6.004   0.194  0.00  0.00     0.299 C 
ENDBRANCH  13  14
ENDBRANCH  10  13
ENDBRANCH   1   9
BRANCH   2  20
ATOM     20  C   UNL d   1      -1.359  -2.255   0.624  0.00  0.00     0.037 A 
ATOM     21  C   UNL d   1      -1.258  -3.409  -0.163  0.00  0.00     0.031 A 
ATOM     22  C   UNL d   1      -1.732  -4.639   0.316  0.00  0.00     0.026 A 
ATOM     23  C   UNL d   1      -2.282  -4.724   1.594  0.00  0.00     0.034 A 
ATOM     24  C   UNL d   1      -2.372  -3.594   2.395  0.00  0.00     0.026 A 
ATOM     25 CL   UNL d   1      -2.852  -6.237   2.181  0.00  0.00    -0.084 Cl
ATOM     26  C   UNL d   1      -1.919  -2.365   1.904  0.00  0.00     0.031 A 
ENDBRANCH   2  20
TORSDOF 4
