REMARK  6 active torsions:
REMARK  status: ('A' for Active; 'I' for Inactive)
REMARK    1  A    between atoms: C_8  and  N_1 
REMARK    2  A    between atoms: S_9  and  C_2 
REMARK    3  A    between atoms: O_16  and  C_3 
REMARK    4  A    between atoms: C_14  and  S_9 
REMARK    5  A    between atoms: C_12  and  C_14 
REMARK    6  A    between atoms: C_13  and  C_12 
ROOT
ATOM      1  N   UNL d   1       0.125   0.154  -0.810  0.00  0.00    -0.286 N 
ATOM      2  C   UNL d   1       0.771  -1.021  -0.498  0.00  0.00     0.165 A 
ATOM      3  C   UNL d   1      -1.082   0.072  -0.143  0.00  0.00     0.240 A 
ATOM      4  N   UNL d   1      -0.027  -1.780   0.224  0.00  0.00    -0.277 N 
ATOM      5  HN  UNL d   1       0.188  -2.716   0.567  1.00  0.00     0.189 HD
ATOM      6  N   UNL d   1      -1.197  -1.096   0.438  0.00  0.00    -0.263 N 
ATOM      7  HN  UNL d   1      -2.008  -1.436   0.954  1.00  0.00     0.190 HD
ENDROOT
BRANCH   2   8
ATOM      8  S   UNL d   1       2.386  -1.488  -0.926  0.00  0.00    -0.085 SA
BRANCH   8   9
ATOM      9  C   UNL d   1       2.457  -3.091  -0.067  0.00  0.00     0.166 C 
BRANCH   9  10
ATOM     10  C   UNL d   1       3.818  -3.759  -0.132  0.00  0.00     0.169 C 
ATOM     11  O   UNL d   1       4.813  -3.249  -0.642  0.00  0.00    -0.291 OA
BRANCH  10  12
ATOM     12  C   UNL d   1       3.944  -5.124   0.484  0.00  0.00     0.011 A 
ATOM     13  C   UNL d   1       2.873  -5.755   1.138  0.00  0.00     0.018 A 
ATOM     14  C   UNL d   1       3.038  -7.029   1.692  0.00  0.00     0.043 A 
ATOM     15  C   UNL d   1       4.266  -7.670   1.595  0.00  0.00     0.116 A 
ATOM     16  C   UNL d   1       5.338  -7.061   0.956  0.00  0.00     0.043 A 
ATOM     17  F   UNL d   1       4.417  -8.890   2.126  0.00  0.00    -0.206 F 
ATOM     18  C   UNL d   1       5.179  -5.788   0.401  0.00  0.00     0.018 A 
ENDBRANCH  10  12
ENDBRANCH   9  10
ENDBRANCH   8   9
ENDBRANCH   2   8
BRANCH   1  19
ATOM     19  C   UNL d   1       0.486   1.275  -1.663  0.00  0.00     0.096 A 
ATOM     20  C   UNL d   1       1.319   1.146  -2.924  0.00  0.00     0.028 A 
ATOM     21  C   UNL d   1       1.881   1.862  -1.742  0.00  0.00     0.028 A 
ENDBRANCH   1  19
BRANCH   3  22
ATOM     22  O   UNL d   1      -2.016   1.009  -0.061  0.00  0.00    -0.331 OA
ATOM     23  H   UNL d   1      -1.606   1.877  -0.193  0.00  0.00     0.221 HD
ENDBRANCH   3  22
TORSDOF 6
