REMARK  9 active torsions:
REMARK  status: ('A' for Active; 'I' for Inactive)
REMARK    1  A    between atoms: C_2  and  N_1 
REMARK    2  A    between atoms: C_6  and  N_1 
REMARK    3  A    between atoms: C_16  and  C_2 
REMARK    4  A    between atoms: O_3  and  C_8 
REMARK    5  A    between atoms: C_5  and  O_3 
REMARK    6  A    between atoms: C_4  and  C_6 
REMARK    7  A    between atoms: C_8  and  C_4 
REMARK    8  A    between atoms: O_14  and  C_4 
REMARK    9  A    between atoms: O_15  and  C_16 
ROOT
ATOM      1  C   UNL d   1       3.028  -1.214   0.842  0.00  0.00     0.170 C 
ENDROOT
BRANCH   1   2
ATOM      2  C   UNL d   1       2.569  -0.001   0.009  0.00  0.00     0.304 C 
BRANCH   2   3
ATOM      3  N   UNL d   1       1.112   0.165  -0.051  0.00  0.00     0.097 N 
ATOM      4  H   UNL d   1       0.721  -0.636  -0.558  0.00  0.00     0.317 HD
BRANCH   3   5
ATOM      5  C   UNL d   1       0.660   1.368  -0.799  0.00  0.00     0.171 C 
ATOM      6  C   UNL d   1      -0.879   1.387  -0.680  0.00  0.00     0.051 C 
ATOM      7  C   UNL d   1       1.198   2.670  -0.184  0.00  0.00     0.051 C 
BRANCH   5   8
ATOM      8  C   UNL d   1       1.041   1.298  -2.305  0.00  0.00     0.204 C 
BRANCH   8   9
ATOM      9  O   UNL d   1       0.565   0.085  -2.889  0.00  0.00    -0.398 OA
ATOM     10  H   UNL d   1       0.717   0.155  -3.848  0.00  0.00     0.209 HD
ENDBRANCH   8   9
ENDBRANCH   5   8
ENDBRANCH   3   5
ENDBRANCH   2   3
ENDBRANCH   1   2
BRANCH   1  11
ATOM     11  C   UNL d   1       2.548  -2.568   0.306  0.00  0.00     0.209 C 
BRANCH  11  12
ATOM     12  O   UNL d   1       2.991  -2.723  -1.050  0.00  0.00    -0.349 OA
BRANCH  12  13
ATOM     13  C   UNL d   1       2.519  -3.833  -1.698  0.00  0.00     0.069 A 
ATOM     14  C   UNL d   1       2.439  -3.729  -3.089  0.00  0.00     0.040 A 
ATOM     15  C   UNL d   1       1.979  -4.803  -3.851  0.00  0.00     0.045 A 
ATOM     16  C   UNL d   1       1.605  -5.981  -3.214  0.00  0.00     0.116 A 
ATOM     17  C   UNL d   1       1.697  -6.106  -1.834  0.00  0.00     0.045 A 
ATOM     18  F   UNL d   1       1.160  -7.013  -3.943  0.00  0.00    -0.206 F 
ATOM     19  C   UNL d   1       2.156  -5.031  -1.071  0.00  0.00     0.040 A 
ENDBRANCH  12  13
ENDBRANCH  11  12
ENDBRANCH   1  11
BRANCH   1  20
ATOM     20  O   UNL d   1       4.467  -1.216   0.875  0.00  0.00    -0.392 OA
ATOM     21  H   UNL d   1       4.759  -1.421  -0.033  0.00  0.00     0.210 HD
ENDBRANCH   1  20
TORSDOF 9
