REMARK  5 active torsions:
REMARK  status: ('A' for Active; 'I' for Inactive)
REMARK    1  A    between atoms: C_14  and  N_1 
REMARK    2  A    between atoms: N_2  and  C_11 
REMARK    3  A    between atoms: C_11  and  C_3 
REMARK    4  A    between atoms: S_15  and  C_4 
REMARK    5  A    between atoms: C_20  and  C_14 
ROOT
ATOM      1  C   UNL d   1       1.946  -1.306  -0.896  0.00  0.00     0.207 C 
ENDROOT
BRANCH   1   2
ATOM      2  N   UNL d   1       2.174  -2.695  -0.481  0.00  0.00    -0.338 N 
ATOM      3  C   UNL d   1       1.865  -3.815  -1.231  0.00  0.00     0.046 A 
ATOM      4  C   UNL d   1       2.855  -4.763  -0.948  0.00  0.00     0.003 A 
ATOM      5  C   UNL d   1       0.825  -4.085  -2.134  0.00  0.00     0.030 A 
ATOM      6  C   UNL d   1       2.747  -6.051  -1.504  0.00  0.00     0.014 A 
ATOM      7  C   UNL d   1       3.788  -4.141  -0.064  0.00  0.00     0.003 C 
ATOM      8  C   UNL d   1       1.633  -6.368  -2.291  0.00  0.00     0.001 A 
ATOM      9  C   UNL d   1       0.706  -5.385  -2.624  0.00  0.00     0.002 A 
ATOM     10  C   UNL d   1       3.140  -3.030   0.456  0.00  0.00     0.046 C 
ATOM     11  C   UNL d   1       5.068  -4.465   0.427  0.00  0.00     0.014 C 
ATOM     12  C   UNL d   1       3.552  -2.413   1.641  0.00  0.00     0.030 C 
ATOM     13  C   UNL d   1       4.772  -2.821   2.183  0.00  0.00     0.002 C 
ATOM     14  C   UNL d   1       5.562  -3.768   1.535  0.00  0.00     0.001 C 
ENDBRANCH   1   2
BRANCH   1  15
ATOM     15  C   UNL d   1       0.550  -0.828  -0.734  0.00  0.00     0.118 A 
ATOM     16  N   UNL d   1       0.120   0.151   0.143  0.00  0.00    -0.313 N 
ATOM     17  C   UNL d   1      -1.189   0.344  -0.166  0.00  0.00     0.160 A 
ATOM     18  N   UNL d   1      -1.546  -0.428  -1.167  0.00  0.00    -0.278 N 
ATOM     19  N   UNL d   1      -0.452  -1.150  -1.526  0.00  0.00    -0.285 N 
ATOM     20  HN  UNL d   1      -2.470  -0.476  -1.595  1.00  0.00     0.189 HD
ATOM     21  HN  UNL d   1      -0.413  -1.830  -2.285  1.00  0.00     0.188 HD
BRANCH  16  22
ATOM     22  C   UNL d   1       0.901   0.807   1.172  0.00  0.00     0.136 C 
BRANCH  22  23
ATOM     23  C   UNL d   1       1.920   1.857   0.683  0.00  0.00    -0.004 C 
ATOM     24  C   UNL d   1       1.293   2.925  -0.212  0.00  0.00     0.011 C 
ATOM     25  C   UNL d   1       2.600   2.517   1.887  0.00  0.00     0.011 C 
ENDBRANCH  22  23
ENDBRANCH  16  22
BRANCH  17  26
ATOM     26  S   UNL d   1      -2.266   1.498   0.564  0.00  0.00    -0.105 SA
ATOM     27  H   UNL d   1      -1.822   1.460   1.825  0.00  0.00     0.110 HD
ENDBRANCH  17  26
ENDBRANCH   1  15
TORSDOF 5
