REMARK  2 active torsions:
REMARK  status: ('A' for Active; 'I' for Inactive)
REMARK    1  A    between atoms: C_4  and  C_1 
REMARK    2  A    between atoms: N_2  and  N_9 
REMARK       I    between atoms: N_9  and  C_4 
ROOT
ATOM      1  C   UNL d   1      -3.750   2.368   0.131  0.00  0.00     0.279 C 
ATOM      2  N   UNL d   1      -3.597   3.574   0.790  0.00  0.00    -0.256 N 
ATOM      3  O   UNL d   1      -4.805   2.045  -0.405  0.00  0.00    -0.265 OA
ATOM      4  H   UNL d   1      -2.720   3.864   1.212  0.00  0.00     0.191 HD
ENDROOT
BRANCH   2   5
ATOM      5  N   UNL d   1      -4.674   4.469   0.908  0.00  0.00    -0.232 N 
ATOM      6  C   UNL d   1      -4.406   5.796   0.600  0.00  0.00     0.137 A 
ATOM      7  C   UNL d   1      -5.369   6.776   1.188  0.00  0.00     0.075 A 
ATOM      8  N   UNL d   1      -3.410   6.193  -0.133  0.00  0.00    -0.383 N 
ATOM      9  C   UNL d   1      -5.239   8.159   1.043  0.00  0.00     0.132 A 
ATOM     10  C   UNL d   1      -6.450   6.251   1.931  0.00  0.00     0.050 A 
ATOM     11  F   UNL d   1      -4.212   8.710   0.382  0.00  0.00    -0.205 F 
ATOM     12  C   UNL d   1      -6.179   9.025   1.606  0.00  0.00     0.043 A 
ATOM     13  C   UNL d   1      -7.264   8.511   2.315  0.00  0.00     0.005 A 
ATOM     14  C   UNL d   1      -7.393   7.130   2.475  0.00  0.00     0.030 A 
ATOM     15  N   UNL d   1      -6.624   4.870   2.197  0.00  0.00    -0.350 N 
ATOM     16  C   UNL d   1      -5.733   4.078   1.695  0.00  0.00     0.209 A 
ATOM     17  HN  UNL d   1      -7.405   4.521   2.752  1.00  0.00     0.166 HD
ATOM     18  H   UNL d   1      -2.916   5.370  -0.492  0.00  0.00     0.157 HD
ATOM     19  HN  UNL d   1      -3.161   7.164  -0.320  1.00  0.00     0.157 HD
ENDBRANCH   2   5
BRANCH   1  20
ATOM     20  C   UNL d   1      -2.513   1.481   0.148  0.00  0.00     0.097 A 
ATOM     21  S   UNL d   1      -1.010   2.355   0.421  0.00  0.00    -0.081 SA
ATOM     22  C   UNL d   1       0.229   1.084   0.302  0.00  0.00     0.032 A 
ATOM     23  C   UNL d   1       1.574   1.461   0.439  0.00  0.00     0.021 A 
ATOM     24  C   UNL d   1      -0.096  -0.260   0.080  0.00  0.00     0.049 A 
ATOM     25  C   UNL d   1       2.591   0.510   0.357  0.00  0.00     0.002 A 
ATOM     26  C   UNL d   1       2.273  -0.826   0.143  0.00  0.00     0.002 A 
ATOM     27  C   UNL d   1       0.938  -1.209   0.009  0.00  0.00     0.031 A 
ATOM     28  N   UNL d   1      -1.425  -0.684  -0.038  0.00  0.00    -0.358 N 
ATOM     29  C   UNL d   1      -2.550   0.134  -0.034  0.00  0.00     0.028 A 
ATOM     30  H   UNL d   1      -1.568  -1.661  -0.270  0.00  0.00     0.166 HD
ATOM     31  C   UNL d   1      -3.814  -0.679  -0.235  0.00  0.00     0.070 C 
ENDBRANCH   1  20
TORSDOF 2
