REMARK  2 active torsions:
REMARK  status: ('A' for Active; 'I' for Inactive)
REMARK    1  A    between atoms: C_7  and  C_3 
REMARK    2  A    between atoms: C_11  and  C_5 
ROOT
ATOM      1  N   UNL d   1      -0.497   1.563  -0.775  0.00  0.00    -0.358 N 
ATOM      2  HN  UNL d   1      -0.335   2.095  -1.630  1.00  0.00     0.166 HD
ATOM      3  C   UNL d   1      -2.399  -0.577   0.657  0.00  0.00     0.092 C 
ATOM      4  S   UNL d   1      -1.124  -1.596  -0.225  0.00  0.00    -0.118 SA
ATOM      5  C   UNL d   1      -1.633   1.694  -0.156  0.00  0.00     0.021 C 
ATOM      6  C   UNL d   1      -2.026   0.857   1.042  0.00  0.00     0.078 C 
ATOM      7  C   UNL d   1       0.516   0.708  -0.300  0.00  0.00     0.049 A 
ATOM      8  C   UNL d   1       0.378  -0.664  -0.025  0.00  0.00     0.028 A 
ATOM      9  C   UNL d   1       1.786   1.291  -0.166  0.00  0.00     0.031 A 
ATOM     10  C   UNL d   1       1.506  -1.412   0.356  0.00  0.00     0.021 A 
ATOM     11  C   UNL d   1       2.758  -0.813   0.484  0.00  0.00     0.002 A 
ATOM     12  C   UNL d   1       2.898   0.544   0.228  0.00  0.00     0.002 A 
ENDROOT
BRANCH   3  13
ATOM     13  C   UNL d   1      -3.752  -0.700  -0.049  0.00  0.00    -0.022 A 
ATOM     14  C   UNL d   1      -4.949  -0.899   0.664  0.00  0.00     0.041 A 
ATOM     15 CL   UNL d   1      -5.023  -0.802   2.389  0.00  0.00    -0.084 Cl
ATOM     16  C   UNL d   1      -6.145  -1.183  -0.008  0.00  0.00     0.024 A 
ATOM     17  C   UNL d   1      -6.176  -1.242  -1.400  0.00  0.00     0.002 A 
ATOM     18  C   UNL d   1      -5.024  -0.963  -2.125  0.00  0.00     0.001 A 
ATOM     19  C   UNL d   1      -3.832  -0.676  -1.458  0.00  0.00     0.010 A 
ENDBRANCH   3  13
BRANCH   5  20
ATOM     20  C   UNL d   1      -2.581   2.745  -0.651  0.00  0.00    -0.014 A 
ATOM     21  C   UNL d   1      -2.591   3.061  -2.014  0.00  0.00     0.013 A 
ATOM     22  C   UNL d   1      -3.417   4.079  -2.497  0.00  0.00     0.001 A 
ATOM     23  C   UNL d   1      -4.231   4.793  -1.618  0.00  0.00     0.000 A 
ATOM     24  C   UNL d   1      -4.219   4.491  -0.261  0.00  0.00     0.001 A 
ATOM     25  C   UNL d   1      -3.393   3.474   0.227  0.00  0.00     0.013 A 
ENDBRANCH   5  20
TORSDOF 2
