REMARK  11 active torsions:
REMARK  status: ('A' for Active; 'I' for Inactive)
REMARK    1  A    between atoms: C_6  and  C_1 
REMARK    2  A    between atoms: C_7  and  C_1 
REMARK    3  A    between atoms: C_4  and  C_10 
REMARK    4  A    between atoms: C_11  and  C_5 
REMARK    5  A    between atoms: O_22  and  C_6 
REMARK    6  A    between atoms: O_21  and  C_7 
REMARK       I    between atoms: C_10  and  N_17 
REMARK    7  A    between atoms: O_20  and  C_11 
REMARK    8  A    between atoms: N_14  and  C_13 
REMARK    9  A    between atoms: N_17  and  N_14 
REMARK   10  A    between atoms: C_24  and  O_21 
REMARK   11  A    between atoms: C_23  and  O_22 
ROOT
ATOM      1  C   UNL d   1       5.202   0.507  -2.437  0.00  0.00     0.237 C 
ATOM      2  N   UNL d   1       4.628   0.103  -1.247  0.00  0.00    -0.287 N 
ATOM      3  O   UNL d   1       4.538   0.814  -3.434  0.00  0.00    -0.272 OA
ATOM      4  H   UNL d   1       5.163  -0.314  -0.491  0.00  0.00     0.184 HD
ENDROOT
BRANCH   2   5
ATOM      5  N   UNL d   1       3.248  -0.214  -1.283  0.00  0.00    -0.213 NA
ATOM      6  H   UNL d   1       2.838   0.366  -2.039  0.00  0.00     0.152 HD
BRANCH   5   7
ATOM      7  C   UNL d   1       2.532  -0.026  -0.108  0.00  0.00     0.103 C 
ATOM      8  C   UNL d   1       1.851   1.048   0.337  0.00  0.00     0.126 C 
BRANCH   8   9
ATOM      9  C   UNL d   1       1.840   2.335  -0.392  0.00  0.00     0.300 C 
ATOM     10  O   UNL d   1       1.667   3.427   0.126  0.00  0.00    -0.259 OA
BRANCH   9  11
ATOM     11  O   UNL d   1       1.981   2.118  -1.726  0.00  0.00    -0.318 OA
BRANCH  11  12
ATOM     12  C   UNL d   1       1.608   3.203  -2.583  0.00  0.00     0.174 C 
ATOM     13  C   UNL d   1       0.150   3.001  -2.933  0.00  0.00     0.034 C 
ENDBRANCH  11  12
ENDBRANCH   9  11
ENDBRANCH   8   9
BRANCH   8  14
ATOM     14  C   UNL d   1       1.126   0.893   1.621  0.00  0.00     0.300 C 
ATOM     15  O   UNL d   1       1.309  -0.029   2.405  0.00  0.00    -0.259 OA
BRANCH  14  16
ATOM     16  O   UNL d   1       0.200   1.872   1.768  0.00  0.00    -0.318 OA
BRANCH  16  17
ATOM     17  C   UNL d   1      -0.583   1.849   2.970  0.00  0.00     0.174 C 
ATOM     18  C   UNL d   1       0.200   2.432   4.133  0.00  0.00     0.034 C 
ENDBRANCH  16  17
ENDBRANCH  14  16
ENDBRANCH   8  14
ENDBRANCH   5   7
ENDBRANCH   2   5
BRANCH   1  19
ATOM     19  C   UNL d   1       6.695   0.756  -2.425  0.00  0.00     0.101 C 
ATOM     20  C   UNL d   1       7.594  -0.056  -1.466  0.00  0.00     0.022 C 
ATOM     21  C   UNL d   1       7.407  -1.532  -1.703  0.00  0.00    -0.025 C 
ATOM     22  C   UNL d   1       8.957   0.111  -2.152  0.00  0.00     0.018 C 
ATOM     23  C   UNL d   1       7.924  -1.800  -2.912  0.00  0.00    -0.025 C 
ATOM     24  C   UNL d   1       8.482  -0.507  -3.471  0.00  0.00     0.023 C 
ATOM     25  C   UNL d   1       7.290   0.411  -3.836  0.00  0.00     0.105 C 
BRANCH  25  26
ATOM     26  C   UNL d   1       7.728   1.667  -4.546  0.00  0.00     0.145 C 
ATOM     27  O   UNL d   1       8.881   1.938  -4.851  0.00  0.00    -0.650 OA
BRANCH  26  28
ATOM     28  O   UNL d   1       6.694   2.502  -4.823  0.00  0.00    -0.776 OA
ATOM     29  H   UNL d   1       5.813   2.138  -4.582  0.00  0.00     0.167 HD
ENDBRANCH  26  28
ENDBRANCH  25  26
ENDBRANCH   1  19
TORSDOF 11
