REMARK  9 active torsions:
REMARK  status: ('A' for Active; 'I' for Inactive)
REMARK    1  A    between atoms: C_13  and  N_1 
REMARK    2  A    between atoms: S_15  and  C_2 
REMARK    3  A    between atoms: C_21  and  N_3 
REMARK    4  A    between atoms: C_8  and  C_19 
REMARK    5  A    between atoms: C_20  and  C_9 
REMARK    6  A    between atoms: O_26  and  C_14 
REMARK    7  A    between atoms: C_19  and  S_15 
REMARK    8  A    between atoms: C_22  and  C_21 
REMARK    9  A    between atoms: O_27  and  C_23 
ROOT
ATOM      1  N   UNL d   1      -0.344  -1.130   0.020  0.00  0.00    -0.298 N 
ATOM      2  C   UNL d   1       0.945  -0.679  -0.290  0.00  0.00     0.152 A 
ATOM      3  N   UNL d   1       1.011   0.633  -0.380  0.00  0.00    -0.335 N 
ATOM      4  HN  UNL d   1       1.821   1.193  -0.645  1.00  0.00     0.168 HD
ATOM      5  C   UNL d   1      -1.068   0.029   0.235  0.00  0.00     0.130 A 
ATOM      6  C   UNL d   1      -0.235   1.088  -0.045  0.00  0.00     0.060 A 
ENDROOT
BRANCH   2   7
ATOM      7  S   UNL d   1       2.382  -1.663  -0.225  0.00  0.00    -0.086 SA
BRANCH   7   8
ATOM      8  C   UNL d   1       2.909  -1.716  -1.970  0.00  0.00     0.160 C 
BRANCH   8   9
ATOM      9  C   UNL d   1       4.096  -2.646  -2.155  0.00  0.00     0.110 A 
ATOM     10  N   UNL d   1       4.471  -3.123  -3.373  0.00  0.00    -0.307 N 
ATOM     11  C   UNL d   1       5.571  -3.917  -3.132  0.00  0.00     0.194 A 
ATOM     12  S   UNL d   1       6.511  -4.804  -4.170  0.00  0.00    -0.039 SA
ATOM     13  N   UNL d   1       5.789  -3.856  -1.769  0.00  0.00    -0.275 N 
ATOM     14  N   UNL d   1       4.864  -3.053  -1.178  0.00  0.00    -0.286 N 
ATOM     15  H   UNL d   1       6.520  -4.320  -1.242  0.00  0.00     0.189 HD
ATOM     16  HN  UNL d   1       4.786  -2.819  -0.189  1.00  0.00     0.188 HD
BRANCH  10  17
ATOM     17  C   UNL d   1       3.885  -2.853  -4.678  0.00  0.00     0.159 C 
BRANCH  17  18
ATOM     18  C   UNL d   1       4.591  -1.740  -5.409  0.00  0.00    -0.017 C 
ATOM     19  C   UNL d   1       5.523  -0.896  -4.943  0.00  0.00     0.008 C 
ENDBRANCH  17  18
ENDBRANCH  10  17
ENDBRANCH   8   9
ENDBRANCH   7   8
ENDBRANCH   2   7
BRANCH   1  20
ATOM     20  C   UNL d   1      -0.886  -2.462   0.024  0.00  0.00     0.074 A 
ATOM     21  C   UNL d   1      -2.042  -2.826   0.750  0.00  0.00     0.098 A 
ATOM     22  C   UNL d   1      -2.542  -4.140   0.658  0.00  0.00     0.075 A 
ATOM     23  C   UNL d   1      -1.948  -5.080  -0.182  0.00  0.00     0.070 A 
ATOM     24  C   UNL d   1      -0.809  -4.729  -0.890  0.00  0.00     0.039 A 
ATOM     25  C   UNL d   1      -0.292  -3.437  -0.797  0.00  0.00     0.036 A 
BRANCH  21  26
ATOM     26  O   UNL d   1      -2.609  -1.917   1.608  0.00  0.00    -0.354 OA
ATOM     27  C   UNL d   1      -4.005  -2.066   1.859  0.00  0.00     0.210 C 
ENDBRANCH  21  26
BRANCH  23  28
ATOM     28  O   UNL d   1      -2.373  -6.365  -0.366  0.00  0.00    -0.356 OA
ATOM     29  C   UNL d   1      -3.760  -6.592  -0.142  0.00  0.00     0.210 C 
ENDBRANCH  23  28
ENDBRANCH   1  20
BRANCH   6  30
ATOM     30  C   UNL d   1      -0.618   2.491   0.022  0.00  0.00    -0.008 A 
ATOM     31  C   UNL d   1       0.327   3.470   0.353  0.00  0.00     0.014 A 
ATOM     32  C   UNL d   1      -0.041   4.818   0.429  0.00  0.00     0.001 A 
ATOM     33  C   UNL d   1      -1.356   5.202   0.166  0.00  0.00     0.000 A 
ATOM     34  C   UNL d   1      -2.304   4.239  -0.168  0.00  0.00     0.001 A 
ATOM     35  C   UNL d   1      -1.938   2.892  -0.238  0.00  0.00     0.014 A 
ENDBRANCH   6  30
TORSDOF 9
