REMARK  1 active torsions:
REMARK  status: ('A' for Active; 'I' for Inactive)
REMARK    1  A    between atoms: C_10  and  C_9 
ROOT
ATOM      1  N   UNL d   1      -2.143  -0.709  -1.276  0.00  0.00    -0.338 N 
ATOM      2  C   UNL d   1      -1.549   0.513  -1.390  0.00  0.00     0.093 A 
ATOM      3  C   UNL d   1      -3.297   0.715   0.141  0.00  0.00     0.013 C 
ATOM      4  C   UNL d   1      -0.594   0.426  -2.377  0.00  0.00    -0.018 A 
ATOM      5  C   UNL d   1      -2.145   1.459  -0.497  0.00  0.00     0.207 C 
ATOM      6  C   UNL d   1      -1.712  -1.591  -2.205  0.00  0.00     0.046 A 
ATOM      7  C   UNL d   1      -3.186  -0.739  -0.278  0.00  0.00     0.172 C 
ATOM      8  C   UNL d   1      -0.718  -0.910  -2.923  0.00  0.00    -0.001 A 
ATOM      9  C   UNL d   1      -4.291   1.308   0.819  0.00  0.00     0.026 C 
ATOM     10  O   UNL d   1      -1.865   2.631  -0.308  0.00  0.00    -0.285 OA
ATOM     11  C   UNL d   1       0.330   1.489  -2.847  0.00  0.00     0.052 C 
ATOM     12  C   UNL d   1      -2.105  -2.903  -2.490  0.00  0.00     0.030 A 
ATOM     13  C   UNL d   1      -0.090  -1.593  -3.986  0.00  0.00     0.014 A 
ATOM     14  C   UNL d   1      -1.472  -3.546  -3.553  0.00  0.00     0.002 A 
ATOM     15  C   UNL d   1      -0.480  -2.904  -4.292  0.00  0.00     0.001 A 
ENDROOT
BRANCH   9  16
ATOM     16  C   UNL d   1      -5.470   0.530   1.223  0.00  0.00    -0.014 A 
ATOM     17  C   UNL d   1      -5.564  -0.149   2.449  0.00  0.00     0.045 A 
ATOM     18  C   UNL d   1      -6.648  -0.991   2.711  0.00  0.00     0.048 A 
ATOM     19 CL   UNL d   1      -4.336  -0.009   3.657  0.00  0.00    -0.083 Cl
ATOM     20  C   UNL d   1      -7.641  -1.160   1.749  0.00  0.00     0.035 A 
ATOM     21  C   UNL d   1      -7.574  -0.479   0.535  0.00  0.00     0.024 A 
ATOM     22 CL   UNL d   1      -8.950  -2.234   2.049  0.00  0.00    -0.084 Cl
ATOM     23  C   UNL d   1      -6.494   0.367   0.275  0.00  0.00     0.015 A 
ENDBRANCH   9  16
TORSDOF 1
