REMARK  3 active torsions:
REMARK  status: ('A' for Active; 'I' for Inactive)
REMARK    1  A    between atoms: C_10  and  C_2 
REMARK    2  A    between atoms: N_5  and  C_9 
REMARK    3  A    between atoms: N_17  and  C_6 
ROOT
ATOM      1  S   UNL d   1       0.234  -0.995  -0.707  0.00  0.00    -0.033 SA
ATOM      2  C   UNL d   1       1.567  -0.130  -0.039  0.00  0.00     0.102 A 
ATOM      3  N   UNL d   1       1.217   1.014   0.517  0.00  0.00    -0.291 N 
ATOM      4  HN  UNL d   1       1.873   1.644   0.979  1.00  0.00     0.187 HD
ATOM      5  C   UNL d   1      -0.780   0.291  -0.201  0.00  0.00     0.159 A 
ATOM      6  N   UNL d   1      -0.138   1.263   0.406  0.00  0.00    -0.279 N 
ATOM      7  HN  UNL d   1      -0.589   2.108   0.755  1.00  0.00     0.189 HD
ENDROOT
BRANCH   2   8
ATOM      8  C   UNL d   1       2.932  -0.676  -0.060  0.00  0.00    -0.001 A 
ATOM      9  C   UNL d   1       3.380  -1.542  -1.073  0.00  0.00     0.017 A 
ATOM     10  C   UNL d   1       4.679  -2.060  -1.060  0.00  0.00     0.037 A 
ATOM     11  C   UNL d   1       5.553  -1.708  -0.026  0.00  0.00     0.102 A 
ATOM     12  C   UNL d   1       5.136  -0.836   0.986  0.00  0.00     0.037 A 
ATOM     13  C   UNL d   1       3.834  -0.322   0.960  0.00  0.00     0.017 A 
BRANCH  11  14
ATOM     14  N   UNL d   1       6.913  -2.261  -0.005  0.00  0.00    -0.116 N 
ATOM     15  O   UNL d   1       7.237  -3.029  -0.922  0.00  0.00    -0.532 OA
ATOM     16  O   UNL d   1       7.656  -1.930   0.930  0.00  0.00    -0.532 OA
ENDBRANCH  11  14
ENDBRANCH   2   8
BRANCH   5  17
ATOM     17  N   UNL d   1      -2.103   0.262  -0.419  0.00  0.00    -0.379 N 
ATOM     18  H   UNL d   1      -2.531  -0.456  -0.988  0.00  0.00     0.158 HD
ATOM     19  H   UNL d   1      -2.658   1.085  -0.217  0.00  0.00     0.158 HD
ENDBRANCH   5  17
TORSDOF 3
