REMARK  4 active torsions:
REMARK  status: ('A' for Active; 'I' for Inactive)
REMARK    1  A    between atoms: C_7  and  C_1 
REMARK    2  A    between atoms: C_10  and  C_2 
REMARK    3  A    between atoms: O_19  and  C_14 
REMARK    4  A    between atoms: O_20  and  C_16 
ROOT
ATOM      1  C   UNL d   1      -2.711  -0.475  -0.030  0.00  0.00     0.060 A 
ATOM      2  C   UNL d   1      -2.110  -1.682  -0.061  0.00  0.00     0.101 A 
ATOM      3  C   UNL d   1      -1.836   0.732  -0.024  0.00  0.00     0.198 A 
ATOM      4  O   UNL d   1      -0.738  -1.887  -0.084  0.00  0.00    -0.308 OA
ATOM      5  C   UNL d   1      -0.385   0.504  -0.015  0.00  0.00     0.049 A 
ATOM      6  C   UNL d   1       0.092  -0.800  -0.045  0.00  0.00     0.093 A 
ATOM      7  C   UNL d   1       1.466  -1.042  -0.038  0.00  0.00     0.074 A 
ATOM      8  C   UNL d   1       0.509   1.583   0.025  0.00  0.00     0.021 A 
ATOM      9  O   UNL d   1      -2.286   1.875  -0.023  0.00  0.00    -0.286 OA
ATOM     10  C   UNL d   1       2.351   0.034  -0.004  0.00  0.00     0.068 A 
ATOM     11  C   UNL d   1       1.885   1.346   0.030  0.00  0.00     0.037 A 
ENDROOT
BRANCH   1  12
ATOM     12  C   UNL d   1      -4.172  -0.315   0.031  0.00  0.00    -0.019 A 
ATOM     13  C   UNL d   1      -4.815  -0.262   1.272  0.00  0.00     0.015 A 
ATOM     14  C   UNL d   1      -6.208  -0.171   1.346  0.00  0.00     0.037 A 
ATOM     15  C   UNL d   1      -6.972  -0.122   0.179  0.00  0.00     0.068 A 
ATOM     16  C   UNL d   1      -6.328  -0.150  -1.060  0.00  0.00     0.037 A 
ATOM     17  C   UNL d   1      -4.936  -0.246  -1.139  0.00  0.00     0.015 A 
BRANCH  15  18
ATOM     18  O   UNL d   1      -8.337  -0.052   0.119  0.00  0.00    -0.356 OA
ATOM     19  C   UNL d   1      -9.027  -0.035   1.363  0.00  0.00     0.210 C 
ENDBRANCH  15  18
ENDBRANCH   1  12
BRANCH   2  20
ATOM     20  C   UNL d   1      -2.837  -2.965  -0.067  0.00  0.00    -0.001 A 
ATOM     21  C   UNL d   1      -3.260  -3.535  -1.274  0.00  0.00     0.014 A 
ATOM     22  C   UNL d   1      -3.818  -4.816  -1.290  0.00  0.00     0.001 A 
ATOM     23  C   UNL d   1      -3.957  -5.532  -0.102  0.00  0.00     0.000 A 
ATOM     24  C   UNL d   1      -3.573  -4.955   1.108  0.00  0.00     0.001 A 
ATOM     25  C   UNL d   1      -3.022  -3.672   1.127  0.00  0.00     0.014 A 
ENDBRANCH   2  20
BRANCH  10  26
ATOM     26  O   UNL d   1       3.686  -0.241  -0.005  0.00  0.00    -0.361 OA
ATOM     27  H   UNL d   1       4.181   0.595  -0.020  0.00  0.00     0.217 HD
ENDBRANCH  10  26
TORSDOF 4
