REMARK  4 active torsions:
REMARK  status: ('A' for Active; 'I' for Inactive)
REMARK    1  A    between atoms: C_5  and  C_1 
REMARK    2  A    between atoms: O_9  and  C_1 
REMARK    3  A    between atoms: N_3  and  O_9 
REMARK    4  A    between atoms: C_14  and  C_13 
ROOT
ATOM      1  N   UNL d   1       2.984   1.231  -0.245  0.00  0.00    -0.268 N 
ATOM      2  HN  UNL d   1       2.472   2.113  -0.217  1.00  0.00     0.194 HD
ATOM      3  C   UNL d   1       4.247   1.123  -0.492  0.00  0.00     0.126 C 
ENDROOT
BRANCH   1   4
ATOM      4  O   UNL d   1       2.406  -0.040  -0.020  0.00  0.00    -0.195 OA
BRANCH   4   5
ATOM      5  C   UNL d   1       1.073   0.120   0.248  0.00  0.00     0.315 C 
ATOM      6  O   UNL d   1       0.462   1.176   0.346  0.00  0.00    -0.257 OA
BRANCH   5   7
ATOM      7  C   UNL d   1       0.382  -1.195   0.411  0.00  0.00     0.041 A 
ATOM      8  C   UNL d   1      -0.997  -1.167   0.683  0.00  0.00     0.019 A 
ATOM      9  C   UNL d   1      -1.721  -2.352   0.837  0.00  0.00     0.025 A 
ATOM     10  C   UNL d   1      -1.069  -3.576   0.719  0.00  0.00     0.034 A 
ATOM     11  C   UNL d   1       0.300  -3.620   0.451  0.00  0.00     0.025 A 
ATOM     12 CL   UNL d   1      -1.958  -5.037   0.901  0.00  0.00    -0.084 Cl
ATOM     13  C   UNL d   1       1.028  -2.431   0.297  0.00  0.00     0.019 A 
ENDBRANCH   5   7
ENDBRANCH   4   5
ENDBRANCH   1   4
BRANCH   3  14
ATOM     14  C   UNL d   1       5.073   2.311  -0.803  0.00  0.00    -0.017 A 
ATOM     15  C   UNL d   1       6.431   2.138  -1.084  0.00  0.00     0.040 A 
ATOM     16  C   UNL d   1       7.210   3.247  -1.425  0.00  0.00     0.073 A 
ATOM     17 CL   UNL d   1       8.879   3.024  -1.790  0.00  0.00    -0.081 Cl
ATOM     18  C   UNL d   1       6.637   4.517  -1.477  0.00  0.00     0.138 A 
ATOM     19  C   UNL d   1       5.288   4.696  -1.186  0.00  0.00     0.045 A 
ATOM     20  F   UNL d   1       7.372   5.587  -1.814  0.00  0.00    -0.204 F 
ATOM     21  C   UNL d   1       4.502   3.592  -0.846  0.00  0.00     0.016 A 
ENDBRANCH   3  14
TORSDOF 4
