REMARK  2 active torsions:
REMARK  status: ('A' for Active; 'I' for Inactive)
REMARK    1  A    between atoms: N_7  and  C_2 
REMARK    2  A    between atoms: C_10  and  N_7 
ROOT
ATOM      1  N   UNL d   1       3.221  -0.653  -0.021  0.00  0.00    -0.335 N 
ATOM      2  H   UNL d   1       3.794  -0.047   0.547  0.00  0.00     0.168 HD
ENDROOT
BRANCH   1   3
ATOM      3  C   UNL d   1       2.028  -0.146  -0.456  0.00  0.00     0.166 A 
ATOM      4  S   UNL d   1       1.768   1.570  -0.173  0.00  0.00    -0.022 SA
ATOM      5  C   UNL d   1       0.200   1.410  -0.916  0.00  0.00     0.160 A 
ATOM      6  N   UNL d   1       0.029   0.109  -1.293  0.00  0.00    -0.282 N 
ATOM      7  S   UNL d   1      -0.929   2.598  -1.147  0.00  0.00    -0.051 SA
ATOM      8  N   UNL d   1       1.043  -0.757  -1.036  0.00  0.00    -0.278 N 
ATOM      9  H   UNL d   1      -0.814  -0.237  -1.739  0.00  0.00     0.188 HD
ATOM     10  HN  UNL d   1       1.031  -1.750  -1.267  1.00  0.00     0.189 HD
ENDBRANCH   1   3
BRANCH   1  11
ATOM     11  C   UNL d   1       3.642  -1.986  -0.144  0.00  0.00     0.034 A 
ATOM     12  C   UNL d   1       3.179  -2.827  -1.164  0.00  0.00     0.036 A 
ATOM     13  C   UNL d   1       3.497  -4.193  -1.215  0.00  0.00    -0.054 A 
ATOM     14  C   UNL d   1       2.928  -5.029  -2.328  0.00  0.00     0.049 C 
ATOM     15  C   UNL d   1       4.314  -4.741  -0.213  0.00  0.00    -0.056 A 
ATOM     16  C   UNL d   1       4.801  -3.904   0.801  0.00  0.00     0.009 A 
ATOM     17  C   UNL d   1       4.657  -6.205  -0.205  0.00  0.00     0.049 C 
ATOM     18  C   UNL d   1       4.469  -2.545   0.835  0.00  0.00     0.030 A 
ENDBRANCH   1  11
TORSDOF 2
