REMARK  2 active torsions:
REMARK  status: ('A' for Active; 'I' for Inactive)
REMARK    1  A    between atoms: C_8  and  N_1 
REMARK    2  A    between atoms: C_7  and  C_2 
ROOT
ATOM      1  N   UNL d   1       0.953  -0.704  -0.001  0.00  0.00    -0.271 N 
ATOM      2  C   UNL d   1       0.930   0.676  -0.000  0.00  0.00     0.139 A 
ATOM      3  N   UNL d   1      -0.269   1.194   0.036  0.00  0.00    -0.282 N 
ATOM      4  HN  UNL d   1      -0.520   2.182   0.063  1.00  0.00     0.188 HD
ATOM      5  C   UNL d   1      -0.389  -1.067   0.027  0.00  0.00     0.199 A 
ATOM      6  N   UNL d   1      -1.106   0.125   0.029  0.00  0.00    -0.274 N 
ATOM      7  S   UNL d   1      -1.168  -2.531   0.133  0.00  0.00    -0.039 SA
ATOM      8  H   UNL d   1      -2.111   0.223   0.096  0.00  0.00     0.189 HD
ENDROOT
BRANCH   2   9
ATOM      9  C   UNL d   1       2.121   1.552  -0.086  0.00  0.00     0.010 A 
ATOM     10  C   UNL d   1       3.202   1.259  -0.925  0.00  0.00     0.017 A 
ATOM     11  C   UNL d   1       4.326   2.092  -0.933  0.00  0.00     0.025 A 
ATOM     12  C   UNL d   1       4.344   3.242  -0.145  0.00  0.00     0.034 A 
ATOM     13  C   UNL d   1       3.244   3.576   0.644  0.00  0.00     0.025 A 
ATOM     14 CL   UNL d   1       5.733   4.256  -0.148  0.00  0.00    -0.084 Cl
ATOM     15  C   UNL d   1       2.130   2.732   0.671  0.00  0.00     0.017 A 
ENDBRANCH   2   9
BRANCH   1  16
ATOM     16  C   UNL d   1       2.071  -1.578   0.090  0.00  0.00     0.043 A 
ATOM     17  C   UNL d   1       3.185  -1.251   0.880  0.00  0.00     0.030 A 
ATOM     18  C   UNL d   1       4.320  -2.067   0.904  0.00  0.00     0.002 A 
ATOM     19  C   UNL d   1       4.347  -3.245   0.164  0.00  0.00     0.000 A 
ATOM     20  C   UNL d   1       3.238  -3.607  -0.594  0.00  0.00     0.002 A 
ATOM     21  C   UNL d   1       2.113  -2.777  -0.633  0.00  0.00     0.030 A 
ENDBRANCH   1  16
TORSDOF 2
