REMARK  4 active torsions:
REMARK  status: ('A' for Active; 'I' for Inactive)
REMARK    1  A    between atoms: N_2  and  C_1 
REMARK    2  A    between atoms: S_9  and  C_3 
REMARK    3  A    between atoms: N_7  and  C_5 
REMARK    4  A    between atoms: C_13  and  S_9 
ROOT
ATOM      1  C   UNL d   1      -1.130  -1.213  -0.087  0.00  0.00     0.120 A 
ATOM      2  C   UNL d   1      -1.854  -0.016  -0.081  0.00  0.00     0.041 A 
ATOM      3  C   UNL d   1      -1.111   1.183  -0.018  0.00  0.00     0.051 A 
ATOM      4  C   UNL d   1       0.312   1.221   0.030  0.00  0.00     0.037 A 
ATOM      5  C   UNL d   1       0.266  -1.218  -0.069  0.00  0.00     0.046 A 
ATOM      6  C   UNL d   1       0.997  -0.013  -0.020  0.00  0.00    -0.033 A 
ATOM      7  C   UNL d   1       2.496  -0.171  -0.056  0.00  0.00     0.050 C 
ENDROOT
BRANCH   2   8
ATOM      8  S   UNL d   1      -3.641   0.090  -0.020  0.00  0.00    -0.088 SA
BRANCH   8   9
ATOM      9  C   UNL d   1      -4.140   0.059  -1.733  0.00  0.00     0.005 A 
ATOM     10  C   UNL d   1      -5.013  -0.939  -2.183  0.00  0.00     0.019 A 
ATOM     11  C   UNL d   1      -5.481  -0.937  -3.505  0.00  0.00     0.008 A 
ATOM     12  C   UNL d   1      -5.095   0.071  -4.394  0.00  0.00    -0.062 A 
ATOM     13  C   UNL d   1      -4.236   1.078  -3.939  0.00  0.00     0.008 A 
ATOM     14  C   UNL d   1      -5.603   0.065  -5.806  0.00  0.00     0.048 C 
ATOM     15  C   UNL d   1      -3.765   1.072  -2.619  0.00  0.00     0.019 A 
ENDBRANCH   8   9
ENDBRANCH   2   8
BRANCH   1  16
ATOM     16  N   UNL d   1      -1.788  -2.503  -0.038  0.00  0.00    -0.114 N 
ATOM     17  O   UNL d   1      -2.451  -2.769   0.970  0.00  0.00    -0.532 OA
ATOM     18  O   UNL d   1      -1.562  -3.278  -0.979  0.00  0.00    -0.532 OA
ENDBRANCH   1  16
BRANCH   4  19
ATOM     19  N   UNL d   1       0.986   2.428   0.087  0.00  0.00    -0.376 N 
ATOM     20  C   UNL d   1       0.454   3.692  -0.449  0.00  0.00     0.149 C 
ATOM     21  C   UNL d   1       1.634   4.529  -0.993  0.00  0.00     0.187 C 
ATOM     22  O   UNL d   1       2.655   4.740   0.002  0.00  0.00    -0.388 OA
ATOM     23  C   UNL d   1       3.141   3.480   0.501  0.00  0.00     0.187 C 
ATOM     24  C   UNL d   1       1.997   2.673   1.140  0.00  0.00     0.149 C 
ENDBRANCH   4  19
TORSDOF 4
