REMARK  4 active torsions:
REMARK  status: ('A' for Active; 'I' for Inactive)
REMARK    1  A    between atoms: C_10  and  C_1 
REMARK    2  A    between atoms: C_3  and  C_11 
REMARK    3  A    between atoms: C_18  and  C_6 
REMARK       I    between atoms: N_16  and  C_10 
REMARK       I    between atoms: C_11  and  N_17 
REMARK    4  A    between atoms: N_17  and  N_16 
ROOT
ATOM      1  C   UNL d   1      -0.245  -2.588   0.117  0.00  0.00     0.279 C 
ATOM      2  N   UNL d   1       0.911  -3.347   0.232  0.00  0.00    -0.262 N 
ATOM      3  O   UNL d   1      -1.335  -3.162   0.030  0.00  0.00    -0.265 OA
ATOM      4  H   UNL d   1       1.838  -2.950   0.376  0.00  0.00     0.190 HD
ENDROOT
BRANCH   1   5
ATOM      5  C   UNL d   1      -0.102  -1.143   0.107  0.00  0.00     0.098 A 
ATOM      6  S   UNL d   1       1.419  -0.348   0.118  0.00  0.00    -0.064 SA
ATOM      7  C   UNL d   1       0.639   1.188   0.035  0.00  0.00     0.085 A 
ATOM      8  N   UNL d   1      -0.677   1.124   0.053  0.00  0.00    -0.352 N 
ATOM      9  C   UNL d   1      -1.111  -0.192   0.067  0.00  0.00     0.029 A 
ATOM     10  HN  UNL d   1      -1.294   1.936   0.056  1.00  0.00     0.166 HD
ATOM     11  C   UNL d   1      -2.579  -0.435   0.029  0.00  0.00     0.070 C 
BRANCH   7  12
ATOM     12  C   UNL d   1       1.393   2.455  -0.021  0.00  0.00    -0.002 A 
ATOM     13  C   UNL d   1       2.671   2.557  -0.595  0.00  0.00     0.014 A 
ATOM     14  C   UNL d   1       3.331   3.790  -0.659  0.00  0.00     0.001 A 
ATOM     15  C   UNL d   1       2.728   4.938  -0.154  0.00  0.00     0.000 A 
ATOM     16  C   UNL d   1       1.459   4.858   0.413  0.00  0.00     0.001 A 
ATOM     17  C   UNL d   1       0.798   3.628   0.474  0.00  0.00     0.014 A 
ENDBRANCH   7  12
ENDBRANCH   1   5
BRANCH   2  18
ATOM     18  N   UNL d   1       0.780  -4.746   0.260  0.00  0.00    -0.262 N 
ATOM     19  C   UNL d   1       1.885  -5.556   0.466  0.00  0.00     0.280 C 
ATOM     20  O   UNL d   1       3.007  -5.057   0.567  0.00  0.00    -0.265 OA
ATOM     21  H   UNL d   1      -0.166  -5.108   0.146  0.00  0.00     0.190 HD
BRANCH  19  22
ATOM     22  C   UNL d   1       1.627  -6.979   0.554  0.00  0.00     0.115 A 
ATOM     23  C   UNL d   1       2.498  -8.061   0.658  0.00  0.00     0.046 A 
ATOM     24  N   UNL d   1       1.871  -9.304   0.737  0.00  0.00    -0.298 N 
ATOM     25  C   UNL d   1       3.983  -8.072   0.689  0.00  0.00     0.071 C 
ATOM     26  N   UNL d   1       0.556  -9.203   0.703  0.00  0.00    -0.269 N 
ATOM     27  HN  UNL d   1       2.371 -10.190   0.811  1.00  0.00     0.187 HD
ATOM     28  S   UNL d   1       0.035  -7.628   0.573  0.00  0.00     0.009 SA
ATOM     29  HN  UNL d   1      -0.074 -10.004   0.752  1.00  0.00     0.195 HD
ENDBRANCH  19  22
ENDBRANCH   2  18
TORSDOF 4
