REMARK  7 active torsions:
REMARK  status: ('A' for Active; 'I' for Inactive)
REMARK    1  A    between atoms: C_16  and  N_1 
REMARK    2  A    between atoms: S_15  and  C_2 
REMARK    3  A    between atoms: O_22  and  C_3 
REMARK    4  A    between atoms: C_8  and  C_14 
REMARK    5  A    between atoms: C_19  and  C_13 
REMARK    6  A    between atoms: C_14  and  C_17 
REMARK    7  A    between atoms: C_17  and  S_15 
ROOT
ATOM      1  N   UNL d   1       0.486   0.488  -0.286  0.00  0.00    -0.254 N 
ATOM      2  C   UNL d   1       0.959  -0.809  -0.106  0.00  0.00     0.169 A 
ATOM      3  C   UNL d   1      -0.693   0.495   0.456  0.00  0.00     0.245 A 
ATOM      4  N   UNL d   1       0.103  -1.520   0.592  0.00  0.00    -0.276 N 
ATOM      5  HN  UNL d   1       0.189  -2.511   0.819  1.00  0.00     0.189 HD
ATOM      6  N   UNL d   1      -0.925  -0.697   0.960  0.00  0.00    -0.263 N 
ATOM      7  HN  UNL d   1      -1.731  -0.961   1.527  1.00  0.00     0.190 HD
ENDROOT
BRANCH   2   8
ATOM      8  S   UNL d   1       2.548  -1.367  -0.523  0.00  0.00    -0.084 SA
BRANCH   8   9
ATOM      9  C   UNL d   1       2.465  -3.136  -0.070  0.00  0.00     0.168 C 
BRANCH   9  10
ATOM     10  C   UNL d   1       3.822  -3.821  -0.253  0.00  0.00     0.194 C 
ATOM     11  O   UNL d   1       4.836  -3.209  -0.583  0.00  0.00    -0.289 OA
BRANCH  10  12
ATOM     12  C   UNL d   1       3.860  -5.248  -0.027  0.00  0.00     0.147 A 
ATOM     13  C   UNL d   1       4.874  -6.167  -0.178  0.00  0.00     0.075 A 
ATOM     14  C   UNL d   1       4.294  -7.422   0.147  0.00  0.00     0.068 A 
ATOM     15  N   UNL d   1       3.015  -7.247   0.522  0.00  0.00    -0.260 N 
ATOM     16  O   UNL d   1       2.747  -5.899   0.402  0.00  0.00    -0.234 OA
ATOM     17  HN  UNL d   1       2.367  -7.970   0.834  1.00  0.00     0.195 HD
BRANCH  14  18
ATOM     18  C   UNL d   1       4.909  -8.751   0.084  0.00  0.00    -0.007 A 
ATOM     19  C   UNL d   1       4.430  -9.799   0.885  0.00  0.00     0.014 A 
ATOM     20  C   UNL d   1       4.991 -11.077   0.801  0.00  0.00     0.001 A 
ATOM     21  C   UNL d   1       6.035 -11.324  -0.088  0.00  0.00     0.000 A 
ATOM     22  C   UNL d   1       6.524 -10.293  -0.887  0.00  0.00     0.001 A 
ATOM     23  C   UNL d   1       5.967  -9.012  -0.799  0.00  0.00     0.014 A 
ENDBRANCH  14  18
ENDBRANCH  10  12
ENDBRANCH   9  10
ENDBRANCH   8   9
ENDBRANCH   2   8
BRANCH   1  24
ATOM     24  C   UNL d   1       1.003   1.556  -1.070  0.00  0.00     0.060 A 
ATOM     25  C   UNL d   1       1.699   1.310  -2.248  0.00  0.00     0.117 A 
ATOM     26  N   UNL d   1       2.113   2.281  -3.097  0.00  0.00    -0.373 N 
ATOM     27  C   UNL d   1       1.832   3.557  -2.763  0.00  0.00     0.088 A 
ATOM     28  HN  UNL d   1       2.618   2.057  -3.955  1.00  0.00     0.164 HD
ATOM     29  C   UNL d   1       1.168   3.909  -1.602  0.00  0.00     0.019 A 
ATOM     30  C   UNL d   1       0.759   2.894  -0.736  0.00  0.00     0.033 A 
ENDBRANCH   1  24
BRANCH   3  31
ATOM     31  O   UNL d   1      -1.563   1.486   0.591  0.00  0.00    -0.331 OA
ATOM     32  H   UNL d   1      -1.501   2.069  -0.180  0.00  0.00     0.221 HD
ENDBRANCH   3  31
TORSDOF 7
