REMARK  6 active torsions:
REMARK  status: ('A' for Active; 'I' for Inactive)
REMARK    1  A    between atoms: C_2  and  C_1 
REMARK       I    between atoms: N_4  and  C_2 
REMARK    2  A    between atoms: C_3  and  N_5 
REMARK    3  A    between atoms: N_7  and  C_3 
REMARK    4  A    between atoms: N_5  and  N_4 
REMARK    5  A    between atoms: O_15  and  C_6 
REMARK    6  A    between atoms: C_13  and  N_7 
ROOT
ATOM      1  C   UNL d   1      -1.478  -2.340   0.411  0.00  0.00     0.273 C 
ATOM      2  N   UNL d   1      -1.088  -3.662   0.425  0.00  0.00    -0.264 N 
ATOM      3  O   UNL d   1      -0.765  -1.423   0.005  0.00  0.00    -0.266 OA
ATOM      4  H   UNL d   1      -1.731  -4.437   0.580  0.00  0.00     0.190 HD
ENDROOT
BRANCH   2   5
ATOM      5  N   UNL d   1       0.198  -3.986  -0.036  0.00  0.00    -0.273 N 
ATOM      6  H   UNL d   1       0.875  -3.228   0.051  0.00  0.00     0.189 HD
BRANCH   5   7
ATOM      7  C   UNL d   1       0.652  -5.283   0.016  0.00  0.00     0.191 C 
ATOM      8  S   UNL d   1      -0.324  -6.614   0.312  0.00  0.00    -0.039 SA
BRANCH   7   9
ATOM      9  N   UNL d   1       2.002  -5.476  -0.099  0.00  0.00    -0.332 N 
ATOM     10  H   UNL d   1       2.321  -6.366   0.267  0.00  0.00     0.168 HD
BRANCH   9  11
ATOM     11  C   UNL d   1       2.992  -4.623  -0.620  0.00  0.00     0.034 A 
ATOM     12  C   UNL d   1       4.296  -4.765  -0.138  0.00  0.00     0.029 A 
ATOM     13  C   UNL d   1       5.317  -3.938  -0.614  0.00  0.00     0.002 A 
ATOM     14  C   UNL d   1       5.047  -2.999  -1.607  0.00  0.00     0.000 A 
ATOM     15  C   UNL d   1       3.759  -2.888  -2.127  0.00  0.00     0.002 A 
ATOM     16  C   UNL d   1       2.732  -3.695  -1.632  0.00  0.00     0.029 A 
ENDBRANCH   9  11
ENDBRANCH   7   9
ENDBRANCH   5   7
ENDBRANCH   2   5
BRANCH   1  17
ATOM     17  C   UNL d   1      -2.855  -2.040   0.876  0.00  0.00     0.068 A 
ATOM     18  C   UNL d   1      -3.532  -0.928   0.353  0.00  0.00     0.081 A 
ATOM     19  C   UNL d   1      -4.833  -0.632   0.756  0.00  0.00     0.039 A 
ATOM     20  C   UNL d   1      -5.458  -1.428   1.715  0.00  0.00     0.026 A 
ATOM     21  C   UNL d   1      -4.776  -2.512   2.267  0.00  0.00     0.035 A 
ATOM     22  C   UNL d   1      -3.479  -2.826   1.855  0.00  0.00     0.044 A 
ATOM     23 CL   UNL d   1      -5.536  -3.467   3.480  0.00  0.00    -0.084 Cl
BRANCH  18  24
ATOM     24  O   UNL d   1      -2.974  -0.079  -0.565  0.00  0.00    -0.360 OA
ATOM     25  H   UNL d   1      -2.010  -0.270  -0.614  0.00  0.00     0.217 HD
ENDBRANCH  18  24
ENDBRANCH   1  17
TORSDOF 6
