REMARK  0 active torsions:
REMARK  status: ('A' for Active; 'I' for Inactive)
ROOT
ATOM      1  C   UNL d   1      -1.746   0.159  -0.284  0.00  0.00     0.094 C 
ATOM      2  C   UNL d   1      -3.225   1.787   0.047  0.00  0.00     0.361 C 
ATOM      3  C   UNL d   1      -1.344   0.950   0.951  0.00  0.00     0.126 C 
ATOM      4  N   UNL d   1      -2.083   2.144   0.747  0.00  0.00    -0.329 N 
ATOM      5  O   UNL d   1      -3.117   0.496  -0.427  0.00  0.00    -0.291 OA
ATOM      6  C   UNL d   1       0.180   0.958   1.104  0.00  0.00     0.012 C 
ATOM      7  C   UNL d   1      -1.002   0.617  -1.562  0.00  0.00     0.045 C 
ATOM      8  C   UNL d   1      -1.421  -1.307   0.013  0.00  0.00     0.045 C 
ATOM      9  C   UNL d   1       0.112  -1.432   0.225  0.00  0.00    -0.011 C 
ATOM     10  C   UNL d   1       0.505   0.489  -1.363  0.00  0.00    -0.011 C 
ATOM     11  C   UNL d   1       0.901   1.395  -0.183  0.00  0.00     0.011 C 
ATOM     12  C   UNL d   1       0.586  -0.512   1.382  0.00  0.00     0.011 C 
ATOM     13  O   UNL d   1      -4.208   2.497  -0.089  0.00  0.00    -0.238 OA
ATOM     14  C   UNL d   1       0.828  -0.985  -1.062  0.00  0.00     0.009 C 
ATOM     15  H   UNL d   1      -2.232   2.854   1.455  0.00  0.00     0.165 HD
ENDROOT
TORSDOF 0
