REMARK  3 active torsions:
REMARK  status: ('A' for Active; 'I' for Inactive)
REMARK    1  A    between atoms: C_8  and  CA_1 
REMARK    2  A    between atoms: N_5  and  C_2 
REMARK    3  A    between atoms: OXT_14  and  C_8 
ROOT
ATOM      1  CA  UNL d   1       0.058  -1.866   0.024  0.00  0.00     0.149 A 
ATOM      2  C   UNL d   1       1.224  -1.208  -0.020  0.00  0.00     0.204 A 
ATOM      3  C   UNL d   1       1.264   0.256  -0.142  0.00  0.00     0.285 A 
ATOM      4  N   UNL d   1       0.046   0.884  -0.067  0.00  0.00    -0.273 N 
ATOM      5  N   UNL d   1      -1.109  -1.110   0.011  0.00  0.00    -0.301 N 
ATOM      6  C   UNL d   1      -1.164   0.252  -0.026  0.00  0.00     0.327 A 
ATOM      7  O   UNL d   1       2.292   0.889  -0.344  0.00  0.00    -0.265 OA
ATOM      8  O   UNL d   1      -2.222   0.867  -0.032  0.00  0.00    -0.247 OA
ATOM      9  H   UNL d   1       0.031   1.892  -0.145  0.00  0.00     0.173 HD
ATOM     10  H   UNL d   1      -2.000  -1.606   0.089  0.00  0.00     0.171 HD
ENDROOT
BRANCH   1  11
ATOM     11  C   UNL d   1      -0.206  -3.329   0.172  0.00  0.00     0.196 C 
ATOM     12  O   UNL d   1      -1.314  -3.693   0.554  0.00  0.00    -0.645 OA
BRANCH  11  13
ATOM     13  OXT UNL d   1       0.737  -4.221  -0.156  0.00  0.00    -0.772 OA
ATOM     14  HXT UNL d   1       1.554  -3.945  -0.628  0.00  0.00     0.167 HD
ENDBRANCH  11  13
ENDBRANCH   1  11
BRANCH   2  15
ATOM     15  N   UNL d   1       2.465  -1.896   0.054  0.00  0.00    -0.107 N 
ATOM     16  O   UNL d   1       2.688  -2.733  -0.833  0.00  0.00    -0.531 OA
ATOM     17  O   UNL d   1       3.184  -1.673   1.031  0.00  0.00    -0.531 OA
ENDBRANCH   2  15
TORSDOF 3
