REMARK  5 active torsions:
REMARK  status: ('A' for Active; 'I' for Inactive)
REMARK    1  A    between atoms: N_2  and  S_1 
REMARK    2  A    between atoms: C_9  and  S_1 
REMARK    3  A    between atoms: C_5  and  C_6 
REMARK    4  A    between atoms: C_12  and  C_17 
REMARK    5  A    between atoms: C_13  and  C_18 
ROOT
ATOM      1  S   UNL d   1       0.901  -0.007   0.073  0.00  0.00     0.282 S 
ATOM      2  O   UNL d   1       1.363  -1.108  -0.752  0.00  0.00    -0.198 OA
ATOM      3  O   UNL d   1       1.796   1.038   0.535  0.00  0.00    -0.198 OA
ENDROOT
BRANCH   1   4
ATOM      4  N   UNL d   1       0.248  -0.735   1.506  0.00  0.00    -0.188 N 
ATOM      5  N   UNL d   1      -0.377  -0.068   2.517  0.00  0.00    -0.282 N 
ATOM      6  C   UNL d   1      -0.434  -0.968   3.510  0.00  0.00     0.086 A 
ATOM      7  HN  UNL d   1      -0.722   0.892   2.518  1.00  0.00     0.188 HD
ATOM      8  C   UNL d   1       0.034  -2.236   3.098  0.00  0.00     0.054 A 
ATOM      9  C   UNL d   1       0.455  -2.062   1.801  0.00  0.00     0.132 A 
BRANCH   6  10
ATOM     10  C   UNL d   1      -0.904  -0.641   4.888  0.00  0.00     0.127 A 
ATOM     11  C   UNL d   1      -1.407   0.560   5.356  0.00  0.00     0.043 A 
ATOM     12  N   UNL d   1      -1.679   0.463   6.705  0.00  0.00    -0.342 N 
ATOM     13  C   UNL d   1      -1.661   1.826   4.635  0.00  0.00     0.071 C 
ATOM     14  C   UNL d   1      -1.335  -0.769   7.011  0.00  0.00     0.120 A 
ATOM     15  HN  UNL d   1      -2.059   1.180   7.322  1.00  0.00     0.167 HD
ATOM     16  O   UNL d   1      -0.873  -1.507   5.957  0.00  0.00    -0.294 OA
ATOM     17  C   UNL d   1      -1.376  -1.425   8.334  0.00  0.00     0.098 C 
ENDBRANCH   6  10
ENDBRANCH   1   4
BRANCH   1  18
ATOM     18  C   UNL d   1      -0.461   0.771  -0.761  0.00  0.00     0.083 A 
ATOM     19  C   UNL d   1      -1.152   1.818  -0.143  0.00  0.00     0.041 A 
ATOM     20  C   UNL d   1      -2.135   2.527  -0.853  0.00  0.00     0.050 A 
ATOM     21  C   UNL d   1      -2.409   2.166  -2.187  0.00  0.00     0.032 A 
ATOM     22  C   UNL d   1      -1.705   1.128  -2.822  0.00  0.00     0.050 A 
ATOM     23  C   UNL d   1      -0.732   0.427  -2.092  0.00  0.00     0.041 A 
BRANCH  20  24
ATOM     24  C   UNL d   1      -2.866   3.693  -0.224  0.00  0.00     0.417 C 
ATOM     25  F   UNL d   1      -2.464   3.964   1.047  0.00  0.00    -0.166 F 
ATOM     26  F   UNL d   1      -2.696   4.846  -0.927  0.00  0.00    -0.166 F 
ATOM     27  F   UNL d   1      -4.210   3.486  -0.159  0.00  0.00    -0.166 F 
ENDBRANCH  20  24
BRANCH  22  28
ATOM     28  C   UNL d   1      -1.970   0.814  -4.279  0.00  0.00     0.417 C 
ATOM     29  F   UNL d   1      -1.171  -0.169  -4.776  0.00  0.00    -0.166 F 
ATOM     30  F   UNL d   1      -3.249   0.408  -4.499  0.00  0.00    -0.166 F 
ATOM     31  F   UNL d   1      -1.775   1.897  -5.082  0.00  0.00    -0.166 F 
ENDBRANCH  22  28
ENDBRANCH   1  18
TORSDOF 5
