REMARK  6 active torsions:
REMARK  status: ('A' for Active; 'I' for Inactive)
REMARK    1  A    between atoms: C_3  and  C_1 
REMARK    2  A    between atoms: C_4  and  C_2 
REMARK       I    between atoms: N_6  and  C_3 
REMARK    3  A    between atoms: C_15  and  N_6 
REMARK    4  A    between atoms: S_16  and  C_9 
REMARK    5  A    between atoms: C_23  and  S_16 
REMARK    6  A    between atoms: C_24  and  C_23 
ROOT
ATOM      1  C   UNL d   1       0.813   1.223  -0.247  0.00  0.00     0.062 A 
ATOM      2  C   UNL d   1       1.564   0.063  -0.028  0.00  0.00     0.067 A 
ATOM      3  C   UNL d   1      -0.555   1.047  -0.483  0.00  0.00     0.106 A 
ATOM      4  N   UNL d   1      -1.210  -0.143  -0.468  0.00  0.00    -0.360 N 
ATOM      5  HN  UNL d   1      -2.212  -0.200  -0.652  1.00  0.00     0.166 HD
ATOM      6  C   UNL d   1      -0.485  -1.240  -0.201  0.00  0.00     0.070 A 
ATOM      7  C   UNL d   1       0.881  -1.178   0.020  0.00  0.00     0.054 A 
ENDROOT
BRANCH   1   8
ATOM      8  C   UNL d   1       1.250   2.654  -0.241  0.00  0.00     0.258 C 
ATOM      9  N   UNL d   1       2.261   3.024   0.629  0.00  0.00    -0.323 N 
ATOM     10  H   UNL d   1       2.867   2.310   1.008  0.00  0.00     0.169 HD
ATOM     11  O   UNL d   1       0.639   3.424  -0.974  0.00  0.00    -0.267 OA
BRANCH   9  12
ATOM     12  C   UNL d   1       2.623   4.346   0.982  0.00  0.00     0.035 A 
ATOM     13  C   UNL d   1       1.824   5.464   0.726  0.00  0.00     0.031 A 
ATOM     14  C   UNL d   1       2.206   6.733   1.178  0.00  0.00     0.026 A 
ATOM     15  C   UNL d   1       3.396   6.890   1.882  0.00  0.00     0.034 A 
ATOM     16  C   UNL d   1       4.212   5.789   2.130  0.00  0.00     0.026 A 
ATOM     17 CL   UNL d   1       3.854   8.443   2.459  0.00  0.00    -0.084 Cl
ATOM     18  C   UNL d   1       3.823   4.521   1.685  0.00  0.00     0.031 A 
ENDBRANCH   9  12
ENDBRANCH   1   8
BRANCH   2  19
ATOM     19  C   UNL d   1       3.052  -0.004   0.145  0.00  0.00     0.418 C 
ATOM     20  F   UNL d   1       3.715   1.148  -0.128  0.00  0.00    -0.166 F 
ATOM     21  F   UNL d   1       3.393  -0.316   1.425  0.00  0.00    -0.166 F 
ATOM     22  F   UNL d   1       3.631  -0.953  -0.639  0.00  0.00    -0.166 F 
ENDBRANCH   2  19
BRANCH   6  23
ATOM     23  S   UNL d   1      -1.321  -2.807  -0.064  0.00  0.00    -0.112 SA
BRANCH  23  24
ATOM     24  C   UNL d   1      -2.765  -2.517  -1.143  0.00  0.00     0.080 C 
BRANCH  24  25
ATOM     25  C   UNL d   1      -3.685  -3.736  -1.108  0.00  0.00     0.006 C 
ATOM     26  C   UNL d   1      -4.848  -3.580  -2.078  0.00  0.00     0.006 C 
ENDBRANCH  24  25
ENDBRANCH  23  24
ENDBRANCH   6  23
TORSDOF 6
