REMARK  2 active torsions:
REMARK  status: ('A' for Active; 'I' for Inactive)
REMARK    1  A    between atoms: C_4  and  C_2 
REMARK    2  A    between atoms: O_14  and  C_3 
ROOT
ATOM      1  C   UNL d   1       0.963  -0.099  -0.011  0.00  0.00     0.110 A 
ATOM      2  C   UNL d   1       0.248  -1.307  -0.021  0.00  0.00     0.074 A 
ATOM      3  C   UNL d   1       0.228   1.085  -0.015  0.00  0.00     0.164 A 
ATOM      4  N   UNL d   1      -1.126   1.128  -0.022  0.00  0.00    -0.340 N 
ATOM      5  HN  UNL d   1      -1.619   2.020  -0.029  1.00  0.00     0.167 HD
ATOM      6  C   UNL d   1       2.395  -0.043   0.011  0.00  0.00     0.104 C 
ATOM      7  N   UNL d   1       3.554  -0.029   0.033  0.00  0.00    -0.191 NA
ATOM      8  C   UNL d   1      -1.159  -1.260  -0.022  0.00  0.00     0.042 A 
ATOM      9  C   UNL d   1      -1.805  -0.034  -0.019  0.00  0.00     0.008 A 
ATOM     10  C   UNL d   1      -3.300   0.054  -0.004  0.00  0.00     0.068 C 
ENDROOT
BRANCH   2  11
ATOM     11  C   UNL d   1       0.892  -2.671  -0.020  0.00  0.00     0.419 C 
ATOM     12  F   UNL d   1       2.246  -2.682  -0.050  0.00  0.00    -0.166 F 
ATOM     13  F   UNL d   1       0.537  -3.393   1.079  0.00  0.00    -0.166 F 
ATOM     14  F   UNL d   1       0.492  -3.414  -1.090  0.00  0.00    -0.166 F 
ENDBRANCH   2  11
BRANCH   3  15
ATOM     15  O   UNL d   1       0.906   2.288  -0.005  0.00  0.00    -0.340 OA
ATOM     16  C   UNL d   1       0.038   3.422  -0.025  0.00  0.00     0.211 C 
ENDBRANCH   3  15
TORSDOF 2
