REMARK  4 active torsions:
REMARK  status: ('A' for Active; 'I' for Inactive)
REMARK    1  A    between atoms: C_5  and  C_1 
REMARK    2  A    between atoms: C_2  and  N_7 
REMARK    3  A    between atoms: C_16  and  C_3 
REMARK       I    between atoms: N_7  and  C_5 
REMARK    4  A    between atoms: C_17  and  C_15 
ROOT
ATOM      1  C   UNL d   1      -0.280  -2.656  -0.004  0.00  0.00     0.277 C 
ATOM      2  N   UNL d   1       0.486  -3.667   0.620  0.00  0.00    -0.296 N 
ATOM      3  O   UNL d   1      -1.363  -2.877  -0.543  0.00  0.00    -0.265 OA
ATOM      4  C   UNL d   1       1.662  -3.363   1.442  0.00  0.00     0.162 C 
ENDROOT
BRANCH   1   5
ATOM      5  C   UNL d   1       0.200  -1.272   0.008  0.00  0.00     0.120 A 
ATOM      6  N   UNL d   1      -0.615  -0.157  -0.005  0.00  0.00    -0.291 N 
ATOM      7  N   UNL d   1       0.060   1.011   0.027  0.00  0.00    -0.302 N 
ATOM      8  C   UNL d   1      -2.060  -0.067  -0.036  0.00  0.00     0.178 C 
ATOM      9  C   UNL d   1       1.345   0.666  -0.043  0.00  0.00     0.036 A 
ATOM     10  HN  UNL d   1      -0.329   1.952   0.090  1.00  0.00     0.186 HD
ATOM     11  C   UNL d   1       1.479  -0.741  -0.085  0.00  0.00     0.064 A 
BRANCH   9  12
ATOM     12  C   UNL d   1       2.461   1.700  -0.070  0.00  0.00    -0.007 C 
ATOM     13  C   UNL d   1       3.312   1.520  -1.343  0.00  0.00     0.021 C 
ATOM     14  C   UNL d   1       1.924   3.147  -0.055  0.00  0.00     0.021 C 
ATOM     15  C   UNL d   1       3.368   1.517   1.165  0.00  0.00     0.021 C 
ENDBRANCH   9  12
ENDBRANCH   1   5
BRANCH   2  16
ATOM     16  C   UNL d   1       0.083  -5.017   0.581  0.00  0.00     0.170 A 
ATOM     17  S   UNL d   1      -1.130  -5.632  -0.460  0.00  0.00    -0.029 SA
ATOM     18  C   UNL d   1      -0.826  -7.199   0.170  0.00  0.00     0.177 A 
ATOM     19  N   UNL d   1       0.120  -7.215   1.088  0.00  0.00    -0.288 N 
ATOM     20  N   UNL d   1       0.649  -5.964   1.306  0.00  0.00    -0.279 N 
ATOM     21  HN  UNL d   1       0.423  -8.056   1.579  1.00  0.00     0.187 HD
ATOM     22  HN  UNL d   1       1.407  -5.785   1.965  1.00  0.00     0.189 HD
BRANCH  18  23
ATOM     23  C   UNL d   1      -1.569  -8.392  -0.328  0.00  0.00     0.440 C 
ATOM     24  F   UNL d   1      -2.507  -8.093  -1.269  0.00  0.00    -0.164 F 
ATOM     25  F   UNL d   1      -0.737  -9.303  -0.901  0.00  0.00    -0.164 F 
ATOM     26  F   UNL d   1      -2.228  -9.040   0.670  0.00  0.00    -0.164 F 
ENDBRANCH  18  23
ENDBRANCH   2  16
TORSDOF 4
