REMARK  7 active torsions:
REMARK  status: ('A' for Active; 'I' for Inactive)
REMARK       I    between atoms: N_3  and  C_1 
REMARK    1  A    between atoms: C_5  and  C_1 
REMARK       I    between atoms: C_2  and  N_4 
REMARK    2  A    between atoms: C_15  and  C_2 
REMARK    3  A    between atoms: N_4  and  N_3 
REMARK    4  A    between atoms: C_9  and  C_18 
REMARK    5  A    between atoms: S_12  and  C_15 
REMARK    6  A    between atoms: C_18  and  S_12 
REMARK    7  A    between atoms: O_19  and  C_14 
ROOT
ATOM      1  C   UNL d   1       0.066  -2.918   2.439  0.00  0.00     0.245 C 
ATOM      2  N   UNL d   1      -0.175  -1.668   2.970  0.00  0.00    -0.267 N 
ATOM      3  O   UNL d   1      -0.269  -3.229   1.293  0.00  0.00    -0.271 OA
ATOM      4  H   UNL d   1      -0.082  -1.466   3.970  0.00  0.00     0.190 HD
ENDROOT
BRANCH   1   5
ATOM      5  C   UNL d   1       0.754  -3.876   3.382  0.00  0.00     0.178 C 
BRANCH   5   6
ATOM      6  S   UNL d   1      -0.444  -4.585   4.556  0.00  0.00    -0.155 SA
BRANCH   6   7
ATOM      7  C   UNL d   1      -1.496  -5.463   3.385  0.00  0.00     0.113 C 
BRANCH   7   8
ATOM      8  C   UNL d   1      -2.599  -6.426   3.809  0.00  0.00    -0.038 C 
ATOM      9  C   UNL d   1      -2.786  -7.067   5.073  0.00  0.00    -0.019 C 
ATOM     10  C   UNL d   1      -3.595  -8.236   5.115  0.00  0.00    -0.025 C 
ATOM     11  C   UNL d   1      -2.238  -6.658   6.313  0.00  0.00     0.013 C 
ATOM     12  C   UNL d   1      -3.622  -9.043   6.264  0.00  0.00     0.012 C 
ATOM     13  C   UNL d   1      -4.360  -8.617   4.005  0.00  0.00     0.012 C 
ATOM     14  C   UNL d   1      -2.938  -8.677   7.418  0.00  0.00     0.001 C 
ATOM     15  C   UNL d   1      -2.302  -7.449   7.463  0.00  0.00     0.001 C 
ATOM     16  C   UNL d   1      -4.284  -7.911   2.815  0.00  0.00     0.001 C 
ATOM     17  C   UNL d   1      -3.384  -6.860   2.709  0.00  0.00     0.009 C 
ENDBRANCH   7   8
ENDBRANCH   6   7
ENDBRANCH   5   6
ENDBRANCH   1   5
BRANCH   2  18
ATOM     18  N   UNL d   1      -0.962  -0.775   2.243  0.00  0.00    -0.263 N 
ATOM     19  C   UNL d   1      -1.232   0.454   2.802  0.00  0.00     0.270 C 
ATOM     20  O   UNL d   1      -0.850   0.761   3.928  0.00  0.00    -0.266 OA
ATOM     21  H   UNL d   1      -1.126  -1.014   1.262  0.00  0.00     0.190 HD
BRANCH  19  22
ATOM     22  C   UNL d   1      -1.993   1.421   1.965  0.00  0.00     0.033 A 
ATOM     23  C   UNL d   1      -2.838   1.014   0.925  0.00  0.00     0.020 A 
ATOM     24  C   UNL d   1      -3.528   1.967   0.165  0.00  0.00     0.038 A 
ATOM     25  C   UNL d   1      -3.378   3.327   0.441  0.00  0.00     0.068 A 
ATOM     26  C   UNL d   1      -2.566   3.727   1.498  0.00  0.00     0.038 A 
ATOM     27  C   UNL d   1      -1.869   2.784   2.257  0.00  0.00     0.020 A 
BRANCH  25  28
ATOM     28  O   UNL d   1      -4.009   4.341  -0.225  0.00  0.00    -0.356 OA
ATOM     29  C   UNL d   1      -4.362   4.067  -1.576  0.00  0.00     0.210 C 
ENDBRANCH  25  28
ENDBRANCH  19  22
ENDBRANCH   2  18
TORSDOF 7
