REMARK  17 active torsions:
REMARK  status: ('A' for Active; 'I' for Inactive)
REMARK    1  A    between atoms: C_13  and  C_3 
REMARK    2  A    between atoms: C_7  and  C_4 
REMARK    3  A    between atoms: C_9  and  C_7 
REMARK    4  A    between atoms: C_8  and  N_10 
REMARK    5  A    between atoms: N_15  and  C_8 
REMARK       I    between atoms: N_12  and  C_9 
REMARK    6  A    between atoms: N_10  and  N_12 
REMARK    7  A    between atoms: C_19  and  N_15 
REMARK    8  A    between atoms: C_20  and  C_19 
REMARK    9  A    between atoms: C_28  and  C_20 
REMARK   10  A    between atoms: C_21  and  C_22 
REMARK   11  A    between atoms: C_22  and  C_27 
REMARK   12  A    between atoms: C_23  and  C_29 
REMARK   13  A    between atoms: C_24  and  C_23 
REMARK   14  A    between atoms: C_25  and  C_24 
REMARK   15  A    between atoms: C_26  and  C_25 
REMARK   16  A    between atoms: C_27  and  C_26 
REMARK   17  A    between atoms: C_29  and  C_28 
ROOT
ATOM      1  N   UNL d   1       4.414   0.649  -1.128  0.00  0.00    -0.274 N 
ATOM      2  H   UNL d   1       4.832   1.399  -1.677  0.00  0.00     0.189 HD
ENDROOT
BRANCH   1   3
ATOM      3  C   UNL d   1       3.054   0.667  -0.937  0.00  0.00     0.186 C 
ATOM      4  S   UNL d   1       2.069  -0.673  -0.773  0.00  0.00    -0.040 SA
BRANCH   3   5
ATOM      5  N   UNL d   1       2.491   1.910  -0.796  0.00  0.00    -0.366 N 
ATOM      6  H   UNL d   1       1.506   1.856  -0.557  0.00  0.00     0.161 HD
BRANCH   5   7
ATOM      7  C   UNL d   1       3.214   3.083  -0.330  0.00  0.00     0.122 C 
BRANCH   7   8
ATOM      8  C   UNL d   1       2.304   4.298  -0.157  0.00  0.00     0.020 C 
BRANCH   8   9
ATOM      9  C   UNL d   1       3.098   5.489   0.385  0.00  0.00     0.002 C 
BRANCH   9  10
ATOM     10  C   UNL d   1       2.228   6.734   0.571  0.00  0.00     0.000 C 
BRANCH  10  11
ATOM     11  C   UNL d   1       3.060   7.907   1.099  0.00  0.00     0.000 C 
BRANCH  11  12
ATOM     12  C   UNL d   1       2.213   9.168   1.284  0.00  0.00     0.000 C 
BRANCH  12  13
ATOM     13  C   UNL d   1       3.055  10.335   1.806  0.00  0.00     0.000 C 
BRANCH  13  14
ATOM     14  C   UNL d   1       2.207  11.595   1.990  0.00  0.00     0.000 C 
BRANCH  14  15
ATOM     15  C   UNL d   1       3.044  12.767   2.510  0.00  0.00     0.000 C 
BRANCH  15  16
ATOM     16  C   UNL d   1       2.190  14.021   2.690  0.00  0.00    -0.000 C 
BRANCH  16  17
ATOM     17  C   UNL d   1       3.017  15.194   3.212  0.00  0.00    -0.005 C 
ATOM     18  C   UNL d   1       2.166  16.439   3.394  0.00  0.00     0.005 C 
ENDBRANCH  16  17
ENDBRANCH  15  16
ENDBRANCH  14  15
ENDBRANCH  13  14
ENDBRANCH  12  13
ENDBRANCH  11  12
ENDBRANCH  10  11
ENDBRANCH   9  10
ENDBRANCH   8   9
ENDBRANCH   7   8
ENDBRANCH   5   7
ENDBRANCH   3   5
ENDBRANCH   1   3
BRANCH   1  19
ATOM     19  N   UNL d   1       5.122  -0.563  -1.179  0.00  0.00    -0.268 N 
ATOM     20  C   UNL d   1       6.376  -0.554  -1.761  0.00  0.00     0.241 C 
ATOM     21  O   UNL d   1       6.770   0.372  -2.473  0.00  0.00    -0.271 OA
ATOM     22  H   UNL d   1       4.925  -1.238  -0.433  0.00  0.00     0.190 HD
BRANCH  20  23
ATOM     23  C   UNL d   1       7.205  -1.801  -1.516  0.00  0.00     0.162 C 
BRANCH  23  24
ATOM     24  C   UNL d   1       7.288  -2.154  -0.062  0.00  0.00     0.031 A 
ATOM     25  N   UNL d   1       6.122  -2.575   0.574  0.00  0.00    -0.352 N 
ATOM     26  C   UNL d   1       6.353  -2.863   1.841  0.00  0.00     0.085 A 
ATOM     27  HN  UNL d   1       5.211  -2.650   0.120  1.00  0.00     0.166 HD
ATOM     28  S   UNL d   1       7.984  -2.621   2.336  0.00  0.00    -0.075 SA
ATOM     29  C   UNL d   1       8.411  -2.142   0.748  0.00  0.00     0.004 A 
ATOM     30  C   UNL d   1       9.821  -1.798   0.421  0.00  0.00     0.058 C 
BRANCH  26  31
ATOM     31  C   UNL d   1       5.357  -3.427   2.768  0.00  0.00    -0.002 A 
ATOM     32  C   UNL d   1       4.335  -4.243   2.258  0.00  0.00     0.014 A 
ATOM     33  C   UNL d   1       3.401  -4.842   3.108  0.00  0.00     0.001 A 
ATOM     34  C   UNL d   1       3.467  -4.622   4.482  0.00  0.00     0.000 A 
ATOM     35  C   UNL d   1       4.456  -3.794   5.004  0.00  0.00     0.001 A 
ATOM     36  C   UNL d   1       5.392  -3.197   4.153  0.00  0.00     0.014 A 
ENDBRANCH  26  31
ENDBRANCH  23  24
ENDBRANCH  20  23
ENDBRANCH   1  19
TORSDOF 17
