REMARK  4 active torsions:
REMARK  status: ('A' for Active; 'I' for Inactive)
REMARK    1  A    between atoms: N_8  and  C_1 
REMARK    2  A    between atoms: N_2  and  C_10 
REMARK    3  A    between atoms: C_11  and  C_12 
REMARK    4  A    between atoms: O_19  and  C_17 
ROOT
ATOM      1  C   UNL d   1      -1.987  -0.914  -0.257  0.00  0.00     0.149 A 
ATOM      2  N   UNL d   1      -0.913  -1.668  -0.173  0.00  0.00    -0.335 N 
ATOM      3  HN  UNL d   1      -0.920  -2.688  -0.166  1.00  0.00     0.168 HD
ATOM      4  S   UNL d   1      -1.675   0.785  -0.198  0.00  0.00    -0.052 SA
ATOM      5  C   UNL d   1       0.016   0.486  -0.099  0.00  0.00     0.037 A 
ATOM      6  C   UNL d   1       0.225  -0.891  -0.094  0.00  0.00     0.051 A 
ATOM      7  C   UNL d   1       1.086   1.396  -0.037  0.00  0.00     0.058 A 
ATOM      8  C   UNL d   1       1.543  -1.377  -0.022  0.00  0.00     0.034 A 
ATOM      9  C   UNL d   1       2.393   0.895   0.024  0.00  0.00     0.069 A 
ATOM     10  C   UNL d   1       2.616  -0.480   0.036  0.00  0.00     0.039 A 
ENDROOT
BRANCH   1  11
ATOM     11  N   UNL d   1      -3.274  -1.320  -0.416  0.00  0.00    -0.346 N 
ATOM     12  C   UNL d   1      -3.476  -2.599  -0.323  0.00  0.00     0.104 C 
ATOM     13  HN  UNL d   1      -4.032  -0.663  -0.598  1.00  0.00     0.167 HD
BRANCH  12  14
ATOM     14  C   UNL d   1      -4.832  -3.155  -0.541  0.00  0.00     0.012 A 
ATOM     15  C   UNL d   1      -5.258  -4.388  -0.040  0.00  0.00     0.114 A 
ATOM     16  C   UNL d   1      -6.563  -4.856  -0.263  0.00  0.00     0.037 A 
ATOM     17  C   UNL d   1      -7.450  -4.083  -1.012  0.00  0.00     0.002 A 
ATOM     18  C   UNL d   1      -7.039  -2.855  -1.525  0.00  0.00     0.001 A 
ATOM     19  C   UNL d   1      -5.741  -2.390  -1.289  0.00  0.00     0.015 A 
BRANCH  15  20
ATOM     20  N   UNL d   1      -4.388  -5.221   0.765  0.00  0.00    -0.115 N 
ATOM     21  O   UNL d   1      -3.324  -5.593   0.254  0.00  0.00    -0.532 OA
ATOM     22  O   UNL d   1      -4.796  -5.537   1.889  0.00  0.00    -0.532 OA
ENDBRANCH  15  20
ENDBRANCH  12  14
ENDBRANCH   1  11
BRANCH   9  23
ATOM     23  O   UNL d   1       3.369   1.856   0.064  0.00  0.00    -0.356 OA
ATOM     24  C   UNL d   1       4.717   1.400   0.094  0.00  0.00     0.210 C 
ENDBRANCH   9  23
TORSDOF 4
