REMARK  6 active torsions:
REMARK  status: ('A' for Active; 'I' for Inactive)
REMARK    1  A    between atoms: N_6  and  C_2 
REMARK    2  A    between atoms: C_8  and  C_5 
REMARK    3  A    between atoms: N_9  and  N_6 
REMARK    4  A    between atoms: C_12  and  C_8 
REMARK    5  A    between atoms: C_11  and  C_13 
REMARK    6  A    between atoms: O_18  and  C_12 
ROOT
ATOM      1  N   UNL d   1       3.587  -0.396  -0.068  0.00  0.00    -0.280 N 
ATOM      2  HN  UNL d   1       4.489  -0.724  -0.413  1.00  0.00     0.189 HD
ENDROOT
BRANCH   1   3
ATOM      3  C   UNL d   1       2.685  -1.191   0.405  0.00  0.00     0.162 A 
ATOM      4  N   UNL d   1       2.906  -2.522   0.468  0.00  0.00    -0.305 N 
ATOM      5  C   UNL d   1       1.964  -3.317   1.052  0.00  0.00     0.238 A 
ATOM      6  H   UNL d   1       3.768  -2.913   0.121  0.00  0.00     0.171 HD
ATOM      7  C   UNL d   1       0.773  -2.523   1.553  0.00  0.00     0.157 A 
ATOM      8  O   UNL d   1       2.102  -4.525   1.191  0.00  0.00    -0.272 OA
ATOM      9  S   UNL d   1       1.125  -0.801   1.063  0.00  0.00    -0.077 SA
BRANCH   7  10
ATOM     10  C   UNL d   1       0.662  -2.662   3.061  0.00  0.00     0.135 C 
BRANCH  10  11
ATOM     11  C   UNL d   1      -0.571  -1.992   3.594  0.00  0.00     0.141 C 
ATOM     12  O   UNL d   1      -1.649  -2.558   3.711  0.00  0.00    -0.650 OA
BRANCH  11  13
ATOM     13  O   UNL d   1      -0.394  -0.695   3.929  0.00  0.00    -0.776 OA
ATOM     14  H   UNL d   1       0.474  -0.323   3.672  0.00  0.00     0.167 HD
ENDBRANCH  11  13
ENDBRANCH  10  11
ENDBRANCH   7  10
ENDBRANCH   1   3
BRANCH   1  15
ATOM     15  N   UNL d   1       3.220   0.949  -0.066  0.00  0.00    -0.302 N 
ATOM     16  C   UNL d   1       4.213   1.783   0.032  0.00  0.00     0.034 C 
ATOM     17  C   UNL d   1       5.654   1.306   0.125  0.00  0.00     0.070 C 
ATOM     18  HN  UNL d   1       2.249   1.254  -0.136  1.00  0.00     0.186 HD
BRANCH  16  19
ATOM     19  C   UNL d   1       3.946   3.260   0.050  0.00  0.00     0.009 A 
ATOM     20  C   UNL d   1       2.800   3.824   0.638  0.00  0.00     0.046 A 
ATOM     21 CL   UNL d   1       1.600   2.920   1.493  0.00  0.00    -0.083 Cl
ATOM     22  C   UNL d   1       2.605   5.214   0.607  0.00  0.00     0.025 A 
ATOM     23  C   UNL d   1       3.549   6.052   0.018  0.00  0.00     0.002 A 
ATOM     24  C   UNL d   1       4.689   5.505  -0.559  0.00  0.00     0.001 A 
ATOM     25  C   UNL d   1       4.879   4.120  -0.558  0.00  0.00     0.015 A 
ENDBRANCH  16  19
ENDBRANCH   1  15
TORSDOF 6
