REMARK  4 active torsions:
REMARK  status: ('A' for Active; 'I' for Inactive)
REMARK    1  A    between atoms: C_3  and  C_1 
REMARK    2  A    between atoms: C_7  and  CA_2 
REMARK       I    between atoms: N_5  and  C_3 
REMARK    3  A    between atoms: C_6  and  N_5 
REMARK    4  A    between atoms: OXT_17  and  C_7 
ROOT
ATOM      1  C   UNL d   1      -2.657  -5.245  -0.227  0.00  0.00     0.109 A 
ATOM      2  C   UNL d   1      -1.410  -4.901   0.327  0.00  0.00     0.059 A 
ATOM      3  C   UNL d   1      -3.276  -4.508  -1.290  0.00  0.00     0.105 C 
ATOM      4  N   UNL d   1      -3.752  -3.976  -2.206  0.00  0.00    -0.191 NA
ATOM      5  C   UNL d   1      -3.263  -6.445   0.161  0.00  0.00     0.139 A 
ATOM      6  F   UNL d   1      -4.457  -6.796  -0.340  0.00  0.00    -0.204 F 
ATOM      7  C   UNL d   1      -0.761  -5.820   1.171  0.00  0.00     0.031 A 
ATOM      8  C   UNL d   1      -1.378  -7.019   1.538  0.00  0.00     0.005 A 
ATOM      9  C   UNL d   1      -2.644  -7.321   1.048  0.00  0.00     0.044 A 
ENDROOT
BRANCH   2  10
ATOM     10  N   UNL d   1      -0.728  -3.673   0.100  0.00  0.00    -0.320 N 
ATOM     11  C   UNL d   1      -1.377  -2.443   0.122  0.00  0.00     0.275 C 
ATOM     12  O   UNL d   1      -2.582  -2.330   0.350  0.00  0.00    -0.266 OA
ATOM     13  H   UNL d   1       0.253  -3.668   0.386  0.00  0.00     0.169 HD
BRANCH  11  14
ATOM     14  C   UNL d   1      -0.600  -1.177  -0.095  0.00  0.00     0.134 A 
ATOM     15  CA  UNL d   1       0.626  -0.834   0.460  0.00  0.00     0.139 A 
ATOM     16  N   UNL d   1       1.166   0.437   0.358  0.00  0.00    -0.357 N 
ATOM     17  C   UNL d   1       0.432   1.333  -0.340  0.00  0.00     0.105 A 
ATOM     18  HN  UNL d   1       2.061   0.681   0.782  1.00  0.00     0.165 HD
ATOM     19  C   UNL d   1      -0.768   0.996  -0.928  0.00  0.00     0.105 A 
ATOM     20  N   UNL d   1      -1.299  -0.242  -0.816  0.00  0.00    -0.358 N 
ATOM     21  HN  UNL d   1      -2.190  -0.474  -1.253  1.00  0.00     0.165 HD
BRANCH  15  22
ATOM     22  C   UNL d   1       1.504  -1.752   1.232  0.00  0.00     0.196 C 
ATOM     23  O   UNL d   1       1.357  -2.954   1.348  0.00  0.00    -0.645 OA
BRANCH  22  24
ATOM     24  OXT UNL d   1       2.557  -1.079   1.758  0.00  0.00    -0.772 OA
ATOM     25  HXT UNL d   1       2.510  -0.129   1.491  0.00  0.00     0.167 HD
ENDBRANCH  22  24
ENDBRANCH  15  22
ENDBRANCH  11  14
ENDBRANCH   2  10
TORSDOF 4
