REMARK  5 active torsions:
REMARK  status: ('A' for Active; 'I' for Inactive)
REMARK    1  A    between atoms: C_7  and  N_1 
REMARK    2  A    between atoms: C_11  and  C_2 
REMARK    3  A    between atoms: C_9  and  C_7 
REMARK    4  A    between atoms: C_10  and  C_8 
REMARK    5  A    between atoms: C_15  and  C_9 
ROOT
ATOM      1  N   UNL d   1       1.456  -0.994  -0.015  0.00  0.00    -0.290 N 
ATOM      2  C   UNL d   1       0.134  -1.343   0.051  0.00  0.00     0.121 A 
ATOM      3  N   UNL d   1      -0.697  -0.339   0.077  0.00  0.00    -0.337 N 
ATOM      4  HN  UNL d   1      -1.716  -0.376   0.106  1.00  0.00     0.167 HD
ATOM      5  C   UNL d   1       0.101   0.780   0.056  0.00  0.00     0.103 A 
ATOM      6  C   UNL d   1       1.530   0.374   0.002  0.00  0.00     0.276 A 
ATOM      7  C   UNL d   1      -0.287   2.059   0.063  0.00  0.00     0.048 C 
ATOM      8  O   UNL d   1       2.508   1.095  -0.068  0.00  0.00    -0.265 OA
ENDROOT
BRANCH   1   9
ATOM      9  C   UNL d   1       2.651  -1.794  -0.235  0.00  0.00     0.217 C 
BRANCH   9  10
ATOM     10  C   UNL d   1       3.324  -2.215   1.070  0.00  0.00     0.177 C 
ATOM     11  O   UNL d   1       2.842  -1.974   2.176  0.00  0.00    -0.291 OA
BRANCH  10  12
ATOM     12  C   UNL d   1       4.598  -2.997   0.985  0.00  0.00     0.011 A 
ATOM     13  C   UNL d   1       5.189  -3.337  -0.239  0.00  0.00     0.015 A 
ATOM     14  C   UNL d   1       6.410  -4.017  -0.264  0.00  0.00     0.001 A 
ATOM     15  C   UNL d   1       7.041  -4.371   0.927  0.00  0.00     0.000 A 
ATOM     16  C   UNL d   1       6.442  -4.069   2.148  0.00  0.00     0.001 A 
ATOM     17  C   UNL d   1       5.223  -3.389   2.178  0.00  0.00     0.015 A 
ENDBRANCH  10  12
ENDBRANCH   9  10
ENDBRANCH   1   9
BRANCH   2  18
ATOM     18  C   UNL d   1      -0.360  -2.742   0.078  0.00  0.00     0.008 A 
ATOM     19  C   UNL d   1       0.302  -3.765   0.760  0.00  0.00     0.015 A 
ATOM     20  C   UNL d   1      -0.244  -5.049   0.826  0.00  0.00     0.001 A 
ATOM     21  C   UNL d   1      -1.478  -5.312   0.240  0.00  0.00     0.000 A 
ATOM     22  C   UNL d   1      -2.163  -4.295  -0.420  0.00  0.00     0.001 A 
ATOM     23  C   UNL d   1      -1.607  -3.015  -0.504  0.00  0.00     0.015 A 
ENDBRANCH   2  18
BRANCH   7  24
ATOM     24  C   UNL d   1      -1.696   2.464   0.114  0.00  0.00    -0.012 A 
ATOM     25  C   UNL d   1      -2.461   2.726  -1.035  0.00  0.00     0.044 A 
ATOM     26 CL   UNL d   1      -1.792   2.600  -2.626  0.00  0.00    -0.083 Cl
ATOM     27  C   UNL d   1      -3.798   3.114  -0.917  0.00  0.00     0.024 A 
ATOM     28  C   UNL d   1      -4.387   3.240   0.340  0.00  0.00     0.002 A 
ATOM     29  C   UNL d   1      -3.639   2.977   1.484  0.00  0.00     0.001 A 
ATOM     30  C   UNL d   1      -2.302   2.590   1.373  0.00  0.00     0.013 A 
ENDBRANCH   7  24
TORSDOF 5
