REMARK  7 active torsions:
REMARK  status: ('A' for Active; 'I' for Inactive)
REMARK       I    between atoms: N_9  and  C1_1 
REMARK    1  A    between atoms: C6_3  and  C1_1 
REMARK    2  A    between atoms: CA_10  and  N_9 
REMARK    3  A    between atoms: CB_11  and  CA_10 
REMARK    4  A    between atoms: C_12  and  CA_10 
REMARK    5  A    between atoms: CG_13  and  CB_11 
REMARK    6  A    between atoms: OXT_16  and  C_12 
REMARK    7  A    between atoms: OD2_17  and  CG_13 
ROOT
ATOM      1  C1  <1> d   1       1.216  -0.049  -0.470  0.00  0.00     0.252 C 
ATOM      2  O1  <1> d   1       2.443  -0.086  -0.427  0.00  0.00    -0.268 OA
ATOM      3  N   ASP d   1       0.429  -1.092  -0.034  0.00  0.00    -0.342 N 
ATOM      4  H   ASP d   1      -0.577  -1.016  -0.143  0.00  0.00     0.163 HD
ENDROOT
BRANCH   3   5
ATOM      5  CA  ASP d   1       0.996  -2.429   0.189  0.00  0.00     0.192 C 
BRANCH   5   6
ATOM      6  CB  ASP d   1       2.034  -2.546   1.316  0.00  0.00     0.146 C 
BRANCH   6   7
ATOM      7  CG  ASP d   1       1.485  -2.131   2.655  0.00  0.00     0.141 C 
ATOM      8  OD1 ASP d   1       0.358  -1.686   2.831  0.00  0.00    -0.650 OA
BRANCH   7   9
ATOM      9  OD2 ASP d   1       2.347  -2.340   3.673  0.00  0.00    -0.776 OA
ATOM     10  HD2 ASP d   1       3.210  -2.712   3.405  0.00  0.00     0.167 HD
ENDBRANCH   7   9
ENDBRANCH   6   7
ENDBRANCH   5   6
BRANCH   5  11
ATOM     11  C   ASP d   1      -0.125  -3.450   0.408  0.00  0.00     0.164 C 
ATOM     12  O   ASP d   1      -0.103  -4.583  -0.047  0.00  0.00    -0.648 OA
BRANCH  11  13
ATOM     13  OXT ASP d   1      -1.120  -3.017   1.218  0.00  0.00    -0.775 OA
ATOM     14  HXT ASP d   1      -0.852  -2.235   1.768  0.00  0.00     0.167 HD
ENDBRANCH  11  13
ENDBRANCH   5  11
ENDBRANCH   3   5
BRANCH   1  15
ATOM     15  C6  <1> d   1       0.525   1.149  -1.018  0.00  0.00     0.032 A 
ATOM     16  C7  <1> d   1       1.130   2.400  -0.828  0.00  0.00     0.017 A 
ATOM     17  C9  <1> d   1       0.573   3.546  -1.397  0.00  0.00     0.001 A 
ATOM     18  C11 <1> d   1      -0.584   3.450  -2.168  0.00  0.00     0.000 A 
ATOM     19  C10 <1> d   1      -1.194   2.209  -2.360  0.00  0.00     0.001 A 
ATOM     20  C8  <1> d   1      -0.643   1.057  -1.785  0.00  0.00     0.017 A 
ENDBRANCH   1  15
TORSDOF 7
