REMARK  6 active torsions:
REMARK  status: ('A' for Active; 'I' for Inactive)
REMARK    1  A    between atoms: S_13  and  C_1 
REMARK    2  A    between atoms: C_20  and  N_2 
REMARK    3  A    between atoms: C_23  and  N_3 
REMARK    4  A    between atoms: C_22  and  C_8 
REMARK    5  A    between atoms: C_14  and  S_13 
REMARK    6  A    between atoms: C_24  and  C_23 
ROOT
ATOM      1  C   UNL d   1       0.480  -2.136  -0.968  0.00  0.00     0.174 A 
ATOM      2  N   UNL d   1       1.591  -1.434  -0.537  0.00  0.00    -0.275 N 
ATOM      3  C   UNL d   1       1.192  -0.094  -0.588  0.00  0.00     0.139 A 
ATOM      4  N   UNL d   1      -0.073  -0.037  -0.966  0.00  0.00    -0.282 N 
ATOM      5  HN  UNL d   1      -0.630   0.813  -1.054  1.00  0.00     0.188 HD
ATOM      6  N   UNL d   1      -0.511  -1.309  -1.218  0.00  0.00    -0.277 N 
ATOM      7  HN  UNL d   1      -1.442  -1.569  -1.544  1.00  0.00     0.189 HD
ENDROOT
BRANCH   1   8
ATOM      8  S   UNL d   1       0.308  -3.870  -0.974  0.00  0.00    -0.033 SA
BRANCH   8   9
ATOM      9  C   UNL d   1      -0.233  -4.008  -2.668  0.00  0.00     0.099 A 
ATOM     10  C   UNL d   1      -1.557  -3.949  -3.032  0.00  0.00     0.086 A 
ATOM     11  C   UNL d   1      -1.798  -3.794  -4.380  0.00  0.00     0.130 A 
ATOM     12  S   UNL d   1      -3.050  -3.913  -2.107  0.00  0.00    -0.054 SA
ATOM     13  N   UNL d   1      -3.153  -3.506  -4.673  0.00  0.00    -0.314 N 
ATOM     14  N   UNL d   1      -0.849  -3.841  -5.328  0.00  0.00    -0.337 N 
ATOM     15  C   UNL d   1      -3.999  -3.554  -3.566  0.00  0.00     0.147 A 
ATOM     16  S   UNL d   1      -5.647  -3.308  -3.514  0.00  0.00    -0.052 SA
ATOM     17  C   UNL d   1       0.396  -4.029  -4.873  0.00  0.00     0.182 A 
ATOM     18  HN  UNL d   1      -1.060  -3.742  -6.321  1.00  0.00     0.168 HD
ATOM     19  N   UNL d   1       0.764  -4.086  -3.584  0.00  0.00    -0.345 N 
ATOM     20  HN  UNL d   1       1.741  -4.183  -3.308  1.00  0.00     0.167 HD
BRANCH  13  21
ATOM     21  C   UNL d   1      -3.465  -2.823  -5.924  0.00  0.00     0.158 C 
BRANCH  21  22
ATOM     22  C   UNL d   1      -4.161  -3.723  -6.897  0.00  0.00    -0.017 C 
ATOM     23  C   UNL d   1      -5.333  -3.419  -7.482  0.00  0.00     0.008 C 
ENDBRANCH  21  22
ENDBRANCH  13  21
ENDBRANCH   8   9
ENDBRANCH   1   8
BRANCH   2  24
ATOM     24  C   UNL d   1       2.871  -1.921  -0.150  0.00  0.00     0.043 A 
ATOM     25  C   UNL d   1       3.507  -2.916  -0.904  0.00  0.00     0.030 A 
ATOM     26  C   UNL d   1       4.802  -3.317  -0.569  0.00  0.00     0.002 A 
ATOM     27  C   UNL d   1       5.462  -2.738   0.516  0.00  0.00     0.000 A 
ATOM     28  C   UNL d   1       4.826  -1.762   1.277  0.00  0.00     0.002 A 
ATOM     29  C   UNL d   1       3.534  -1.352   0.947  0.00  0.00     0.030 A 
ENDBRANCH   2  24
BRANCH   3  30
ATOM     30  C   UNL d   1       2.044   1.076  -0.359  0.00  0.00     0.010 A 
ATOM     31  C   UNL d   1       3.229   1.263  -1.085  0.00  0.00     0.015 A 
ATOM     32  C   UNL d   1       4.064   2.350  -0.817  0.00  0.00     0.001 A 
ATOM     33  C   UNL d   1       3.713   3.269   0.169  0.00  0.00     0.000 A 
ATOM     34  C   UNL d   1       2.521   3.112   0.875  0.00  0.00     0.001 A 
ATOM     35  C   UNL d   1       1.684   2.025   0.605  0.00  0.00     0.015 A 
ENDBRANCH   3  30
TORSDOF 6
