REMARK  2 active torsions:
REMARK  status: ('A' for Active; 'I' for Inactive)
REMARK    1  A    between atoms: S_9  and  C_5 
REMARK    2  A    between atoms: C_10  and  N_8 
ROOT
ATOM      1  S   UNL d   1       1.866  -1.012   2.406  0.00  0.00    -0.027 SA
ATOM      2  C   UNL d   1       3.368  -0.711   1.615  0.00  0.00     0.162 A 
ATOM      3  N   UNL d   1       4.406  -1.182   2.273  0.00  0.00    -0.279 N 
ATOM      4  HN  UNL d   1       5.366  -1.108   1.938  1.00  0.00     0.189 HD
ATOM      5  C   UNL d   1       2.759  -1.761   3.657  0.00  0.00     0.127 A 
ATOM      6  N   UNL d   1       4.057  -1.787   3.465  0.00  0.00    -0.286 N 
ATOM      7  HN  UNL d   1       4.725  -2.203   4.114  1.00  0.00     0.188 HD
ATOM      8  N   UNL d   1       3.400  -0.030   0.440  0.00  0.00    -0.365 N 
ATOM      9  H   UNL d   1       2.563   0.456   0.144  0.00  0.00     0.162 HD
ENDROOT
BRANCH   8  10
ATOM     10  C   UNL d   1       4.674   0.488  -0.055  0.00  0.00     0.083 C 
ATOM     11  C   UNL d   1       5.109   1.736   0.731  0.00  0.00     0.025 C 
ATOM     12  C   UNL d   1       4.367   3.011   0.333  0.00  0.00     0.002 C 
ATOM     13  C   UNL d   1       4.411   3.239  -1.171  0.00  0.00     0.000 C 
ATOM     14  C   UNL d   1       3.831   2.045  -1.917  0.00  0.00     0.002 C 
ATOM     15  C   UNL d   1       4.571   0.755  -1.566  0.00  0.00     0.025 C 
ENDBRANCH   8  10
BRANCH   5  16
ATOM     16  S   UNL d   1       2.025  -2.430   5.091  0.00  0.00    -0.117 SA
ATOM     17  H   UNL d   1       0.760  -2.112   4.791  0.00  0.00     0.109 HD
ENDBRANCH   5  16
TORSDOF 2
