REMARK  3 active torsions:
REMARK  status: ('A' for Active; 'I' for Inactive)
REMARK    1  A    between atoms: C_8  and  C_1 
REMARK    2  A    between atoms: C_10  and  C_2 
REMARK    3  A    between atoms: O_13  and  C_3 
ROOT
ATOM      1  C   UNL d   1       2.476  -0.679  -0.327  0.00  0.00     0.072 A 
ATOM      2  C   UNL d   1       1.306  -1.440  -0.107  0.00  0.00     0.005 A 
ATOM      3  C   UNL d   1       2.374   0.700  -0.303  0.00  0.00     0.155 A 
ATOM      4  C   UNL d   1       0.076  -0.725   0.099  0.00  0.00     0.004 A 
ATOM      5  N   UNL d   1       1.242   1.390  -0.122  0.00  0.00    -0.336 N 
ATOM      6  HN  UNL d   1       1.240   2.410  -0.109  1.00  0.00     0.168 HD
ATOM      7  C   UNL d   1       0.114   0.692   0.042  0.00  0.00     0.045 A 
ATOM      8  C   UNL d   1      -1.189  -1.329   0.344  0.00  0.00     0.038 A 
ATOM      9  C   UNL d   1      -1.064   1.422   0.146  0.00  0.00     0.032 A 
ATOM     10  C   UNL d   1      -2.358  -0.575   0.428  0.00  0.00     0.035 A 
ATOM     11  C   UNL d   1      -2.303   0.803   0.316  0.00  0.00     0.026 A 
ATOM     12 CL   UNL d   1      -3.873  -1.357   0.649  0.00  0.00    -0.084 Cl
ENDROOT
BRANCH   2  13
ATOM     13  C   UNL d   1       1.349  -2.930  -0.100  0.00  0.00    -0.024 A 
ATOM     14  C   UNL d   1       2.220  -3.635   0.752  0.00  0.00     0.012 A 
ATOM     15  C   UNL d   1       2.264  -5.033   0.750  0.00  0.00     0.001 A 
ATOM     16  C   UNL d   1       1.412  -5.758  -0.077  0.00  0.00     0.000 A 
ATOM     17  C   UNL d   1       0.536  -5.087  -0.923  0.00  0.00     0.001 A 
ATOM     18  C   UNL d   1       0.525  -3.689  -0.952  0.00  0.00     0.012 A 
ENDBRANCH   2  13
BRANCH   1  19
ATOM     19  C   UNL d   1       3.771  -1.286  -0.701  0.00  0.00     0.160 C 
ATOM     20  O   UNL d   1       3.825  -2.039  -1.674  0.00  0.00    -0.293 OA
ATOM     21  C   UNL d   1       4.984  -1.000   0.147  0.00  0.00     0.097 C 
ENDBRANCH   1  19
BRANCH   3  22
ATOM     22  O   UNL d   1       3.439   1.518  -0.494  0.00  0.00    -0.345 OA
ATOM     23  H   UNL d   1       3.006   2.389  -0.418  0.00  0.00     0.219 HD
ENDBRANCH   3  22
TORSDOF 3
