REMARK  7 active torsions:
REMARK  status: ('A' for Active; 'I' for Inactive)
REMARK    1  A    between atoms: C_4  and  C_1 
REMARK    2  A    between atoms: S_6  and  C_2 
REMARK    3  A    between atoms: N_7  and  C_2 
REMARK    4  A    between atoms: C_3  and  C_5 
REMARK    5  A    between atoms: C_8  and  C_4 
REMARK    6  A    between atoms: C_5  and  S_6 
REMARK    7  A    between atoms: C_17  and  N_7 
ROOT
ATOM      1  C   UNL d   1       0.876   0.046  -0.071  0.00  0.00     0.086 C 
ATOM      2  C   UNL d   1       0.251  -0.353  -1.198  0.00  0.00     0.054 C 
ENDROOT
BRANCH   2   3
ATOM      3  S   UNL d   1       1.207  -0.529  -2.680  0.00  0.00    -0.113 SA
BRANCH   3   4
ATOM      4  C   UNL d   1       2.854  -1.098  -2.149  0.00  0.00     0.122 C 
BRANCH   4   5
ATOM      5  C   UNL d   1       3.723  -1.348  -3.364  0.00  0.00    -0.005 A 
ATOM      6  C   UNL d   1       4.457  -0.303  -3.962  0.00  0.00     0.042 A 
ATOM      7 CL   UNL d   1       4.507   1.293  -3.288  0.00  0.00    -0.084 Cl
ATOM      8  C   UNL d   1       5.174  -0.506  -5.147  0.00  0.00     0.024 A 
ATOM      9  C   UNL d   1       5.174  -1.755  -5.760  0.00  0.00     0.003 A 
ATOM     10  C   UNL d   1       4.468  -2.804  -5.181  0.00  0.00     0.024 A 
ATOM     11  C   UNL d   1       3.751  -2.606  -3.995  0.00  0.00     0.042 A 
ATOM     12 CL   UNL d   1       2.899  -3.973  -3.361  0.00  0.00    -0.084 Cl
ENDBRANCH   4   5
ENDBRANCH   3   4
ENDBRANCH   2   3
BRANCH   2  13
ATOM     13  N   UNL d   1      -1.126  -0.566  -1.276  0.00  0.00    -0.254 NA
ATOM     14  H   UNL d   1      -1.464  -0.991  -0.406  0.00  0.00     0.134 HD
BRANCH  13  15
ATOM     15  C   UNL d   1      -2.050   0.479  -1.582  0.00  0.00     0.013 A 
ATOM     16  C   UNL d   1      -1.666   1.741  -2.056  0.00  0.00     0.024 A 
ATOM     17  C   UNL d   1      -2.623   2.724  -2.333  0.00  0.00     0.002 A 
ATOM     18  C   UNL d   1      -3.978   2.447  -2.175  0.00  0.00     0.000 A 
ATOM     19  C   UNL d   1      -4.380   1.184  -1.748  0.00  0.00     0.002 A 
ATOM     20  C   UNL d   1      -3.422   0.207  -1.462  0.00  0.00     0.024 A 
ENDBRANCH  13  15
ENDBRANCH   2  13
BRANCH   1  21
ATOM     21  C   UNL d   1       0.184   0.365   1.211  0.00  0.00     0.184 C 
ATOM     22  O   UNL d   1      -0.868  -0.170   1.532  0.00  0.00    -0.288 OA
BRANCH  21  23
ATOM     23  C   UNL d   1       0.891   1.315   2.131  0.00  0.00     0.014 A 
ATOM     24  C   UNL d   1       1.818   2.258   1.659  0.00  0.00     0.018 A 
ATOM     25  C   UNL d   1       2.502   3.088   2.555  0.00  0.00     0.043 A 
ATOM     26  C   UNL d   1       2.237   2.993   3.915  0.00  0.00     0.116 A 
ATOM     27  C   UNL d   1       1.294   2.094   4.399  0.00  0.00     0.043 A 
ATOM     28  F   UNL d   1       2.895   3.785   4.771  0.00  0.00    -0.206 F 
ATOM     29  C   UNL d   1       0.613   1.255   3.502  0.00  0.00     0.018 A 
ENDBRANCH  21  23
ENDBRANCH   1  21
TORSDOF 7
