REMARK  2 active torsions:
REMARK  status: ('A' for Active; 'I' for Inactive)
REMARK    1  A    between atoms: C_8  and  N_1 
REMARK    2  A    between atoms: C_16  and  C_8 
ROOT
ATOM      1  N   UNL d   1       2.768   0.042  -0.068  0.00  0.00    -0.276 N 
ATOM      2  C   UNL d   1       2.089   1.247  -0.220  0.00  0.00     0.261 C 
ATOM      3  C   UNL d   1       2.154  -1.204   0.018  0.00  0.00     0.261 C 
ATOM      4  C   UNL d   1       0.613   1.206  -0.106  0.00  0.00     0.044 A 
ATOM      5  C   UNL d   1      -0.051  -0.024  -0.037  0.00  0.00     0.007 A 
ATOM      6  C   UNL d   1       0.671  -1.226  -0.008  0.00  0.00     0.044 A 
ATOM      7  C   UNL d   1      -1.472  -0.053   0.004  0.00  0.00    -0.002 A 
ATOM      8  C   UNL d   1      -0.100   2.411  -0.095  0.00  0.00     0.020 A 
ATOM      9  O   UNL d   1       2.765  -2.266   0.103  0.00  0.00    -0.267 OA
ATOM     10  O   UNL d   1       2.633   2.322  -0.460  0.00  0.00    -0.267 OA
ATOM     11  C   UNL d   1      -2.170   1.182   0.012  0.00  0.00     0.045 A 
ATOM     12  C   UNL d   1      -1.487   2.399  -0.026  0.00  0.00     0.026 A 
ATOM     13  C   UNL d   1       0.009  -2.461   0.017  0.00  0.00     0.018 A 
ATOM     14 CL   UNL d   1      -3.900   1.261   0.075  0.00  0.00    -0.083 Cl
ATOM     15  C   UNL d   1      -2.109  -1.315   0.025  0.00  0.00     0.014 A 
ATOM     16  C   UNL d   1      -1.379  -2.504   0.024  0.00  0.00     0.002 A 
ENDROOT
BRANCH   1  17
ATOM     17  C   UNL d   1       4.228   0.089  -0.036  0.00  0.00     0.174 C 
BRANCH  17  18
ATOM     18  C   UNL d   1       4.746   0.399   1.353  0.00  0.00    -0.040 A 
ATOM     19  C   UNL d   1       5.027  -0.634   2.259  0.00  0.00     0.009 A 
ATOM     20  C   UNL d   1       5.448  -0.340   3.559  0.00  0.00     0.001 A 
ATOM     21  C   UNL d   1       5.585   0.986   3.967  0.00  0.00     0.000 A 
ATOM     22  C   UNL d   1       5.317   2.020   3.074  0.00  0.00     0.001 A 
ATOM     23  C   UNL d   1       4.904   1.728   1.774  0.00  0.00     0.009 A 
ENDBRANCH  17  18
ENDBRANCH   1  17
TORSDOF 2
