REMARK  2 active torsions:
REMARK  status: ('A' for Active; 'I' for Inactive)
REMARK    1  A    between atoms: N_9  and  N_1 
REMARK    2  A    between atoms: C_8  and  C_2 
ROOT
ATOM      1  N   UNL d   1      -1.348   0.234  -1.191  0.00  0.00    -0.235 N 
ATOM      2  C   UNL d   1      -1.898  -0.261  -0.032  0.00  0.00     0.149 A 
ATOM      3  C   UNL d   1      -0.188   0.883  -0.814  0.00  0.00     0.209 A 
ATOM      4  N   UNL d   1      -1.190   0.024   1.033  0.00  0.00    -0.281 N 
ATOM      5  HN  UNL d   1      -1.388  -0.240   1.998  1.00  0.00     0.188 HD
ATOM      6  N   UNL d   1      -0.128   0.755   0.570  0.00  0.00    -0.273 N 
ATOM      7  S   UNL d   1       0.947   1.642  -1.752  0.00  0.00    -0.038 SA
ATOM      8  H   UNL d   1       0.598   1.105   1.184  0.00  0.00     0.189 HD
ENDROOT
BRANCH   2   9
ATOM      9  C   UNL d   1      -3.136  -1.067   0.013  0.00  0.00     0.011 A 
ATOM     10  C   UNL d   1      -3.283  -1.996   1.054  0.00  0.00     0.015 A 
ATOM     11  C   UNL d   1      -4.432  -2.785   1.139  0.00  0.00     0.001 A 
ATOM     12  C   UNL d   1      -5.443  -2.649   0.190  0.00  0.00     0.000 A 
ATOM     13  C   UNL d   1      -5.314  -1.713  -0.835  0.00  0.00     0.001 A 
ATOM     14  C   UNL d   1      -4.171  -0.915  -0.916  0.00  0.00     0.015 A 
ENDBRANCH   2   9
BRANCH   1  15
ATOM     15  N   UNL d   1      -1.754   0.013  -2.512  0.00  0.00    -0.239 NA
ATOM     16  H   UNL d   1      -1.809  -0.997  -2.655  0.00  0.00     0.143 HD
ATOM     17  H   UNL d   1      -0.993   0.330  -3.119  0.00  0.00     0.143 HD
ENDBRANCH   1  15
TORSDOF 2
