REMARK  7 active torsions:
REMARK  status: ('A' for Active; 'I' for Inactive)
REMARK    1  A    between atoms: C_3  and  C_1 
REMARK    2  A    between atoms: S_6  and  C_2 
REMARK    3  A    between atoms: O_13  and  C_3 
REMARK    4  A    between atoms: C_4  and  C_5 
REMARK    5  A    between atoms: O_15  and  C_4 
REMARK    6  A    between atoms: C_12  and  S_6 
REMARK    7  A    between atoms: C_14  and  C_12 
ROOT
ATOM      1  S   UNL d   1      -1.692   2.515  -0.323  0.00  0.00    -0.107 SA
ENDROOT
BRANCH   1   2
ATOM      2  C   UNL d   1      -0.342   1.356  -0.063  0.00  0.00     0.086 A 
ATOM      3  C   UNL d   1      -0.329   0.037  -0.527  0.00  0.00     0.071 A 
ATOM      4  C   UNL d   1       0.818  -0.730  -0.243  0.00  0.00     0.022 A 
ATOM      5  C   UNL d   1       1.878  -0.195   0.483  0.00  0.00     0.018 A 
ATOM      6  C   UNL d   1       1.765   1.106   0.915  0.00  0.00     0.089 A 
ATOM      7  N   UNL d   1       0.690   1.877   0.657  0.00  0.00    -0.360 N 
ATOM      8  HN  UNL d   1       0.649   2.838   0.997  1.00  0.00     0.166 HD
BRANCH   3   9
ATOM      9  C   UNL d   1      -1.389  -0.660  -1.310  0.00  0.00     0.179 C 
ATOM     10  O   UNL d   1      -1.212  -1.789  -1.748  0.00  0.00    -0.646 OA
BRANCH   9  11
ATOM     11  O   UNL d   1      -2.558  -0.021  -1.500  0.00  0.00    -0.773 OA
ATOM     12  H   UNL d   1      -2.616   0.881  -1.130  0.00  0.00     0.167 HD
ENDBRANCH   9  11
ENDBRANCH   3   9
ENDBRANCH   1   2
BRANCH   1  13
ATOM     13  C   UNL d   1      -0.811   4.085  -0.037  0.00  0.00     0.119 C 
BRANCH  13  14
ATOM     14  C   UNL d   1      -1.613   5.370  -0.068  0.00  0.00    -0.048 A 
ATOM     15  C   UNL d   1      -0.878   6.577  -0.069  0.00  0.00     0.025 A 
ATOM     16  C   UNL d   1      -1.517   7.823  -0.005  0.00  0.00     0.040 A 
ATOM     17  C   UNL d   1      -2.913   7.870   0.051  0.00  0.00     0.017 A 
ATOM     18  C   UNL d   1      -3.654   6.688   0.053  0.00  0.00     0.002 A 
ATOM     19  C   UNL d   1      -3.010   5.447   0.003  0.00  0.00     0.008 A 
BRANCH  16  20
ATOM     20  C   UNL d   1      -0.769   9.110   0.031  0.00  0.00     0.292 C 
ATOM     21  O   UNL d   1      -1.311  10.203   0.065  0.00  0.00    -0.259 OA
BRANCH  20  22
ATOM     22  O   UNL d   1       0.572   8.892   0.044  0.00  0.00    -0.323 OA
ATOM     23  C   UNL d   1       1.349  10.089   0.115  0.00  0.00     0.213 C 
ENDBRANCH  20  22
ENDBRANCH  16  20
ENDBRANCH  13  14
ENDBRANCH   1  13
TORSDOF 7
