REMARK  5 active torsions:
REMARK  status: ('A' for Active; 'I' for Inactive)
REMARK    1  A    between atoms: N_20  and  C_4 
REMARK    2  A    between atoms: C_8  and  C_6 
REMARK    3  A    between atoms: O_21  and  C_12 
REMARK    4  A    between atoms: O_22  and  C_13 
REMARK    5  A    between atoms: O_23  and  C_14 
ROOT
ATOM      1  C   UNL d   1       1.417   0.929   0.004  0.00  0.00     0.073 A 
ATOM      2  C   UNL d   1       0.613   2.190  -0.019  0.00  0.00     0.301 A 
ATOM      3  C   UNL d   1       0.757  -0.311   0.036  0.00  0.00    -0.004 A 
ATOM      4  C   UNL d   1       2.836   1.011  -0.056  0.00  0.00     0.045 A 
ATOM      5  C   UNL d   1       3.594  -0.188  -0.080  0.00  0.00     0.077 A 
ATOM      6  C   UNL d   1       2.969  -1.451  -0.004  0.00  0.00    -0.002 A 
ATOM      7  O   UNL d   1      -0.765   2.068   0.053  0.00  0.00    -0.274 OA
ATOM      8  C   UNL d   1       1.556  -1.472   0.065  0.00  0.00     0.027 A 
ATOM      9  C   UNL d   1      -0.715  -0.367   0.043  0.00  0.00     0.009 A 
ATOM     10  C   UNL d   1      -1.430   0.830   0.055  0.00  0.00     0.090 A 
ATOM     11  C   UNL d   1       5.024  -0.075  -0.224  0.00  0.00     0.102 C 
ATOM     12  N   UNL d   1       6.172   0.047  -0.336  0.00  0.00    -0.191 NA
ATOM     13  O   UNL d   1       1.130   3.296  -0.135  0.00  0.00    -0.259 OA
ATOM     14  C   UNL d   1      -1.480  -1.548   0.020  0.00  0.00     0.015 A 
ATOM     15  C   UNL d   1      -2.827   0.885   0.050  0.00  0.00     0.038 A 
ATOM     16  C   UNL d   1      -2.882  -1.513   0.016  0.00  0.00     0.001 A 
ATOM     17  C   UNL d   1      -3.557  -0.297   0.032  0.00  0.00     0.003 A 
ENDROOT
BRANCH   4  18
ATOM     18  N   UNL d   1       3.498   2.246   0.155  0.00  0.00    -0.301 NA
ATOM     19  H   UNL d   1       2.911   3.068  -0.036  0.00  0.00     0.124 HD
ATOM     20  H   UNL d   1       4.434   2.351  -0.228  0.00  0.00     0.124 HD
ENDBRANCH   4  18
BRANCH   6  21
ATOM     21  C   UNL d   1       3.700  -2.755   0.012  0.00  0.00    -0.019 A 
ATOM     22  C   UNL d   1       4.894  -2.939   0.727  0.00  0.00     0.052 A 
ATOM     23  C   UNL d   1       5.618  -4.143   0.698  0.00  0.00     0.105 A 
ATOM     24  C   UNL d   1       5.078  -5.251   0.019  0.00  0.00     0.135 A 
ATOM     25  C   UNL d   1       3.828  -5.120  -0.619  0.00  0.00     0.105 A 
ATOM     26  C   UNL d   1       3.193  -3.872  -0.668  0.00  0.00     0.052 A 
BRANCH  23  27
ATOM     27  O   UNL d   1       6.812  -4.295   1.356  0.00  0.00    -0.353 OA
ATOM     28  C   UNL d   1       7.441  -3.131   1.883  0.00  0.00     0.210 C 
ENDBRANCH  23  27
BRANCH  24  29
ATOM     29  O   UNL d   1       5.623  -6.514  -0.006  0.00  0.00    -0.351 OA
ATOM     30  C   UNL d   1       7.040  -6.603  -0.099  0.00  0.00     0.210 C 
ENDBRANCH  24  29
BRANCH  25  31
ATOM     31  O   UNL d   1       3.300  -6.231  -1.237  0.00  0.00    -0.353 OA
ATOM     32  C   UNL d   1       1.875  -6.315  -1.232  0.00  0.00     0.210 C 
ENDBRANCH  25  31
ENDBRANCH   6  21
TORSDOF 5
