REMARK  5 active torsions:
REMARK  status: ('A' for Active; 'I' for Inactive)
REMARK    1  A    between atoms: C_2  and  C_1 
REMARK       I    between atoms: N_8  and  C_2 
REMARK    2  A    between atoms: C_5  and  C_3 
REMARK    3  A    between atoms: O_15  and  C_5 
REMARK    4  A    between atoms: C_14  and  N_8 
REMARK    5  A    between atoms: C_10  and  C_14 
ROOT
ATOM      1  C   UNL d   1       3.865   0.572  -0.546  0.00  0.00     0.252 C 
ATOM      2  N   UNL d   1       3.736   1.334   0.593  0.00  0.00    -0.354 N 
ATOM      3  O   UNL d   1       3.623   1.074  -1.646  0.00  0.00    -0.268 OA
ATOM      4  H   UNL d   1       3.773   0.887   1.511  0.00  0.00     0.162 HD
ENDROOT
BRANCH   2   5
ATOM      5  C   UNL d   1       3.149   2.679   0.550  0.00  0.00     0.157 C 
BRANCH   5   6
ATOM      6  C   UNL d   1       4.155   3.833   0.378  0.00  0.00     0.171 C 
ATOM      7  O   UNL d   1       3.429   5.091   0.436  0.00  0.00    -0.339 OA
ATOM      8  C   UNL d   1       4.134   6.143  -0.101  0.00  0.00     0.102 A 
ATOM      9  C   UNL d   1       3.563   7.414  -0.024  0.00  0.00     0.039 A 
ATOM     10  C   UNL d   1       5.363   5.988  -0.750  0.00  0.00     0.102 A 
ATOM     11  C   UNL d   1       4.228   8.516  -0.577  0.00  0.00     0.003 A 
ATOM     12  C   UNL d   1       5.478   8.355  -1.177  0.00  0.00     0.003 A 
ATOM     13  C   UNL d   1       6.054   7.090  -1.250  0.00  0.00     0.039 A 
ATOM     14  O   UNL d   1       5.934   4.761  -0.966  0.00  0.00    -0.346 OA
ATOM     15  C   UNL d   1       4.916   3.750  -0.942  0.00  0.00     0.209 C 
ENDBRANCH   5   6
ENDBRANCH   2   5
BRANCH   1  16
ATOM     16  C   UNL d   1       4.293  -0.877  -0.504  0.00  0.00     0.048 A 
ATOM     17  C   UNL d   1       4.688  -1.667   0.593  0.00  0.00     0.053 A 
ATOM     18  C   UNL d   1       5.004  -3.036   0.404  0.00  0.00     0.019 A 
ATOM     19  C   UNL d   1       5.000  -3.616  -0.861  0.00  0.00     0.001 A 
ATOM     20  C   UNL d   1       4.659  -2.843  -1.958  0.00  0.00     0.001 A 
ATOM     21  C   UNL d   1       4.304  -1.503  -1.778  0.00  0.00     0.018 A 
BRANCH  17  22
ATOM     22  C   UNL d   1       4.762  -1.176   1.986  0.00  0.00     0.177 C 
ATOM     23  O   UNL d   1       3.931  -0.428   2.478  0.00  0.00    -0.646 OA
BRANCH  22  24
ATOM     24  O   UNL d   1       5.834  -1.620   2.668  0.00  0.00    -0.773 OA
ATOM     25  H   UNL d   1       6.494  -2.131   2.166  0.00  0.00     0.167 HD
ENDBRANCH  22  24
ENDBRANCH  17  22
ENDBRANCH   1  16
TORSDOF 5
