REMARK  5 active torsions:
REMARK  status: ('A' for Active; 'I' for Inactive)
REMARK    1  A    between atoms: C_8  and  C_3 
REMARK    2  A    between atoms: C_9  and  C_4 
REMARK    3  A    between atoms: C_10  and  C_8 
REMARK    4  A    between atoms: C_21  and  C_16 
REMARK    5  A    between atoms: C_24  and  C_21 
ROOT
ATOM      1  N   UNL d   1       0.944   0.198  -0.135  0.00  0.00    -0.322 N 
ATOM      2  HN  UNL d   1       1.833   0.435  -0.575  1.00  0.00     0.169 HD
ATOM      3  C   UNL d   1       0.504  -0.979   0.247  0.00  0.00     0.156 A 
ATOM      4  C   UNL d   1      -0.096   1.034   0.207  0.00  0.00     0.137 A 
ATOM      5  N   UNL d   1      -1.125   0.407   0.801  0.00  0.00    -0.242 N 
ATOM      6  HN  UNL d   1      -1.992   0.813   1.152  1.00  0.00     0.196 HD
ATOM      7  O   UNL d   1      -0.730  -0.931   0.825  0.00  0.00    -0.222 OA
ENDROOT
BRANCH   3   8
ATOM      8  C   UNL d   1       1.131  -2.325   0.090  0.00  0.00     0.092 C 
ATOM      9  C   UNL d   1       2.661  -2.224   0.154  0.00  0.00     0.023 C 
BRANCH   8  10
ATOM     10  C   UNL d   1       0.687  -2.997  -1.200  0.00  0.00    -0.046 A 
ATOM     11  C   UNL d   1       0.931  -2.400  -2.446  0.00  0.00     0.008 A 
ATOM     12  C   UNL d   1       0.512  -3.010  -3.627  0.00  0.00     0.007 A 
ATOM     13  C   UNL d   1      -0.164  -4.235  -3.595  0.00  0.00    -0.058 A 
ATOM     14  C   UNL d   1      -0.405  -4.840  -2.355  0.00  0.00     0.007 A 
ATOM     15  C   UNL d   1       0.011  -4.226  -1.168  0.00  0.00     0.008 A 
BRANCH  13  16
ATOM     16  C   UNL d   1      -0.590  -4.892  -4.887  0.00  0.00     0.042 C 
BRANCH  16  17
ATOM     17  C   UNL d   1      -2.104  -5.147  -5.022  0.00  0.00    -0.019 C 
ATOM     18  C   UNL d   1      -2.919  -3.852  -4.990  0.00  0.00     0.010 C 
ATOM     19  C   UNL d   1      -2.383  -5.895  -6.329  0.00  0.00     0.010 C 
ENDBRANCH  16  17
ENDBRANCH  13  16
ENDBRANCH   8  10
ENDBRANCH   3   8
BRANCH   4  20
ATOM     20  C   UNL d   1      -0.049   2.464  -0.075  0.00  0.00     0.010 A 
ATOM     21  C   UNL d   1       1.096   3.022  -0.666  0.00  0.00     0.017 A 
ATOM     22  C   UNL d   1       1.161   4.390  -0.947  0.00  0.00     0.025 A 
ATOM     23  C   UNL d   1       0.077   5.208  -0.640  0.00  0.00     0.034 A 
ATOM     24  C   UNL d   1      -1.069   4.672  -0.057  0.00  0.00     0.025 A 
ATOM     25 CL   UNL d   1       0.154   6.891  -0.985  0.00  0.00    -0.084 Cl
ATOM     26  C   UNL d   1      -1.133   3.302   0.225  0.00  0.00     0.017 A 
ENDBRANCH   4  20
TORSDOF 5
