REMARK  8 active torsions:
REMARK  status: ('A' for Active; 'I' for Inactive)
REMARK       I    between atoms: C_3  and  N_7 
REMARK    1  A    between atoms: C_5  and  C_3 
REMARK    2  A    between atoms: N_9  and  C_4 
REMARK    3  A    between atoms: N_11  and  C_6 
REMARK    4  A    between atoms: N_7  and  C_8 
REMARK    5  A    between atoms: C_19  and  N_9 
REMARK    6  A    between atoms: C_20  and  N_9 
REMARK    7  A    between atoms: C_21  and  N_11 
REMARK    8  A    between atoms: C_22  and  N_11 
ROOT
ATOM      1  N   UNL d   1      -1.327   0.042  -0.146  0.00  0.00    -0.327 N 
ATOM      2  HN  UNL d   1      -2.297   0.034  -0.458  1.00  0.00     0.169 HD
ATOM      3  C   UNL d   1      -0.669   1.233  -0.022  0.00  0.00     0.132 A 
ATOM      4  C   UNL d   1      -0.706  -1.134   0.143  0.00  0.00     0.104 A 
ATOM      5  C   UNL d   1       0.701   1.248   0.314  0.00  0.00     0.079 A 
ATOM      6  C   UNL d   1       0.620  -1.128   0.563  0.00  0.00     0.051 A 
ATOM      7  C   UNL d   1       1.332   0.061   0.650  0.00  0.00     0.037 A 
ENDROOT
BRANCH   5   8
ATOM      8  N   UNL d   1       1.452   2.435   0.157  0.00  0.00    -0.320 N 
ATOM      9  C   UNL d   1       2.575   2.792   0.864  0.00  0.00     0.262 C 
ATOM     10  O   UNL d   1       3.073   2.177   1.799  0.00  0.00    -0.267 OA
ATOM     11  H   UNL d   1       1.034   3.089  -0.492  0.00  0.00     0.169 HD
BRANCH   9  12
ATOM     12  C   UNL d   1       3.162   4.081   0.461  0.00  0.00     0.109 A 
ATOM     13  C   UNL d   1       3.511   5.027   1.421  0.00  0.00     0.135 A 
ATOM     14  F   UNL d   1       3.261   4.820   2.722  0.00  0.00    -0.205 F 
ATOM     15  C   UNL d   1       4.087   6.242   1.047  0.00  0.00     0.043 A 
ATOM     16  C   UNL d   1       4.325   6.514  -0.301  0.00  0.00     0.006 A 
ATOM     17  C   UNL d   1       3.975   5.572  -1.268  0.00  0.00     0.043 A 
ATOM     18  C   UNL d   1       3.397   4.365  -0.881  0.00  0.00     0.135 A 
ATOM     19  F   UNL d   1       3.067   3.485  -1.839  0.00  0.00    -0.205 F 
ENDBRANCH   9  12
ENDBRANCH   5   8
BRANCH   3  20
ATOM     20  N   UNL d   1      -1.374   2.433  -0.234  0.00  0.00    -0.366 N 
BRANCH  20  21
ATOM     21  C   UNL d   1      -2.626   2.343  -0.992  0.00  0.00     0.120 C 
ATOM     22  C   UNL d   1      -3.860   2.162  -0.119  0.00  0.00     0.026 C 
ENDBRANCH  20  21
BRANCH  20  23
ATOM     23  C   UNL d   1      -1.227   3.598   0.663  0.00  0.00     0.120 C 
ATOM     24  C   UNL d   1      -1.321   3.290   2.150  0.00  0.00     0.026 C 
ENDBRANCH  20  23
ENDBRANCH   3  20
BRANCH   4  25
ATOM     25  N   UNL d   1      -1.417  -2.330   0.032  0.00  0.00    -0.368 N 
BRANCH  25  26
ATOM     26  C   UNL d   1      -0.918  -3.605   0.556  0.00  0.00     0.120 C 
ATOM     27  C   UNL d   1      -0.956  -3.644   2.077  0.00  0.00     0.026 C 
ENDBRANCH  25  26
BRANCH  25  28
ATOM     28  C   UNL d   1      -2.488  -2.396  -0.966  0.00  0.00     0.120 C 
ATOM     29  C   UNL d   1      -1.966  -2.944  -2.292  0.00  0.00     0.026 C 
ENDBRANCH  25  28
ENDBRANCH   4  25
TORSDOF 8
