REMARK  3 active torsions:
REMARK  status: ('A' for Active; 'I' for Inactive)
REMARK       I    between atoms: N_5  and  C_1 
REMARK    1  A    between atoms: C_11  and  C_1 
REMARK    2  A    between atoms: C_4  and  C_9 
REMARK    3  A    between atoms: C_12  and  N_5 
ROOT
ATOM      1  C   UNL d   1       2.051  -5.069   0.229  0.00  0.00    -0.001 A 
ATOM      2  C   UNL d   1       0.802  -2.515   0.092  0.00  0.00     0.035 A 
ATOM      3  C   UNL d   1       1.066  -4.797  -0.724  0.00  0.00     0.016 A 
ATOM      4  C   UNL d   1       2.377  -4.054   1.139  0.00  0.00     0.016 A 
ATOM      5  C   UNL d   1       0.449  -3.542  -0.787  0.00  0.00     0.030 A 
ATOM      6  C   UNL d   1       1.764  -2.790   1.070  0.00  0.00     0.030 A 
ENDROOT
BRANCH   2   7
ATOM      7  N   UNL d   1       0.274  -1.200   0.010  0.00  0.00    -0.323 N 
ATOM      8  C   UNL d   1      -0.750  -0.796  -0.835  0.00  0.00     0.256 C 
ATOM      9  O   UNL d   1      -1.446  -1.553  -1.511  0.00  0.00    -0.267 OA
ATOM     10  H   UNL d   1       0.725  -0.506   0.589  0.00  0.00     0.169 HD
BRANCH   8  11
ATOM     11  C   UNL d   1      -1.052   0.662  -0.947  0.00  0.00     0.032 A 
ATOM     12  C   UNL d   1      -1.738   1.073  -2.105  0.00  0.00     0.017 A 
ATOM     13  C   UNL d   1      -2.163   2.392  -2.261  0.00  0.00     0.001 A 
ATOM     14  C   UNL d   1      -1.907   3.318  -1.257  0.00  0.00     0.000 A 
ATOM     15  C   UNL d   1      -1.200   2.933  -0.116  0.00  0.00     0.001 A 
ATOM     16  C   UNL d   1      -0.763   1.610   0.041  0.00  0.00     0.017 A 
ENDBRANCH   8  11
ENDBRANCH   2   7
BRANCH   1  17
ATOM     17  C   UNL d   1       2.717  -6.365   0.240  0.00  0.00     0.102 A 
ATOM     18  O   UNL d   1       3.685  -6.574   1.191  0.00  0.00    -0.304 OA
ATOM     19  C   UNL d   1       4.125  -7.838   0.943  0.00  0.00     0.233 A 
ATOM     20  N   UNL d   1       3.542  -8.450  -0.061  0.00  0.00    -0.354 N 
ATOM     21  C   UNL d   1       2.644  -7.518  -0.516  0.00  0.00     0.127 A 
ATOM     22  HN  UNL d   1       3.716  -9.390  -0.417  1.00  0.00     0.166 HD
ENDBRANCH   1  17
TORSDOF 3
