REMARK  5 active torsions:
REMARK  status: ('A' for Active; 'I' for Inactive)
REMARK    1  A    between atoms: C_9  and  N_1 
REMARK    2  A    between atoms: C_4  and  C_10 
REMARK    3  A    between atoms: C_23  and  C_8 
REMARK    4  A    between atoms: C_21  and  O_24 
REMARK    5  A    between atoms: O_24  and  C_23 
ROOT
ATOM      1  N   UNL d   1      -1.352  -5.101   2.346  0.00  0.00    -0.277 N 
ATOM      2  HN  UNL d   1      -0.642  -4.594   2.873  1.00  0.00     0.189 HD
ATOM      3  C   UNL d   1      -2.444  -4.594   1.807  0.00  0.00     0.174 A 
ATOM      4  O   UNL d   1      -3.195  -5.540   1.158  0.00  0.00    -0.275 OA
ATOM      5  N   UNL d   1      -1.357  -6.450   2.058  0.00  0.00    -0.279 N 
ATOM      6  HN  UNL d   1      -0.655  -7.136   2.335  1.00  0.00     0.189 HD
ATOM      7  C   UNL d   1      -2.447  -6.675   1.355  0.00  0.00     0.165 A 
ENDROOT
BRANCH   7   8
ATOM      8  C   UNL d   1      -3.019  -7.957   0.879  0.00  0.00     0.261 C 
BRANCH   8   9
ATOM      9  O   UNL d   1      -2.522  -8.212  -0.438  0.00  0.00    -0.343 OA
BRANCH   9  10
ATOM     10  C   UNL d   1      -2.900  -9.415  -0.977  0.00  0.00     0.070 A 
ATOM     11  C   UNL d   1      -4.076 -10.095  -0.665  0.00  0.00     0.045 A 
ATOM     12  C   UNL d   1      -4.387 -11.322  -1.276  0.00  0.00    -0.037 A 
ATOM     13  C   UNL d   1      -5.671 -12.011  -0.896  0.00  0.00     0.050 C 
ATOM     14  C   UNL d   1      -3.496 -11.867  -2.222  0.00  0.00     0.046 A 
ATOM     15  C   UNL d   1      -2.314 -11.184  -2.562  0.00  0.00    -0.037 A 
ATOM     16 CL   UNL d   1      -3.880 -13.389  -2.961  0.00  0.00    -0.083 Cl
ATOM     17  C   UNL d   1      -2.038  -9.953  -1.934  0.00  0.00     0.045 A 
ATOM     18  C   UNL d   1      -1.310 -11.690  -3.564  0.00  0.00     0.050 C 
ENDBRANCH   9  10
ENDBRANCH   8   9
ENDBRANCH   7   8
BRANCH   3  19
ATOM     19  C   UNL d   1      -2.949  -3.226   1.835  0.00  0.00     0.017 A 
ATOM     20  C   UNL d   1      -4.157  -2.861   1.222  0.00  0.00     0.018 A 
ATOM     21  C   UNL d   1      -4.604  -1.536   1.265  0.00  0.00     0.037 A 
ATOM     22  C   UNL d   1      -3.835  -0.567   1.924  0.00  0.00     0.108 A 
ATOM     23  C   UNL d   1      -2.632  -0.893   2.568  0.00  0.00    -0.028 A 
ATOM     24  C   UNL d   1      -2.204  -2.233   2.503  0.00  0.00     0.025 A 
ATOM     25  C   UNL d   1      -1.767   0.087   3.309  0.00  0.00     0.050 C 
BRANCH  22  26
ATOM     26  N   UNL d   1      -4.333   0.799   1.905  0.00  0.00    -0.115 N 
ATOM     27  O   UNL d   1      -3.617   1.657   1.373  0.00  0.00    -0.532 OA
ATOM     28  O   UNL d   1      -5.451   0.995   2.400  0.00  0.00    -0.532 OA
ENDBRANCH  22  26
ENDBRANCH   3  19
TORSDOF 5
