REMARK  8 active torsions:
REMARK  status: ('A' for Active; 'I' for Inactive)
REMARK    1  A    between atoms: C_4  and  C_1 
REMARK    2  A    between atoms: C_2  and  O_5 
REMARK       I    between atoms: N_6  and  C_2 
REMARK    3  A    between atoms: C_3  and  O_7 
REMARK    4  A    between atoms: O_5  and  C_4 
REMARK    5  A    between atoms: C_9  and  C_4 
REMARK    6  A    between atoms: C_16  and  N_6 
REMARK    7  A    between atoms: O_7  and  C_17 
REMARK    8  A    between atoms: C_18  and  C_9 
ROOT
ATOM      1  C   UNL d   1      -1.363  -1.208  -0.741  0.00  0.00     0.365 C 
ATOM      2  N   UNL d   1      -2.721  -1.333  -0.607  0.00  0.00    -0.303 N 
ATOM      3  O   UNL d   1      -0.629  -2.179  -0.863  0.00  0.00    -0.238 OA
ATOM      4  H   UNL d   1      -2.990  -2.312  -0.571  0.00  0.00     0.171 HD
ENDROOT
BRANCH   1   5
ATOM      5  O   UNL d   1      -0.914   0.068  -0.707  0.00  0.00    -0.289 OA
BRANCH   5   6
ATOM      6  C   UNL d   1       0.491   0.342  -0.927  0.00  0.00     0.245 C 
BRANCH   6   7
ATOM      7  C   UNL d   1       1.023  -0.181  -2.273  0.00  0.00     0.414 C 
ATOM      8  F   UNL d   1       0.040  -0.621  -3.091  0.00  0.00    -0.168 F 
ATOM      9  F   UNL d   1       1.927  -1.176  -2.134  0.00  0.00    -0.168 F 
ATOM     10  F   UNL d   1       1.649   0.825  -2.938  0.00  0.00    -0.168 F 
ENDBRANCH   6   7
BRANCH   6  11
ATOM     11  C   UNL d   1       1.401  -0.097   0.235  0.00  0.00     0.080 C 
BRANCH  11  12
ATOM     12  C   UNL d   1       1.152   0.434   1.631  0.00  0.00    -0.055 A 
ATOM     13  C   UNL d   1       0.069   1.239   2.007  0.00  0.00     0.007 A 
ATOM     14  C   UNL d   1      -0.095   1.632   3.341  0.00  0.00     0.001 A 
ATOM     15  C   UNL d   1       0.822   1.234   4.313  0.00  0.00     0.000 A 
ATOM     16  C   UNL d   1       1.909   0.446   3.954  0.00  0.00     0.001 A 
ATOM     17  C   UNL d   1       2.070   0.050   2.626  0.00  0.00     0.007 A 
ENDBRANCH  11  12
ENDBRANCH   6  11
ENDBRANCH   5   6
ENDBRANCH   1   5
BRANCH   2  18
ATOM     18  C   UNL d   1      -3.742  -0.373  -0.490  0.00  0.00     0.037 A 
ATOM     19  C   UNL d   1      -3.565   1.006  -0.620  0.00  0.00     0.032 A 
ATOM     20  C   UNL d   1      -4.632   1.902  -0.442  0.00  0.00     0.039 A 
ATOM     21  C   UNL d   1      -5.911   1.428  -0.171  0.00  0.00     0.078 A 
ATOM     22  C   UNL d   1      -6.101   0.049  -0.060  0.00  0.00     0.039 A 
ATOM     23  C   UNL d   1      -5.032  -0.843  -0.223  0.00  0.00     0.032 A 
BRANCH  21  24
ATOM     24  O   UNL d   1      -7.043   2.171  -0.017  0.00  0.00    -0.255 OA
BRANCH  24  25
ATOM     25  C   UNL d   1      -6.974   3.575  -0.213  0.00  0.00     0.530 C 
ATOM     26  F   UNL d   1      -6.306   3.902  -1.340  0.00  0.00    -0.144 F 
ATOM     27  F   UNL d   1      -8.233   4.053  -0.329  0.00  0.00    -0.144 F 
ATOM     28  F   UNL d   1      -6.390   4.174   0.846  0.00  0.00    -0.144 F 
ENDBRANCH  24  25
ENDBRANCH  21  24
ENDBRANCH   2  18
TORSDOF 8
