REMARK  3 active torsions:
REMARK  status: ('A' for Active; 'I' for Inactive)
REMARK    1  A    between atoms: N_9  and  C_1 
REMARK    2  A    between atoms: C_2  and  C_7 
REMARK       I    between atoms: C_7  and  N_9 
REMARK    3  A    between atoms: C_17  and  C_8 
ROOT
ATOM      1  C   UNL d   1       0.118  -1.023   0.209  0.00  0.00     0.126 A 
ATOM      2  N   UNL d   1       0.322   1.238   0.316  0.00  0.00    -0.296 N 
ATOM      3  HN  UNL d   1       0.072   2.226   0.358  1.00  0.00     0.187 HD
ATOM      4  C   UNL d   1       1.444  -0.701  -0.002  0.00  0.00     0.082 A 
ATOM      5  N   UNL d   1      -0.491   0.185   0.462  0.00  0.00    -0.281 N 
ATOM      6  C   UNL d   1       1.533   0.711   0.103  0.00  0.00     0.062 A 
ATOM      7  C   UNL d   1      -1.838   0.457   0.902  0.00  0.00     0.179 C 
ENDROOT
BRANCH   1   8
ATOM      8  N   UNL d   1      -0.481  -2.287   0.185  0.00  0.00    -0.307 N 
ATOM      9  C   UNL d   1       0.238  -3.518  -0.085  0.00  0.00     0.267 C 
ATOM     10  O   UNL d   1       1.446  -3.494  -0.246  0.00  0.00    -0.267 OA
ATOM     11  H   UNL d   1      -1.479  -2.337   0.340  0.00  0.00     0.170 HD
BRANCH   9  12
ATOM     12  C   UNL d   1      -0.557  -4.714  -0.143  0.00  0.00     0.114 A 
ATOM     13  C   UNL d   1      -0.183  -6.037  -0.374  0.00  0.00     0.046 A 
ATOM     14  N   UNL d   1      -1.241  -6.940  -0.376  0.00  0.00    -0.298 N 
ATOM     15  C   UNL d   1       1.171  -6.605  -0.629  0.00  0.00     0.071 C 
ATOM     16  N   UNL d   1      -2.398  -6.351  -0.145  0.00  0.00    -0.269 N 
ATOM     17  HN  UNL d   1      -1.134  -7.942  -0.537  1.00  0.00     0.187 HD
ATOM     18  S   UNL d   1      -2.255  -4.709   0.073  0.00  0.00     0.009 SA
ATOM     19  HN  UNL d   1      -3.287  -6.850  -0.105  1.00  0.00     0.195 HD
ENDBRANCH   9  12
ENDBRANCH   1   8
BRANCH   6  20
ATOM     20  C   UNL d   1       2.718   1.560   0.052  0.00  0.00    -0.008 A 
ATOM     21  C   UNL d   1       2.622   2.871  -0.436  0.00  0.00     0.014 A 
ATOM     22  C   UNL d   1       3.722   3.728  -0.385  0.00  0.00     0.001 A 
ATOM     23  C   UNL d   1       4.926   3.282   0.154  0.00  0.00     0.000 A 
ATOM     24  C   UNL d   1       5.039   1.973   0.622  0.00  0.00     0.001 A 
ATOM     25  C   UNL d   1       3.942   1.110   0.565  0.00  0.00     0.014 A 
ENDBRANCH   6  20
TORSDOF 3
