REMARK  3 active torsions:
REMARK  status: ('A' for Active; 'I' for Inactive)
REMARK    1  A    between atoms: C_8  and  C_1 
REMARK    2  A    between atoms: C_11  and  C_5 
REMARK    3  A    between atoms: N_10  and  C_11 
ROOT
ATOM      1  C   UNL d   1       0.155  -1.117  -0.070  0.00  0.00     0.175 A 
ATOM      2  N   UNL d   1       1.390  -0.672   0.008  0.00  0.00    -0.277 N 
ATOM      3  HN  UNL d   1       2.237  -1.238   0.065  1.00  0.00     0.189 HD
ATOM      4  O   UNL d   1      -0.760  -0.093  -0.161  0.00  0.00    -0.276 OA
ATOM      5  C   UNL d   1       0.044   1.013  -0.072  0.00  0.00     0.169 A 
ATOM      6  N   UNL d   1       1.323   0.706  -0.002  0.00  0.00    -0.280 N 
ATOM      7  HN  UNL d   1       2.107   1.358   0.037  1.00  0.00     0.189 HD
ENDROOT
BRANCH   1   8
ATOM      8  C   UNL d   1      -0.393  -2.474  -0.036  0.00  0.00     0.028 A 
ATOM      9  C   UNL d   1       0.192  -3.520   0.742  0.00  0.00    -0.011 A 
ATOM     10  C   UNL d   1      -0.408  -4.807   0.714  0.00  0.00    -0.025 A 
ATOM     11  C   UNL d   1       1.333  -3.365   1.573  0.00  0.00     0.013 A 
ATOM     12  C   UNL d   1       0.133  -5.864   1.463  0.00  0.00     0.012 A 
ATOM     13  C   UNL d   1      -1.558  -5.031  -0.061  0.00  0.00     0.012 A 
ATOM     14  C   UNL d   1       1.260  -5.675   2.261  0.00  0.00     0.001 A 
ATOM     15  C   UNL d   1       1.856  -4.425   2.320  0.00  0.00     0.001 A 
ATOM     16  C   UNL d   1      -2.125  -4.007  -0.809  0.00  0.00     0.002 A 
ATOM     17  C   UNL d   1      -1.549  -2.743  -0.797  0.00  0.00     0.017 A 
ENDBRANCH   1   8
BRANCH   5  18
ATOM     18  C   UNL d   1      -0.614   2.350  -0.075  0.00  0.00     0.358 C 
BRANCH  18  19
ATOM     19  N   UNL d   1      -1.059   2.924   1.209  0.00  0.00     0.100 N 
ATOM     20  C   UNL d   1       0.011   3.185   2.185  0.00  0.00     0.299 C 
ATOM     21  C   UNL d   1       0.389   1.980   3.064  0.00  0.00     0.198 C 
ATOM     22  O   UNL d   1      -0.762   1.422   3.710  0.00  0.00    -0.388 OA
ATOM     23  C   UNL d   1      -1.770   1.048   2.765  0.00  0.00     0.198 C 
ATOM     24  C   UNL d   1      -2.175   2.227   1.865  0.00  0.00     0.299 C 
ENDBRANCH  18  19
ENDBRANCH   5  18
TORSDOF 3
