REMARK  6 active torsions:
REMARK  status: ('A' for Active; 'I' for Inactive)
REMARK    1  A    between atoms: N_3  and  C_1 
REMARK    2  A    between atoms: C_5  and  N_3 
REMARK    3  A    between atoms: C_8  and  N_4 
REMARK    4  A    between atoms: C_6  and  C_5 
REMARK    5  A    between atoms: O_7  and  C_9 
REMARK    6  A    between atoms: C_9  and  C_8 
ROOT
ATOM      1  N   UNL d   1       0.162  -0.598  -0.768  0.00  0.00    -0.363 N 
ATOM      2  H   UNL d   1       0.536  -0.760   0.156  0.00  0.00     0.162 HD
ENDROOT
BRANCH   1   3
ATOM      3  C   UNL d   1       1.051  -0.031  -1.627  0.00  0.00     0.167 C 
ATOM      4  S   UNL d   1       2.593   0.262  -1.058  0.00  0.00    -0.041 SA
ATOM      5  N   UNL d   1       0.611   0.198  -2.891  0.00  0.00    -0.365 N 
ATOM      6  H   UNL d   1      -0.384   0.148  -3.067  0.00  0.00     0.161 HD
BRANCH   5   7
ATOM      7  C   UNL d   1       1.387   0.688  -4.027  0.00  0.00     0.148 C 
BRANCH   7   8
ATOM      8  C   UNL d   1       0.777   0.195  -5.338  0.00  0.00     0.183 C 
BRANCH   8   9
ATOM      9  O   UNL d   1      -0.518   0.768  -5.514  0.00  0.00    -0.399 OA
ATOM     10  H   UNL d   1      -0.869   0.412  -6.349  0.00  0.00     0.209 HD
ENDBRANCH   8   9
ENDBRANCH   7   8
ENDBRANCH   5   7
ENDBRANCH   1   3
BRANCH   1  11
ATOM     11  C   UNL d   1      -1.266  -0.809  -0.933  0.00  0.00     0.160 C 
BRANCH  11  12
ATOM     12  C   UNL d   1      -1.646  -1.883  -1.925  0.00  0.00    -0.041 A 
ATOM     13  C   UNL d   1      -0.853  -3.018  -2.142  0.00  0.00     0.009 A 
ATOM     14  C   UNL d   1      -1.258  -4.009  -3.041  0.00  0.00     0.001 A 
ATOM     15  C   UNL d   1      -2.467  -3.885  -3.721  0.00  0.00     0.000 A 
ATOM     16  C   UNL d   1      -3.274  -2.770  -3.505  0.00  0.00     0.001 A 
ATOM     17  C   UNL d   1      -2.868  -1.778  -2.608  0.00  0.00     0.009 A 
ENDBRANCH  11  12
ENDBRANCH   1  11
TORSDOF 6
