REMARK  4 active torsions:
REMARK  status: ('A' for Active; 'I' for Inactive)
REMARK    1  A    between atoms: N_6  and  C_1 
REMARK    2  A    between atoms: C_12  and  N_2 
REMARK       I    between atoms: C_8  and  N_6 
REMARK    3  A    between atoms: C_13  and  C_8 
REMARK    4  A    between atoms: N_11  and  C_13 
ROOT
ATOM      1  C   UNL d   1       1.276  -0.876   1.024  0.00  0.00     0.152 C 
ATOM      2  N   UNL d   1       1.300  -0.361   2.330  0.00  0.00    -0.239 N 
ATOM      3  N   UNL d   1       0.447   0.696   2.451  0.00  0.00    -0.302 N 
ATOM      4  HN  UNL d   1       0.376   1.353   3.228  1.00  0.00     0.186 HD
ATOM      5  C   UNL d   1       0.173  -0.291   0.424  0.00  0.00     0.107 C 
ATOM      6  C   UNL d   1      -0.272   0.680   1.332  0.00  0.00     0.134 C 
ATOM      7  C   UNL d   1      -0.327  -0.470  -0.899  0.00  0.00     0.105 C 
ATOM      8  N   UNL d   1      -0.736  -0.552  -1.982  0.00  0.00    -0.191 NA
ENDROOT
BRANCH   1   9
ATOM      9  N   UNL d   1       2.222  -1.751   0.484  0.00  0.00    -0.309 N 
ATOM     10  C   UNL d   1       1.810  -2.917  -0.157  0.00  0.00     0.240 C 
ATOM     11  O   UNL d   1       0.645  -3.308  -0.160  0.00  0.00    -0.271 OA
ATOM     12  H   UNL d   1       3.171  -1.720   0.840  0.00  0.00     0.170 HD
BRANCH  10  13
ATOM     13  C   UNL d   1       2.943  -3.652  -0.889  0.00  0.00     0.220 C 
BRANCH  13  14
ATOM     14  N   UNL d   1       3.182  -5.048  -0.523  0.00  0.00    -0.400 N 
ATOM     15  C   UNL d   1       2.032  -5.956  -0.457  0.00  0.00     0.143 C 
ATOM     16  C   UNL d   1       1.533  -6.221   0.974  0.00  0.00     0.187 C 
ATOM     17  O   UNL d   1       2.604  -6.662   1.821  0.00  0.00    -0.388 OA
ATOM     18  C   UNL d   1       3.633  -5.672   1.880  0.00  0.00     0.187 C 
ATOM     19  C   UNL d   1       4.194  -5.351   0.487  0.00  0.00     0.143 C 
ENDBRANCH  13  14
ENDBRANCH  10  13
ENDBRANCH   1   9
BRANCH   2  20
ATOM     20  C   UNL d   1       1.971  -0.848   3.497  0.00  0.00     0.058 A 
ATOM     21  C   UNL d   1       2.687  -2.049   3.497  0.00  0.00     0.031 A 
ATOM     22  C   UNL d   1       3.269  -2.536   4.675  0.00  0.00     0.002 A 
ATOM     23  C   UNL d   1       3.115  -1.843   5.868  0.00  0.00     0.000 A 
ATOM     24  C   UNL d   1       2.388  -0.654   5.888  0.00  0.00     0.002 A 
ATOM     25  C   UNL d   1       1.825  -0.155   4.711  0.00  0.00     0.031 A 
ENDBRANCH   2  20
TORSDOF 4
