REMARK  9 active torsions:
REMARK  status: ('A' for Active; 'I' for Inactive)
REMARK    1  A    between atoms: C_7  and  N_1 
REMARK    2  A    between atoms: C_6  and  N_3 
REMARK    3  A    between atoms: C_12  and  C_5 
REMARK    4  A    between atoms: C_13  and  C_5 
REMARK    5  A    between atoms: C_8  and  C_6 
REMARK    6  A    between atoms: C_11  and  C_7 
REMARK    7  A    between atoms: C_15  and  C_8 
REMARK    8  A    between atoms: O_17  and  C_11 
REMARK    9  A    between atoms: C_24  and  O_17 
ROOT
ATOM      1  N   UNL d   1      -0.032   0.909  -0.133  0.00  0.00    -0.258 N 
ATOM      2  C   UNL d   1       1.084   0.148  -0.262  0.00  0.00     0.329 C 
ATOM      3  N   UNL d   1       0.786  -1.152   0.137  0.00  0.00    -0.300 N 
ATOM      4  C   UNL d   1      -1.134   0.112  -0.084  0.00  0.00     0.266 C 
ATOM      5  C   UNL d   1      -0.676  -1.385   0.050  0.00  0.00     0.174 C 
ATOM      6  O   UNL d   1       2.142   0.522  -0.739  0.00  0.00    -0.246 OA
ATOM      7  O   UNL d   1      -2.289   0.521  -0.160  0.00  0.00    -0.269 OA
ENDROOT
BRANCH   5   8
ATOM      8  C   UNL d   1      -1.075  -2.146  -1.251  0.00  0.00    -0.016 C 
ATOM      9  C   UNL d   1      -0.270  -2.117  -2.408  0.00  0.00     0.010 C 
ATOM     10  C   UNL d   1      -0.533  -2.940  -3.506  0.00  0.00     0.001 C 
ATOM     11  C   UNL d   1      -1.652  -3.763  -3.505  0.00  0.00     0.000 C 
ATOM     12  C   UNL d   1      -2.528  -3.728  -2.425  0.00  0.00     0.001 C 
ATOM     13  C   UNL d   1      -2.254  -2.915  -1.320  0.00  0.00     0.010 C 
ENDBRANCH   5   8
BRANCH   5  14
ATOM     14  C   UNL d   1      -1.224  -2.031   1.355  0.00  0.00    -0.016 A 
ATOM     15  C   UNL d   1      -1.938  -1.290   2.321  0.00  0.00     0.010 A 
ATOM     16  C   UNL d   1      -2.545  -1.906   3.419  0.00  0.00     0.001 A 
ATOM     17  C   UNL d   1      -2.431  -3.280   3.600  0.00  0.00     0.000 A 
ATOM     18  C   UNL d   1      -1.693  -4.032   2.694  0.00  0.00     0.001 A 
ATOM     19  C   UNL d   1      -1.092  -3.417   1.590  0.00  0.00     0.010 A 
ENDBRANCH   5  14
BRANCH   3  20
ATOM     20  C   UNL d   1       1.791  -2.205  -0.002  0.00  0.00     0.213 C 
BRANCH  20  21
ATOM     21  C   UNL d   1       3.104  -1.917   0.737  0.00  0.00     0.177 C 
ATOM     22  O   UNL d   1       3.264  -0.947   1.478  0.00  0.00    -0.291 OA
BRANCH  21  23
ATOM     23  C   UNL d   1       4.231  -2.888   0.569  0.00  0.00     0.011 A 
ATOM     24  C   UNL d   1       4.068  -4.142  -0.038  0.00  0.00     0.015 A 
ATOM     25  C   UNL d   1       5.141  -5.037  -0.097  0.00  0.00     0.001 A 
ATOM     26  C   UNL d   1       6.379  -4.686   0.437  0.00  0.00     0.000 A 
ATOM     27  C   UNL d   1       6.555  -3.433   1.020  0.00  0.00     0.001 A 
ATOM     28  C   UNL d   1       5.487  -2.537   1.084  0.00  0.00     0.015 A 
ENDBRANCH  21  23
ENDBRANCH  20  21
ENDBRANCH   3  20
BRANCH   1  29
ATOM     29  C   UNL d   1      -0.030   2.358  -0.141  0.00  0.00     0.247 C 
BRANCH  29  30
ATOM     30  C   UNL d   1       0.113   2.957   1.247  0.00  0.00     0.277 C 
ATOM     31  O   UNL d   1       0.193   4.172   1.457  0.00  0.00    -0.263 OA
BRANCH  30  32
ATOM     32  O   UNL d   1       0.180   2.012   2.231  0.00  0.00    -0.321 OA
BRANCH  32  33
ATOM     33  C   UNL d   1       0.672   2.457   3.510  0.00  0.00     0.174 C 
ATOM     34  C   UNL d   1       2.186   2.356   3.503  0.00  0.00     0.034 C 
ENDBRANCH  32  33
ENDBRANCH  30  32
ENDBRANCH  29  30
ENDBRANCH   1  29
TORSDOF 9
