REMARK  5 active torsions:
REMARK  status: ('A' for Active; 'I' for Inactive)
REMARK    1  A    between atoms: C_14  and  N_2 
REMARK    2  A    between atoms: C_11  and  C_4 
REMARK    3  A    between atoms: C_15  and  N_5 
REMARK       I    between atoms: N_13  and  C_11 
REMARK    4  A    between atoms: C_18  and  C_12 
REMARK    5  A    between atoms: C_19  and  N_13 
ROOT
ATOM      1  C   UNL d   1       0.048  -0.170  -0.365  0.00  0.00     0.247 C 
ATOM      2  N   UNL d   1       1.175  -1.022  -0.685  0.00  0.00    -0.265 N 
ATOM      3  S   UNL d   1      -0.646  -0.559   1.300  0.00  0.00    -0.037 SA
ATOM      4  C   UNL d   1      -2.175  -0.037   0.683  0.00  0.00     0.158 C 
ATOM      5  N   UNL d   1      -1.148  -0.154  -1.243  0.00  0.00    -0.241 N 
ATOM      6  N   UNL d   1      -2.353   0.125  -0.583  0.00  0.00    -0.283 N 
ATOM      7  HN  UNL d   1      -3.225   0.408  -1.030  1.00  0.00     0.188 HD
ATOM      8  S   UNL d   1       0.744   1.540  -0.190  0.00  0.00    -0.056 SA
ATOM      9  C   UNL d   1       2.376  -0.565  -0.135  0.00  0.00     0.268 C 
ATOM     10  C   UNL d   1       2.323   0.909   0.120  0.00  0.00     0.074 C 
ATOM     11  C   UNL d   1       3.339   1.708   0.477  0.00  0.00     0.035 C 
ATOM     12  O   UNL d   1       3.362  -1.252   0.121  0.00  0.00    -0.266 OA
ENDROOT
BRANCH   2  13
ATOM     13  C   UNL d   1       1.131  -2.326  -1.262  0.00  0.00     0.041 A 
ATOM     14  C   UNL d   1       0.100  -3.238  -1.041  0.00  0.00     0.030 A 
ATOM     15  C   UNL d   1       0.130  -4.504  -1.651  0.00  0.00     0.002 A 
ATOM     16  C   UNL d   1       1.162  -4.852  -2.523  0.00  0.00     0.000 A 
ATOM     17  C   UNL d   1       2.203  -3.960  -2.747  0.00  0.00     0.002 A 
ATOM     18  C   UNL d   1       2.194  -2.719  -2.101  0.00  0.00     0.030 A 
ENDBRANCH   2  13
BRANCH   5  19
ATOM     19  C   UNL d   1      -1.204  -0.169  -2.635  0.00  0.00     0.055 A 
ATOM     20  C   UNL d   1      -2.333  -0.739  -3.261  0.00  0.00     0.031 A 
ATOM     21  C   UNL d   1      -2.431  -0.870  -4.648  0.00  0.00     0.002 A 
ATOM     22  C   UNL d   1      -1.416  -0.380  -5.456  0.00  0.00     0.000 A 
ATOM     23  C   UNL d   1      -0.325   0.260  -4.872  0.00  0.00     0.002 A 
ATOM     24  C   UNL d   1      -0.214   0.352  -3.475  0.00  0.00     0.031 A 
ENDBRANCH   5  19
BRANCH   4  25
ATOM     25  C   UNL d   1      -3.144   0.187   1.800  0.00  0.00     0.281 C 
ATOM     26  N   UNL d   1      -4.014   1.260   1.641  0.00  0.00    -0.321 N 
ATOM     27  H   UNL d   1      -4.086   1.660   0.709  0.00  0.00     0.169 HD
ATOM     28  O   UNL d   1      -3.145  -0.609   2.739  0.00  0.00    -0.265 OA
BRANCH  26  29
ATOM     29  C   UNL d   1      -4.972   1.658   2.609  0.00  0.00     0.035 A 
ATOM     30  C   UNL d   1      -4.877   1.283   3.955  0.00  0.00     0.029 A 
ATOM     31  C   UNL d   1      -5.892   1.579   4.860  0.00  0.00     0.002 A 
ATOM     32  C   UNL d   1      -7.016   2.290   4.439  0.00  0.00     0.000 A 
ATOM     33  C   UNL d   1      -7.085   2.736   3.120  0.00  0.00     0.002 A 
ATOM     34  C   UNL d   1      -6.066   2.435   2.210  0.00  0.00     0.029 A 
ENDBRANCH  26  29
ENDBRANCH   4  25
BRANCH  11  35
ATOM     35  C   UNL d   1       4.727   1.292   0.674  0.00  0.00    -0.035 A 
ATOM     36  C   UNL d   1       5.605   1.252  -0.415  0.00  0.00     0.011 A 
ATOM     37  C   UNL d   1       6.935   0.875  -0.229  0.00  0.00     0.001 A 
ATOM     38  C   UNL d   1       7.393   0.536   1.044  0.00  0.00     0.000 A 
ATOM     39  C   UNL d   1       6.520   0.571   2.131  0.00  0.00     0.001 A 
ATOM     40  C   UNL d   1       5.188   0.948   1.948  0.00  0.00     0.011 A 
ENDBRANCH  11  35
TORSDOF 5
