REMARK  4 active torsions:
REMARK  status: ('A' for Active; 'I' for Inactive)
REMARK    1  A    between atoms: C_6  and  C_1 
REMARK    2  A    between atoms: C_5  and  C_4 
REMARK       I    between atoms: N_13  and  C_6 
REMARK    3  A    between atoms: C_8  and  C_12 
REMARK       I    between atoms: C_11  and  N_16 
REMARK       I    between atoms: N_23  and  C_11 
REMARK    4  A    between atoms: N_16  and  N_13 
ROOT
ATOM      1  C   UNL d   1       1.218   0.835   0.011  0.00  0.00     0.110 A 
ATOM      2  N   UNL d   1       1.421  -0.544  -0.006  0.00  0.00    -0.345 N 
ATOM      3  HN  UNL d   1       2.337  -0.992  -0.025  1.00  0.00     0.167 HD
ATOM      4  C   UNL d   1       0.271  -1.193   0.004  0.00  0.00     0.086 A 
ATOM      5  S   UNL d   1      -1.120  -0.166   0.020  0.00  0.00    -0.081 SA
ATOM      6  C   UNL d   1      -0.111   1.212   0.073  0.00  0.00     0.087 A 
ENDROOT
BRANCH   1   7
ATOM      7  C   UNL d   1       2.333   1.792  -0.017  0.00  0.00     0.287 C 
ATOM      8  N   UNL d   1       3.579   1.210  -0.119  0.00  0.00    -0.261 N 
ATOM      9  H   UNL d   1       3.698   0.204  -0.233  0.00  0.00     0.190 HD
ATOM     10  O   UNL d   1       2.171   3.009   0.045  0.00  0.00    -0.264 OA
BRANCH   8  11
ATOM     11  N   UNL d   1       4.726   2.034  -0.131  0.00  0.00    -0.249 N 
ATOM     12  C   UNL d   1       5.848   1.573  -0.795  0.00  0.00     0.334 C 
ATOM     13  O   UNL d   1       5.927   0.470  -1.320  0.00  0.00    -0.246 OA
ATOM     14  N   UNL d   1       6.865   2.501  -0.768  0.00  0.00    -0.346 N 
ATOM     15  C   UNL d   1       8.162   2.249  -1.351  0.00  0.00     0.151 C 
ATOM     16  H   UNL d   1       6.807   3.210  -0.051  0.00  0.00     0.163 HD
ATOM     17  H   UNL d   1       4.521   3.027  -0.220  0.00  0.00     0.192 HD
ENDBRANCH   8  11
ENDBRANCH   1   7
BRANCH   4  18
ATOM     18  C   UNL d   1       0.124  -2.666   0.013  0.00  0.00     0.019 A 
ATOM     19  C   UNL d   1       1.036  -3.520  -0.635  0.00  0.00     0.047 A 
ATOM     20  C   UNL d   1       0.890  -4.916  -0.566  0.00  0.00     0.041 A 
ATOM     21 CL   UNL d   1       2.367  -2.945  -1.581  0.00  0.00    -0.083 Cl
ATOM     22  C   UNL d   1      -0.166  -5.501   0.145  0.00  0.00     0.049 A 
ATOM     23  C   UNL d   1      -1.083  -4.662   0.785  0.00  0.00     0.017 A 
ATOM     24  C   UNL d   1      -0.937  -3.270   0.722  0.00  0.00     0.017 A 
BRANCH  22  25
ATOM     25  C   UNL d   1      -0.318  -7.000   0.234  0.00  0.00     0.417 C 
ATOM     26  F   UNL d   1       0.641  -7.686  -0.446  0.00  0.00    -0.166 F 
ATOM     27  F   UNL d   1      -0.262  -7.450   1.517  0.00  0.00    -0.166 F 
ATOM     28  F   UNL d   1      -1.511  -7.430  -0.262  0.00  0.00    -0.166 F 
ENDBRANCH  22  25
ENDBRANCH   4  18
TORSDOF 4
