REMARK  6 active torsions:
REMARK  status: ('A' for Active; 'I' for Inactive)
REMARK    1  A    between atoms: C_7  and  C_1 
REMARK    2  A    between atoms: C_8  and  N_2 
REMARK       I    between atoms: N_12  and  C_7 
REMARK    3  A    between atoms: C_19  and  N_12 
REMARK    4  A    between atoms: C_15  and  C_18 
REMARK    5  A    between atoms: O_22  and  C_17 
REMARK    6  A    between atoms: C_18  and  C_19 
ROOT
ATOM      1  C   UNL d   1      -0.326   1.247   0.014  0.00  0.00     0.073 C 
ATOM      2  N   UNL d   1       0.973  -0.574  -0.029  0.00  0.00    -0.260 N 
ATOM      3  C   UNL d   1       1.000   0.818  -0.009  0.00  0.00     0.048 C 
ATOM      4  N   UNL d   1      -0.295  -1.026  -0.215  0.00  0.00    -0.304 N 
ATOM      5  HN  UNL d   1      -0.593  -1.985  -0.394  1.00  0.00     0.186 HD
ATOM      6  C   UNL d   1      -1.063   0.057  -0.111  0.00  0.00     0.126 C 
ATOM      7  C   UNL d   1       2.225   1.662  -0.084  0.00  0.00     0.071 C 
ENDROOT
BRANCH   1   8
ATOM      8  C   UNL d   1      -0.763   2.636   0.101  0.00  0.00     0.255 C 
ATOM      9  O   UNL d   1       0.034   3.570   0.173  0.00  0.00    -0.268 OA
ATOM     10  N   UNL d   1      -2.121   2.852   0.092  0.00  0.00    -0.356 N 
ATOM     11  H   UNL d   1      -2.764   2.102  -0.117  0.00  0.00     0.162 HD
BRANCH  10  12
ATOM     12  C   UNL d   1      -2.666   4.200   0.056  0.00  0.00     0.129 C 
BRANCH  12  13
ATOM     13  C   UNL d   1      -2.758   4.759  -1.367  0.00  0.00     0.076 C 
BRANCH  13  14
ATOM     14  C   UNL d   1      -3.732   4.010  -2.247  0.00  0.00     0.010 A 
ATOM     15  N   UNL d   1      -4.785   3.397  -1.651  0.00  0.00    -0.369 N 
ATOM     16  C   UNL d   1      -5.676   2.768  -2.448  0.00  0.00     0.088 A 
ATOM     17  HN  UNL d   1      -4.899   3.410  -0.638  1.00  0.00     0.165 HD
ATOM     18  C   UNL d   1      -5.572   2.715  -3.826  0.00  0.00     0.017 A 
ATOM     19  C   UNL d   1      -4.493   3.353  -4.426  0.00  0.00     0.003 A 
ATOM     20  C   UNL d   1      -3.563   4.017  -3.630  0.00  0.00     0.025 A 
ENDBRANCH  13  14
ENDBRANCH  12  13
ENDBRANCH  10  12
ENDBRANCH   1   8
BRANCH   2  21
ATOM     21  C   UNL d   1       2.040  -1.511   0.104  0.00  0.00     0.056 A 
ATOM     22  C   UNL d   1       3.221  -1.190   0.783  0.00  0.00     0.034 A 
ATOM     23  C   UNL d   1       4.273  -2.111   0.859  0.00  0.00     0.039 A 
ATOM     24  C   UNL d   1       4.149  -3.371   0.275  0.00  0.00     0.068 A 
ATOM     25  C   UNL d   1       2.948  -3.718  -0.345  0.00  0.00     0.039 A 
ATOM     26  C   UNL d   1       1.895  -2.800  -0.429  0.00  0.00     0.034 A 
BRANCH  24  27
ATOM     27  O   UNL d   1       5.106  -4.347   0.290  0.00  0.00    -0.356 OA
ATOM     28  C   UNL d   1       6.450  -3.899   0.438  0.00  0.00     0.210 C 
ENDBRANCH  24  27
ENDBRANCH   2  21
TORSDOF 6
