REMARK  2 active torsions:
REMARK  status: ('A' for Active; 'I' for Inactive)
REMARK    1  A    between atoms: C_3  and  N_1 
REMARK    2  A    between atoms: C_2  and  C_3 
ROOT
ATOM      1  C   UNL d   1      -0.525  -3.611   0.518  0.00  0.00     0.003 A 
ATOM      2  C   UNL d   1       0.003  -4.088   1.734  0.00  0.00     0.043 A 
ATOM      3  C   UNL d   1      -0.395  -4.442  -0.612  0.00  0.00     0.043 A 
ATOM      4 CL   UNL d   1      -0.906  -3.943  -2.188  0.00  0.00    -0.084 Cl
ATOM      5 CL   UNL d   1      -0.022  -3.142   3.182  0.00  0.00    -0.084 Cl
ATOM      6  C   UNL d   1       0.636  -6.189   0.709  0.00  0.00     0.003 A 
ATOM      7  C   UNL d   1       0.170  -5.719  -0.514  0.00  0.00     0.024 A 
ATOM      8  C   UNL d   1       0.571  -5.366   1.828  0.00  0.00     0.024 A 
ENDROOT
BRANCH   1   9
ATOM      9  C   UNL d   1      -1.252  -2.288   0.447  0.00  0.00     0.168 C 
BRANCH   9  10
ATOM     10  N   UNL d   1      -0.414  -1.119   0.223  0.00  0.00    -0.338 N 
ATOM     11  C   UNL d   1      -0.854   0.121   0.694  0.00  0.00     0.230 C 
ATOM     12  O   UNL d   1      -1.832   0.292   1.402  0.00  0.00    -0.273 OA
ATOM     13  C   UNL d   1       0.020   1.261   0.207  0.00  0.00     0.178 C 
ATOM     14  S   UNL d   1       1.371   0.514  -0.731  0.00  0.00    -0.140 SA
ATOM     15  C   UNL d   1       0.518  -1.061  -0.872  0.00  0.00     0.200 C 
ENDBRANCH   9  10
ENDBRANCH   1   9
TORSDOF 2
