REMARK  3 active torsions:
REMARK  status: ('A' for Active; 'I' for Inactive)
REMARK    1  A    between atoms: C_2  and  N_1 
REMARK    2  A    between atoms: C_11  and  C_5 
REMARK    3  A    between atoms: C_12  and  C_6 
ROOT
ATOM      1  C   UNL d   1      -0.055   2.285  -0.078  0.00  0.00     0.059 A 
ATOM      2  C   UNL d   1      -0.621   2.988   1.020  0.00  0.00    -0.027 A 
ATOM      3  C   UNL d   1       0.580   2.985  -1.143  0.00  0.00    -0.027 A 
ATOM      4  C   UNL d   1       0.674   4.384  -1.056  0.00  0.00     0.010 A 
ATOM      5  C   UNL d   1      -0.460   4.383   1.069  0.00  0.00     0.010 A 
ATOM      6  C   UNL d   1       0.182   5.072   0.046  0.00  0.00     0.001 A 
ENDROOT
BRANCH   1   7
ATOM      7  N   UNL d   1      -0.054   0.880  -0.075  0.00  0.00    -0.244 N 
ATOM      8  C   UNL d   1      -1.067   0.092  -0.528  0.00  0.00     0.255 A 
ATOM      9  C   UNL d   1      -0.625  -1.300  -0.353  0.00  0.00     0.080 A 
ATOM     10  O   UNL d   1      -2.149   0.386  -1.004  0.00  0.00    -0.268 OA
ATOM     11  C   UNL d   1       0.603  -1.283   0.166  0.00  0.00     0.080 A 
ATOM     12  C   UNL d   1       1.002   0.123   0.337  0.00  0.00     0.255 A 
ATOM     13  O   UNL d   1       2.093   0.449   0.768  0.00  0.00    -0.268 OA
ENDBRANCH   1   7
BRANCH   2  14
ATOM     14  C   UNL d   1      -1.363   2.277   2.152  0.00  0.00     0.013 C 
ATOM     15  C   UNL d   1      -0.411   1.921   3.295  0.00  0.00     0.015 C 
ATOM     16  C   UNL d   1      -2.560   3.072   2.700  0.00  0.00     0.015 C 
ENDBRANCH   2  14
BRANCH   3  17
ATOM     17  C   UNL d   1       1.074   2.279  -2.406  0.00  0.00     0.013 C 
ATOM     18  C   UNL d   1      -0.002   2.349  -3.496  0.00  0.00     0.015 C 
ATOM     19  C   UNL d   1       2.402   2.824  -2.947  0.00  0.00     0.015 C 
ENDBRANCH   3  17
TORSDOF 3
