REMARK  7 active torsions:
REMARK  status: ('A' for Active; 'I' for Inactive)
REMARK    1  A    between atoms: C_3  and  C_1 
REMARK    2  A    between atoms: C_2  and  C_4 
REMARK    3  A    between atoms: C_10  and  C_5 
REMARK    4  A    between atoms: C_6  and  O_12 
REMARK    5  A    between atoms: C_11  and  C_6 
REMARK    6  A    between atoms: C_14  and  C_10 
REMARK    7  A    between atoms: O_12  and  C_14 
ROOT
ATOM      1  C   UNL d   1      -0.893   2.630  -1.935  0.00  0.00     0.049 A 
ATOM      2  C   UNL d   1       1.393   1.833  -2.284  0.00  0.00     0.049 A 
ATOM      3  C   UNL d   1       0.968   3.673  -0.748  0.00  0.00     0.013 A 
ATOM      4  C   UNL d   1       0.016   1.754  -2.551  0.00  0.00     0.032 A 
ATOM      5  C   UNL d   1      -0.404   3.581  -1.025  0.00  0.00     0.031 A 
ATOM      6  C   UNL d   1       1.860   2.804  -1.382  0.00  0.00     0.031 A 
ENDROOT
BRANCH   3   7
ATOM      7  C   UNL d   1       1.438   4.754   0.160  0.00  0.00     0.183 C 
ATOM      8  O   UNL d   1       0.767   5.783   0.244  0.00  0.00    -0.290 OA
BRANCH   7   9
ATOM      9  C   UNL d   1       2.780   4.613   0.889  0.00  0.00     0.262 C 
BRANCH   9  10
ATOM     10  O   UNL d   1       3.208   3.329   1.341  0.00  0.00    -0.313 OA
BRANCH  10  11
ATOM     11  C   UNL d   1       2.415   2.776   2.293  0.00  0.00     0.266 C 
ATOM     12  O   UNL d   1       1.338   3.254   2.635  0.00  0.00    -0.264 OA
BRANCH  11  13
ATOM     13  C   UNL d   1       3.043   1.551   2.961  0.00  0.00     0.037 C 
ATOM     14  C   UNL d   1       3.747   2.040   4.234  0.00  0.00     0.025 C 
ATOM     15  C   UNL d   1       1.912   0.577   3.328  0.00  0.00     0.025 C 
ATOM     16  C   UNL d   1       4.050   0.815   2.067  0.00  0.00     0.025 C 
ENDBRANCH  11  13
ENDBRANCH  10  11
ENDBRANCH   9  10
ENDBRANCH   7   9
ENDBRANCH   3   7
BRANCH   1  17
ATOM     17  C   UNL d   1      -2.371   2.582  -2.255  0.00  0.00     0.417 C 
ATOM     18  F   UNL d   1      -2.679   1.687  -3.235  0.00  0.00    -0.166 F 
ATOM     19  F   UNL d   1      -2.849   3.781  -2.685  0.00  0.00    -0.166 F 
ATOM     20  F   UNL d   1      -3.129   2.234  -1.180  0.00  0.00    -0.166 F 
ENDBRANCH   1  17
BRANCH   2  21
ATOM     21  C   UNL d   1       2.384   0.916  -2.964  0.00  0.00     0.417 C 
ATOM     22  F   UNL d   1       1.810   0.033  -3.823  0.00  0.00    -0.166 F 
ATOM     23  F   UNL d   1       3.306   1.607  -3.689  0.00  0.00    -0.166 F 
ATOM     24  F   UNL d   1       3.090   0.172  -2.069  0.00  0.00    -0.166 F 
ENDBRANCH   2  21
TORSDOF 7
