REMARK  3 active torsions:
REMARK  status: ('A' for Active; 'I' for Inactive)
REMARK    1  A    between atoms: N_9  and  C_1 
REMARK    2  A    between atoms: C_11  and  C_2 
REMARK       I    between atoms: C_7  and  N_9 
REMARK       I    between atoms: N_10  and  C_7 
REMARK    3  A    between atoms: C_8  and  N_10 
ROOT
ATOM      1  C   UNL d   1       1.176  -2.951  -1.107  0.00  0.00     0.325 C 
ATOM      2  N   UNL d   1       0.370  -2.349  -0.152  0.00  0.00    -0.304 N 
ATOM      3  N   UNL d   1       1.785  -4.082  -0.592  0.00  0.00    -0.305 N 
ATOM      4  O   UNL d   1       1.229  -2.569  -2.271  0.00  0.00    -0.247 OA
ATOM      5  H   UNL d   1      -0.163  -2.999   0.410  0.00  0.00     0.171 HD
ATOM      6  H   UNL d   1       1.419  -4.398   0.298  0.00  0.00     0.171 HD
ENDROOT
BRANCH   2   7
ATOM      7  C   UNL d   1      -0.287  -1.148  -0.410  0.00  0.00     0.097 C 
ATOM      8  C   UNL d   1      -1.677  -0.868  -0.236  0.00  0.00     0.094 C 
ATOM      9  N   UNL d   1      -1.923   0.436  -0.435  0.00  0.00    -0.258 N 
ATOM     10  O   UNL d   1      -0.739   0.979  -0.890  0.00  0.00    -0.240 OA
ATOM     11  HN  UNL d   1      -2.805   0.925  -0.281  1.00  0.00     0.195 HD
ATOM     12  C   UNL d   1       0.227   0.021  -0.924  0.00  0.00     0.101 C 
ATOM     13  C   UNL d   1       1.525   0.460  -1.467  0.00  0.00     0.081 C 
BRANCH   8  14
ATOM     14  C   UNL d   1      -2.776  -1.817  -0.073  0.00  0.00    -0.005 A 
ATOM     15  C   UNL d   1      -3.881  -1.523   0.732  0.00  0.00     0.014 A 
ATOM     16  C   UNL d   1      -4.989  -2.375   0.742  0.00  0.00     0.001 A 
ATOM     17  C   UNL d   1      -5.000  -3.524  -0.050  0.00  0.00     0.000 A 
ATOM     18  C   UNL d   1      -3.899  -3.834  -0.844  0.00  0.00     0.001 A 
ATOM     19  C   UNL d   1      -2.793  -2.985  -0.856  0.00  0.00     0.014 A 
ENDBRANCH   8  14
ENDBRANCH   2   7
BRANCH   3  20
ATOM     20  C   UNL d   1       2.441  -5.091  -1.351  0.00  0.00     0.080 A 
ATOM     21  C   UNL d   1       3.241  -4.881  -2.487  0.00  0.00     0.062 A 
ATOM     22 CL   UNL d   1       3.893  -3.341  -2.935  0.00  0.00    -0.082 Cl
ATOM     23  C   UNL d   1       3.708  -5.974  -3.235  0.00  0.00     0.026 A 
ATOM     24  C   UNL d   1       3.444  -7.282  -2.832  0.00  0.00     0.003 A 
ATOM     25  C   UNL d   1       2.742  -7.507  -1.655  0.00  0.00     0.026 A 
ATOM     26  C   UNL d   1       2.253  -6.423  -0.920  0.00  0.00     0.062 A 
ATOM     27 CL   UNL d   1       1.369  -6.772   0.532  0.00  0.00    -0.082 Cl
ENDBRANCH   3  20
TORSDOF 3
