REMARK  6 active torsions:
REMARK  status: ('A' for Active; 'I' for Inactive)
REMARK    1  A    between atoms: C_3  and  N_1 
REMARK    2  A    between atoms: O_18  and  C_4 
REMARK    3  A    between atoms: O_8  and  C_6 
REMARK    4  A    between atoms: C_13  and  C_7 
REMARK    5  A    between atoms: C_15  and  O_8 
REMARK    6  A    between atoms: C_20  and  C_15 
ROOT
ATOM      1  C   UNL d   1       3.253   1.369   3.236  0.00  0.00     0.102 A 
ATOM      2  C   UNL d   1       4.364   2.174   2.914  0.00  0.00     0.102 A 
ATOM      3  C   UNL d   1       2.534   0.735   2.213  0.00  0.00     0.052 A 
ATOM      4  C   UNL d   1       4.691   2.396   1.571  0.00  0.00     0.040 A 
ATOM      5  C   UNL d   1       2.906   0.929   0.879  0.00  0.00    -0.018 A 
ATOM      6  C   UNL d   1       3.973   1.767   0.557  0.00  0.00     0.016 A 
ENDROOT
BRANCH   5   7
ATOM      7  C   UNL d   1       2.175   0.229  -0.195  0.00  0.00     0.100 C 
ATOM      8  N   UNL d   1       2.608   0.255  -1.413  0.00  0.00    -0.365 N 
ATOM      9  HN  UNL d   1       3.461   0.766  -1.640  1.00  0.00     0.165 HD
BRANCH   8  10
ATOM     10  C   UNL d   1       1.904  -0.419  -2.425  0.00  0.00     0.037 A 
ATOM     11  C   UNL d   1       1.755   0.190  -3.687  0.00  0.00    -0.034 A 
ATOM     12  C   UNL d   1       1.102  -0.503  -4.720  0.00  0.00     0.028 A 
ATOM     13  C   UNL d   1       2.285   1.568  -3.982  0.00  0.00     0.050 C 
ATOM     14  C   UNL d   1       0.613  -1.790  -4.508  0.00  0.00     0.011 A 
ATOM     15  C   UNL d   1       0.772  -2.406  -3.271  0.00  0.00     0.021 A 
ATOM     16 BR   UNL d   1      -0.246  -2.715  -5.914  0.00  0.00    -0.051 Br
ATOM     17  C   UNL d   1       1.423  -1.724  -2.243  0.00  0.00     0.031 A 
ENDBRANCH   8  10
ENDBRANCH   5   7
BRANCH   1  18
ATOM     18  O   UNL d   1       2.974   1.210   4.572  0.00  0.00    -0.353 OA
ATOM     19  C   UNL d   1       1.636   0.859   4.901  0.00  0.00     0.210 C 
ENDBRANCH   1  18
BRANCH   2  20
ATOM     20  O   UNL d   1       5.070   2.717   3.963  0.00  0.00    -0.344 OA
BRANCH  20  21
ATOM     21  C   UNL d   1       6.401   3.139   3.656  0.00  0.00     0.214 C 
BRANCH  21  22
ATOM     22  C   UNL d   1       7.264   3.283   4.888  0.00  0.00    -0.034 A 
ATOM     23  C   UNL d   1       6.984   2.599   6.079  0.00  0.00     0.009 A 
ATOM     24  C   UNL d   1       7.858   2.684   7.164  0.00  0.00     0.001 A 
ATOM     25  C   UNL d   1       9.023   3.444   7.070  0.00  0.00     0.000 A 
ATOM     26  C   UNL d   1       9.315   4.125   5.891  0.00  0.00     0.001 A 
ATOM     27  C   UNL d   1       8.443   4.044   4.806  0.00  0.00     0.009 A 
ENDBRANCH  21  22
ENDBRANCH  20  21
ENDBRANCH   2  20
TORSDOF 6
