REMARK  4 active torsions:
REMARK  status: ('A' for Active; 'I' for Inactive)
REMARK    1  A    between atoms: C_6  and  C_1 
REMARK    2  A    between atoms: N_3  and  C_2 
REMARK       I    between atoms: C_4  and  N_3 
REMARK    3  A    between atoms: C_7  and  C_4 
REMARK    4  A    between atoms: N_5  and  C_7 
ROOT
ATOM      1  N   UNL d   1       1.345  -2.748   0.451  0.00  0.00    -0.325 N 
ATOM      2  C   UNL d   1       2.359  -3.085  -0.432  0.00  0.00     0.250 C 
ATOM      3  O   UNL d   1       2.562  -4.212  -0.880  0.00  0.00    -0.271 OA
ATOM      4  H   UNL d   1       1.579  -1.948   1.032  0.00  0.00     0.169 HD
ENDROOT
BRANCH   1   5
ATOM      5  C   UNL d   1       0.448  -3.716   0.973  0.00  0.00     0.048 A 
ATOM      6  C   UNL d   1      -0.150  -4.752   0.228  0.00  0.00     0.036 A 
ATOM      7  C   UNL d   1      -0.854  -5.771   0.895  0.00  0.00     0.017 A 
ATOM      8  C   UNL d   1      -1.023  -5.730   2.278  0.00  0.00     0.001 A 
ATOM      9  C   UNL d   1      -0.518  -4.654   3.002  0.00  0.00     0.002 A 
ATOM     10  C   UNL d   1       0.203  -3.647   2.353  0.00  0.00     0.030 A 
BRANCH   6  11
ATOM     11  C   UNL d   1      -0.220  -4.808  -1.262  0.00  0.00     0.158 C 
ATOM     12  O   UNL d   1      -0.242  -5.897  -1.835  0.00  0.00    -0.293 OA
ATOM     13  C   UNL d   1      -0.403  -3.524  -2.034  0.00  0.00     0.097 C 
ENDBRANCH   6  11
ENDBRANCH   1   5
BRANCH   2  14
ATOM     14  C   UNL d   1       3.246  -1.915  -0.840  0.00  0.00     0.375 C 
BRANCH  14  15
ATOM     15  N   UNL d   1       3.844  -1.216   0.322  0.00  0.00     0.101 N 
ATOM     16  C   UNL d   1       4.706  -0.105  -0.169  0.00  0.00     0.299 C 
ATOM     17  C   UNL d   1       6.036  -0.563  -0.803  0.00  0.00     0.198 C 
ATOM     18  O   UNL d   1       6.792  -1.361   0.113  0.00  0.00    -0.388 OA
ATOM     19  C   UNL d   1       6.040  -2.510   0.521  0.00  0.00     0.198 C 
ATOM     20  C   UNL d   1       4.698  -2.103   1.155  0.00  0.00     0.299 C 
ENDBRANCH  14  15
ENDBRANCH   2  14
TORSDOF 4
