REMARK  1 active torsions:
REMARK  status: ('A' for Active; 'I' for Inactive)
REMARK    1  A    between atoms: C_8  and  C_3 
ROOT
ATOM      1  C   UNL d   1       1.352   0.910  -0.071  0.00  0.00    -0.008 A 
ATOM      2  C   UNL d   1       0.699  -0.275  -0.079  0.00  0.00     0.054 A 
ATOM      3  C   UNL d   1       2.843   0.926  -0.021  0.00  0.00     0.011 A 
ATOM      4  C   UNL d   1       3.555  -0.225  -0.023  0.00  0.00     0.124 A 
ATOM      5  N   UNL d   1       1.451  -1.432  -0.074  0.00  0.00    -0.321 N 
ATOM      6  C   UNL d   1       2.817  -1.507  -0.056  0.00  0.00     0.267 A 
ATOM      7  C   UNL d   1      -0.793  -0.385  -0.060  0.00  0.00     0.008 A 
ATOM      8  C   UNL d   1       0.711   2.272  -0.081  0.00  0.00     0.121 C 
ATOM      9  S   UNL d   1      -1.038   2.398  -0.447  0.00  0.00    -0.124 SA
ATOM     10  C   UNL d   1       4.981  -0.283   0.008  0.00  0.00     0.106 C 
ATOM     11  N   UNL d   1       6.141  -0.273   0.019  0.00  0.00    -0.191 NA
ATOM     12  C   UNL d   1      -1.620   0.747  -0.160  0.00  0.00     0.013 A 
ATOM     13  O   UNL d   1       3.381  -2.596  -0.065  0.00  0.00    -0.266 OA
ATOM     14  C   UNL d   1      -1.444  -1.634   0.065  0.00  0.00     0.015 A 
ATOM     15  C   UNL d   1      -3.023   0.625  -0.102  0.00  0.00     0.019 A 
ATOM     16  C   UNL d   1      -2.841  -1.749   0.101  0.00  0.00     0.001 A 
ATOM     17  C   UNL d   1      -3.633  -0.616   0.029  0.00  0.00     0.001 A 
ATOM     18  H   UNL d   1       1.012  -2.341  -0.089  0.00  0.00     0.169 HD
ENDROOT
BRANCH   3  19
ATOM     19  C   UNL d   1       3.609   2.203   0.053  0.00  0.00    -0.002 A 
ATOM     20  C   UNL d   1       3.927   2.826   1.274  0.00  0.00     0.045 A 
ATOM     21 CL   UNL d   1       3.473   2.134   2.792  0.00  0.00    -0.083 Cl
ATOM     22  C   UNL d   1       4.618   4.039   1.287  0.00  0.00     0.024 A 
ATOM     23  C   UNL d   1       5.002   4.638   0.087  0.00  0.00     0.002 A 
ATOM     24  C   UNL d   1       4.697   4.027  -1.128  0.00  0.00     0.001 A 
ATOM     25  C   UNL d   1       4.004   2.816  -1.148  0.00  0.00     0.014 A 
ENDBRANCH   3  19
TORSDOF 1
