REMARK  6 active torsions:
REMARK  status: ('A' for Active; 'I' for Inactive)
REMARK    1  A    between atoms: C_12  and  C_2 
REMARK    2  A    between atoms: O_11  and  N_5 
REMARK    3  A    between atoms: C_7  and  C_13 
REMARK    4  A    between atoms: N_20  and  C_7 
REMARK    5  A    between atoms: C_9  and  O_11 
REMARK    6  A    between atoms: C_15  and  C_9 
ROOT
ATOM      1  N   UNL d   1       6.911  -4.062   0.848  0.00  0.00    -0.246 N 
ATOM      2  HN  UNL d   1       7.771  -4.608   0.788  1.00  0.00     0.196 HD
ATOM      3  C   UNL d   1       5.933  -4.168  -0.001  0.00  0.00     0.109 C 
ENDROOT
BRANCH   3   4
ATOM      4  C   UNL d   1       6.106  -5.148  -1.133  0.00  0.00     0.004 A 
ATOM      5  C   UNL d   1       7.298  -5.881  -1.225  0.00  0.00     0.015 A 
ATOM      6  C   UNL d   1       7.499  -6.797  -2.265  0.00  0.00     0.014 A 
ATOM      7  C   UNL d   1       6.513  -6.997  -3.238  0.00  0.00    -0.008 A 
ATOM      8  C   UNL d   1       5.323  -6.260  -3.147  0.00  0.00     0.014 A 
ATOM      9  C   UNL d   1       5.114  -5.351  -2.099  0.00  0.00     0.015 A 
BRANCH   7  10
ATOM     10  C   UNL d   1       6.701  -7.939  -4.335  0.00  0.00     0.063 A 
ATOM     11  N   UNL d   1       6.073  -7.752  -5.562  0.00  0.00    -0.292 N 
ATOM     12  N   UNL d   1       6.372  -8.710  -6.424  0.00  0.00    -0.061 NA
ATOM     13  HN  UNL d   1       5.454  -6.968  -5.773  1.00  0.00     0.183 HD
ATOM     14  S   UNL d   1       7.395  -9.865  -5.781  0.00  0.00    -0.010 SA
ATOM     15  C   UNL d   1       7.478  -9.083  -4.256  0.00  0.00     0.096 A 
ENDBRANCH   7  10
ENDBRANCH   3   4
BRANCH   3  16
ATOM     16  N   UNL d   1       4.778  -3.425   0.093  0.00  0.00    -0.286 NA
ATOM     17  H   UNL d   1       4.864  -2.665   0.758  0.00  0.00     0.125 HD
ATOM     18  H   UNL d   1       4.359  -3.125  -0.778  0.00  0.00     0.125 HD
ENDBRANCH   3  16
BRANCH   1  19
ATOM     19  O   UNL d   1       6.658  -3.114   1.859  0.00  0.00    -0.193 OA
BRANCH  19  20
ATOM     20  C   UNL d   1       7.702  -3.113   2.745  0.00  0.00     0.315 C 
ATOM     21  O   UNL d   1       8.715  -3.798   2.718  0.00  0.00    -0.257 OA
BRANCH  20  22
ATOM     22  C   UNL d   1       7.419  -2.164   3.852  0.00  0.00     0.041 A 
ATOM     23  C   UNL d   1       6.617  -1.028   3.683  0.00  0.00     0.017 A 
ATOM     24  C   UNL d   1       6.394  -0.167   4.761  0.00  0.00     0.001 A 
ATOM     25  C   UNL d   1       6.970  -0.434   6.004  0.00  0.00     0.000 A 
ATOM     26  C   UNL d   1       7.779  -1.556   6.173  0.00  0.00     0.001 A 
ATOM     27  C   UNL d   1       8.009  -2.416   5.099  0.00  0.00     0.017 A 
ENDBRANCH  20  22
ENDBRANCH  19  20
ENDBRANCH   1  19
TORSDOF 6
