REMARK  7 active torsions:
REMARK  status: ('A' for Active; 'I' for Inactive)
REMARK    1  A    between atoms: C_5  and  C_1 
REMARK    2  A    between atoms: O_17  and  C_2 
REMARK    3  A    between atoms: C_4  and  C_5 
REMARK    4  A    between atoms: N_15  and  C_7 
REMARK    5  A    between atoms: O_11  and  C_8 
REMARK    6  A    between atoms: C_20  and  O_11 
REMARK    7  A    between atoms: C_18  and  C_20 
ROOT
ATOM      1  C   UNL d   1      -0.500  -0.634  -0.038  0.00  0.00     0.048 A 
ATOM      2  C   UNL d   1      -0.472   0.759   0.106  0.00  0.00     0.088 A 
ATOM      3  C   UNL d   1       0.741   1.465   0.017  0.00  0.00     0.005 A 
ATOM      4  C   UNL d   1       0.707  -1.331  -0.182  0.00  0.00     0.021 A 
ATOM      5  C   UNL d   1       1.947   0.749  -0.129  0.00  0.00     0.077 A 
ATOM      6  C   UNL d   1       1.925  -0.645  -0.218  0.00  0.00     0.038 A 
ATOM      7  C   UNL d   1       0.781   2.969   0.108  0.00  0.00     0.054 C 
ENDROOT
BRANCH   5   8
ATOM      8  O   UNL d   1       3.089   1.506  -0.094  0.00  0.00    -0.346 OA
BRANCH   8   9
ATOM      9  C   UNL d   1       4.260   0.981  -0.713  0.00  0.00     0.214 C 
BRANCH   9  10
ATOM     10  C   UNL d   1       5.360   2.004  -0.538  0.00  0.00    -0.032 A 
ATOM     11  C   UNL d   1       5.938   2.646  -1.642  0.00  0.00     0.035 A 
ATOM     12  C   UNL d   1       6.956   3.594  -1.465  0.00  0.00     0.056 A 
ATOM     13 CL   UNL d   1       7.617   4.335  -2.879  0.00  0.00    -0.083 Cl
ATOM     14  C   UNL d   1       7.403   3.908  -0.177  0.00  0.00     0.055 A 
ATOM     15  C   UNL d   1       6.829   3.276   0.927  0.00  0.00     0.026 A 
ATOM     16 CL   UNL d   1       8.654   5.063   0.116  0.00  0.00    -0.083 Cl
ATOM     17  C   UNL d   1       5.815   2.332   0.748  0.00  0.00     0.011 A 
ENDBRANCH   9  10
ENDBRANCH   8   9
ENDBRANCH   5   8
BRANCH   2  18
ATOM     18  O   UNL d   1      -1.601   1.483   0.382  0.00  0.00    -0.359 OA
ATOM     19  H   UNL d   1      -2.163   0.965   0.988  0.00  0.00     0.217 HD
ENDBRANCH   2  18
BRANCH   1  20
ATOM     20  C   UNL d   1      -1.749  -1.439  -0.036  0.00  0.00     0.186 C 
ATOM     21  O   UNL d   1      -1.780  -2.515   0.549  0.00  0.00    -0.287 OA
BRANCH  20  22
ATOM     22  C   UNL d   1      -2.911  -0.910  -0.810  0.00  0.00     0.072 C 
ATOM     23  C   UNL d   1      -4.088  -1.552  -0.792  0.00  0.00     0.088 C 
BRANCH  23  24
ATOM     24  N   UNL d   1      -5.274  -1.252  -1.450  0.00  0.00    -0.398 N 
ATOM     25  C   UNL d   1      -5.471  -0.091  -2.317  0.00  0.00     0.148 C 
ATOM     26  C   UNL d   1      -6.499  -2.017  -1.198  0.00  0.00     0.148 C 
ENDBRANCH  23  24
ENDBRANCH  20  22
ENDBRANCH   1  20
TORSDOF 7
