REMARK  6 active torsions:
REMARK  status: ('A' for Active; 'I' for Inactive)
REMARK    1  A    between atoms: N_16  and  C_8 
REMARK    2  A    between atoms: S_13  and  C_11 
REMARK    3  A    between atoms: C_17  and  S_13 
REMARK    4  A    between atoms: C_15  and  C_17 
REMARK    5  A    between atoms: C_19  and  C_15 
REMARK    6  A    between atoms: C_22  and  N_16 
ROOT
ATOM      1  C   UNL d   1       1.318  -0.797  -0.068  0.00  0.00     0.090 A 
ATOM      2  C   UNL d   1       0.781   0.480  -0.083  0.00  0.00     0.043 A 
ATOM      3  C   UNL d   1      -1.122  -0.891  -0.065  0.00  0.00    -0.008 A 
ATOM      4  N   UNL d   1       2.616  -1.121  -0.041  0.00  0.00    -0.330 N 
ATOM      5  HN  UNL d   1       2.957  -2.082  -0.036  1.00  0.00     0.168 HD
ATOM      6  N   UNL d   1       3.034   1.234   0.013  0.00  0.00    -0.327 N 
ATOM      7  HN  UNL d   1       3.731   1.976   0.081  1.00  0.00     0.169 HD
ATOM      8  C   UNL d   1       1.718   1.541  -0.043  0.00  0.00     0.095 A 
ATOM      9  C   UNL d   1      -0.668   0.416  -0.120  0.00  0.00    -0.029 A 
ATOM     10  S   UNL d   1       0.139  -2.026  -0.074  0.00  0.00    -0.075 SA
ATOM     11  C   UNL d   1       3.418  -0.054  -0.022  0.00  0.00     0.146 A 
ATOM     12  C   UNL d   1      -1.628   1.573  -0.129  0.00  0.00     0.041 C 
ATOM     13  C   UNL d   1      -2.560  -1.311  -0.011  0.00  0.00     0.051 C 
ATOM     14  C   UNL d   1      -3.083   1.138  -0.344  0.00  0.00     0.009 C 
ATOM     15  C   UNL d   1      -3.455  -0.136   0.439  0.00  0.00    -0.014 C 
ATOM     16  C   UNL d   1      -3.378   0.086   1.955  0.00  0.00     0.010 C 
ENDROOT
BRANCH  11  17
ATOM     17  S   UNL d   1       5.169  -0.382   0.015  0.00  0.00    -0.086 SA
BRANCH  17  18
ATOM     18  C   UNL d   1       5.185  -1.976  -0.884  0.00  0.00     0.166 C 
BRANCH  18  19
ATOM     19  C   UNL d   1       4.707  -1.816  -2.320  0.00  0.00     0.169 C 
ATOM     20  O   UNL d   1       4.902  -0.791  -2.969  0.00  0.00    -0.291 OA
BRANCH  19  21
ATOM     21  C   UNL d   1       4.030  -2.964  -3.007  0.00  0.00     0.010 A 
ATOM     22  C   UNL d   1       3.923  -4.242  -2.448  0.00  0.00     0.015 A 
ATOM     23  C   UNL d   1       3.287  -5.270  -3.156  0.00  0.00     0.001 A 
ATOM     24  C   UNL d   1       2.761  -5.031  -4.425  0.00  0.00     0.000 A 
ATOM     25  C   UNL d   1       2.868  -3.765  -4.993  0.00  0.00     0.001 A 
ATOM     26  C   UNL d   1       3.498  -2.738  -4.288  0.00  0.00     0.015 A 
ENDBRANCH  19  21
ENDBRANCH  18  19
ENDBRANCH  17  18
ENDBRANCH  11  17
BRANCH   8  27
ATOM     27  N   UNL d   1       1.309   2.871  -0.083  0.00  0.00    -0.278 NA
ATOM     28  H   UNL d   1       0.325   2.979   0.105  0.00  0.00     0.129 HD
BRANCH  27  29
ATOM     29  C   UNL d   1       2.126   3.865   0.588  0.00  0.00     0.089 C 
ATOM     30  C   UNL d   1       1.406   5.207   0.483  0.00  0.00     0.021 C 
ENDBRANCH  27  29
ENDBRANCH   8  27
TORSDOF 6
