REMARK  4 active torsions:
REMARK  status: ('A' for Active; 'I' for Inactive)
REMARK    1  A    between atoms: C_9  and  C_2 
REMARK    2  A    between atoms: C_5  and  O_8 
REMARK    3  A    between atoms: C_10  and  C_5 
REMARK    4  A    between atoms: O_8  and  C_16 
ROOT
ATOM      1  C   UNL d   1       2.305  -1.677   0.195  0.00  0.00    -0.008 A 
ATOM      2  C   UNL d   1       2.243  -2.763  -0.693  0.00  0.00     0.016 A 
ATOM      3  C   UNL d   1       3.459  -1.515   0.976  0.00  0.00     0.016 A 
ATOM      4  C   UNL d   1       4.468  -3.452  -0.071  0.00  0.00     0.079 A 
ATOM      5  C   UNL d   1       3.321  -3.649  -0.830  0.00  0.00     0.038 A 
ATOM      6  C   UNL d   1       4.535  -2.399   0.842  0.00  0.00     0.038 A 
ENDROOT
BRANCH   4   7
ATOM      7  O   UNL d   1       5.637  -4.251  -0.140  0.00  0.00    -0.275 OA
BRANCH   7   8
ATOM      8  C   UNL d   1       5.890  -5.284  -1.037  0.00  0.00     0.298 C 
ATOM      9  O   UNL d   1       5.140  -5.717  -1.895  0.00  0.00    -0.259 OA
BRANCH   8  10
ATOM     10  C   UNL d   1       7.262  -5.825  -0.803  0.00  0.00     0.040 A 
ATOM     11  C   UNL d   1       7.696  -6.897  -1.600  0.00  0.00     0.019 A 
ATOM     12  C   UNL d   1       8.956  -7.470  -1.393  0.00  0.00     0.025 A 
ATOM     13  C   UNL d   1       9.788  -6.970  -0.394  0.00  0.00     0.034 A 
ATOM     14  C   UNL d   1       9.380  -5.890   0.386  0.00  0.00     0.025 A 
ATOM     15 CL   UNL d   1      11.321  -7.697  -0.112  0.00  0.00    -0.084 Cl
ATOM     16  C   UNL d   1       8.120  -5.315   0.182  0.00  0.00     0.019 A 
ENDBRANCH   8  10
ENDBRANCH   7   8
ENDBRANCH   4   7
BRANCH   1  17
ATOM     17  C   UNL d   1       1.180  -0.752   0.293  0.00  0.00     0.063 A 
ATOM     18  N   UNL d   1      -0.115  -1.154  -0.030  0.00  0.00    -0.292 N 
ATOM     19  N   UNL d   1      -0.990  -0.171   0.113  0.00  0.00    -0.061 NA
ATOM     20  HN  UNL d   1      -0.359  -2.095  -0.340  1.00  0.00     0.183 HD
ATOM     21  S   UNL d   1      -0.286   1.257   0.616  0.00  0.00    -0.010 SA
ATOM     22  C   UNL d   1       1.290   0.578   0.666  0.00  0.00     0.096 A 
ENDBRANCH   1  17
TORSDOF 4
