REMARK  7 active torsions:
REMARK  status: ('A' for Active; 'I' for Inactive)
REMARK    1  A    between atoms: N_2  and  C_1 
REMARK    2  A    between atoms: N_3  and  C_1 
REMARK    3  A    between atoms: C_12  and  N_3 
REMARK    4  A    between atoms: C_5  and  C_8 
REMARK    5  A    between atoms: O_18  and  C_9 
REMARK    6  A    between atoms: O_19  and  C_13 
REMARK    7  A    between atoms: C_22  and  O_19 
ROOT
ATOM      1  N   UNL d   1      -0.206  -0.630   0.600  0.00  0.00    -0.358 N 
ATOM      2  C   UNL d   1       0.355  -1.309   1.769  0.00  0.00     0.126 C 
ATOM      3  C   UNL d   1      -1.036  -1.473  -0.244  0.00  0.00     0.126 C 
ATOM      4  C   UNL d   1      -1.699  -2.834   1.862  0.00  0.00     0.024 C 
ATOM      5  C   UNL d   1      -2.158  -2.136   0.561  0.00  0.00     0.029 C 
ATOM      6  C   UNL d   1      -0.730  -1.924   2.644  0.00  0.00     0.029 C 
ENDROOT
BRANCH   1   7
ATOM      7  C   UNL d   1       0.586   0.361   0.026  0.00  0.00     0.174 C 
ATOM      8  S   UNL d   1       1.680   0.106  -1.216  0.00  0.00    -0.041 SA
BRANCH   7   9
ATOM      9  N   UNL d   1       0.533   1.593   0.634  0.00  0.00    -0.333 N 
ATOM     10  H   UNL d   1       1.337   2.190   0.478  0.00  0.00     0.168 HD
BRANCH   9  11
ATOM     11  C   UNL d   1      -0.528   2.116   1.400  0.00  0.00     0.034 A 
ATOM     12  C   UNL d   1      -0.262   3.121   2.328  0.00  0.00     0.032 A 
ATOM     13  C   UNL d   1      -1.282   3.595   3.163  0.00  0.00     0.039 A 
ATOM     14  C   UNL d   1      -2.577   3.087   3.052  0.00  0.00     0.068 A 
ATOM     15  C   UNL d   1      -2.863   2.159   2.051  0.00  0.00     0.039 A 
ATOM     16  C   UNL d   1      -1.845   1.684   1.232  0.00  0.00     0.032 A 
BRANCH  14  17
ATOM     17  O   UNL d   1      -3.649   3.418   3.827  0.00  0.00    -0.352 OA
BRANCH  17  18
ATOM     18  C   UNL d   1      -3.364   4.046   5.074  0.00  0.00     0.171 C 
ATOM     19  C   UNL d   1      -4.615   3.942   5.930  0.00  0.00     0.034 C 
ENDBRANCH  17  18
ENDBRANCH  14  17
ENDBRANCH   9  11
ENDBRANCH   7   9
ENDBRANCH   1   7
BRANCH   4  20
ATOM     20  C   UNL d   1      -1.192  -4.273   1.717  0.00  0.00    -0.021 A 
ATOM     21  C   UNL d   1      -1.297  -5.185   2.793  0.00  0.00     0.074 A 
ATOM     22  C   UNL d   1      -0.828  -6.499   2.658  0.00  0.00     0.037 A 
ATOM     23  C   UNL d   1      -0.286  -6.941   1.451  0.00  0.00     0.003 A 
ATOM     24  C   UNL d   1      -0.201  -6.067   0.381  0.00  0.00     0.001 A 
ATOM     25  C   UNL d   1      -0.646  -4.752   0.513  0.00  0.00     0.010 A 
BRANCH  21  26
ATOM     26  O   UNL d   1      -1.866  -4.714   3.954  0.00  0.00    -0.355 OA
ATOM     27  C   UNL d   1      -2.445  -5.698   4.808  0.00  0.00     0.210 C 
ENDBRANCH  21  26
ENDBRANCH   4  20
TORSDOF 7
