REMARK  4 active torsions:
REMARK  status: ('A' for Active; 'I' for Inactive)
REMARK    1  A    between atoms: C_2  and  S_1 
REMARK    2  A    between atoms: C_4  and  S_1 
REMARK    3  A    between atoms: C_3  and  C_2 
REMARK    4  A    between atoms: C_5  and  C_3 
ROOT
ATOM      1  C   UNL d   1       1.026   1.662   1.746  0.00  0.00     0.173 C 
ATOM      2  O   UNL d   1       0.497   1.161   2.737  0.00  0.00    -0.291 OA
ENDROOT
BRANCH   1   3
ATOM      3  C   UNL d   1       0.408   1.536   0.390  0.00  0.00     0.229 C 
BRANCH   3   4
ATOM      4  S   UNL d   1       0.803   0.004  -0.355  0.00  0.00     0.182 S 
ATOM      5  O   UNL d   1       2.230  -0.210  -0.178  0.00  0.00    -0.222 OA
ATOM      6  O   UNL d   1       0.250   0.060  -1.695  0.00  0.00    -0.222 OA
BRANCH   4   7
ATOM      7  C   UNL d   1      -0.026  -1.345   0.447  0.00  0.00     0.059 A 
ATOM      8  C   UNL d   1      -0.831  -1.213   1.576  0.00  0.00     0.024 A 
ATOM      9  C   UNL d   1      -1.409  -2.345   2.161  0.00  0.00     0.008 A 
ATOM     10  C   UNL d   1      -1.236  -3.611   1.589  0.00  0.00    -0.062 A 
ATOM     11  C   UNL d   1      -0.460  -3.732   0.432  0.00  0.00     0.008 A 
ATOM     12  C   UNL d   1      -1.885  -4.809   2.216  0.00  0.00     0.048 C 
ATOM     13  C   UNL d   1       0.150  -2.614  -0.130  0.00  0.00     0.024 A 
ENDBRANCH   4   7
ENDBRANCH   3   4
ENDBRANCH   1   3
BRANCH   1  14
ATOM     14  C   UNL d   1       2.199   2.546   1.965  0.00  0.00     0.013 C 
ATOM     15  C   UNL d   1       2.320   3.089   3.249  0.00  0.00     0.054 C 
ATOM     16  C   UNL d   1       3.169   4.162   3.454  0.00  0.00     0.103 C 
ATOM     17  O   UNL d   1       3.077   4.798   4.664  0.00  0.00    -0.346 OA
ATOM     18  C   UNL d   1       3.972   4.643   2.421  0.00  0.00     0.102 C 
ATOM     19  C   UNL d   1       3.114   6.200   4.396  0.00  0.00     0.202 C 
ATOM     20  C   UNL d   1       4.424   6.560   3.708  0.00  0.00     0.202 C 
ATOM     21  O   UNL d   1       4.700   5.796   2.521  0.00  0.00    -0.346 OA
ATOM     22  C   UNL d   1       3.979   3.989   1.190  0.00  0.00     0.040 C 
ATOM     23  C   UNL d   1       3.073   2.949   0.949  0.00  0.00     0.018 C 
ENDBRANCH   1  14
TORSDOF 4
