REMARK  5 active torsions:
REMARK  status: ('A' for Active; 'I' for Inactive)
REMARK    1  A    between atoms: N_5  and  C_1 
REMARK    2  A    between atoms: N_6  and  C_1 
REMARK       I    between atoms: C_4  and  N_9 
REMARK    3  A    between atoms: C_8  and  C_4 
REMARK    4  A    between atoms: N_9  and  N_5 
REMARK    5  A    between atoms: C_11  and  N_6 
ROOT
ATOM      1  N   UNL d   1       0.357  -5.514   0.958  0.00  0.00    -0.197 NA
ATOM      2  C   UNL d   1       0.579  -4.796   1.845  0.00  0.00     0.068 C 
ATOM      3  C   UNL d   1       0.876  -3.854   2.922  0.00  0.00     0.228 C 
ENDROOT
BRANCH   3   4
ATOM      4  C   UNL d   1       0.511  -2.430   2.562  0.00  0.00     0.249 C 
ATOM      5  N   UNL d   1       0.748  -2.044   1.258  0.00  0.00    -0.267 N 
ATOM      6  H   UNL d   1       0.948  -2.704   0.506  0.00  0.00     0.190 HD
ATOM      7  O   UNL d   1       0.093  -1.639   3.410  0.00  0.00    -0.271 OA
BRANCH   5   8
ATOM      8  N   UNL d   1       0.280  -0.789   0.833  0.00  0.00    -0.274 N 
ATOM      9  H   UNL d   1      -0.184  -0.240   1.558  0.00  0.00     0.189 HD
BRANCH   8  10
ATOM     10  C   UNL d   1       0.965  -0.079  -0.123  0.00  0.00     0.186 C 
ATOM     11  S   UNL d   1       2.492  -0.433  -0.699  0.00  0.00    -0.040 SA
BRANCH  10  12
ATOM     12  N   UNL d   1       0.275   0.960  -0.690  0.00  0.00    -0.361 N 
ATOM     13  H   UNL d   1       0.812   1.448  -1.400  0.00  0.00     0.162 HD
BRANCH  12  14
ATOM     14  C   UNL d   1      -1.171   0.987  -0.837  0.00  0.00     0.083 C 
ATOM     15  C   UNL d   1      -1.619   1.651  -2.138  0.00  0.00     0.025 C 
ATOM     16  C   UNL d   1      -3.092   1.968  -1.904  0.00  0.00     0.002 C 
ATOM     17  C   UNL d   1      -3.269   2.047  -0.385  0.00  0.00     0.002 C 
ATOM     18  C   UNL d   1      -1.881   1.831   0.212  0.00  0.00     0.025 C 
ENDBRANCH  12  14
ENDBRANCH  10  12
ENDBRANCH   8  10
ENDBRANCH   5   8
ENDBRANCH   3   4
TORSDOF 5
