REMARK  3 active torsions:
REMARK  status: ('A' for Active; 'I' for Inactive)
REMARK    1  A    between atoms: N_2  and  C_1 
REMARK    2  A    between atoms: N_5  and  C_1 
REMARK    3  A    between atoms: C_3  and  N_2 
ROOT
ATOM      1  C   UNL d   1       1.098   1.851  -1.827  0.00  0.00     0.085 C 
ATOM      2  C   UNL d   1       0.054   3.969  -0.699  0.00  0.00    -0.045 C 
ATOM      3  C   UNL d   1       1.314   3.129  -1.001  0.00  0.00     0.034 C 
ATOM      4  C   UNL d   1      -0.711   4.230  -2.009  0.00  0.00     0.013 C 
ATOM      5  C   UNL d   1       0.183   2.089  -3.043  0.00  0.00     0.029 C 
ATOM      6  C   UNL d   1      -1.064   2.943  -2.769  0.00  0.00    -0.016 C 
ATOM      7  C   UNL d   1      -0.857   3.295   0.344  0.00  0.00     0.015 C 
ATOM      8  C   UNL d   1       0.512   5.315  -0.099  0.00  0.00     0.015 C 
ATOM      9  C   UNL d   1      -1.762   3.298  -4.086  0.00  0.00     0.010 C 
ENDROOT
BRANCH   1  10
ATOM     10  N   UNL d   1       0.625   0.755  -0.983  0.00  0.00    -0.362 N 
ATOM     11  H   UNL d   1      -0.373   0.739  -0.811  0.00  0.00     0.162 HD
BRANCH  10  12
ATOM     12  C   UNL d   1       1.216  -0.367  -0.494  0.00  0.00     0.169 C 
ATOM     13  S   UNL d   1       0.145  -1.435   0.246  0.00  0.00    -0.041 SA
BRANCH  12  14
ATOM     14  N   UNL d   1       2.568  -0.587  -0.633  0.00  0.00    -0.367 N 
ATOM     15  C   UNL d   1       3.580   0.461  -0.616  0.00  0.00     0.151 C 
ATOM     16  C   UNL d   1       3.140  -1.934  -0.596  0.00  0.00     0.151 C 
ENDBRANCH  12  14
ENDBRANCH  10  12
ENDBRANCH   1  10
TORSDOF 3
