REMARK  6 active torsions:
REMARK  status: ('A' for Active; 'I' for Inactive)
REMARK    1  A    between atoms: C_8  and  N_1 
REMARK    2  A    between atoms: C_9  and  C_4 
REMARK    3  A    between atoms: C_7  and  N_13 
REMARK    4  A    between atoms: C_16  and  C_9 
REMARK    5  A    between atoms: N_13  and  N_11 
REMARK    6  A    between atoms: C_21  and  C_20 
ROOT
ATOM      1  N   UNL d   1      -0.407  -1.267   0.062  0.00  0.00    -0.229 N 
ATOM      2  N   UNL d   1       0.632   0.601   0.235  0.00  0.00    -0.007 NA
ATOM      3  N   UNL d   1       0.788  -0.705   0.370  0.00  0.00     0.000 NA
ATOM      4  C   UNL d   1      -1.322  -0.233  -0.109  0.00  0.00     0.119 C 
ATOM      5  N   UNL d   1      -0.665   0.911  -0.047  0.00  0.00    -0.273 N 
ATOM      6  HN  UNL d   1      -1.052   1.844  -0.184  1.00  0.00     0.185 HD
ENDROOT
BRANCH   4   7
ATOM      7  C   UNL d   1      -2.798  -0.333  -0.180  0.00  0.00     0.125 C 
BRANCH   7   8
ATOM      8  C   UNL d   1      -3.339  -0.819   1.137  0.00  0.00     0.087 C 
ATOM      9  N   UNL d   1      -4.114  -1.855   1.180  0.00  0.00    -0.313 N 
ATOM     10  HN  UNL d   1      -4.362  -2.390   0.348  1.00  0.00     0.185 HD
BRANCH   9  11
ATOM     11  N   UNL d   1      -4.576  -2.176   2.427  0.00  0.00    -0.277 N 
ATOM     12  H   UNL d   1      -4.316  -1.624   3.241  0.00  0.00     0.189 HD
BRANCH  11  13
ATOM     13  C   UNL d   1      -5.437  -3.221   2.620  0.00  0.00     0.184 C 
ATOM     14  S   UNL d   1      -6.041  -3.610   4.113  0.00  0.00    -0.040 SA
ATOM     15  N   UNL d   1      -5.770  -3.920   1.509  0.00  0.00    -0.375 N 
ATOM     16  H   UNL d   1      -5.383  -3.602   0.629  0.00  0.00     0.158 HD
ATOM     17  H   UNL d   1      -6.415  -4.695   1.544  0.00  0.00     0.158 HD
ENDBRANCH  11  13
ENDBRANCH   9  11
ENDBRANCH   7   8
ENDBRANCH   4   7
BRANCH   1  18
ATOM     18  C   UNL d   1      -0.549  -2.674   0.009  0.00  0.00     0.056 A 
ATOM     19  C   UNL d   1       0.329  -3.474   0.755  0.00  0.00     0.032 A 
ATOM     20  C   UNL d   1       0.171  -4.861   0.779  0.00  0.00     0.009 A 
ATOM     21  C   UNL d   1      -0.844  -5.472   0.036  0.00  0.00    -0.058 A 
ATOM     22  C   UNL d   1      -1.666  -4.677  -0.771  0.00  0.00     0.009 A 
ATOM     23  C   UNL d   1      -1.526  -3.285  -0.781  0.00  0.00     0.032 A 
BRANCH  21  24
ATOM     24  C   UNL d   1      -1.055  -6.965   0.102  0.00  0.00     0.034 C 
ATOM     25  C   UNL d   1      -0.206  -7.726  -0.903  0.00  0.00     0.010 C 
ENDBRANCH  21  24
ENDBRANCH   1  18
TORSDOF 6
