REMARK  3 active torsions:
REMARK  status: ('A' for Active; 'I' for Inactive)
REMARK    1  A    between atoms: C_4  and  C_3 
REMARK    2  A    between atoms: C_10  and  N_6 
REMARK    3  A    between atoms: C_7  and  C_11 
ROOT
ATOM      1  C   UNL d   1      -3.236  -2.055   0.075  0.00  0.00     0.040 A 
ATOM      2  N   UNL d   1      -4.008  -1.488  -0.946  0.00  0.00    -0.322 N 
ATOM      3  C   UNL d   1      -5.332  -1.567  -0.540  0.00  0.00     0.097 A 
ATOM      4  C   UNL d   1      -4.094  -2.568   1.033  0.00  0.00     0.031 A 
ATOM      5  C   UNL d   1      -5.410  -2.246   0.653  0.00  0.00     0.020 A 
ENDROOT
BRANCH   1   6
ATOM      6  C   UNL d   1      -1.820  -1.972   0.095  0.00  0.00     0.048 C 
ATOM      7  C   UNL d   1      -1.167  -0.919   0.609  0.00  0.00     0.047 A 
ATOM      8  C   UNL d   1      -1.760   0.302   1.277  0.00  0.00     0.257 A 
ATOM      9  C   UNL d   1       0.292  -0.737   0.616  0.00  0.00     0.006 A 
ATOM     10  N   UNL d   1      -0.669   1.085   1.620  0.00  0.00    -0.322 N 
ATOM     11  O   UNL d   1      -2.926   0.571   1.490  0.00  0.00    -0.267 OA
ATOM     12  C   UNL d   1       0.528   0.494   1.236  0.00  0.00     0.046 A 
ATOM     13  H   UNL d   1      -0.769   1.972   2.090  0.00  0.00     0.169 HD
ATOM     14  C   UNL d   1       1.795   1.012   1.409  0.00  0.00     0.030 A 
ATOM     15  C   UNL d   1       2.866   0.255   0.932  0.00  0.00     0.002 A 
ATOM     16  C   UNL d   1       2.647  -0.984   0.303  0.00  0.00     0.001 A 
ATOM     17  C   UNL d   1       1.351  -1.491   0.139  0.00  0.00     0.015 A 
ENDBRANCH   1   6
BRANCH   2  18
ATOM     18  C   UNL d   1      -3.586  -0.932  -2.199  0.00  0.00     0.039 A 
ATOM     19  C   UNL d   1      -2.432  -1.393  -2.844  0.00  0.00     0.031 A 
ATOM     20  C   UNL d   1      -2.035  -0.850  -4.070  0.00  0.00     0.018 A 
ATOM     21  C   UNL d   1      -2.786   0.161  -4.682  0.00  0.00     0.048 A 
ATOM     22  C   UNL d   1      -3.952   0.609  -4.045  0.00  0.00     0.018 A 
ATOM     23  C   UNL d   1      -4.353   0.064  -2.819  0.00  0.00     0.031 A 
BRANCH  21  24
ATOM     24  C   UNL d   1      -2.362   0.756  -6.001  0.00  0.00     0.417 C 
ATOM     25  F   UNL d   1      -1.197   0.238  -6.483  0.00  0.00    -0.166 F 
ATOM     26  F   UNL d   1      -3.287   0.563  -6.983  0.00  0.00    -0.166 F 
ATOM     27  F   UNL d   1      -2.167   2.102  -5.930  0.00  0.00    -0.166 F 
ENDBRANCH  21  24
ENDBRANCH   2  18
TORSDOF 3
