REMARK  4 active torsions:
REMARK  status: ('A' for Active; 'I' for Inactive)
REMARK    1  A    between atoms: C_14  and  N_5 
REMARK    2  A    between atoms: C_12  and  N_6 
REMARK    3  A    between atoms: C_13  and  C_12 
REMARK    4  A    between atoms: C_16  and  C_13 
ROOT
ATOM      1  C   UNL d   1      -0.304  -0.596   0.218  0.00  0.00     0.145 A 
ATOM      2  C   UNL d   1      -0.308   0.723  -0.166  0.00  0.00     0.095 A 
ATOM      3  N   UNL d   1       0.778  -1.297   0.645  0.00  0.00    -0.336 N 
ATOM      4  HN  UNL d   1       0.726  -2.267   0.957  1.00  0.00     0.168 HD
ATOM      5  N   UNL d   1      -1.597  -1.070  -0.000  0.00  0.00    -0.239 N 
ATOM      6  N   UNL d   1       2.020   0.702   0.225  0.00  0.00    -0.302 N 
ATOM      7  C   UNL d   1       0.922   1.464  -0.184  0.00  0.00     0.264 A 
ATOM      8  N   UNL d   1      -2.435  -0.036  -0.343  0.00  0.00    -0.302 N 
ATOM      9  HN  UNL d   1      -3.445  -0.073  -0.476  1.00  0.00     0.186 HD
ATOM     10  C   UNL d   1       1.884  -0.621   0.621  0.00  0.00     0.188 A 
ATOM     11  C   UNL d   1      -1.635   1.028  -0.462  0.00  0.00     0.128 C 
ATOM     12  O   UNL d   1       0.983   2.644  -0.504  0.00  0.00    -0.267 OA
ENDROOT
BRANCH   6  13
ATOM     13  C   UNL d   1       3.326   1.325   0.301  0.00  0.00     0.216 C 
BRANCH  13  14
ATOM     14  C   UNL d   1       4.218   1.001  -0.898  0.00  0.00     0.177 C 
ATOM     15  O   UNL d   1       3.953   0.119  -1.710  0.00  0.00    -0.291 OA
BRANCH  14  16
ATOM     16  C   UNL d   1       5.494   1.777  -1.030  0.00  0.00     0.011 A 
ATOM     17  C   UNL d   1       5.952   2.611   0.001  0.00  0.00     0.017 A 
ATOM     18  C   UNL d   1       7.108   3.378  -0.170  0.00  0.00     0.025 A 
ATOM     19  C   UNL d   1       7.819   3.305  -1.364  0.00  0.00     0.034 A 
ATOM     20  C   UNL d   1       7.402   2.446  -2.379  0.00  0.00     0.025 A 
ATOM     21 CL   UNL d   1       9.210   4.292  -1.584  0.00  0.00    -0.084 Cl
ATOM     22  C   UNL d   1       6.242   1.679  -2.212  0.00  0.00     0.017 A 
ENDBRANCH  14  16
ENDBRANCH  13  14
ENDBRANCH   6  13
BRANCH   5  23
ATOM     23  C   UNL d   1      -2.079  -2.415   0.018  0.00  0.00     0.058 A 
ATOM     24  C   UNL d   1      -1.251  -3.490   0.368  0.00  0.00     0.031 A 
ATOM     25  C   UNL d   1      -1.722  -4.803   0.295  0.00  0.00     0.002 A 
ATOM     26  C   UNL d   1      -3.023  -5.057  -0.126  0.00  0.00     0.000 A 
ATOM     27  C   UNL d   1      -3.863  -3.997  -0.459  0.00  0.00     0.002 A 
ATOM     28  C   UNL d   1      -3.399  -2.680  -0.383  0.00  0.00     0.031 A 
ENDBRANCH   5  23
TORSDOF 4
