REMARK  2 active torsions:
REMARK  status: ('A' for Active; 'I' for Inactive)
REMARK    1  A    between atoms: C_6  and  C_1 
REMARK    2  A    between atoms: N_8  and  C_6 
ROOT
ATOM      1  C   UNL d   1       2.233  -0.569  -0.043  0.00  0.00    -0.020 C 
ATOM      2  C   UNL d   1       1.293  -0.840   0.899  0.00  0.00     0.050 C 
ATOM      3  C   UNL d   1      -0.050  -0.183   0.955  0.00  0.00     0.004 A 
ATOM      4  S   UNL d   1       0.378   0.899  -1.601  0.00  0.00    -0.125 SA
ATOM      5  C   UNL d   1      -0.498   0.656  -0.078  0.00  0.00     0.012 A 
ATOM      6  C   UNL d   1       2.044   0.409  -1.161  0.00  0.00     0.117 C 
ATOM      7  C   UNL d   1      -0.941  -0.403   2.030  0.00  0.00     0.038 A 
ATOM      8 CL   UNL d   1       1.646  -1.990   2.172  0.00  0.00    -0.083 Cl
ATOM      9  C   UNL d   1      -1.757   1.285  -0.003  0.00  0.00     0.021 A 
ATOM     10  C   UNL d   1      -2.203   0.198   2.079  0.00  0.00     0.035 A 
ATOM     11  C   UNL d   1      -2.610   1.059   1.073  0.00  0.00     0.025 A 
ATOM     12 CL   UNL d   1      -3.268  -0.148   3.385  0.00  0.00    -0.084 Cl
ENDROOT
BRANCH   1  13
ATOM     13  C   UNL d   1       3.612  -1.257  -0.083  0.00  0.00     0.309 C 
BRANCH  13  14
ATOM     14  N   UNL d   1       4.825  -0.424   0.019  0.00  0.00     0.093 N 
ATOM     15  C   UNL d   1       4.787   0.518   1.146  0.00  0.00     0.283 C 
ATOM     16  C   UNL d   1       6.065   1.333   1.378  0.00  0.00     0.104 C 
ATOM     17  S   UNL d   1       6.507   2.316  -0.080  0.00  0.00    -0.166 SA
ATOM     18  C   UNL d   1       6.599   0.921  -1.233  0.00  0.00     0.104 C 
ATOM     19  C   UNL d   1       5.289   0.121  -1.264  0.00  0.00     0.283 C 
ENDBRANCH  13  14
ENDBRANCH   1  13
TORSDOF 2
