REMARK  10 active torsions:
REMARK  status: ('A' for Active; 'I' for Inactive)
REMARK    1  A    between atoms: N_2  and  C_1 
REMARK    2  A    between atoms: C_4  and  C_6 
REMARK    3  A    between atoms: O_21  and  C_5 
REMARK       I    between atoms: C_6  and  N_11 
REMARK    4  A    between atoms: S_13  and  C_8 
REMARK    5  A    between atoms: C_9  and  C_20 
REMARK       I    between atoms: N_14  and  C_9 
REMARK    6  A    between atoms: O_22  and  C_10 
REMARK    7  A    between atoms: N_11  and  N_14 
REMARK    8  A    between atoms: C_20  and  S_13 
REMARK    9  A    between atoms: O_23  and  C_16 
REMARK   10  A    between atoms: O_24  and  C_17 
ROOT
ATOM      1  C   UNL d   1      -5.436  -0.633  -0.862  0.00  0.00     0.245 C 
ATOM      2  N   UNL d   1      -5.770   0.488  -1.594  0.00  0.00    -0.267 N 
ATOM      3  O   UNL d   1      -6.290  -1.464  -0.531  0.00  0.00    -0.271 OA
ATOM      4  H   UNL d   1      -5.098   1.195  -1.893  0.00  0.00     0.190 HD
ENDROOT
BRANCH   1   5
ATOM      5  C   UNL d   1      -3.956  -0.886  -0.597  0.00  0.00     0.184 C 
BRANCH   5   6
ATOM      6  S   UNL d   1      -3.025   0.601  -0.099  0.00  0.00    -0.118 SA
BRANCH   6   7
ATOM      7  C   UNL d   1      -1.440  -0.138   0.372  0.00  0.00     0.037 A 
ATOM      8  C   UNL d   1      -1.005   0.068   1.697  0.00  0.00     0.060 A 
ATOM      9  C   UNL d   1       0.224  -0.425   2.168  0.00  0.00     0.102 A 
ATOM     10  C   UNL d   1       1.006  -1.155   1.274  0.00  0.00     0.138 A 
ATOM     11  C   UNL d   1       0.610  -1.358  -0.059  0.00  0.00     0.077 A 
ATOM     12  C   UNL d   1      -0.612  -0.850  -0.520  0.00  0.00     0.087 A 
BRANCH   9  13
ATOM     13  O   UNL d   1       0.448  -0.145   3.486  0.00  0.00    -0.353 OA
ATOM     14  C   UNL d   1       1.784   0.077   3.928  0.00  0.00     0.210 C 
ENDBRANCH   9  13
BRANCH  10  15
ATOM     15  N   UNL d   1       2.237  -1.802   1.674  0.00  0.00    -0.113 N 
ATOM     16  O   UNL d   1       3.273  -1.428   1.107  0.00  0.00    -0.532 OA
ATOM     17  O   UNL d   1       2.163  -2.704   2.516  0.00  0.00    -0.532 OA
ENDBRANCH  10  15
BRANCH  12  18
ATOM     18  O   UNL d   1      -1.059  -0.996  -1.807  0.00  0.00    -0.355 OA
ATOM     19  C   UNL d   1      -0.256  -1.743  -2.713  0.00  0.00     0.210 C 
ENDBRANCH  12  18
ENDBRANCH   6   7
ENDBRANCH   5   6
ENDBRANCH   1   5
BRANCH   2  20
ATOM     20  N   UNL d   1      -7.098   0.637  -2.042  0.00  0.00    -0.263 N 
ATOM     21  C   UNL d   1      -7.418   1.683  -2.899  0.00  0.00     0.275 C 
ATOM     22  O   UNL d   1      -6.561   2.490  -3.261  0.00  0.00    -0.266 OA
ATOM     23  H   UNL d   1      -7.803   0.033  -1.629  0.00  0.00     0.190 HD
BRANCH  21  24
ATOM     24  C   UNL d   1      -8.851   1.786  -3.352  0.00  0.00     0.100 A 
ATOM     25  C   UNL d   1      -9.931   1.468  -2.496  0.00  0.00     0.086 A 
ATOM     26  C   UNL d   1     -11.248   1.674  -2.933  0.00  0.00     0.038 A 
ATOM     27  C   UNL d   1     -11.511   2.141  -4.217  0.00  0.00     0.005 A 
ATOM     28  C   UNL d   1     -10.457   2.412  -5.082  0.00  0.00     0.038 A 
ATOM     29  C   UNL d   1      -9.128   2.254  -4.662  0.00  0.00     0.086 A 
BRANCH  25  30
ATOM     30  O   UNL d   1      -9.640   0.993  -1.239  0.00  0.00    -0.355 OA
ATOM     31  C   UNL d   1     -10.707   0.378  -0.519  0.00  0.00     0.210 C 
ENDBRANCH  25  30
BRANCH  29  32
ATOM     32  O   UNL d   1      -8.072   2.466  -5.514  0.00  0.00    -0.355 OA
ATOM     33  C   UNL d   1      -8.297   3.352  -6.606  0.00  0.00     0.210 C 
ENDBRANCH  29  32
ENDBRANCH  21  24
ENDBRANCH   2  20
TORSDOF 10
