REMARK  3 active torsions:
REMARK  status: ('A' for Active; 'I' for Inactive)
REMARK    1  A    between atoms: C_6  and  N_2 
REMARK    2  A    between atoms: C_7  and  C_6 
REMARK       I    between atoms: N_10  and  C_7 
REMARK    3  A    between atoms: C_11  and  N_10 
ROOT
ATOM      1  S   UNL d   1      -0.266  -0.834   0.527  0.00  0.00     0.269 S 
ATOM      2  N   UNL d   1       1.240  -1.305   1.104  0.00  0.00    -0.228 N 
ATOM      3  C   UNL d   1       1.361  -1.263   2.504  0.00  0.00     0.269 A 
ATOM      4  C   UNL d   1       0.118  -0.716   3.079  0.00  0.00     0.056 A 
ATOM      5  C   UNL d   1      -0.851  -0.449   2.120  0.00  0.00     0.095 A 
ATOM      6  O   UNL d   1      -0.119   0.395  -0.216  0.00  0.00    -0.200 OA
ATOM      7  O   UNL d   1      -0.998  -1.981   0.061  0.00  0.00    -0.200 OA
ATOM      8  O   UNL d   1       2.327  -1.652   3.131  0.00  0.00    -0.266 OA
ATOM      9  C   UNL d   1      -0.148  -0.508   4.422  0.00  0.00     0.018 A 
ATOM     10  C   UNL d   1      -2.121  -0.004   2.441  0.00  0.00     0.026 A 
ATOM     11  C   UNL d   1      -1.422  -0.047   4.775  0.00  0.00     0.001 A 
ATOM     12  C   UNL d   1      -2.402   0.195   3.793  0.00  0.00     0.002 A 
ENDROOT
BRANCH   2  13
ATOM     13  C   UNL d   1       2.191  -1.892   0.169  0.00  0.00     0.248 C 
BRANCH  13  14
ATOM     14  C   UNL d   1       1.765  -3.298  -0.219  0.00  0.00     0.241 C 
ATOM     15  N   UNL d   1       1.921  -4.225   0.800  0.00  0.00    -0.324 N 
ATOM     16  H   UNL d   1       2.520  -3.970   1.582  0.00  0.00     0.169 HD
ATOM     17  O   UNL d   1       1.367  -3.540  -1.356  0.00  0.00    -0.271 OA
BRANCH  15  18
ATOM     18  C   UNL d   1       1.574  -5.595   0.714  0.00  0.00     0.056 A 
ATOM     19  C   UNL d   1       2.235  -6.527   1.533  0.00  0.00     0.060 A 
ATOM     20 CL   UNL d   1       3.452  -6.021   2.655  0.00  0.00    -0.082 Cl
ATOM     21  C   UNL d   1       1.958  -7.893   1.429  0.00  0.00     0.026 A 
ATOM     22  C   UNL d   1       0.989  -8.341   0.532  0.00  0.00     0.002 A 
ATOM     23  C   UNL d   1       0.290  -7.421  -0.247  0.00  0.00     0.002 A 
ATOM     24  C   UNL d   1       0.582  -6.057  -0.158  0.00  0.00     0.031 A 
ENDBRANCH  15  18
ENDBRANCH  13  14
ENDBRANCH   2  13
TORSDOF 3
