REMARK  1 active torsions:
REMARK  status: ('A' for Active; 'I' for Inactive)
REMARK    1  A    between atoms: C_12  and  C_2 
ROOT
ATOM      1  N   UNL d   1      -0.841   0.518   0.022  0.00  0.00    -0.282 N 
ATOM      2  C   UNL d   1      -1.667   1.624  -0.175  0.00  0.00     0.139 A 
ATOM      3  N   UNL d   1      -2.925   1.231  -0.052  0.00  0.00    -0.283 N 
ATOM      4  HN  UNL d   1      -3.741   1.842  -0.090  1.00  0.00     0.188 HD
ATOM      5  C   UNL d   1      -1.718  -0.547   0.147  0.00  0.00     0.114 A 
ATOM      6  N   UNL d   1      -2.958  -0.118   0.132  0.00  0.00    -0.286 N 
ATOM      7  HN  UNL d   1      -3.795  -0.691   0.239  1.00  0.00     0.188 HD
ATOM      8  C   UNL d   1       0.573   0.387   0.099  0.00  0.00     0.059 A 
ATOM      9  S   UNL d   1       0.218  -2.336  -0.539  0.00  0.00    -0.120 SA
ATOM     10  C   UNL d   1       1.161  -0.867  -0.161  0.00  0.00     0.028 A 
ATOM     11  C   UNL d   1      -1.278  -1.935   0.397  0.00  0.00     0.158 C 
ATOM     12  C   UNL d   1       1.393   1.475   0.426  0.00  0.00     0.031 A 
ATOM     13  C   UNL d   1       2.558  -0.984  -0.180  0.00  0.00     0.021 A 
ATOM     14  C   UNL d   1       2.784   1.343   0.401  0.00  0.00     0.002 A 
ATOM     15  C   UNL d   1       3.365   0.120   0.086  0.00  0.00     0.002 A 
ENDROOT
BRANCH   2  16
ATOM     16  C   UNL d   1      -1.308   3.008  -0.504  0.00  0.00     0.012 A 
ATOM     17  C   UNL d   1      -0.309   3.339  -1.421  0.00  0.00     0.032 A 
ATOM     18  C   UNL d   1      -0.019   4.678  -1.631  0.00  0.00     0.088 A 
ATOM     19  N   UNL d   1      -0.681   5.692  -1.037  0.00  0.00    -0.375 N 
ATOM     20  C   UNL d   1      -1.694   5.355  -0.212  0.00  0.00     0.088 A 
ATOM     21  HN  UNL d   1      -0.428   6.666  -1.203  1.00  0.00     0.164 HD
ATOM     22  C   UNL d   1      -2.038   4.048   0.082  0.00  0.00     0.032 A 
ENDBRANCH   2  16
TORSDOF 1
