REMARK  2 active torsions:
REMARK  status: ('A' for Active; 'I' for Inactive)
REMARK    1  A    between atoms: C_12  and  N_3 
REMARK    2  A    between atoms: S_15  and  C_6 
ROOT
ATOM      1  C   UNL d   1       0.761   0.439  -0.050  0.00  0.00     0.074 A 
ATOM      2  C   UNL d   1       1.315  -0.819  -0.070  0.00  0.00     0.092 A 
ATOM      3  N   UNL d   1       3.021   1.236   0.009  0.00  0.00    -0.258 N 
ATOM      4  N   UNL d   1       2.634  -1.123  -0.060  0.00  0.00    -0.330 N 
ATOM      5  HN  UNL d   1       2.972  -2.085  -0.077  1.00  0.00     0.168 HD
ATOM      6  C   UNL d   1       3.438  -0.104  -0.028  0.00  0.00     0.154 A 
ATOM      7  C   UNL d   1       1.655   1.579   0.012  0.00  0.00     0.268 A 
ATOM      8  C   UNL d   1      -0.669   0.414  -0.085  0.00  0.00    -0.026 A 
ATOM      9  C   UNL d   1      -1.136  -0.887  -0.066  0.00  0.00    -0.008 A 
ATOM     10  S   UNL d   1       0.119  -2.037  -0.105  0.00  0.00    -0.075 SA
ATOM     11  C   UNL d   1      -1.595   1.598  -0.066  0.00  0.00     0.041 C 
ATOM     12  O   UNL d   1       1.220   2.725   0.067  0.00  0.00    -0.267 OA
ATOM     13  C   UNL d   1      -2.581  -1.285  -0.022  0.00  0.00     0.051 C 
ATOM     14  C   UNL d   1      -3.054   1.185  -0.325  0.00  0.00     0.009 C 
ATOM     15  C   UNL d   1      -3.456  -0.096   0.439  0.00  0.00    -0.014 C 
ATOM     16  C   UNL d   1      -3.377   0.104   1.958  0.00  0.00     0.010 C 
ENDROOT
BRANCH   3  17
ATOM     17  C   UNL d   1       3.919   2.336   0.033  0.00  0.00     0.044 A 
ATOM     18  C   UNL d   1       4.303   2.896   1.258  0.00  0.00     0.030 A 
ATOM     19  C   UNL d   1       5.007   4.101   1.280  0.00  0.00     0.002 A 
ATOM     20  C   UNL d   1       5.324   4.749   0.086  0.00  0.00     0.000 A 
ATOM     21  C   UNL d   1       4.953   4.186  -1.135  0.00  0.00     0.002 A 
ATOM     22  C   UNL d   1       4.249   2.982  -1.165  0.00  0.00     0.030 A 
ENDBRANCH   3  17
BRANCH   6  23
ATOM     23  S   UNL d   1       5.174  -0.429  -0.046  0.00  0.00    -0.098 SA
ATOM     24  C   UNL d   1       5.217  -2.239  -0.109  0.00  0.00     0.099 C 
ENDBRANCH   6  23
TORSDOF 2
