REMARK  4 active torsions:
REMARK  status: ('A' for Active; 'I' for Inactive)
REMARK    1  A    between atoms: C_6  and  C_1 
REMARK    2  A    between atoms: C_21  and  C_5 
REMARK       I    between atoms: C_7  and  N_11 
REMARK    3  A    between atoms: C_9  and  C_7 
REMARK    4  A    between atoms: N_11  and  C_21 
ROOT
ATOM      1  C   UNL d   1       4.967   1.485  -0.042  0.00  0.00     0.251 C 
ATOM      2  N   UNL d   1       3.739   0.875   0.087  0.00  0.00    -0.351 N 
ATOM      3  O   UNL d   1       5.098   2.682  -0.277  0.00  0.00    -0.268 OA
ATOM      4  H   UNL d   1       3.638  -0.133   0.095  0.00  0.00     0.163 HD
ENDROOT
BRANCH   2   5
ATOM      5  C   UNL d   1       2.532   1.648  -0.050  0.00  0.00     0.180 C 
BRANCH   5   6
ATOM      6  C   UNL d   1       1.317   0.788   0.121  0.00  0.00     0.034 A 
ATOM      7  N   UNL d   1       1.423  -0.590   0.341  0.00  0.00    -0.351 N 
ATOM      8  C   UNL d   1       0.220  -1.130   0.463  0.00  0.00     0.091 A 
ATOM      9  HN  UNL d   1       2.301  -1.105   0.398  1.00  0.00     0.166 HD
ATOM     10  S   UNL d   1      -1.087  -0.016   0.309  0.00  0.00    -0.081 SA
ATOM     11  C   UNL d   1       0.019   1.260   0.075  0.00  0.00     0.078 A 
BRANCH   8  12
ATOM     12  C   UNL d   1       0.029  -2.545   0.714  0.00  0.00     0.038 A 
ATOM     13  S   UNL d   1      -1.520  -3.289   0.833  0.00  0.00    -0.099 SA
ATOM     14  C   UNL d   1      -0.853  -4.832   1.124  0.00  0.00     0.050 A 
ATOM     15  C   UNL d   1       0.523  -4.802   1.131  0.00  0.00     0.008 A 
ATOM     16  C   UNL d   1       1.028  -3.489   0.893  0.00  0.00     0.022 A 
ENDBRANCH   8  12
ENDBRANCH   5   6
ENDBRANCH   2   5
BRANCH   1  17
ATOM     17  C   UNL d   1       6.162   0.611   0.096  0.00  0.00     0.032 A 
ATOM     18  C   UNL d   1       6.147  -0.517   0.929  0.00  0.00     0.027 A 
ATOM     19  C   UNL d   1       7.305  -1.271   1.026  0.00  0.00    -0.022 A 
ATOM     20  C   UNL d   1       7.561  -2.510   1.795  0.00  0.00     0.068 C 
ATOM     21  C   UNL d   1       8.441  -0.935   0.307  0.00  0.00     0.075 A 
ATOM     22  C   UNL d   1       9.082  -2.583   1.641  0.00  0.00     0.180 C 
ATOM     23  O   UNL d   1       9.486  -1.802   0.492  0.00  0.00    -0.350 OA
ATOM     24  C   UNL d   1       8.486   0.171  -0.516  0.00  0.00     0.038 A 
ATOM     25  C   UNL d   1       7.336   0.962  -0.607  0.00  0.00     0.020 A 
ENDBRANCH   1  17
TORSDOF 4
