REMARK  7 active torsions:
REMARK  status: ('A' for Active; 'I' for Inactive)
REMARK    1  A    between atoms: N_6  and  C_1 
REMARK    2  A    between atoms: N_11  and  C_1 
REMARK    3  A    between atoms: C_2  and  C_14 
REMARK    4  A    between atoms: O_16  and  C_4 
REMARK    5  A    between atoms: N_13  and  N_6 
REMARK    6  A    between atoms: N_7  and  N_11 
REMARK    7  A    between atoms: C_18  and  N_13 
ROOT
ATOM      1  N   UNL d   1       2.497  -0.302  -0.031  0.00  0.00    -0.276 N 
ATOM      2  H   UNL d   1       2.910   0.542  -0.421  0.00  0.00     0.189 HD
ENDROOT
BRANCH   1   3
ATOM      3  N   UNL d   1       3.180  -0.925   0.981  0.00  0.00    -0.309 N 
ATOM      4  C   UNL d   1       4.307  -0.368   1.309  0.00  0.00     0.121 C 
ATOM      5  HN  UNL d   1       2.830  -1.765   1.443  1.00  0.00     0.186 HD
BRANCH   4   6
ATOM      6  C   UNL d   1       5.093  -0.850   2.464  0.00  0.00     0.017 A 
ATOM      7  C   UNL d   1       6.295  -0.219   2.808  0.00  0.00     0.099 A 
ATOM      8  C   UNL d   1       7.018  -0.668   3.920  0.00  0.00     0.069 A 
ATOM      9 CL   UNL d   1       8.503   0.095   4.357  0.00  0.00    -0.081 Cl
ATOM     10  C   UNL d   1       6.550  -1.731   4.690  0.00  0.00     0.050 A 
ATOM     11  C   UNL d   1       5.345  -2.343   4.347  0.00  0.00     0.036 A 
ATOM     12  C   UNL d   1       4.612  -1.910   3.239  0.00  0.00     0.039 A 
ATOM     13 CL   UNL d   1       4.758  -3.650   5.299  0.00  0.00    -0.084 Cl
BRANCH   7  14
ATOM     14  O   UNL d   1       6.750   0.837   2.063  0.00  0.00    -0.358 OA
ATOM     15  H   UNL d   1       7.579   1.154   2.465  0.00  0.00     0.217 HD
ENDBRANCH   7  14
ENDBRANCH   4   6
ENDBRANCH   1   3
BRANCH   1  16
ATOM     16  C   UNL d   1       1.126  -0.271  -0.010  0.00  0.00     0.201 C 
ATOM     17  S   UNL d   1       0.328   1.070  -0.613  0.00  0.00    -0.038 SA
BRANCH  16  18
ATOM     18  N   UNL d   1       0.414  -1.290   0.550  0.00  0.00    -0.292 N 
ATOM     19  H   UNL d   1      -0.511  -1.095   0.913  0.00  0.00     0.183 HD
BRANCH  18  20
ATOM     20  N   UNL d   1       0.969  -2.536   0.838  0.00  0.00    -0.204 NA
ATOM     21  H   UNL d   1       1.932  -2.611   0.495  0.00  0.00     0.153 HD
BRANCH  20  22
ATOM     22  C   UNL d   1       0.157  -3.667   0.579  0.00  0.00     0.027 A 
ATOM     23  C   UNL d   1      -1.238  -3.602   0.451  0.00  0.00     0.025 A 
ATOM     24  C   UNL d   1      -2.024  -4.763   0.376  0.00  0.00     0.002 A 
ATOM     25  C   UNL d   1      -1.421  -6.014   0.445  0.00  0.00     0.000 A 
ATOM     26  C   UNL d   1      -0.038  -6.103   0.573  0.00  0.00     0.002 A 
ATOM     27  C   UNL d   1       0.740  -4.941   0.644  0.00  0.00     0.025 A 
ENDBRANCH  20  22
ENDBRANCH  18  20
ENDBRANCH  16  18
ENDBRANCH   1  16
TORSDOF 7
