REMARK  3 active torsions:
REMARK  status: ('A' for Active; 'I' for Inactive)
REMARK    1  A    between atoms: C_3  and  C_7 
REMARK    2  A    between atoms: C_5  and  C_4 
REMARK    3  A    between atoms: C_6  and  C_5 
ROOT
ATOM      1  C   UNL d   1      -3.599   1.400  -0.080  0.00  0.00     0.208 C 
ATOM      2  O   UNL d   1      -4.634   0.921   0.379  0.00  0.00    -0.285 OA
ENDROOT
BRANCH   1   3
ATOM      3  C   UNL d   1      -2.330   0.620  -0.032  0.00  0.00     0.084 A 
ATOM      4  N   UNL d   1      -1.177   1.335  -0.013  0.00  0.00    -0.352 N 
ATOM      5  C   UNL d   1      -0.017   0.661   0.003  0.00  0.00     0.043 A 
ATOM      6  HN  UNL d   1      -1.191   2.355  -0.012  1.00  0.00     0.166 HD
ATOM      7  C   UNL d   1       0.038  -0.749  -0.000  0.00  0.00    -0.009 A 
ATOM      8  C   UNL d   1       1.176   1.369   0.015  0.00  0.00     0.030 A 
ATOM      9  C   UNL d   1      -1.172  -1.457  -0.013  0.00  0.00     0.016 A 
ATOM     10  C   UNL d   1       1.281  -1.405   0.007  0.00  0.00     0.013 A 
ATOM     11  C   UNL d   1      -2.378  -0.765  -0.020  0.00  0.00     0.034 A 
ATOM     12  C   UNL d   1       2.465  -0.668   0.018  0.00  0.00     0.001 A 
ATOM     13  C   UNL d   1       2.414   0.720   0.022  0.00  0.00     0.002 A 
ENDBRANCH   1   3
BRANCH   1  14
ATOM     14  C   UNL d   1      -3.629   2.752  -0.701  0.00  0.00     0.017 A 
ATOM     15  C   UNL d   1      -2.795   3.078  -1.780  0.00  0.00     0.031 A 
ATOM     16  C   UNL d   1      -2.838   4.355  -2.361  0.00  0.00     0.048 A 
ATOM     17  C   UNL d   1      -3.750   5.296  -1.860  0.00  0.00     0.016 A 
ATOM     18  C   UNL d   1      -4.603   4.967  -0.803  0.00  0.00     0.002 A 
ATOM     19  C   UNL d   1      -4.548   3.695  -0.229  0.00  0.00     0.015 A 
BRANCH  16  20
ATOM     20  C   UNL d   1      -1.923   4.712  -3.505  0.00  0.00     0.417 C 
ATOM     21  F   UNL d   1      -1.107   3.690  -3.891  0.00  0.00    -0.166 F 
ATOM     22  F   UNL d   1      -2.606   5.083  -4.623  0.00  0.00    -0.166 F 
ATOM     23  F   UNL d   1      -1.097   5.753  -3.207  0.00  0.00    -0.166 F 
ENDBRANCH  16  20
ENDBRANCH   1  14
TORSDOF 3
