REMARK  6 active torsions:
REMARK  status: ('A' for Active; 'I' for Inactive)
REMARK    1  A    between atoms: N_4  and  C_1 
REMARK       I    between atoms: C_5  and  N_4 
REMARK       I    between atoms: N_8  and  C_5 
REMARK    2  A    between atoms: C_10  and  C_6 
REMARK    3  A    between atoms: C_9  and  N_8 
REMARK    4  A    between atoms: C_12  and  C_10 
REMARK    5  A    between atoms: O_17  and  C_12 
REMARK    6  A    between atoms: C_23  and  O_17 
ROOT
ATOM      1  N   UNL d   1      -0.140  -1.913  -0.291  0.00  0.00    -0.288 N 
ATOM      2  C   UNL d   1       0.727  -2.950  -0.152  0.00  0.00     0.326 C 
ATOM      3  N   UNL d   1       1.789  -3.033  -1.004  0.00  0.00    -0.308 N 
ATOM      4  O   UNL d   1       0.464  -3.796   0.704  0.00  0.00    -0.247 OA
ATOM      5  H   UNL d   1      -0.975  -2.015   0.269  0.00  0.00     0.172 HD
ATOM      6  H   UNL d   1       1.667  -2.582  -1.898  0.00  0.00     0.170 HD
ENDROOT
BRANCH   1   7
ATOM      7  C   UNL d   1       0.021  -0.639  -0.767  0.00  0.00     0.152 A 
ATOM      8  N   UNL d   1      -0.937   0.247  -0.632  0.00  0.00    -0.339 N 
ATOM      9  C   UNL d   1      -0.518   1.503  -1.065  0.00  0.00     0.027 A 
ATOM     10  HN  UNL d   1      -1.865   0.043  -0.261  1.00  0.00     0.168 HD
ATOM     11  C   UNL d   1       0.783   1.518  -1.535  0.00  0.00     0.078 A 
ATOM     12  S   UNL d   1       1.460  -0.059  -1.459  0.00  0.00    -0.064 SA
BRANCH   9  13
ATOM     13  C   UNL d   1      -1.476   2.641  -0.875  0.00  0.00     0.168 C 
BRANCH  13  14
ATOM     14  C   UNL d   1      -1.381   3.778  -1.867  0.00  0.00     0.264 C 
ATOM     15  O   UNL d   1      -0.552   3.910  -2.755  0.00  0.00    -0.265 OA
BRANCH  14  16
ATOM     16  O   UNL d   1      -2.392   4.665  -1.609  0.00  0.00    -0.322 OA
BRANCH  16  17
ATOM     17  C   UNL d   1      -2.545   5.762  -2.524  0.00  0.00     0.174 C 
ATOM     18  C   UNL d   1      -1.853   7.001  -1.990  0.00  0.00     0.034 C 
ENDBRANCH  16  17
ENDBRANCH  14  16
ENDBRANCH  13  14
ENDBRANCH   9  13
ENDBRANCH   1   7
BRANCH   3  19
ATOM     19  C   UNL d   1       2.938  -3.847  -0.832  0.00  0.00     0.047 A 
ATOM     20  C   UNL d   1       3.730  -4.222  -1.959  0.00  0.00     0.001 A 
ATOM     21  C   UNL d   1       4.984  -4.847  -1.729  0.00  0.00    -0.024 A 
ATOM     22  C   UNL d   1       3.328  -4.054  -3.305  0.00  0.00     0.014 A 
ATOM     23  C   UNL d   1       5.808  -5.200  -2.811  0.00  0.00     0.012 A 
ATOM     24  C   UNL d   1       5.397  -5.133  -0.421  0.00  0.00     0.012 A 
ATOM     25  C   UNL d   1       5.391  -5.000  -4.125  0.00  0.00     0.001 A 
ATOM     26  C   UNL d   1       4.143  -4.447  -4.372  0.00  0.00     0.001 A 
ATOM     27  C   UNL d   1       4.579  -4.833   0.664  0.00  0.00     0.003 A 
ATOM     28  C   UNL d   1       3.361  -4.194   0.459  0.00  0.00     0.030 A 
ENDBRANCH   3  19
TORSDOF 6
