REMARK  3 active torsions:
REMARK  status: ('A' for Active; 'I' for Inactive)
REMARK    1  A    between atoms: N_13  and  C_3 
REMARK    2  A    between atoms: C_14  and  C_9 
REMARK    3  A    between atoms: C_15  and  N_13 
ROOT
ATOM      1  N   UNL d   1       0.190  -0.773  -0.084  0.00  0.00    -0.074 N 
ATOM      2  C   UNL d   1       0.210   0.625  -0.091  0.00  0.00     0.706 A 
ATOM      3  C   UNL d   1      -1.016  -1.489  -0.028  0.00  0.00     0.127 A 
ATOM      4  N   UNL d   1      -0.940   1.361  -0.060  0.00  0.00    -0.189 N 
ATOM      5  HN  UNL d   1      -0.922   2.381  -0.081  1.00  0.00     0.184 HD
ATOM      6  C   UNL d   1      -2.165  -0.795  -0.005  0.00  0.00     0.076 A 
ATOM      7  N   UNL d   1       1.461   1.033  -0.105  0.00  0.00    -0.185 N 
ATOM      8  HN  UNL d   1       1.812   1.991  -0.115  1.00  0.00     0.185 HD
ATOM      9  C   UNL d   1      -2.060   0.700  -0.002  0.00  0.00     0.062 A 
ATOM     10  N   UNL d   1       1.463  -1.251  -0.104  0.00  0.00    -0.273 N 
ATOM     11  HN  UNL d   1       1.788  -2.218  -0.117  1.00  0.00     0.189 HD
ATOM     12  C   UNL d   1       2.175  -0.125  -0.103  0.00  0.00     0.215 A 
ENDROOT
BRANCH   3  13
ATOM     13  N   UNL d   1      -0.956  -2.889  -0.010  0.00  0.00    -0.243 NA
ATOM     14  H   UNL d   1       0.011  -3.205  -0.151  0.00  0.00     0.135 HD
BRANCH  13  15
ATOM     15  C   UNL d   1      -1.544  -3.650   1.035  0.00  0.00     0.014 A 
ATOM     16  C   UNL d   1      -1.920  -4.973   0.775  0.00  0.00     0.025 A 
ATOM     17  C   UNL d   1      -2.485  -5.765   1.780  0.00  0.00     0.025 A 
ATOM     18  C   UNL d   1      -2.646  -5.247   3.062  0.00  0.00     0.034 A 
ATOM     19  C   UNL d   1      -2.229  -3.951   3.353  0.00  0.00     0.025 A 
ATOM     20 CL   UNL d   1      -3.360  -6.211   4.295  0.00  0.00    -0.084 Cl
ATOM     21  C   UNL d   1      -1.671  -3.161   2.345  0.00  0.00     0.025 A 
ENDBRANCH  13  15
ENDBRANCH   3  13
BRANCH   9  22
ATOM     22  C   UNL d   1      -3.353   1.446   0.051  0.00  0.00    -0.009 A 
ATOM     23  C   UNL d   1      -4.468   0.942   0.737  0.00  0.00     0.014 A 
ATOM     24  C   UNL d   1      -5.670   1.653   0.743  0.00  0.00     0.001 A 
ATOM     25  C   UNL d   1      -5.761   2.875   0.078  0.00  0.00     0.000 A 
ATOM     26  C   UNL d   1      -4.649   3.393  -0.585  0.00  0.00     0.001 A 
ATOM     27  C   UNL d   1      -3.446   2.684  -0.596  0.00  0.00     0.014 A 
ENDBRANCH   9  22
TORSDOF 3
