REMARK  5 active torsions:
REMARK  status: ('A' for Active; 'I' for Inactive)
REMARK    1  A    between atoms: C_6  and  C_1 
REMARK    2  A    between atoms: C_8  and  N_2 
REMARK    3  A    between atoms: C_9  and  C_4 
REMARK       I    between atoms: N_7  and  C_6 
REMARK    4  A    between atoms: C_11  and  N_7 
REMARK    5  A    between atoms: O_15  and  C_14 
ROOT
ATOM      1  C   UNL d   1      -0.192   1.063   0.068  0.00  0.00     0.057 C 
ATOM      2  N   UNL d   1       0.968  -0.878   0.321  0.00  0.00    -0.314 N 
ATOM      3  C   UNL d   1       1.053   0.517   0.413  0.00  0.00     0.029 C 
ATOM      4  C   UNL d   1      -0.384  -1.220   0.147  0.00  0.00     0.051 C 
ATOM      5  C   UNL d   1      -1.083  -0.037  -0.036  0.00  0.00     0.050 C 
ATOM      6  C   UNL d   1       2.322   1.277   0.662  0.00  0.00     0.070 C 
ENDROOT
BRANCH   1   7
ATOM      7  C   UNL d   1      -0.449   2.507  -0.139  0.00  0.00     0.258 C 
ATOM      8  N   UNL d   1      -1.783   2.858  -0.291  0.00  0.00    -0.323 N 
ATOM      9  H   UNL d   1      -2.455   2.109  -0.349  0.00  0.00     0.169 HD
ATOM     10  O   UNL d   1       0.478   3.305  -0.200  0.00  0.00    -0.267 OA
BRANCH   8  11
ATOM     11  C   UNL d   1      -2.308   4.172  -0.357  0.00  0.00     0.037 A 
ATOM     12  C   UNL d   1      -1.538   5.328  -0.158  0.00  0.00     0.066 A 
ATOM     13  C   UNL d   1      -2.126   6.598  -0.165  0.00  0.00     0.070 A 
ATOM     14  C   UNL d   1      -3.494   6.716  -0.410  0.00  0.00     0.037 A 
ATOM     15  C   UNL d   1      -4.270   5.581  -0.626  0.00  0.00     0.005 A 
ATOM     16  C   UNL d   1      -3.681   4.315  -0.592  0.00  0.00     0.029 A 
BRANCH  13  17
ATOM     17  O   UNL d   1      -1.475   7.780   0.062  0.00  0.00    -0.356 OA
ATOM     18  C   UNL d   1      -0.119   7.690   0.489  0.00  0.00     0.210 C 
ENDBRANCH  13  17
ENDBRANCH   8  11
ENDBRANCH   1   7
BRANCH   2  19
ATOM     19  C   UNL d   1       2.064  -1.807   0.314  0.00  0.00     0.039 A 
ATOM     20  C   UNL d   1       3.088  -1.737   1.264  0.00  0.00     0.030 A 
ATOM     21  C   UNL d   1       4.107  -2.696   1.278  0.00  0.00     0.002 A 
ATOM     22  C   UNL d   1       4.091  -3.752   0.369  0.00  0.00     0.000 A 
ATOM     23  C   UNL d   1       3.072  -3.837  -0.574  0.00  0.00     0.002 A 
ATOM     24  C   UNL d   1       2.075  -2.859  -0.617  0.00  0.00     0.030 A 
ENDBRANCH   2  19
BRANCH   4  25
ATOM     25  C   UNL d   1      -0.936  -2.593   0.140  0.00  0.00    -0.009 A 
ATOM     26  C   UNL d   1      -1.901  -2.957  -0.811  0.00  0.00     0.014 A 
ATOM     27  C   UNL d   1      -2.348  -4.278  -0.910  0.00  0.00     0.001 A 
ATOM     28  C   UNL d   1      -1.833  -5.255  -0.061  0.00  0.00     0.000 A 
ATOM     29  C   UNL d   1      -0.908  -4.903   0.917  0.00  0.00     0.001 A 
ATOM     30  C   UNL d   1      -0.487  -3.576   1.036  0.00  0.00     0.014 A 
ENDBRANCH   4  25
TORSDOF 5
