REMARK  4 active torsions:
REMARK  status: ('A' for Active; 'I' for Inactive)
REMARK    1  A    between atoms: C_3  and  C_1 
REMARK    2  A    between atoms: C_2  and  C_3 
REMARK    3  A    between atoms: N_10  and  N_4 
REMARK    4  A    between atoms: C_14  and  N_10 
ROOT
ATOM      1  C   UNL d   1       1.022   0.250  -0.289  0.00  0.00     0.179 C 
ATOM      2  N   UNL d   1       0.328  -0.750  -0.748  0.00  0.00    -0.287 N 
ATOM      3  HN  UNL d   1       0.814  -1.578  -1.094  1.00  0.00     0.188 HD
ATOM      4  C   UNL d   1       0.329   1.434   0.166  0.00  0.00     0.123 C 
ATOM      5  N   UNL d   1      -0.290   2.360   0.504  0.00  0.00    -0.190 NA
ENDROOT
BRANCH   1   6
ATOM      6  C   UNL d   1       2.522   0.173  -0.269  0.00  0.00     0.221 C 
ATOM      7  O   UNL d   1       3.119   1.229  -0.467  0.00  0.00    -0.284 OA
BRANCH   6   8
ATOM      8  C   UNL d   1       3.254  -1.077  -0.016  0.00  0.00     0.024 A 
ATOM      9  C   UNL d   1       2.688  -2.314   0.236  0.00  0.00     0.065 A 
ATOM     10  S   UNL d   1       3.848  -3.549   0.487  0.00  0.00    -0.113 SA
ATOM     11  C   UNL d   1       5.137  -2.454   0.274  0.00  0.00     0.050 A 
ATOM     12  C   UNL d   1       4.690  -1.179   0.005  0.00  0.00     0.023 A 
ENDBRANCH   6   8
ENDBRANCH   1   6
BRANCH   2  13
ATOM     13  N   UNL d   1      -1.034  -0.719  -0.777  0.00  0.00    -0.300 N 
ATOM     14  H   UNL d   1      -1.567   0.134  -0.600  0.00  0.00     0.187 HD
BRANCH  13  15
ATOM     15  C   UNL d   1      -1.664  -1.592  -1.690  0.00  0.00     0.048 A 
ATOM     16  C   UNL d   1      -1.063  -2.785  -2.114  0.00  0.00     0.031 A 
ATOM     17  C   UNL d   1      -1.701  -3.626  -3.030  0.00  0.00     0.009 A 
ATOM     18  C   UNL d   1      -2.957  -3.289  -3.542  0.00  0.00    -0.062 A 
ATOM     19  C   UNL d   1      -3.568  -2.107  -3.115  0.00  0.00     0.009 A 
ATOM     20  C   UNL d   1      -3.634  -4.201  -4.521  0.00  0.00     0.048 C 
ATOM     21  C   UNL d   1      -2.932  -1.274  -2.189  0.00  0.00     0.031 A 
ENDBRANCH  13  15
ENDBRANCH   2  13
TORSDOF 4
