REMARK  4 active torsions:
REMARK  status: ('A' for Active; 'I' for Inactive)
REMARK    1  A    between atoms: N_2  and  C_1 
REMARK    2  A    between atoms: N_4  and  C_1 
REMARK    3  A    between atoms: C_5  and  N_2 
REMARK    4  A    between atoms: N_6  and  N_4 
ROOT
ATOM      1  N   UNL d   1       0.740   0.824   0.959  0.00  0.00    -0.332 N 
ATOM      2  H   UNL d   1      -0.185   1.086   0.632  0.00  0.00     0.168 HD
ENDROOT
BRANCH   1   3
ATOM      3  C   UNL d   1       1.351   0.023   0.021  0.00  0.00     0.186 C 
ATOM      4  S   UNL d   1       2.742  -0.889   0.104  0.00  0.00    -0.040 SA
BRANCH   3   5
ATOM      5  N   UNL d   1       0.666   0.009  -1.188  0.00  0.00    -0.298 N 
ATOM      6  H   UNL d   1       1.076  -0.558  -1.929  0.00  0.00     0.183 HD
BRANCH   5   7
ATOM      7  N   UNL d   1      -0.402   0.897  -1.459  0.00  0.00    -0.242 NA
ATOM      8  C   UNL d   1      -0.892   0.704  -2.825  0.00  0.00     0.133 C 
ATOM      9  H   UNL d   1      -0.032   1.851  -1.398  0.00  0.00     0.146 HD
ENDBRANCH   5   7
ENDBRANCH   3   5
ENDBRANCH   1   3
BRANCH   1  10
ATOM     10  C   UNL d   1       1.110   1.298   2.232  0.00  0.00     0.034 A 
ATOM     11  C   UNL d   1       0.169   2.101   2.896  0.00  0.00     0.031 A 
ATOM     12  C   UNL d   1       0.455   2.671   4.142  0.00  0.00     0.026 A 
ATOM     13  C   UNL d   1       1.689   2.434   4.741  0.00  0.00     0.034 A 
ATOM     14  C   UNL d   1       2.628   1.632   4.105  0.00  0.00     0.026 A 
ATOM     15 CL   UNL d   1       2.056   3.148   6.262  0.00  0.00    -0.084 Cl
ATOM     16  C   UNL d   1       2.339   1.069   2.855  0.00  0.00     0.031 A 
ENDBRANCH   1  10
TORSDOF 4
