REMARK  4 active torsions:
REMARK  status: ('A' for Active; 'I' for Inactive)
REMARK    1  A    between atoms: S_14  and  C_9 
REMARK    2  A    between atoms: C_13  and  C_16 
REMARK    3  A    between atoms: C_15  and  C_13 
REMARK    4  A    between atoms: C_16  and  S_14 
ROOT
ATOM      1  C   UNL d   1       1.181  -0.847   0.045  0.00  0.00     0.137 A 
ATOM      2  C   UNL d   1       0.793   0.482   0.009  0.00  0.00     0.104 A 
ATOM      3  N   UNL d   1       2.439  -1.303   0.158  0.00  0.00    -0.320 N 
ATOM      4  HN  UNL d   1       2.697  -2.290   0.175  1.00  0.00     0.169 HD
ATOM      5  N   UNL d   1       0.061  -1.618  -0.028  0.00  0.00    -0.340 N 
ATOM      6  N   UNL d   1       1.733   1.455   0.063  0.00  0.00    -0.294 N 
ATOM      7  HN  UNL d   1       1.490   2.444   0.011  1.00  0.00     0.187 HD
ATOM      8  C   UNL d   1      -0.630   0.513  -0.036  0.00  0.00     0.022 A 
ATOM      9  C   UNL d   1       3.316  -0.283   0.245  0.00  0.00     0.161 A 
ATOM     10  C   UNL d   1      -1.063  -0.821  -0.041  0.00  0.00     0.046 A 
ATOM     11  N   UNL d   1       3.005   1.041   0.189  0.00  0.00    -0.279 N 
ATOM     12  HN  UNL d   1       3.753   1.733   0.243  1.00  0.00     0.189 HD
ATOM     13  C   UNL d   1      -1.601   1.533  -0.047  0.00  0.00     0.016 A 
ATOM     14  C   UNL d   1      -2.415  -1.181  -0.048  0.00  0.00     0.030 A 
ATOM     15  C   UNL d   1      -2.959   1.187  -0.043  0.00  0.00     0.001 A 
ATOM     16  C   UNL d   1      -3.356  -0.149  -0.041  0.00  0.00     0.002 A 
ATOM     17  H   UNL d   1       0.065  -2.625  -0.027  0.00  0.00     0.167 HD
ENDROOT
BRANCH   9  18
ATOM     18  S   UNL d   1       5.022  -0.693   0.567  0.00  0.00    -0.085 SA
BRANCH  18  19
ATOM     19  C   UNL d   1       4.875  -2.498   0.722  0.00  0.00     0.166 C 
BRANCH  19  20
ATOM     20  C   UNL d   1       6.212  -3.102   1.092  0.00  0.00     0.169 C 
ATOM     21  O   UNL d   1       6.970  -3.537   0.222  0.00  0.00    -0.291 OA
BRANCH  20  22
ATOM     22  C   UNL d   1       6.636  -3.182   2.529  0.00  0.00     0.011 A 
ATOM     23  C   UNL d   1       5.832  -2.753   3.591  0.00  0.00     0.017 A 
ATOM     24  C   UNL d   1       6.313  -2.806   4.906  0.00  0.00     0.025 A 
ATOM     25  C   UNL d   1       7.595  -3.288   5.163  0.00  0.00     0.034 A 
ATOM     26  C   UNL d   1       8.394  -3.745   4.119  0.00  0.00     0.025 A 
ATOM     27 CL   UNL d   1       8.198  -3.299   6.773  0.00  0.00    -0.084 Cl
ATOM     28  C   UNL d   1       7.914  -3.696   2.807  0.00  0.00     0.017 A 
ENDBRANCH  20  22
ENDBRANCH  19  20
ENDBRANCH  18  19
ENDBRANCH   9  18
TORSDOF 4
