REMARK  5 active torsions:
REMARK  status: ('A' for Active; 'I' for Inactive)
REMARK    1  A    between atoms: C_12  and  C_5 
REMARK    2  A    between atoms: S_13  and  C_6 
REMARK    3  A    between atoms: O_16  and  C_12 
REMARK    4  A    between atoms: C_15  and  S_13 
REMARK    5  A    between atoms: C_24  and  O_16 
ROOT
ATOM      1  C   UNL d   1       1.579  -0.893  -0.029  0.00  0.00     0.146 A 
ATOM      2  N   UNL d   1       0.933  -2.095  -0.028  0.00  0.00    -0.334 N 
ATOM      3  HN  UNL d   1       1.453  -2.971  -0.068  1.00  0.00     0.168 HD
ATOM      4  N   UNL d   1       0.902   0.310  -0.066  0.00  0.00    -0.238 N 
ATOM      5  C   UNL d   1       2.922  -0.556  -0.022  0.00  0.00     0.102 A 
ATOM      6  C   UNL d   1      -0.365  -2.086   0.025  0.00  0.00     0.089 A 
ATOM      7  N   UNL d   1       1.712   1.389  -0.097  0.00  0.00    -0.302 N 
ATOM      8  HN  UNL d   1       1.452   2.375  -0.139  1.00  0.00     0.186 HD
ATOM      9  C   UNL d   1      -1.187  -0.836   0.099  0.00  0.00     0.027 A 
ATOM     10  C   UNL d   1      -0.498   0.382  -0.024  0.00  0.00     0.071 A 
ATOM     11  C   UNL d   1       2.936   0.854  -0.057  0.00  0.00     0.129 A 
ATOM     12  C   UNL d   1      -2.571  -0.800   0.290  0.00  0.00     0.017 A 
ATOM     13  C   UNL d   1      -1.163   1.611  -0.052  0.00  0.00     0.032 A 
ATOM     14  C   UNL d   1      -3.243   0.431   0.293  0.00  0.00     0.001 A 
ATOM     15  C   UNL d   1      -2.546   1.627   0.096  0.00  0.00     0.002 A 
ENDROOT
BRANCH   6  16
ATOM     16  S   UNL d   1      -1.147  -3.659  -0.007  0.00  0.00    -0.072 SA
BRANCH  16  17
ATOM     17  C   UNL d   1      -1.554  -3.874  -1.735  0.00  0.00     0.007 A 
ATOM     18  C   UNL d   1      -0.802  -3.333  -2.782  0.00  0.00     0.019 A 
ATOM     19  C   UNL d   1      -1.248  -3.439  -4.106  0.00  0.00     0.008 A 
ATOM     20  C   UNL d   1      -2.441  -4.107  -4.404  0.00  0.00    -0.062 A 
ATOM     21  C   UNL d   1      -3.143  -4.729  -3.369  0.00  0.00     0.008 A 
ATOM     22  C   UNL d   1      -2.989  -4.088  -5.801  0.00  0.00     0.048 C 
ATOM     23  C   UNL d   1      -2.699  -4.617  -2.047  0.00  0.00     0.019 A 
ENDBRANCH  16  17
ENDBRANCH   6  16
BRANCH   5  24
ATOM     24  C   UNL d   1       4.064  -1.438  -0.046  0.00  0.00     0.298 C 
ATOM     25  O   UNL d   1       5.215  -1.020  -0.146  0.00  0.00    -0.259 OA
BRANCH  24  26
ATOM     26  O   UNL d   1       3.720  -2.753  -0.054  0.00  0.00    -0.318 OA
BRANCH  26  27
ATOM     27  C   UNL d   1       4.678  -3.650  -0.619  0.00  0.00     0.174 C 
ATOM     28  C   UNL d   1       4.486  -3.652  -2.125  0.00  0.00     0.034 C 
ENDBRANCH  26  27
ENDBRANCH  24  26
ENDBRANCH   5  24
TORSDOF 5
