REMARK  2 active torsions:
REMARK  status: ('A' for Active; 'I' for Inactive)
REMARK       I    between atoms: N_4  and  C_1 
REMARK       I    between atoms: N_11  and  C_1 
REMARK    1  A    between atoms: N_2  and  N_4 
REMARK    2  A    between atoms: C_9  and  C_10 
ROOT
ATOM      1  N   UNL d   1      -0.647   1.500  -3.213  0.00  0.00    -0.307 N 
ATOM      2  HN  UNL d   1      -1.032   2.244  -3.794  1.00  0.00     0.186 HD
ATOM      3  C   UNL d   1       0.372   0.790  -3.579  0.00  0.00     0.118 C 
ENDROOT
BRANCH   1   4
ATOM      4  N   UNL d   1      -1.167   1.181  -1.992  0.00  0.00    -0.252 N 
ATOM      5  C   UNL d   1      -2.247   1.845  -1.468  0.00  0.00     0.332 C 
ATOM      6  O   UNL d   1      -2.743   1.559  -0.385  0.00  0.00    -0.246 OA
ATOM      7  N   UNL d   1      -2.723   2.848  -2.245  0.00  0.00    -0.351 N 
ATOM      8  H   UNL d   1      -2.416   2.834  -3.208  0.00  0.00     0.160 HD
ATOM      9  H   UNL d   1      -3.607   3.264  -1.996  0.00  0.00     0.160 HD
ATOM     10  H   UNL d   1      -0.779   0.432  -1.431  0.00  0.00     0.191 HD
ENDBRANCH   1   4
BRANCH   3  11
ATOM     11  C   UNL d   1       1.048   1.043  -4.865  0.00  0.00    -0.013 A 
ATOM     12  C   UNL d   1       0.594   2.061  -5.709  0.00  0.00     0.055 A 
ATOM     13  C   UNL d   1       1.255   2.299  -6.907  0.00  0.00     0.120 A 
ATOM     14  F   UNL d   1       0.824   3.279  -7.712  0.00  0.00    -0.206 F 
ATOM     15  C   UNL d   1       2.354   1.539  -7.282  0.00  0.00     0.084 A 
ATOM     16  C   UNL d   1       2.790   0.527  -6.436  0.00  0.00     0.120 A 
ATOM     17  C   UNL d   1       2.150   0.267  -5.227  0.00  0.00     0.055 A 
ATOM     18  F   UNL d   1       3.848  -0.214  -6.789  0.00  0.00    -0.206 F 
ENDBRANCH   3  11
TORSDOF 2
