REMARK  4 active torsions:
REMARK  status: ('A' for Active; 'I' for Inactive)
REMARK    1  A    between atoms: N_2  and  C_1 
REMARK    2  A    between atoms: C_5  and  C_4 
REMARK       I    between atoms: N_13  and  C_5 
REMARK    3  A    between atoms: C_8  and  N_14 
REMARK    4  A    between atoms: N_14  and  N_13 
ROOT
ATOM      1  N   UNL d   1      -3.165  -1.743  -0.280  0.00  0.00    -0.202 NA
ATOM      2  H   UNL d   1      -2.894  -0.756  -0.374  0.00  0.00     0.153 HD
ENDROOT
BRANCH   1   3
ATOM      3  C   UNL d   1      -4.578  -1.859  -0.107  0.00  0.00     0.042 A 
ATOM      4  C   UNL d   1      -5.452  -1.068  -0.909  0.00  0.00     0.013 A 
ATOM      5  C   UNL d   1      -6.841  -1.293  -0.779  0.00  0.00     0.044 A 
ATOM      6  C   UNL d   1      -5.019  -0.082  -1.835  0.00  0.00     0.015 A 
ATOM      7  C   UNL d   1      -7.725  -0.550  -1.550  0.00  0.00     0.030 A 
ATOM      8  N   UNL d   1      -7.359  -2.208   0.052  0.00  0.00    -0.359 N 
ATOM      9  C   UNL d   1      -7.287   0.419  -2.453  0.00  0.00     0.002 A 
ATOM     10  C   UNL d   1      -5.929   0.656  -2.594  0.00  0.00     0.001 A 
ATOM     11  C   UNL d   1      -6.520  -2.967   0.786  0.00  0.00     0.007 A 
ATOM     12  HN  UNL d   1      -8.369  -2.329   0.127  1.00  0.00     0.166 HD
ATOM     13  C   UNL d   1      -5.140  -2.832   0.727  0.00  0.00     0.050 A 
ATOM     14  C   UNL d   1      -7.140  -3.991   1.689  0.00  0.00     0.068 C 
ENDBRANCH   1   3
BRANCH   1  15
ATOM     15  N   UNL d   1      -2.360  -2.386   0.685  0.00  0.00    -0.281 N 
ATOM     16  C   UNL d   1      -1.205  -1.714   1.068  0.00  0.00     0.289 C 
ATOM     17  O   UNL d   1      -1.027  -0.526   0.796  0.00  0.00    -0.264 OA
ATOM     18  H   UNL d   1      -2.336  -3.402   0.642  0.00  0.00     0.184 HD
BRANCH  16  19
ATOM     19  C   UNL d   1      -0.234  -2.522   1.776  0.00  0.00     0.146 A 
ATOM     20  O   UNL d   1      -0.528  -3.825   2.102  0.00  0.00    -0.283 OA
ATOM     21  C   UNL d   1       0.554  -4.302   2.777  0.00  0.00     0.215 A 
ATOM     22  C   UNL d   1       1.546  -3.358   2.884  0.00  0.00     0.066 A 
ATOM     23  C   UNL d   1       1.037  -2.208   2.232  0.00  0.00     0.048 A 
BRANCH  21  24
ATOM     24  N   UNL d   1       0.472  -5.648   3.250  0.00  0.00    -0.090 N 
ATOM     25  O   UNL d   1       1.450  -6.071   3.879  0.00  0.00    -0.530 OA
ATOM     26  O   UNL d   1      -0.561  -6.282   2.997  0.00  0.00    -0.530 OA
ENDBRANCH  21  24
ENDBRANCH  16  19
ENDBRANCH   1  15
TORSDOF 4
