REMARK  2 active torsions:
REMARK  status: ('A' for Active; 'I' for Inactive)
REMARK    1  A    between atoms: C_5  and  C_1 
REMARK    2  A    between atoms: C_6  and  C_1 
ROOT
ATOM      1  C   UNL d   1       2.119  -0.021  -0.072  0.00  0.00    -0.005 C 
ATOM      2  C   UNL d   1       0.769  -0.008  -0.013  0.00  0.00    -0.024 A 
ATOM      3  C   UNL d   1      -0.109  -1.171   0.093  0.00  0.00     0.012 A 
ATOM      4  C   UNL d   1      -0.101   1.162  -0.065  0.00  0.00     0.012 A 
ATOM      5  C   UNL d   1      -1.377  -0.723   0.079  0.00  0.00     0.001 A 
ATOM      6  C   UNL d   1      -1.372   0.725  -0.022  0.00  0.00     0.001 A 
ENDROOT
BRANCH   1   7
ATOM      7  C   UNL d   1       2.884   1.247  -0.192  0.00  0.00    -0.024 A 
ATOM      8  C   UNL d   1       3.310   1.938   0.950  0.00  0.00     0.012 A 
ATOM      9  C   UNL d   1       4.101   3.083   0.825  0.00  0.00     0.001 A 
ATOM     10  C   UNL d   1       4.471   3.544  -0.438  0.00  0.00     0.000 A 
ATOM     11  C   UNL d   1       4.045   2.865  -1.579  0.00  0.00     0.001 A 
ATOM     12  C   UNL d   1       3.253   1.723  -1.457  0.00  0.00     0.012 A 
ENDBRANCH   1   7
BRANCH   1  13
ATOM     13  C   UNL d   1       2.849  -1.313  -0.074  0.00  0.00    -0.024 A 
ATOM     14  C   UNL d   1       3.119  -1.968  -1.284  0.00  0.00     0.012 A 
ATOM     15  C   UNL d   1       3.846  -3.159  -1.295  0.00  0.00     0.001 A 
ATOM     16  C   UNL d   1       4.310  -3.702  -0.098  0.00  0.00     0.000 A 
ATOM     17  C   UNL d   1       4.046  -3.058   1.110  0.00  0.00     0.001 A 
ATOM     18  C   UNL d   1       3.317  -1.867   1.123  0.00  0.00     0.012 A 
ENDBRANCH   1  13
TORSDOF 2
