REMARK  7 active torsions:
REMARK  status: ('A' for Active; 'I' for Inactive)
REMARK    1  A    between atoms: C_16  and  N_1 
REMARK    2  A    between atoms: C_10  and  C_2 
REMARK    3  A    between atoms: S_11  and  C_3 
REMARK    4  A    between atoms: N_9  and  C_8 
REMARK    5  A    between atoms: C_13  and  S_11 
REMARK    6  A    between atoms: C_12  and  C_15 
REMARK    7  A    between atoms: O_26  and  C_19 
ROOT
ATOM      1  N   UNL d   1      -0.313  -1.352  -0.002  0.00  0.00    -0.275 N 
ATOM      2  C   UNL d   1       0.947  -0.739  -0.125  0.00  0.00     0.142 A 
ATOM      3  C   UNL d   1      -1.209  -0.301  -0.143  0.00  0.00     0.172 A 
ATOM      4  N   UNL d   1       0.768   0.565  -0.260  0.00  0.00    -0.282 N 
ATOM      5  HN  UNL d   1       1.511   1.256  -0.361  1.00  0.00     0.188 HD
ATOM      6  N   UNL d   1      -0.565   0.837  -0.242  0.00  0.00    -0.277 N 
ATOM      7  HN  UNL d   1      -0.989   1.763  -0.296  1.00  0.00     0.189 HD
ENDROOT
BRANCH   3   8
ATOM      8  S   UNL d   1      -2.945  -0.379  -0.032  0.00  0.00    -0.050 SA
BRANCH   8   9
ATOM      9  C   UNL d   1      -3.357  -0.275  -1.780  0.00  0.00     0.041 A 
ATOM     10  C   UNL d   1      -4.253  -1.154  -2.408  0.00  0.00     0.120 A 
ATOM     11  C   UNL d   1      -4.415  -1.192  -3.804  0.00  0.00     0.053 A 
ATOM     12  C   UNL d   1      -3.694  -0.307  -4.612  0.00  0.00     0.050 A 
ATOM     13  C   UNL d   1      -2.874   0.648  -3.993  0.00  0.00     0.017 A 
ATOM     14  C   UNL d   1      -2.717   0.668  -2.600  0.00  0.00     0.022 A 
BRANCH  10  15
ATOM     15  N   UNL d   1      -5.036  -2.097  -1.633  0.00  0.00    -0.114 N 
ATOM     16  O   UNL d   1      -5.880  -1.636  -0.858  0.00  0.00    -0.532 OA
ATOM     17  O   UNL d   1      -4.832  -3.301  -1.854  0.00  0.00    -0.532 OA
ENDBRANCH  10  15
BRANCH  12  18
ATOM     18  C   UNL d   1      -3.779  -0.366  -6.120  0.00  0.00     0.417 C 
ATOM     19  F   UNL d   1      -4.502  -1.427  -6.572  0.00  0.00    -0.166 F 
ATOM     20  F   UNL d   1      -4.355   0.742  -6.655  0.00  0.00    -0.166 F 
ATOM     21  F   UNL d   1      -2.553  -0.476  -6.700  0.00  0.00    -0.166 F 
ENDBRANCH  12  18
ENDBRANCH   8   9
ENDBRANCH   3   8
BRANCH   1  22
ATOM     22  C   UNL d   1      -0.582  -2.743   0.164  0.00  0.00     0.043 A 
ATOM     23  C   UNL d   1       0.206  -3.524   1.022  0.00  0.00     0.030 A 
ATOM     24  C   UNL d   1       0.025  -4.910   1.074  0.00  0.00     0.002 A 
ATOM     25  C   UNL d   1      -0.957  -5.521   0.297  0.00  0.00     0.000 A 
ATOM     26  C   UNL d   1      -1.760  -4.748  -0.535  0.00  0.00     0.002 A 
ATOM     27  C   UNL d   1      -1.567  -3.368  -0.609  0.00  0.00     0.030 A 
ENDBRANCH   1  22
BRANCH   2  28
ATOM     28  C   UNL d   1       2.263  -1.396  -0.210  0.00  0.00     0.043 A 
ATOM     29  C   UNL d   1       3.422  -0.870   0.391  0.00  0.00     0.082 A 
ATOM     30  C   UNL d   1       4.648  -1.542   0.279  0.00  0.00     0.038 A 
ATOM     31  C   UNL d   1       4.744  -2.743  -0.421  0.00  0.00     0.003 A 
ATOM     32  C   UNL d   1       3.623  -3.251  -1.062  0.00  0.00     0.001 A 
ATOM     33  C   UNL d   1       2.406  -2.571  -0.978  0.00  0.00     0.018 A 
BRANCH  29  34
ATOM     34  O   UNL d   1       3.516   0.354   1.003  0.00  0.00    -0.355 OA
ATOM     35  C   UNL d   1       2.716   0.508   2.170  0.00  0.00     0.210 C 
ENDBRANCH  29  34
ENDBRANCH   2  28
TORSDOF 7
