REMARK  3 active torsions:
REMARK  status: ('A' for Active; 'I' for Inactive)
REMARK    1  A    between atoms: C_3  and  C_1 
REMARK    2  A    between atoms: O_6  and  C_3 
REMARK    3  A    between atoms: C_9  and  O_6 
ROOT
ATOM      1  C   UNL d   1       1.040   0.055  -0.142  0.00  0.00     0.101 C 
ATOM      2  C   UNL d   1       0.294  -0.417  -1.163  0.00  0.00    -0.009 C 
ATOM      3  N   UNL d   1      -1.100  -0.280  -1.113  0.00  0.00    -0.296 NA
ATOM      4  C   UNL d   1      -1.724   0.766  -1.924  0.00  0.00     0.092 C 
ATOM      5  C   UNL d   1       0.826  -1.111  -2.397  0.00  0.00     0.051 C 
ATOM      6  C   UNL d   1      -2.053   0.296  -3.340  0.00  0.00     0.015 C 
ATOM      7  C   UNL d   1       0.448  -0.367  -3.687  0.00  0.00     0.006 C 
ATOM      8  C   UNL d   1      -1.018  -0.561  -4.078  0.00  0.00     0.001 C 
ATOM      9  H   UNL d   1      -1.539  -1.175  -1.346  0.00  0.00     0.127 HD
ENDROOT
BRANCH   1  10
ATOM     10  C   UNL d   1       2.507  -0.057   0.046  0.00  0.00     0.284 C 
ATOM     11  O   UNL d   1       3.315  -0.509  -0.749  0.00  0.00    -0.260 OA
BRANCH  10  12
ATOM     12  O   UNL d   1       2.780   0.353   1.312  0.00  0.00    -0.319 OA
BRANCH  12  13
ATOM     13  C   UNL d   1       4.060  -0.020   1.843  0.00  0.00     0.174 C 
ATOM     14  C   UNL d   1       4.974   1.183   1.964  0.00  0.00     0.034 C 
ENDBRANCH  12  13
ENDBRANCH  10  12
ENDBRANCH   1  10
TORSDOF 3
