REMARK  9 active torsions:
REMARK  status: ('A' for Active; 'I' for Inactive)
REMARK    1  A    between atoms: N_5  and  C_1 
REMARK    2  A    between atoms: N_6  and  C_1 
REMARK    3  A    between atoms: C_2  and  C_7 
REMARK    4  A    between atoms: C_3  and  N_5 
REMARK    5  A    between atoms: C_4  and  N_6 
REMARK    6  A    between atoms: N_20  and  C_11 
REMARK    7  A    between atoms: C_24  and  N_20 
REMARK    8  A    between atoms: C_26  and  C_24 
REMARK    9  A    between atoms: C_25  and  C_26 
ROOT
ATOM      1  C   UNL d   1      -1.288  -0.398  -1.136  0.00  0.00     0.061 A 
ATOM      2  C   UNL d   1      -3.308   0.967  -0.738  0.00  0.00     0.050 A 
ATOM      3  C   UNL d   1      -1.927   0.753  -0.616  0.00  0.00     0.048 A 
ATOM      4  C   UNL d   1      -2.053  -1.311  -1.899  0.00  0.00     0.055 A 
ATOM      5  C   UNL d   1      -4.067   0.014  -1.406  0.00  0.00     0.018 A 
ATOM      6  C   UNL d   1      -3.445  -1.097  -1.974  0.00  0.00     0.032 A 
ENDROOT
BRANCH   1   7
ATOM      7  N   UNL d   1       0.104  -0.444  -0.836  0.00  0.00    -0.331 N 
ATOM      8  H   UNL d   1       0.480   0.447  -0.536  0.00  0.00     0.168 HD
BRANCH   7   9
ATOM      9  C   UNL d   1       1.066  -1.442  -0.730  0.00  0.00     0.176 C 
ATOM     10  S   UNL d   1       0.901  -3.099  -0.872  0.00  0.00    -0.041 SA
BRANCH   9  11
ATOM     11  N   UNL d   1       2.264  -0.856  -0.288  0.00  0.00    -0.332 N 
ATOM     12  H   UNL d   1       2.177  -0.477   0.653  0.00  0.00     0.168 HD
BRANCH  11  13
ATOM     13  C   UNL d   1       3.563  -1.365  -0.564  0.00  0.00     0.057 A 
ATOM     14  C   UNL d   1       3.908  -1.746  -1.866  0.00  0.00     0.055 A 
ATOM     15  C   UNL d   1       5.191  -2.222  -2.133  0.00  0.00     0.036 A 
ATOM     16 CL   UNL d   1       5.617  -2.670  -3.739  0.00  0.00    -0.084 Cl
ATOM     17  C   UNL d   1       6.137  -2.326  -1.114  0.00  0.00     0.026 A 
ATOM     18  C   UNL d   1       5.805  -1.931   0.184  0.00  0.00     0.028 A 
ATOM     19  C   UNL d   1       4.528  -1.434   0.454  0.00  0.00     0.060 A 
ATOM     20 CL   UNL d   1       4.152  -0.954   2.071  0.00  0.00    -0.082 Cl
ENDBRANCH  11  13
ENDBRANCH   9  11
ENDBRANCH   7   9
ENDBRANCH   1   7
BRANCH   4  21
ATOM     21  N   UNL d   1      -1.494  -2.404  -2.552  0.00  0.00    -0.388 N 
ATOM     22  H   UNL d   1      -0.476  -2.395  -2.562  0.00  0.00     0.159 HD
BRANCH  21  23
ATOM     23  C   UNL d   1      -2.129  -3.051  -3.692  0.00  0.00     0.124 C 
BRANCH  23  24
ATOM     24  C   UNL d   1      -1.280  -4.220  -4.206  0.00  0.00     0.058 C 
BRANCH  24  25
ATOM     25  C   UNL d   1      -1.954  -4.888  -5.382  0.00  0.00    -0.057 A 
ATOM     26  C   UNL d   1      -1.673  -4.473  -6.689  0.00  0.00     0.007 A 
ATOM     27  C   UNL d   1      -2.350  -5.040  -7.769  0.00  0.00     0.001 A 
ATOM     28  C   UNL d   1      -3.315  -6.023  -7.552  0.00  0.00     0.000 A 
ATOM     29  C   UNL d   1      -3.600  -6.445  -6.254  0.00  0.00     0.001 A 
ATOM     30  C   UNL d   1      -2.923  -5.880  -5.173  0.00  0.00     0.007 A 
ENDBRANCH  24  25
ENDBRANCH  23  24
ENDBRANCH  21  23
ENDBRANCH   4  21
BRANCH   2  31
ATOM     31  C   UNL d   1      -3.979   2.178  -0.141  0.00  0.00     0.417 C 
ATOM     32  F   UNL d   1      -3.110   3.040   0.457  0.00  0.00    -0.166 F 
ATOM     33  F   UNL d   1      -4.650   2.912  -1.071  0.00  0.00    -0.166 F 
ATOM     34  F   UNL d   1      -4.895   1.851   0.811  0.00  0.00    -0.166 F 
ENDBRANCH   2  31
TORSDOF 9
