REMARK  2 active torsions:
REMARK  status: ('A' for Active; 'I' for Inactive)
REMARK    1  A    between atoms: C_18  and  C_7 
REMARK    2  A    between atoms: N_12  and  C_17 
ROOT
ATOM      1  C   UNL d   1      -0.031  -1.345  -0.058  0.00  0.00     0.066 A 
ATOM      2  C   UNL d   1      -2.049   0.616  -0.040  0.00  0.00     0.162 C 
ATOM      3  C   UNL d   1      -2.425  -0.673  -0.077  0.00  0.00     0.074 C 
ATOM      4  C   UNL d   1       0.270  -0.038  -0.031  0.00  0.00     0.104 A 
ATOM      5  C   UNL d   1       1.020  -2.372  -0.196  0.00  0.00     0.298 A 
ATOM      6  C   UNL d   1      -3.863  -0.961  -0.202  0.00  0.00     0.258 C 
ATOM      7  C   UNL d   1      -1.459  -1.823   0.029  0.00  0.00     0.103 C 
ATOM      8  O   UNL d   1      -0.696   0.955   0.045  0.00  0.00    -0.291 OA
ATOM      9  N   UNL d   1      -2.932   1.669  -0.047  0.00  0.00    -0.326 N 
ATOM     10  HN  UNL d   1      -2.602   2.634  -0.044  1.00  0.00     0.169 HD
ATOM     11  N   UNL d   1      -4.682   0.120  -0.097  0.00  0.00    -0.313 N 
ATOM     12  C   UNL d   1       1.663   0.401  -0.043  0.00  0.00     0.033 A 
ATOM     13  O   UNL d   1       2.335  -1.942  -0.112  0.00  0.00    -0.274 OA
ATOM     14  C   UNL d   1      -4.194   1.392  -0.056  0.00  0.00     0.081 C 
ATOM     15  C   UNL d   1       2.659  -0.574  -0.053  0.00  0.00     0.092 A 
ATOM     16  O   UNL d   1       0.749  -3.554  -0.379  0.00  0.00    -0.259 OA
ATOM     17  O   UNL d   1      -4.300  -2.087  -0.401  0.00  0.00    -0.267 OA
ATOM     18  C   UNL d   1       2.057   1.743  -0.017  0.00  0.00     0.017 A 
ATOM     19  C   UNL d   1      -5.220   2.489  -0.021  0.00  0.00     0.089 C 
ATOM     20  C   UNL d   1       4.015  -0.253  -0.022  0.00  0.00     0.038 A 
ATOM     21  C   UNL d   1       3.416   2.083   0.007  0.00  0.00     0.001 A 
ATOM     22  C   UNL d   1       4.393   1.086   0.009  0.00  0.00     0.003 A 
ATOM     23  H   UNL d   1      -5.672  -0.067  -0.169  0.00  0.00     0.170 HD
ENDROOT
BRANCH   7  24
ATOM     24  C   UNL d   1      -1.703  -2.603   1.326  0.00  0.00    -0.044 A 
ATOM     25  C   UNL d   1      -2.062  -3.960   1.261  0.00  0.00     0.011 A 
ATOM     26  C   UNL d   1      -2.331  -4.685   2.425  0.00  0.00     0.036 A 
ATOM     27  C   UNL d   1      -2.240  -4.048   3.668  0.00  0.00     0.102 A 
ATOM     28  C   UNL d   1      -1.869  -2.701   3.753  0.00  0.00     0.036 A 
ATOM     29  C   UNL d   1      -1.599  -1.985   2.586  0.00  0.00     0.011 A 
BRANCH  27  30
ATOM     30  N   UNL d   1      -2.549  -4.796   4.892  0.00  0.00    -0.116 N 
ATOM     31  O   UNL d   1      -2.877  -5.986   4.777  0.00  0.00    -0.532 OA
ATOM     32  O   UNL d   1      -2.469  -4.192   5.972  0.00  0.00    -0.532 OA
ENDBRANCH  27  30
ENDBRANCH   7  24
TORSDOF 2
