REMARK  2 active torsions:
REMARK  status: ('A' for Active; 'I' for Inactive)
REMARK       I    between atoms: C_2  and  N_1 
REMARK    1  A    between atoms: C_3  and  C_2 
REMARK    2  A    between atoms: C_6  and  C_4 
ROOT
ATOM      1  N   UNL d   1       1.309  -0.049   0.482  0.00  0.00    -0.337 N 
ATOM      2  C   UNL d   1       2.702  -0.128   0.740  0.00  0.00     0.261 C 
ATOM      3  C   UNL d   1       0.771   1.179  -0.164  0.00  0.00     0.137 C 
ATOM      4  O   UNL d   1       3.455   0.834   0.626  0.00  0.00    -0.267 OA
ATOM      5  C   UNL d   1       0.572  -1.282   0.174  0.00  0.00     0.127 C 
ATOM      6  C   UNL d   1      -0.759   1.290   0.019  0.00  0.00     0.032 C 
ATOM      7  C   UNL d   1      -0.939  -1.165   0.325  0.00  0.00     0.020 C 
ATOM      8  C   UNL d   1      -1.482   0.032  -0.433  0.00  0.00     0.004 C 
ENDROOT
BRANCH   2   9
ATOM      9  C   UNL d   1       3.235  -1.407   1.188  0.00  0.00     0.072 A 
ATOM     10  S   UNL d   1       3.671  -1.591   2.832  0.00  0.00    -0.097 SA
ATOM     11  C   UNL d   1       4.206  -3.196   2.573  0.00  0.00     0.050 A 
ATOM     12  C   UNL d   1       4.064  -3.583   1.258  0.00  0.00     0.009 A 
ATOM     13  C   UNL d   1       3.522  -2.540   0.451  0.00  0.00     0.025 A 
ENDBRANCH   2   9
BRANCH   3  14
ATOM     14  C   UNL d   1       1.350   2.530   0.249  0.00  0.00     0.032 A 
ATOM     15  N   UNL d   1       1.699   3.365  -0.767  0.00  0.00    -0.367 N 
ATOM     16  C   UNL d   1       2.200   4.576  -0.437  0.00  0.00     0.088 A 
ATOM     17  HN  UNL d   1       1.586   3.087  -1.742  1.00  0.00     0.165 HD
ATOM     18  C   UNL d   1       2.332   5.024   0.863  0.00  0.00     0.017 A 
ATOM     19  C   UNL d   1       1.933   4.182   1.893  0.00  0.00     0.003 A 
ATOM     20  C   UNL d   1       1.435   2.915   1.587  0.00  0.00     0.027 A 
ENDBRANCH   3  14
TORSDOF 2
