REMARK  5 active torsions:
REMARK  status: ('A' for Active; 'I' for Inactive)
REMARK    1  A    between atoms: C_2  and  C_1 
REMARK    2  A    between atoms: C_15  and  C_7 
REMARK    3  A    between atoms: S_14  and  C_15 
REMARK    4  A    between atoms: C_25  and  S_14 
REMARK    5  A    between atoms: C_17  and  C_25 
ROOT
ATOM      1  C   UNL d   1       0.110  -0.889   0.815  0.00  0.00     0.186 A 
ATOM      2  N   UNL d   1       0.258   0.343   1.258  0.00  0.00    -0.322 N 
ATOM      3  HN  UNL d   1       0.342   0.669   2.222  1.00  0.00     0.169 HD
ATOM      4  C   UNL d   1       0.271   1.081   0.098  0.00  0.00     0.113 A 
ATOM      5  N   UNL d   1       0.001   0.379  -1.011  0.00  0.00    -0.246 N 
ATOM      6  HN  UNL d   1      -0.113   0.721  -1.965  1.00  0.00     0.196 HD
ATOM      7  O   UNL d   1      -0.084  -0.932  -0.542  0.00  0.00    -0.217 OA
ENDROOT
BRANCH   4   8
ATOM      8  C   UNL d   1       0.709   2.506   0.062  0.00  0.00     0.152 C 
BRANCH   8   9
ATOM      9  S   UNL d   1       2.538   2.552  -0.101  0.00  0.00    -0.157 SA
BRANCH   9  10
ATOM     10  C   UNL d   1       2.816   4.345  -0.137  0.00  0.00     0.112 C 
BRANCH  10  11
ATOM     11  C   UNL d   1       4.284   4.651  -0.331  0.00  0.00    -0.049 A 
ATOM     12  C   UNL d   1       4.822   4.783  -1.622  0.00  0.00     0.009 A 
ATOM     13  C   UNL d   1       6.183   5.041  -1.808  0.00  0.00     0.024 A 
ATOM     14  C   UNL d   1       7.022   5.159  -0.699  0.00  0.00     0.034 A 
ATOM     15  C   UNL d   1       6.509   5.020   0.588  0.00  0.00     0.024 A 
ATOM     16 CL   UNL d   1       8.697   5.479  -0.925  0.00  0.00    -0.084 Cl
ATOM     17  C   UNL d   1       5.147   4.762   0.772  0.00  0.00     0.009 A 
ENDBRANCH  10  11
ENDBRANCH   9  10
ENDBRANCH   8   9
ENDBRANCH   4   8
BRANCH   1  18
ATOM     18  C   UNL d   1       0.211  -2.089   1.675  0.00  0.00     0.073 A 
ATOM     19  C   UNL d   1       0.242  -3.397   1.254  0.00  0.00     0.089 A 
ATOM     20  O   UNL d   1       0.392  -4.203   2.340  0.00  0.00    -0.242 OA
ATOM     21  C   UNL d   1       0.179  -4.075  -0.054  0.00  0.00     0.080 C 
ATOM     22  N   UNL d   1       0.446  -3.434   3.487  0.00  0.00    -0.265 N 
ATOM     23  C   UNL d   1       0.334  -2.162   3.082  0.00  0.00     0.045 A 
ATOM     24  HN  UNL d   1       0.550  -3.766   4.446  1.00  0.00     0.194 HD
ATOM     25  C   UNL d   1       0.330  -1.063   4.075  0.00  0.00     0.071 C 
ENDBRANCH   1  18
TORSDOF 5
