REMARK  2 active torsions:
REMARK  status: ('A' for Active; 'I' for Inactive)
REMARK    1  A    between atoms: N_9  and  C_6 
REMARK    2  A    between atoms: O_12  and  N_9 
ROOT
ATOM      1  N   UNL d   1      -2.213   1.331   0.867  0.00  0.00    -0.344 N 
ATOM      2  C   UNL d   1      -3.359   0.861   0.301  0.00  0.00     0.066 A 
ATOM      3  C   UNL d   1      -4.289   1.874   0.321  0.00  0.00    -0.021 A 
ATOM      4  C   UNL d   1      -2.316   2.615   1.272  0.00  0.00     0.045 A 
ATOM      5  C   UNL d   1      -3.622   3.003   0.938  0.00  0.00    -0.001 A 
ATOM      6  C   UNL d   1      -3.182  -0.492  -0.113  0.00  0.00     0.061 C 
ATOM      7  C   UNL d   1      -1.163   0.331   0.927  0.00  0.00     0.136 C 
ATOM      8  C   UNL d   1      -1.704  -0.829   0.073  0.00  0.00     0.081 C 
ATOM      9  C   UNL d   1      -5.681   1.850  -0.194  0.00  0.00     0.052 C 
ATOM     10  C   UNL d   1      -1.400   3.471   1.895  0.00  0.00     0.030 A 
ATOM     11  C   UNL d   1      -4.018   4.323   1.239  0.00  0.00     0.014 A 
ATOM     12  C   UNL d   1      -3.112   5.194   1.857  0.00  0.00     0.001 A 
ATOM     13  C   UNL d   1      -1.824   4.771   2.182  0.00  0.00     0.002 A 
ENDROOT
BRANCH   6  14
ATOM     14  N   UNL d   1      -4.107  -1.272  -0.567  0.00  0.00    -0.269 N 
ATOM     15  HN  UNL d   1      -5.086  -1.013  -0.689  1.00  0.00     0.194 HD
BRANCH  14  16
ATOM     16  O   UNL d   1      -3.556  -2.530  -0.867  0.00  0.00    -0.285 OA
ATOM     17  C   UNL d   1      -4.606  -3.423  -1.216  0.00  0.00     0.237 C 
ENDBRANCH  14  16
ENDBRANCH   6  14
TORSDOF 2
