REMARK  4 active torsions:
REMARK  status: ('A' for Active; 'I' for Inactive)
REMARK    1  A    between atoms: C_6  and  N_2 
REMARK    2  A    between atoms: C_9  and  C_6 
REMARK       I    between atoms: N_11  and  C_9 
REMARK    3  A    between atoms: C_14  and  N_11 
REMARK    4  A    between atoms: C_16  and  C_14 
ROOT
ATOM      1  S   UNL d   1       0.109  -0.868  -1.090  0.00  0.00     0.269 S 
ATOM      2  N   UNL d   1       1.027  -1.291   0.262  0.00  0.00    -0.228 N 
ATOM      3  C   UNL d   1       0.923  -0.369   1.325  0.00  0.00     0.269 A 
ATOM      4  C   UNL d   1       0.036   0.736   0.932  0.00  0.00     0.056 A 
ATOM      5  C   UNL d   1      -0.513   0.574  -0.331  0.00  0.00     0.095 A 
ATOM      6  O   UNL d   1       0.981  -0.462  -2.164  0.00  0.00    -0.200 OA
ATOM      7  O   UNL d   1      -0.975  -1.809  -1.239  0.00  0.00    -0.200 OA
ATOM      8  O   UNL d   1       1.500  -0.462   2.391  0.00  0.00    -0.266 OA
ATOM      9  C   UNL d   1      -0.208   1.884   1.669  0.00  0.00     0.018 A 
ATOM     10  C   UNL d   1      -1.363   1.507  -0.897  0.00  0.00     0.026 A 
ATOM     11  C   UNL d   1      -1.048   2.853   1.113  0.00  0.00     0.001 A 
ATOM     12  C   UNL d   1      -1.634   2.658  -0.153  0.00  0.00     0.002 A 
ENDROOT
BRANCH   2  13
ATOM     13  C   UNL d   1       2.191  -2.153   0.053  0.00  0.00     0.247 C 
BRANCH  13  14
ATOM     14  C   UNL d   1       1.909  -3.631  -0.037  0.00  0.00     0.236 C 
ATOM     15  N   UNL d   1       0.805  -4.102   0.651  0.00  0.00    -0.355 N 
ATOM     16  H   UNL d   1       0.371  -3.484   1.323  0.00  0.00     0.162 HD
ATOM     17  O   UNL d   1       2.692  -4.380  -0.620  0.00  0.00    -0.272 OA
BRANCH  15  18
ATOM     18  C   UNL d   1       0.687  -5.534   0.810  0.00  0.00     0.161 C 
BRANCH  18  19
ATOM     19  C   UNL d   1      -0.632  -6.094   1.276  0.00  0.00    -0.041 A 
ATOM     20  C   UNL d   1      -1.688  -5.345   1.804  0.00  0.00     0.009 A 
ATOM     21  C   UNL d   1      -2.868  -5.978   2.216  0.00  0.00     0.001 A 
ATOM     22  C   UNL d   1      -3.005  -7.362   2.110  0.00  0.00     0.000 A 
ATOM     23  C   UNL d   1      -1.960  -8.122   1.599  0.00  0.00     0.001 A 
ATOM     24  C   UNL d   1      -0.785  -7.493   1.192  0.00  0.00     0.009 A 
ENDBRANCH  18  19
ENDBRANCH  15  18
ENDBRANCH  13  14
ENDBRANCH   2  13
TORSDOF 4
