REMARK  3 active torsions:
REMARK  status: ('A' for Active; 'I' for Inactive)
REMARK    1  A    between atoms: C_11  and  N_2 
REMARK    2  A    between atoms: C_7  and  C_4 
REMARK    3  A    between atoms: C_10  and  C_11 
ROOT
ATOM      1  C   UNL d   1       2.272  -5.549   0.684  0.00  0.00     0.186 A 
ATOM      2  N   UNL d   1       2.231  -4.304   1.115  0.00  0.00    -0.321 N 
ATOM      3  HN  UNL d   1       2.160  -3.968   2.075  1.00  0.00     0.169 HD
ATOM      4  C   UNL d   1       2.306  -3.572  -0.040  0.00  0.00     0.123 A 
ATOM      5  N   UNL d   1       2.349  -4.306  -1.160  0.00  0.00    -0.245 N 
ATOM      6  HN  UNL d   1       2.387  -3.983  -2.127  1.00  0.00     0.196 HD
ATOM      7  O   UNL d   1       2.330  -5.620  -0.684  0.00  0.00    -0.217 OA
ENDROOT
BRANCH   4   8
ATOM      8  C   UNL d   1       2.476  -2.091  -0.022  0.00  0.00     0.223 C 
BRANCH   8   9
ATOM      9  N   UNL d   1       1.194  -1.400   0.012  0.00  0.00    -0.230 N 
ATOM     10  S   UNL d   1       0.562  -0.941   1.494  0.00  0.00     0.269 S 
ATOM     11  C   UNL d   1      -0.760  -0.074   0.761  0.00  0.00     0.095 A 
ATOM     12  O   UNL d   1       0.029  -2.091   2.178  0.00  0.00    -0.200 OA
ATOM     13  O   UNL d   1       1.450   0.019   2.107  0.00  0.00    -0.200 OA
ATOM     14  C   UNL d   1      -0.672  -0.129  -0.625  0.00  0.00     0.056 A 
ATOM     15  C   UNL d   1      -1.778   0.595   1.417  0.00  0.00     0.026 A 
ATOM     16  C   UNL d   1      -1.611   0.512  -1.417  0.00  0.00     0.018 A 
ATOM     17  C   UNL d   1       0.492  -0.899  -1.099  0.00  0.00     0.269 A 
ATOM     18  C   UNL d   1      -2.650   1.198  -0.780  0.00  0.00     0.001 A 
ATOM     19  C   UNL d   1      -2.735   1.236   0.625  0.00  0.00     0.002 A 
ATOM     20  O   UNL d   1       0.808  -1.048  -2.263  0.00  0.00    -0.266 OA
ENDBRANCH   8   9
ENDBRANCH   4   8
BRANCH   1  21
ATOM     21  C   UNL d   1       2.313  -6.716   1.591  0.00  0.00     0.073 A 
ATOM     22  C   UNL d   1       2.163  -6.654   2.956  0.00  0.00     0.089 A 
ATOM     23  O   UNL d   1       2.287  -7.908   3.470  0.00  0.00    -0.242 OA
ATOM     24  C   UNL d   1       1.896  -5.565   3.914  0.00  0.00     0.080 C 
ATOM     25  N   UNL d   1       2.522  -8.806   2.446  0.00  0.00    -0.265 N 
ATOM     26  C   UNL d   1       2.534  -8.084   1.315  0.00  0.00     0.045 A 
ATOM     27  HN  UNL d   1       2.659  -9.814   2.532  1.00  0.00     0.194 HD
ATOM     28  C   UNL d   1       2.795  -8.758   0.022  0.00  0.00     0.071 C 
ENDBRANCH   1  21
TORSDOF 3
