REMARK  6 active torsions:
REMARK  status: ('A' for Active; 'I' for Inactive)
REMARK    1  A    between atoms: C_11  and  C_3 
REMARK    2  A    between atoms: N_4  and  C_10 
REMARK    3  A    between atoms: C_17  and  C_5 
REMARK    4  A    between atoms: C_9  and  O_15 
REMARK    5  A    between atoms: C_13  and  C_9 
REMARK    6  A    between atoms: O_15  and  C_17 
ROOT
ATOM      1  N   UNL d   1       1.252   0.047  -0.529  0.00  0.00    -0.321 N 
ATOM      2  HN  UNL d   1       2.147   0.176  -1.001  1.00  0.00     0.169 HD
ATOM      3  C   UNL d   1       0.572  -1.063  -0.335  0.00  0.00     0.182 A 
ATOM      4  C   UNL d   1       0.446   0.990   0.070  0.00  0.00     0.128 A 
ATOM      5  N   UNL d   1      -0.698   0.510   0.576  0.00  0.00    -0.245 N 
ATOM      6  HN  UNL d   1      -1.450   1.021   1.039  1.00  0.00     0.196 HD
ATOM      7  O   UNL d   1      -0.611  -0.859   0.318  0.00  0.00    -0.217 OA
ENDROOT
BRANCH   3   8
ATOM      8  C   UNL d   1       0.892  -2.438  -0.707  0.00  0.00     0.017 A 
ATOM      9  C   UNL d   1       2.091  -2.714  -1.383  0.00  0.00     0.018 A 
ATOM     10  C   UNL d   1       2.438  -4.024  -1.732  0.00  0.00     0.037 A 
ATOM     11  C   UNL d   1       1.576  -5.078  -1.402  0.00  0.00     0.102 A 
ATOM     12  C   UNL d   1       0.370  -4.822  -0.737  0.00  0.00     0.037 A 
ATOM     13  C   UNL d   1       0.035  -3.507  -0.395  0.00  0.00     0.018 A 
BRANCH  11  14
ATOM     14  N   UNL d   1       1.936  -6.456  -1.749  0.00  0.00    -0.116 N 
ATOM     15  O   UNL d   1       3.013  -6.640  -2.337  0.00  0.00    -0.532 OA
ATOM     16  O   UNL d   1       1.147  -7.356  -1.433  0.00  0.00    -0.532 OA
ENDBRANCH  11  14
ENDBRANCH   3   8
BRANCH   4  17
ATOM     17  C   UNL d   1       0.752   2.447   0.086  0.00  0.00     0.257 C 
BRANCH  17  18
ATOM     18  O   UNL d   1       2.154   2.773  -0.010  0.00  0.00    -0.313 OA
BRANCH  18  19
ATOM     19  C   UNL d   1       2.863   2.709   1.149  0.00  0.00     0.266 C 
ATOM     20  O   UNL d   1       2.402   2.322   2.215  0.00  0.00    -0.264 OA
BRANCH  19  21
ATOM     21  C   UNL d   1       4.290   3.262   0.980  0.00  0.00     0.037 C 
ATOM     22  C   UNL d   1       4.613   3.619  -0.480  0.00  0.00     0.025 C 
ATOM     23  C   UNL d   1       4.410   4.521   1.853  0.00  0.00     0.025 C 
ATOM     24  C   UNL d   1       5.317   2.228   1.463  0.00  0.00     0.025 C 
ENDBRANCH  19  21
ENDBRANCH  18  19
ENDBRANCH  17  18
ENDBRANCH   4  17
TORSDOF 6
