REMARK  6 active torsions:
REMARK  status: ('A' for Active; 'I' for Inactive)
REMARK    1  A    between atoms: C_2  and  C_1 
REMARK    2  A    between atoms: C_17  and  N_3 
REMARK    3  A    between atoms: N_21  and  C_4 
REMARK    4  A    between atoms: C_20  and  C_11 
REMARK    5  A    between atoms: C_19  and  C_15 
REMARK    6  A    between atoms: C_25  and  C_17 
ROOT
ATOM      1  C   UNL d   1       2.430   0.225   0.441  0.00  0.00     0.150 A 
ATOM      2  C   UNL d   1       1.660   1.378   0.438  0.00  0.00     0.079 A 
ATOM      3  C   UNL d   1       0.281   0.994   0.322  0.00  0.00     0.056 A 
ATOM      4  C   UNL d   1       0.288  -0.395   0.376  0.00  0.00     0.162 A 
ATOM      5  O   UNL d   1       1.567  -0.851   0.440  0.00  0.00    -0.287 OA
ATOM      6  C   UNL d   1      -0.979   1.621   0.145  0.00  0.00    -0.007 A 
ATOM      7  N   UNL d   1      -0.768  -1.232   0.332  0.00  0.00    -0.335 N 
ATOM      8  HN  UNL d   1      -0.674  -2.244   0.408  1.00  0.00     0.168 HD
ATOM      9  C   UNL d   1      -1.961  -0.618   0.177  0.00  0.00     0.045 A 
ATOM     10  C   UNL d   1      -2.096   0.770   0.093  0.00  0.00     0.043 A 
ENDROOT
BRANCH   1  11
ATOM     11  C   UNL d   1       3.838  -0.112   0.410  0.00  0.00     0.162 A 
ATOM     12  N   UNL d   1       4.899   0.670   0.796  0.00  0.00    -0.301 N 
ATOM     13  C   UNL d   1       6.018  -0.105   0.568  0.00  0.00     0.195 A 
ATOM     14  S   UNL d   1       7.626   0.203   0.839  0.00  0.00    -0.039 SA
ATOM     15  N   UNL d   1       5.561  -1.293   0.036  0.00  0.00    -0.274 N 
ATOM     16  N   UNL d   1       4.206  -1.282  -0.043  0.00  0.00    -0.281 N 
ATOM     17  H   UNL d   1       6.117  -2.097  -0.231  0.00  0.00     0.189 HD
ATOM     18  HN  UNL d   1       3.602  -2.030  -0.384  1.00  0.00     0.188 HD
BRANCH  12  19
ATOM     19  C   UNL d   1       4.935   1.966   1.461  0.00  0.00     0.171 C 
BRANCH  19  20
ATOM     20  C   UNL d   1       5.430   3.109   0.588  0.00  0.00    -0.040 A 
ATOM     21  C   UNL d   1       5.372   3.087  -0.816  0.00  0.00     0.009 A 
ATOM     22  C   UNL d   1       5.865   4.157  -1.570  0.00  0.00     0.001 A 
ATOM     23  C   UNL d   1       6.417   5.266  -0.934  0.00  0.00     0.000 A 
ATOM     24  C   UNL d   1       6.465   5.314   0.456  0.00  0.00     0.001 A 
ATOM     25  C   UNL d   1       5.968   4.249   1.210  0.00  0.00     0.009 A 
ENDBRANCH  19  20
ENDBRANCH  12  19
ENDBRANCH   1  11
BRANCH   2  26
ATOM     26  N   UNL d   1       2.105   2.653   0.482  0.00  0.00    -0.396 N 
ATOM     27  H   UNL d   1       2.909   2.943  -0.068  0.00  0.00     0.156 HD
ATOM     28  H   UNL d   1       1.448   3.425   0.580  0.00  0.00     0.156 HD
ENDBRANCH   2  26
BRANCH   6  29
ATOM     29  C   UNL d   1      -1.126   3.074  -0.041  0.00  0.00    -0.025 A 
ATOM     30  C   UNL d   1      -0.338   3.777  -0.969  0.00  0.00     0.012 A 
ATOM     31  C   UNL d   1      -0.418   5.166  -1.087  0.00  0.00     0.001 A 
ATOM     32  C   UNL d   1      -1.351   5.872  -0.335  0.00  0.00     0.000 A 
ATOM     33  C   UNL d   1      -2.203   5.189   0.528  0.00  0.00     0.001 A 
ATOM     34  C   UNL d   1      -2.084   3.804   0.681  0.00  0.00     0.012 A 
ENDBRANCH   6  29
BRANCH   9  35
ATOM     35  C   UNL d   1      -3.136  -1.511   0.045  0.00  0.00    -0.009 A 
ATOM     36  C   UNL d   1      -3.257  -2.684   0.814  0.00  0.00     0.015 A 
ATOM     37  C   UNL d   1      -4.374  -3.521   0.695  0.00  0.00     0.024 A 
ATOM     38  C   UNL d   1      -5.388  -3.202  -0.205  0.00  0.00     0.034 A 
ATOM     39  C   UNL d   1      -5.293  -2.057  -0.986  0.00  0.00     0.024 A 
ATOM     40 CL   UNL d   1      -6.761  -4.227  -0.357  0.00  0.00    -0.084 Cl
ATOM     41  C   UNL d   1      -4.176  -1.223  -0.862  0.00  0.00     0.015 A 
ENDBRANCH   9  35
TORSDOF 6
