REMARK  3 active torsions:
REMARK  status: ('A' for Active; 'I' for Inactive)
REMARK    1  A    between atoms: C_9  and  C_2 
REMARK       I    between atoms: C_4  and  N_8 
REMARK       I    between atoms: N_7  and  C_4 
REMARK    2  A    between atoms: C_11  and  N_7 
REMARK    3  A    between atoms: N_8  and  C_9 
ROOT
ATOM      1  C   UNL d   1      -2.653  -3.427   1.134  0.00  0.00     0.321 C 
ATOM      2  N   UNL d   1      -4.000  -3.572   1.318  0.00  0.00    -0.309 N 
ATOM      3  N   UNL d   1      -2.221  -2.645   0.115  0.00  0.00    -0.337 N 
ATOM      4  O   UNL d   1      -1.899  -3.937   1.965  0.00  0.00    -0.247 OA
ATOM      5  H   UNL d   1      -4.203  -3.743   2.292  0.00  0.00     0.170 HD
ATOM      6  H   UNL d   1      -2.874  -2.327  -0.579  0.00  0.00     0.164 HD
ENDROOT
BRANCH   3   7
ATOM      7  C   UNL d   1      -0.816  -2.422  -0.119  0.00  0.00     0.181 C 
BRANCH   7   8
ATOM      8  C   UNL d   1      -0.461  -0.961  -0.160  0.00  0.00     0.029 A 
ATOM      9  N   UNL d   1       0.834  -0.532  -0.415  0.00  0.00    -0.357 N 
ATOM     10  C   UNL d   1       0.912   0.843  -0.301  0.00  0.00     0.007 A 
ATOM     11  C   UNL d   1       1.964  -1.387  -0.718  0.00  0.00     0.156 C 
ATOM     12  C   UNL d   1      -0.357   1.301  -0.014  0.00  0.00     0.027 A 
ATOM     13  C   UNL d   1       2.170   1.629  -0.448  0.00  0.00     0.068 C 
ATOM     14  C   UNL d   1      -1.216   0.176   0.072  0.00  0.00     0.029 A 
ENDBRANCH   7   8
ENDBRANCH   3   7
BRANCH   2  15
ATOM     15  C   UNL d   1      -5.026  -3.064   0.516  0.00  0.00     0.036 A 
ATOM     16  C   UNL d   1      -5.152  -3.441  -0.822  0.00  0.00     0.029 A 
ATOM     17  C   UNL d   1      -6.174  -2.898  -1.601  0.00  0.00     0.002 A 
ATOM     18  C   UNL d   1      -7.053  -1.968  -1.044  0.00  0.00     0.000 A 
ATOM     19  C   UNL d   1      -6.951  -1.627   0.305  0.00  0.00     0.002 A 
ATOM     20  C   UNL d   1      -5.956  -2.203   1.094  0.00  0.00     0.029 A 
ENDBRANCH   2  15
TORSDOF 3
