REMARK  4 active torsions:
REMARK  status: ('A' for Active; 'I' for Inactive)
REMARK    1  A    between atoms: N_2  and  C_1 
REMARK    2  A    between atoms: N_7  and  C_1 
REMARK    3  A    between atoms: C_3  and  N_2 
REMARK    4  A    between atoms: N_10  and  N_7 
ROOT
ATOM      1  N   UNL d   1       0.338  -0.842  -1.108  0.00  0.00    -0.332 N 
ATOM      2  H   UNL d   1       1.001  -0.638  -0.368  0.00  0.00     0.168 HD
ENDROOT
BRANCH   1   3
ATOM      3  C   UNL d   1      -0.819  -0.124  -1.014  0.00  0.00     0.186 C 
ATOM      4  S   UNL d   1      -0.895   1.230  -0.045  0.00  0.00    -0.040 SA
BRANCH   3   5
ATOM      5  N   UNL d   1      -1.953  -0.592  -1.635  0.00  0.00    -0.300 N 
ATOM      6  H   UNL d   1      -2.792  -0.059  -1.403  0.00  0.00     0.183 HD
BRANCH   5   7
ATOM      7  N   UNL d   1      -2.141  -1.984  -1.849  0.00  0.00    -0.248 NA
ATOM      8  H   UNL d   1      -1.315  -2.476  -1.492  0.00  0.00     0.143 HD
ATOM      9  H   UNL d   1      -2.131  -2.151  -2.859  0.00  0.00     0.143 HD
ENDBRANCH   5   7
ENDBRANCH   3   5
ENDBRANCH   1   3
BRANCH   1  10
ATOM     10  C   UNL d   1       0.923  -1.399  -2.269  0.00  0.00     0.040 A 
ATOM     11  C   UNL d   1       1.968  -2.333  -2.128  0.00  0.00    -0.034 A 
ATOM     12  C   UNL d   1       2.637  -2.788  -3.283  0.00  0.00     0.032 A 
ATOM     13  C   UNL d   1       2.371  -2.939  -0.812  0.00  0.00     0.050 C 
ATOM     14  C   UNL d   1       2.267  -2.330  -4.545  0.00  0.00     0.034 A 
ATOM     15  C   UNL d   1       1.216  -1.430  -4.685  0.00  0.00     0.026 A 
ATOM     16 CL   UNL d   1       3.116  -2.878  -5.936  0.00  0.00    -0.084 Cl
ATOM     17  C   UNL d   1       0.543  -0.970  -3.550  0.00  0.00     0.032 A 
ENDBRANCH   1  10
TORSDOF 4
