REMARK  5 active torsions:
REMARK  status: ('A' for Active; 'I' for Inactive)
REMARK    1  A    between atoms: C_8  and  C_2 
REMARK       I    between atoms: N_11  and  C_8 
REMARK    2  A    between atoms: C_9  and  N_12 
REMARK    3  A    between atoms: N_14  and  C_9 
REMARK    4  A    between atoms: N_12  and  N_11 
REMARK    5  A    between atoms: C_18  and  N_14 
ROOT
ATOM      1  C   UNL d   1       3.377  -0.958  -0.236  0.00  0.00     0.277 C 
ATOM      2  N   UNL d   1       3.659  -2.240  -0.659  0.00  0.00    -0.263 N 
ATOM      3  O   UNL d   1       2.476  -0.706   0.563  0.00  0.00    -0.266 OA
ATOM      4  H   UNL d   1       4.507  -2.432  -1.203  0.00  0.00     0.190 HD
ENDROOT
BRANCH   2   5
ATOM      5  N   UNL d   1       3.143  -3.317   0.067  0.00  0.00    -0.273 N 
ATOM      6  H   UNL d   1       2.684  -3.079   0.947  0.00  0.00     0.189 HD
BRANCH   5   7
ATOM      7  C   UNL d   1       2.772  -4.482  -0.544  0.00  0.00     0.191 C 
ATOM      8  S   UNL d   1       2.502  -4.666  -2.187  0.00  0.00    -0.039 SA
BRANCH   7   9
ATOM      9  N   UNL d   1       2.631  -5.587   0.253  0.00  0.00    -0.332 N 
ATOM     10  H   UNL d   1       2.178  -6.356  -0.232  0.00  0.00     0.168 HD
BRANCH   9  11
ATOM     11  C   UNL d   1       3.350  -5.957   1.417  0.00  0.00     0.034 A 
ATOM     12  C   UNL d   1       4.310  -5.159   2.050  0.00  0.00     0.032 A 
ATOM     13  C   UNL d   1       5.067  -5.662   3.114  0.00  0.00     0.044 A 
ATOM     14  C   UNL d   1       4.872  -6.966   3.541  0.00  0.00     0.116 A 
ATOM     15  C   UNL d   1       3.916  -7.772   2.941  0.00  0.00     0.044 A 
ATOM     16  F   UNL d   1       5.628  -7.457   4.532  0.00  0.00    -0.206 F 
ATOM     17  C   UNL d   1       3.151  -7.265   1.886  0.00  0.00     0.032 A 
ENDBRANCH   9  11
ENDBRANCH   7   9
ENDBRANCH   5   7
ENDBRANCH   2   5
BRANCH   1  18
ATOM     18  C   UNL d   1       4.279   0.091  -0.770  0.00  0.00     0.117 A 
ATOM     19  C   UNL d   1       5.611  -0.185  -1.365  0.00  0.00     0.266 A 
ATOM     20  N   UNL d   1       6.347   0.922  -1.708  0.00  0.00    -0.293 N 
ATOM     21  O   UNL d   1       6.010  -1.337  -1.519  0.00  0.00    -0.267 OA
ATOM     22  C   UNL d   1       5.841   2.178  -1.549  0.00  0.00     0.149 A 
ATOM     23  C   UNL d   1       7.686   0.820  -2.236  0.00  0.00     0.145 A 
ATOM     24  N   UNL d   1       4.680   2.457  -1.067  0.00  0.00    -0.345 N 
ATOM     25  S   UNL d   1       6.960   3.393  -2.075  0.00  0.00    -0.092 SA
ATOM     26  C   UNL d   1       3.921   1.380  -0.668  0.00  0.00     0.113 A 
ATOM     27  HN  UNL d   1       4.343   3.416  -0.986  1.00  0.00     0.167 HD
ATOM     28  C   UNL d   1       8.235   2.200  -2.554  0.00  0.00     0.103 A 
ENDBRANCH   1  18
TORSDOF 5
