REMARK  6 active torsions:
REMARK  status: ('A' for Active; 'I' for Inactive)
REMARK    1  A    between atoms: C_12  and  N_1 
REMARK    2  A    between atoms: S_9  and  C_2 
REMARK    3  A    between atoms: O_18  and  C_3 
REMARK       I    between atoms: N_8  and  C_10 
REMARK    4  A    between atoms: C_11  and  N_8 
REMARK    5  A    between atoms: C_17  and  S_9 
REMARK    6  A    between atoms: C_10  and  C_17 
ROOT
ATOM      1  N   UNL d   1       2.898   0.839  -0.574  0.00  0.00    -0.254 N 
ATOM      2  C   UNL d   1       3.204  -0.513  -0.644  0.00  0.00     0.169 C 
ATOM      3  C   UNL d   1       4.102   1.399  -0.150  0.00  0.00     0.245 C 
ATOM      4  N   UNL d   1       4.390  -0.732  -0.122  0.00  0.00    -0.276 N 
ATOM      5  HN  UNL d   1       4.815  -1.647   0.029  1.00  0.00     0.189 HD
ATOM      6  N   UNL d   1       4.957   0.467   0.185  0.00  0.00    -0.263 N 
ATOM      7  HN  UNL d   1       5.878   0.612   0.599  1.00  0.00     0.190 HD
ENDROOT
BRANCH   2   8
ATOM      8  S   UNL d   1       2.263  -1.793  -1.333  0.00  0.00    -0.083 SA
BRANCH   8   9
ATOM      9  C   UNL d   1       2.548  -3.179  -0.200  0.00  0.00     0.185 C 
BRANCH   9  10
ATOM     10  C   UNL d   1       3.879  -3.921  -0.274  0.00  0.00     0.231 C 
ATOM     11  N   UNL d   1       4.937  -3.269  -0.880  0.00  0.00    -0.325 N 
ATOM     12  H   UNL d   1       4.854  -2.257  -0.844  0.00  0.00     0.169 HD
ATOM     13  O   UNL d   1       3.978  -5.007   0.302  0.00  0.00    -0.272 OA
BRANCH  11  14
ATOM     14  C   UNL d   1       6.268  -3.739  -0.780  0.00  0.00     0.056 A 
ATOM     15  C   UNL d   1       6.688  -5.029  -1.139  0.00  0.00     0.060 A 
ATOM     16 CL   UNL d   1       5.671  -6.143  -1.988  0.00  0.00    -0.082 Cl
ATOM     17  C   UNL d   1       8.019  -5.409  -0.926  0.00  0.00     0.026 A 
ATOM     18  C   UNL d   1       8.933  -4.508  -0.378  0.00  0.00     0.002 A 
ATOM     19  C   UNL d   1       8.532  -3.211  -0.070  0.00  0.00     0.002 A 
ATOM     20  C   UNL d   1       7.211  -2.822  -0.285  0.00  0.00     0.031 A 
ENDBRANCH  11  14
ENDBRANCH   9  10
ENDBRANCH   8   9
ENDBRANCH   2   8
BRANCH   1  21
ATOM     21  C   UNL d   1       1.694   1.549  -0.812  0.00  0.00     0.060 A 
ATOM     22  C   UNL d   1       1.444   2.724  -0.102  0.00  0.00     0.117 A 
ATOM     23  N   UNL d   1       0.352   3.501  -0.280  0.00  0.00    -0.373 N 
ATOM     24  C   UNL d   1      -0.556   3.079  -1.181  0.00  0.00     0.088 A 
ATOM     25  HN  UNL d   1       0.222   4.366   0.244  1.00  0.00     0.164 HD
ATOM     26  C   UNL d   1      -0.418   1.911  -1.911  0.00  0.00     0.019 A 
ATOM     27  C   UNL d   1       0.725   1.133  -1.724  0.00  0.00     0.033 A 
ENDBRANCH   1  21
BRANCH   3  28
ATOM     28  O   UNL d   1       4.424   2.687  -0.156  0.00  0.00    -0.331 OA
ATOM     29  H   UNL d   1       3.912   3.140  -0.847  0.00  0.00     0.221 HD
ENDBRANCH   3  28
TORSDOF 6
