REMARK  4 active torsions:
REMARK  status: ('A' for Active; 'I' for Inactive)
REMARK       I    between atoms: C_7  and  N_1 
REMARK    1  A    between atoms: S_8  and  C_2 
REMARK    2  A    between atoms: S_11  and  C_3 
REMARK    3  A    between atoms: C_10  and  C_6 
REMARK       I    between atoms: N_14  and  C_7 
REMARK    4  A    between atoms: C_9  and  S_8 
REMARK       I    between atoms: N_15  and  C_9 
ROOT
ATOM      1  N   UNL d   1      -0.012  -1.140   0.421  0.00  0.00    -0.197 N 
ATOM      2  C   UNL d   1       1.393   0.567   0.325  0.00  0.00     0.074 A 
ATOM      3  C   UNL d   1       1.320  -0.787   0.565  0.00  0.00     0.117 A 
ATOM      4  N   UNL d   1      -0.806  -0.027   0.238  0.00  0.00    -0.287 N 
ATOM      5  HN  UNL d   1      -1.824   0.005   0.188  1.00  0.00     0.188 HD
ATOM      6  C   UNL d   1       0.049   1.008   0.141  0.00  0.00     0.079 A 
ATOM      7  C   UNL d   1      -0.636  -2.412   0.527  0.00  0.00     0.342 C 
ATOM      8  O   UNL d   1       0.002  -3.455   0.473  0.00  0.00    -0.245 OA
ATOM      9  N   UNL d   1      -1.992  -2.294   0.749  0.00  0.00    -0.346 N 
ATOM     10  C   UNL d   1      -2.753  -3.423   1.214  0.00  0.00     0.151 C 
ATOM     11  H   UNL d   1      -2.346  -1.346   0.869  0.00  0.00     0.163 HD
ENDROOT
BRANCH   6  12
ATOM     12  C   UNL d   1      -0.470   2.380   0.010  0.00  0.00    -0.006 A 
ATOM     13  C   UNL d   1      -1.653   2.742   0.679  0.00  0.00     0.015 A 
ATOM     14  C   UNL d   1      -2.108   4.063   0.672  0.00  0.00     0.024 A 
ATOM     15  C   UNL d   1      -1.388   5.041  -0.008  0.00  0.00     0.034 A 
ATOM     16  C   UNL d   1      -0.241   4.699  -0.713  0.00  0.00     0.024 A 
ATOM     17 CL   UNL d   1      -1.914   6.677   0.034  0.00  0.00    -0.084 Cl
ATOM     18  C   UNL d   1       0.208   3.371  -0.720  0.00  0.00     0.015 A 
ENDBRANCH   6  12
BRANCH   2  19
ATOM     19  S   UNL d   1       2.823   1.575   0.478  0.00  0.00    -0.024 SA
BRANCH  19  20
ATOM     20  C   UNL d   1       3.797   1.049  -0.879  0.00  0.00     0.284 C 
ATOM     21  O   UNL d   1       3.438   0.240  -1.717  0.00  0.00    -0.260 OA
ATOM     22  N   UNL d   1       4.992   1.716  -0.869  0.00  0.00    -0.356 N 
ATOM     23  C   UNL d   1       5.981   1.552  -1.897  0.00  0.00     0.150 C 
ATOM     24  H   UNL d   1       5.102   2.438  -0.170  0.00  0.00     0.162 HD
ENDBRANCH  19  20
ENDBRANCH   2  19
BRANCH   3  25
ATOM     25  S   UNL d   1       2.543  -1.853   1.221  0.00  0.00    -0.113 SA
ATOM     26  C   UNL d   1       2.871  -2.978  -0.152  0.00  0.00     0.097 C 
ENDBRANCH   3  25
TORSDOF 4
