REMARK  2 active torsions:
REMARK  status: ('A' for Active; 'I' for Inactive)
REMARK    1  A    between atoms: C_3  and  C_1 
REMARK       I    between atoms: N_6  and  C_3 
REMARK    2  A    between atoms: C_12  and  N_6 
ROOT
ATOM      1  C   UNL d   1      -1.471  -1.330   0.150  0.00  0.00     0.066 A 
ATOM      2  C   UNL d   1      -0.295  -0.592   0.087  0.00  0.00     0.092 A 
ATOM      3  O   UNL d   1       0.972  -1.110  -0.010  0.00  0.00    -0.339 OA
ATOM      4  C   UNL d   1      -0.314   0.796   0.125  0.00  0.00    -0.021 A 
ATOM      5  C   UNL d   1       1.874   0.037  -0.073  0.00  0.00     0.064 A 
ATOM      6  C   UNL d   1       1.059   1.341   0.051  0.00  0.00     0.079 A 
ATOM      7  C   UNL d   1      -2.675  -0.614   0.291  0.00  0.00     0.020 A 
ATOM      8  C   UNL d   1      -1.501   1.504   0.233  0.00  0.00     0.010 A 
ATOM      9  C   UNL d   1      -2.691   0.788   0.328  0.00  0.00     0.002 A 
ATOM     10  C   UNL d   1       2.610  -0.029  -1.415  0.00  0.00     0.046 C 
ATOM     11  C   UNL d   1       2.872  -0.097   1.080  0.00  0.00     0.046 C 
ENDROOT
BRANCH   1  12
ATOM     12  C   UNL d   1      -1.558  -2.817   0.056  0.00  0.00     0.259 C 
ATOM     13  N   UNL d   1      -0.366  -3.518   0.012  0.00  0.00    -0.323 N 
ATOM     14  H   UNL d   1       0.483  -2.977   0.145  0.00  0.00     0.169 HD
ATOM     15  O   UNL d   1      -2.677  -3.327   0.049  0.00  0.00    -0.267 OA
BRANCH  13  16
ATOM     16  C   UNL d   1      -0.230  -4.922  -0.087  0.00  0.00     0.037 A 
ATOM     17  C   UNL d   1      -1.270  -5.770  -0.460  0.00  0.00     0.046 A 
ATOM     18  C   UNL d   1      -1.039  -7.136  -0.486  0.00  0.00     0.090 A 
ATOM     19  N   UNL d   1       0.143  -7.704  -0.173  0.00  0.00    -0.375 N 
ATOM     20  C   UNL d   1       1.141  -6.862   0.168  0.00  0.00     0.090 A 
ATOM     21  HN  UNL d   1       0.276  -8.715  -0.192  1.00  0.00     0.164 HD
ATOM     22  C   UNL d   1       1.011  -5.482   0.208  0.00  0.00     0.046 A 
ENDBRANCH  13  16
ENDBRANCH   1  12
TORSDOF 2
