REMARK  3 active torsions:
REMARK  status: ('A' for Active; 'I' for Inactive)
REMARK    1  A    between atoms: C_3  and  C_1 
REMARK       I    between atoms: N_4  and  C_3 
REMARK    2  A    between atoms: C_10  and  N_4 
REMARK    3  A    between atoms: C_12  and  C_10 
ROOT
ATOM      1  C   UNL d   1      -1.280   2.799   0.231  0.00  0.00     0.254 C 
ATOM      2  N   UNL d   1      -2.415   3.568   0.355  0.00  0.00    -0.356 N 
ATOM      3  O   UNL d   1      -1.327   1.600  -0.033  0.00  0.00    -0.268 OA
ATOM      4  H   UNL d   1      -2.297   4.549   0.587  0.00  0.00     0.162 HD
ENDROOT
BRANCH   1   5
ATOM      5  C   UNL d   1       0.044   3.481   0.422  0.00  0.00     0.068 A 
ATOM      6  C   UNL d   1       0.203   4.842   0.741  0.00  0.00     0.117 A 
ATOM      7  C   UNL d   1       1.496   5.366   0.921  0.00  0.00     0.103 A 
ATOM      8  O   UNL d   1      -0.916   5.633   0.883  0.00  0.00    -0.345 OA
ATOM      9  O   UNL d   1       1.744   6.671   1.274  0.00  0.00    -0.346 OA
ATOM     10  C   UNL d   1       2.622   4.568   0.738  0.00  0.00     0.040 A 
ATOM     11  C   UNL d   1       0.569   7.320   1.767  0.00  0.00     0.202 C 
ATOM     12  C   UNL d   1      -0.606   7.030   0.855  0.00  0.00     0.202 C 
ATOM     13  C   UNL d   1       2.473   3.226   0.403  0.00  0.00     0.004 A 
ATOM     14  C   UNL d   1       1.194   2.686   0.254  0.00  0.00     0.020 A 
ENDBRANCH   1   5
BRANCH   2  15
ATOM     15  C   UNL d   1      -3.740   3.022   0.167  0.00  0.00     0.127 C 
BRANCH  15  16
ATOM     16  C   UNL d   1      -4.870   4.053   0.293  0.00  0.00     0.007 C 
ATOM     17  C   UNL d   1      -4.742   5.202  -0.718  0.00  0.00     0.032 C 
ATOM     18  C   UNL d   1      -5.850   6.229  -0.512  0.00  0.00     0.168 C 
ATOM     19  O   UNL d   1      -5.845   6.711   0.832  0.00  0.00    -0.391 OA
ATOM     20  C   UNL d   1      -6.100   5.669   1.774  0.00  0.00     0.168 C 
ATOM     21  C   UNL d   1      -5.001   4.615   1.716  0.00  0.00     0.032 C 
ENDBRANCH  15  16
ENDBRANCH   2  15
TORSDOF 3
