REMARK  5 active torsions:
REMARK  status: ('A' for Active; 'I' for Inactive)
REMARK    1  A    between atoms: C_3  and  C_1 
REMARK    2  A    between atoms: C_8  and  C_2 
REMARK       I    between atoms: N_6  and  C_3 
REMARK    3  A    between atoms: C_7  and  N_6 
REMARK    4  A    between atoms: N_11  and  C_7 
REMARK    5  A    between atoms: C_15  and  N_11 
ROOT
ATOM      1  C   UNL d   1       0.511  -2.503   0.067  0.00  0.00     0.242 C 
ATOM      2  N   UNL d   1      -0.089  -3.625   0.606  0.00  0.00    -0.201 NA
ATOM      3  O   UNL d   1       1.640  -2.681  -0.402  0.00  0.00    -0.273 OA
ATOM      4  H   UNL d   1       0.631  -4.325   0.543  0.00  0.00     0.139 HD
ENDROOT
BRANCH   1   5
ATOM      5  C   UNL d   1      -0.104  -1.192   0.106  0.00  0.00     0.087 A 
ATOM      6  C   UNL d   1      -1.232  -0.596   0.766  0.00  0.00     0.084 A 
ATOM      7  N   UNL d   1      -1.329   0.708   0.441  0.00  0.00    -0.259 N 
ATOM      8  O   UNL d   1      -0.283   0.991  -0.394  0.00  0.00    -0.241 OA
ATOM      9  HN  UNL d   1      -2.046   1.360   0.757  1.00  0.00     0.195 HD
ATOM     10  C   UNL d   1       0.451  -0.126  -0.592  0.00  0.00     0.090 A 
ATOM     11  C   UNL d   1       1.632   0.026  -1.464  0.00  0.00     0.080 C 
BRANCH   6  12
ATOM     12  C   UNL d   1      -2.259  -1.133   1.658  0.00  0.00     0.011 A 
ATOM     13  C   UNL d   1      -2.002  -1.747   2.892  0.00  0.00     0.023 A 
ATOM     14 BR   UNL d   1      -0.253  -1.952   3.607  0.00  0.00    -0.050 Br
ATOM     15  C   UNL d   1      -3.066  -2.174   3.701  0.00  0.00     0.020 A 
ATOM     16  C   UNL d   1      -4.390  -1.968   3.307  0.00  0.00     0.001 A 
ATOM     17  C   UNL d   1      -4.661  -1.333   2.102  0.00  0.00     0.001 A 
ATOM     18  C   UNL d   1      -3.605  -0.923   1.287  0.00  0.00     0.015 A 
ENDBRANCH   6  12
ENDBRANCH   1   5
BRANCH   2  19
ATOM     19  C   UNL d   1      -1.281  -4.247   0.331  0.00  0.00     0.157 C 
ATOM     20  S   UNL d   1      -2.361  -3.795  -0.863  0.00  0.00    -0.046 SA
BRANCH  19  21
ATOM     21  N   UNL d   1      -1.609  -5.333   1.105  0.00  0.00    -0.337 N 
ATOM     22  H   UNL d   1      -2.558  -5.647   0.914  0.00  0.00     0.168 HD
BRANCH  21  23
ATOM     23  C   UNL d   1      -0.961  -6.015   2.168  0.00  0.00     0.034 A 
ATOM     24  C   UNL d   1       0.395  -5.935   2.500  0.00  0.00     0.041 A 
ATOM     25  C   UNL d   1       0.940  -6.639   3.593  0.00  0.00    -0.024 A 
ATOM     26  C   UNL d   1       2.307  -6.547   3.911  0.00  0.00     0.012 A 
ATOM     27  C   UNL d   1       0.102  -7.448   4.384  0.00  0.00    -0.026 A 
ATOM     28  C   UNL d   1       2.834  -7.226   5.009  0.00  0.00     0.001 A 
ATOM     29  C   UNL d   1       2.002  -8.008   5.804  0.00  0.00     0.001 A 
ATOM     30  C   UNL d   1       0.645  -8.122   5.491  0.00  0.00     0.012 A 
ATOM     31  C   UNL d   1      -1.251  -7.557   4.038  0.00  0.00     0.014 A 
ATOM     32  C   UNL d   1      -1.769  -6.861   2.938  0.00  0.00     0.030 A 
ENDBRANCH  21  23
ENDBRANCH  19  21
ENDBRANCH   2  19
TORSDOF 5
