REMARK  5 active torsions:
REMARK  status: ('A' for Active; 'I' for Inactive)
REMARK    1  A    between atoms: C_8  and  C_2 
REMARK    2  A    between atoms: N_12  and  C_6 
REMARK    3  A    between atoms: C_9  and  C_7 
REMARK    4  A    between atoms: C_11  and  C_9 
REMARK    5  A    between atoms: C_10  and  N_12 
ROOT
ATOM      1  N   UNL d   1      -0.334  -2.551   0.024  0.00  0.00    -0.351 N 
ATOM      2  H   UNL d   1       0.504  -3.123  -0.016  0.00  0.00     0.166 HD
ENDROOT
BRANCH   1   3
ATOM      3  C   UNL d   1      -1.494  -3.300   0.077  0.00  0.00     0.093 C 
ATOM      4  C   UNL d   1      -2.771  -2.900   0.147  0.00  0.00     0.072 C 
BRANCH   4   5
ATOM      5  C   UNL d   1      -3.869  -3.895   0.209  0.00  0.00     0.183 C 
ATOM      6  O   UNL d   1      -3.714  -5.059  -0.141  0.00  0.00    -0.288 OA
BRANCH   5   7
ATOM      7  C   UNL d   1      -5.194  -3.423   0.697  0.00  0.00     0.014 A 
ATOM      8  C   UNL d   1      -6.343  -4.071   0.226  0.00  0.00     0.017 A 
ATOM      9  C   UNL d   1      -7.604  -3.702   0.702  0.00  0.00     0.025 A 
ATOM     10  C   UNL d   1      -7.715  -2.693   1.658  0.00  0.00     0.034 A 
ATOM     11  C   UNL d   1      -6.578  -2.041   2.132  0.00  0.00     0.025 A 
ATOM     12 CL   UNL d   1      -9.264  -2.264   2.272  0.00  0.00    -0.084 Cl
ATOM     13  C   UNL d   1      -5.315  -2.405   1.653  0.00  0.00     0.017 A 
ENDBRANCH   5   7
ENDBRANCH   4   5
ENDBRANCH   1   3
BRANCH   1  14
ATOM     14  C   UNL d   1      -0.195  -1.199   0.017  0.00  0.00     0.128 A 
ATOM     15  N   UNL d   1      -1.159  -0.274   0.046  0.00  0.00    -0.245 N 
ATOM     16  O   UNL d   1      -0.533   0.950   0.026  0.00  0.00    -0.240 OA
ATOM     17  HN  UNL d   1      -2.165  -0.442   0.077  1.00  0.00     0.196 HD
ATOM     18  C   UNL d   1       0.814   0.775  -0.007  0.00  0.00     0.087 A 
ATOM     19  C   UNL d   1       1.077  -0.577  -0.017  0.00  0.00     0.085 A 
BRANCH  18  20
ATOM     20  C   UNL d   1       1.675   2.009  -0.018  0.00  0.00     0.000 C 
ATOM     21  C   UNL d   1       2.530   2.026  -1.297  0.00  0.00     0.021 C 
ATOM     22  C   UNL d   1       0.826   3.294   0.021  0.00  0.00     0.021 C 
ATOM     23  C   UNL d   1       2.597   1.996   1.214  0.00  0.00     0.021 C 
ENDBRANCH  18  20
ENDBRANCH   1  14
TORSDOF 5
