REMARK  3 active torsions:
REMARK  status: ('A' for Active; 'I' for Inactive)
REMARK    1  A    between atoms: C_2  and  S_1 
REMARK    2  A    between atoms: N_3  and  S_1 
REMARK    3  A    between atoms: N_9  and  C_8 
ROOT
ATOM      1  C   UNL d   1       0.571   1.662   0.049  0.00  0.00     0.085 A 
ATOM      2  C   UNL d   1       1.509   2.737   0.076  0.00  0.00    -0.001 A 
ATOM      3  C   UNL d   1       1.009   4.072  -0.004  0.00  0.00    -0.003 A 
ATOM      4  C   UNL d   1       1.909   5.176   0.059  0.00  0.00     0.017 A 
ATOM      5  C   UNL d   1      -0.808   1.896  -0.063  0.00  0.00     0.026 A 
ATOM      6  C   UNL d   1       2.912   2.571   0.170  0.00  0.00     0.014 A 
ATOM      7  C   UNL d   1      -0.388   4.259  -0.132  0.00  0.00     0.014 A 
ATOM      8  C   UNL d   1      -1.284   3.193  -0.158  0.00  0.00     0.002 A 
ATOM      9  C   UNL d   1       3.788   3.654   0.163  0.00  0.00     0.003 A 
ATOM     10  C   UNL d   1       3.289   4.945   0.085  0.00  0.00     0.024 A 
ENDROOT
BRANCH   1  11
ATOM     11  S   UNL d   1       1.071  -0.044   0.248  0.00  0.00     0.244 S 
ATOM     12  O   UNL d   1      -0.102  -0.885   0.117  0.00  0.00    -0.206 OA
ATOM     13  O   UNL d   1       1.893  -0.121   1.438  0.00  0.00    -0.206 OA
BRANCH  11  14
ATOM     14  N   UNL d   1       2.063  -0.377  -1.126  0.00  0.00    -0.206 NA
ATOM     15  C   UNL d   1       1.312  -0.364  -2.418  0.00  0.00     0.107 C 
ATOM     16  C   UNL d   1       2.265  -0.563  -3.594  0.00  0.00     0.015 C 
ATOM     17  C   UNL d   1       3.065  -1.852  -3.444  0.00  0.00     0.002 C 
ATOM     18  C   UNL d   1       3.799  -1.858  -2.110  0.00  0.00     0.015 C 
ATOM     19  C   UNL d   1       2.832  -1.648  -0.948  0.00  0.00     0.107 C 
ENDBRANCH  11  14
ENDBRANCH   1  11
BRANCH   4  20
ATOM     20  N   UNL d   1       1.481   6.513  -0.115  0.00  0.00    -0.302 NA
ATOM     21  H   UNL d   1       0.563   6.697   0.274  0.00  0.00     0.124 HD
ATOM     22  H   UNL d   1       2.158   7.194   0.216  0.00  0.00     0.124 HD
ENDBRANCH   4  20
TORSDOF 3
