REMARK  7 active torsions:
REMARK  status: ('A' for Active; 'I' for Inactive)
REMARK    1  A    between atoms: C_10  and  N_1 
REMARK    2  A    between atoms: C_9  and  C_2 
REMARK    3  A    between atoms: C_16  and  C_8 
REMARK    4  A    between atoms: C_13  and  C_9 
REMARK    5  A    between atoms: C_14  and  C_9 
REMARK    6  A    between atoms: N_11  and  C_10 
REMARK    7  A    between atoms: N_12  and  C_13 
ROOT
ATOM      1  N   UNL d   1      -0.607   1.425   0.234  0.00  0.00    -0.226 N 
ATOM      2  C   UNL d   1      -0.518  -0.979   0.121  0.00  0.00     0.091 C 
ATOM      3  C   UNL d   1      -1.098   0.260   0.795  0.00  0.00     0.287 C 
ATOM      4  N   UNL d   1       0.655  -0.896  -0.436  0.00  0.00    -0.339 N 
ATOM      5  HN  UNL d   1       1.081  -1.703  -0.892  1.00  0.00     0.167 HD
ATOM      6  N   UNL d   1       0.690   1.452  -0.225  0.00  0.00    -0.278 N 
ATOM      7  HN  UNL d   1       1.156   2.336  -0.431  1.00  0.00     0.189 HD
ATOM      8  C   UNL d   1       1.303   0.319  -0.390  0.00  0.00     0.131 C 
ATOM      9  O   UNL d   1      -1.956   0.147   1.659  0.00  0.00    -0.264 OA
ENDROOT
BRANCH   2  10
ATOM     10  C   UNL d   1      -1.359  -2.284   0.156  0.00  0.00     0.102 C 
BRANCH  10  11
ATOM     11  C   UNL d   1      -2.893  -2.008  -0.097  0.00  0.00     0.288 C 
BRANCH  11  12
ATOM     12  N   UNL d   1      -3.344  -1.676  -1.471  0.00  0.00     0.093 N 
ATOM     13  C   UNL d   1      -3.001  -0.307  -1.918  0.00  0.00     0.298 C 
ATOM     14  C   UNL d   1      -3.803   0.799  -1.204  0.00  0.00     0.198 C 
ATOM     15  O   UNL d   1      -5.212   0.618  -1.357  0.00  0.00    -0.388 OA
ATOM     16  C   UNL d   1      -5.597  -0.667  -0.851  0.00  0.00     0.198 C 
ATOM     17  C   UNL d   1      -4.828  -1.787  -1.578  0.00  0.00     0.298 C 
ENDBRANCH  11  12
ENDBRANCH  10  11
BRANCH  10  18
ATOM     18  C   UNL d   1      -0.811  -3.524  -0.603  0.00  0.00    -0.046 A 
ATOM     19  C   UNL d   1       0.567  -3.782  -0.705  0.00  0.00     0.009 A 
ATOM     20  C   UNL d   1       1.074  -4.872  -1.431  0.00  0.00     0.024 A 
ATOM     21  C   UNL d   1       0.201  -5.787  -1.998  0.00  0.00     0.034 A 
ATOM     22  C   UNL d   1      -1.165  -5.637  -1.816  0.00  0.00     0.024 A 
ATOM     23 CL   UNL d   1       0.811  -7.113  -2.910  0.00  0.00    -0.084 Cl
ATOM     24  C   UNL d   1      -1.660  -4.518  -1.129  0.00  0.00     0.009 A 
ENDBRANCH  10  18
ENDBRANCH   2  10
BRANCH   1  25
ATOM     25  C   UNL d   1      -1.291   2.706   0.401  0.00  0.00     0.424 C 
BRANCH  25  26
ATOM     26  N   UNL d   1      -1.058   3.327   1.705  0.00  0.00     0.111 N 
ATOM     27  C   UNL d   1       0.339   3.746   1.916  0.00  0.00     0.300 C 
ATOM     28  C   UNL d   1       0.755   4.932   1.037  0.00  0.00     0.198 C 
ATOM     29  O   UNL d   1      -0.070   6.071   1.309  0.00  0.00    -0.388 OA
ATOM     30  C   UNL d   1      -1.457   5.778   1.103  0.00  0.00     0.198 C 
ATOM     31  C   UNL d   1      -1.921   4.521   1.869  0.00  0.00     0.300 C 
ENDBRANCH  25  26
ENDBRANCH   1  25
BRANCH   8  32
ATOM     32  C   UNL d   1       2.795   0.283  -0.439  0.00  0.00     0.009 A 
ATOM     33  C   UNL d   1       3.483  -0.927  -0.596  0.00  0.00     0.015 A 
ATOM     34  C   UNL d   1       4.861  -0.987  -0.383  0.00  0.00     0.001 A 
ATOM     35  C   UNL d   1       5.563   0.164  -0.032  0.00  0.00     0.000 A 
ATOM     36  C   UNL d   1       4.897   1.383   0.078  0.00  0.00     0.001 A 
ATOM     37  C   UNL d   1       3.515   1.444  -0.127  0.00  0.00     0.015 A 
ENDBRANCH   8  32
TORSDOF 7
