REMARK  5 active torsions:
REMARK  status: ('A' for Active; 'I' for Inactive)
REMARK    1  A    between atoms: N_3  and  S_1 
REMARK    2  A    between atoms: C_13  and  S_1 
REMARK    3  A    between atoms: N_2  and  C_10 
REMARK    4  A    between atoms: N_4  and  N_3 
REMARK       I    between atoms: C_7  and  N_4 
REMARK    5  A    between atoms: C_14  and  C_7 
ROOT
ATOM      1  N   UNL d   1       0.113   0.721  -3.405  0.00  0.00    -0.256 N 
ATOM      2  C   UNL d   1       0.681  -0.463  -3.821  0.00  0.00     0.270 C 
ATOM      3  O   UNL d   1       1.888  -0.600  -4.016  0.00  0.00    -0.266 OA
ATOM      4  H   UNL d   1      -0.890   0.873  -3.340  0.00  0.00     0.191 HD
ENDROOT
BRANCH   2   5
ATOM      5  C   UNL d   1      -0.259  -1.594  -4.055  0.00  0.00     0.033 A 
ATOM      6  C   UNL d   1       0.047  -2.519  -5.055  0.00  0.00     0.019 A 
ATOM      7  C   UNL d   1      -0.814  -3.594  -5.313  0.00  0.00     0.031 A 
ATOM      8  C   UNL d   1      -1.943  -3.818  -4.515  0.00  0.00     0.039 A 
ATOM      9  C   UNL d   1      -2.218  -2.907  -3.485  0.00  0.00     0.031 A 
ATOM     10  C   UNL d   1      -1.408  -1.780  -3.280  0.00  0.00     0.019 A 
BRANCH   8  11
ATOM     11  N   UNL d   1      -2.792  -4.956  -4.745  0.00  0.00    -0.320 N 
ATOM     12  C   UNL d   1      -4.182  -5.015  -4.559  0.00  0.00     0.013 A 
ATOM     13  C   UNL d   1      -4.617  -6.284  -4.897  0.00  0.00     0.027 A 
ATOM     14  C   UNL d   1      -5.093  -3.898  -4.167  0.00  0.00     0.068 C 
ATOM     15  C   UNL d   1      -3.509  -7.024  -5.317  0.00  0.00     0.027 A 
ATOM     16  C   UNL d   1      -2.389  -6.222  -5.205  0.00  0.00     0.013 A 
ATOM     17  C   UNL d   1      -0.993  -6.695  -5.453  0.00  0.00     0.068 C 
ENDBRANCH   8  11
ENDBRANCH   2   5
BRANCH   1  18
ATOM     18  N   UNL d   1       0.978   1.853  -3.118  0.00  0.00    -0.220 N 
ATOM     19  H   UNL d   1       1.991   1.738  -3.192  0.00  0.00     0.200 HD
BRANCH  18  20
ATOM     20  S   UNL d   1       0.277   3.300  -2.629  0.00  0.00     0.276 S 
ATOM     21  O   UNL d   1      -0.387   3.048  -1.364  0.00  0.00    -0.199 OA
ATOM     22  O   UNL d   1      -0.465   3.827  -3.751  0.00  0.00    -0.199 OA
BRANCH  20  23
ATOM     23  C   UNL d   1       1.666   4.363  -2.328  0.00  0.00     0.081 A 
ATOM     24  C   UNL d   1       2.145   5.178  -3.357  0.00  0.00     0.025 A 
ATOM     25  C   UNL d   1       3.150   6.107  -3.093  0.00  0.00     0.002 A 
ATOM     26  C   UNL d   1       3.667   6.230  -1.802  0.00  0.00     0.000 A 
ATOM     27  C   UNL d   1       3.187   5.417  -0.774  0.00  0.00     0.002 A 
ATOM     28  C   UNL d   1       2.182   4.482  -1.033  0.00  0.00     0.025 A 
ENDBRANCH  20  23
ENDBRANCH  18  20
ENDBRANCH   1  18
TORSDOF 5
