REMARK  3 active torsions:
REMARK  status: ('A' for Active; 'I' for Inactive)
REMARK    1  A    between atoms: C_2  and  N_1 
REMARK    2  A    between atoms: N_3  and  C_2 
REMARK    3  A    between atoms: C_9  and  N_3 
ROOT
ATOM      1  C   UNL d   1      -3.033  -0.010  -0.489  0.00  0.00     0.170 C 
ATOM      2  S   UNL d   1      -3.761   1.379  -1.130  0.00  0.00    -0.041 SA
ENDROOT
BRANCH   1   3
ATOM      3  N   UNL d   1      -1.762  -0.007   0.122  0.00  0.00    -0.358 N 
ATOM      4  C   UNL d   1      -1.115   1.270   0.511  0.00  0.00     0.130 C 
ATOM      5  C   UNL d   1       0.280   1.486  -0.105  0.00  0.00     0.004 C 
ATOM      6  C   UNL d   1       1.376   1.078   0.883  0.00  0.00     0.007 C 
ATOM      7  C   UNL d   1       0.469   0.730  -1.430  0.00  0.00     0.007 C 
ATOM      8  C   UNL d   1       1.331  -0.413   1.207  0.00  0.00     0.007 C 
ATOM      9  C   UNL d   1       0.479  -1.225   0.220  0.00  0.00     0.004 C 
ATOM     10  C   UNL d   1      -1.028  -1.205   0.570  0.00  0.00     0.130 C 
ATOM     11  C   UNL d   1       0.746  -0.762  -1.220  0.00  0.00     0.007 C 
ENDBRANCH   1   3
BRANCH   1  12
ATOM     12  N   UNL d   1      -3.679  -1.244  -0.542  0.00  0.00    -0.363 N 
ATOM     13  H   UNL d   1      -3.219  -2.046  -0.154  0.00  0.00     0.162 HD
BRANCH  12  14
ATOM     14  C   UNL d   1      -5.144  -1.412  -0.669  0.00  0.00     0.083 C 
ATOM     15  C   UNL d   1      -5.804  -1.198   0.702  0.00  0.00     0.025 C 
ATOM     16  C   UNL d   1      -5.709  -2.431   1.595  0.00  0.00     0.002 C 
ATOM     17  C   UNL d   1      -6.368  -3.620   0.913  0.00  0.00     0.000 C 
ATOM     18  C   UNL d   1      -5.657  -3.947  -0.393  0.00  0.00     0.002 C 
ATOM     19  C   UNL d   1      -5.548  -2.743  -1.329  0.00  0.00     0.025 C 
ENDBRANCH  12  14
ENDBRANCH   1  12
TORSDOF 3
