REMARK  5 active torsions:
REMARK  status: ('A' for Active; 'I' for Inactive)
REMARK    1  A    between atoms: C_2  and  C_1 
REMARK    2  A    between atoms: N_6  and  C_3 
REMARK       I    between atoms: C_4  and  N_5 
REMARK    3  A    between atoms: C_7  and  C_4 
REMARK    4  A    between atoms: N_5  and  N_6 
REMARK    5  A    between atoms: O_17  and  C_15 
ROOT
ATOM      1  N   UNL d   1       1.962   0.528   0.784  0.00  0.00    -0.187 NA
ATOM      2  H   UNL d   1       1.994   0.053   1.695  0.00  0.00     0.154 HD
ENDROOT
BRANCH   1   3
ATOM      3  N   UNL d   1       2.139   1.914   0.944  0.00  0.00    -0.281 N 
ATOM      4  C   UNL d   1       2.433   2.392   2.211  0.00  0.00     0.266 C 
ATOM      5  O   UNL d   1       2.556   1.639   3.176  0.00  0.00    -0.266 OA
ATOM      6  H   UNL d   1       1.860   2.470   0.144  0.00  0.00     0.184 HD
BRANCH   4   7
ATOM      7  C   UNL d   1       2.621   3.869   2.366  0.00  0.00     0.035 A 
ATOM      8  C   UNL d   1       2.369   4.785   1.331  0.00  0.00     0.053 A 
ATOM      9  C   UNL d   1       2.602   6.151   1.521  0.00  0.00     0.069 A 
ATOM     10  C   UNL d   1       3.079   6.605   2.752  0.00  0.00     0.037 A 
ATOM     11  C   UNL d   1       3.326   5.708   3.790  0.00  0.00     0.004 A 
ATOM     12  C   UNL d   1       3.098   4.345   3.597  0.00  0.00     0.017 A 
BRANCH   9  13
ATOM     13  O   UNL d   1       2.404   7.134   0.589  0.00  0.00    -0.356 OA
ATOM     14  C   UNL d   1       1.958   6.725  -0.699  0.00  0.00     0.210 C 
ENDBRANCH   9  13
ENDBRANCH   4   7
ENDBRANCH   1   3
BRANCH   1  15
ATOM     15  C   UNL d   1       0.794   0.199   0.055  0.00  0.00     0.113 A 
ATOM     16  C   UNL d   1       0.478  -1.135  -0.212  0.00  0.00     0.087 A 
ATOM     17  C   UNL d   1      -0.672  -1.409  -0.977  0.00  0.00     0.021 A 
ATOM     18  C   UNL d   1      -1.460  -0.372  -1.453  0.00  0.00     0.018 A 
ATOM     19  C   UNL d   1      -1.066   0.916  -1.164  0.00  0.00     0.089 A 
ATOM     20  N   UNL d   1       0.041   1.218  -0.445  0.00  0.00    -0.355 N 
ATOM     21  HN  UNL d   1       0.306   2.189  -0.281  1.00  0.00     0.166 HD
BRANCH  16  22
ATOM     22  C   UNL d   1       1.323  -2.290   0.236  0.00  0.00     0.420 C 
ATOM     23  F   UNL d   1       2.389  -1.980   1.020  0.00  0.00    -0.166 F 
ATOM     24  F   UNL d   1       1.827  -2.995  -0.819  0.00  0.00    -0.166 F 
ATOM     25  F   UNL d   1       0.599  -3.195   0.958  0.00  0.00    -0.166 F 
ENDBRANCH  16  22
ENDBRANCH   1  15
TORSDOF 5
