REMARK  3 active torsions:
REMARK  status: ('A' for Active; 'I' for Inactive)
REMARK    1  A    between atoms: C_11  and  C_1 
REMARK    2  A    between atoms: O_15  and  C_13 
REMARK    3  A    between atoms: C_16  and  O_15 
ROOT
ATOM      1  N   UNL d   1       7.462  -0.801   0.453  0.00  0.00    -0.195 NA
ATOM      2  C   UNL d   1       6.398  -0.337   0.508  0.00  0.00     0.085 C 
ATOM      3  C   UNL d   1       5.067   0.290   0.583  0.00  0.00     0.299 C 
ENDROOT
BRANCH   3   4
ATOM      4  O   UNL d   1       4.085  -0.574   0.000  0.00  0.00    -0.337 OA
BRANCH   4   5
ATOM      5  C   UNL d   1       2.790  -0.134   0.035  0.00  0.00     0.072 A 
ATOM      6  C   UNL d   1       1.818  -1.142   0.024  0.00  0.00     0.075 A 
ATOM      7  C   UNL d   1       0.461  -0.814   0.026  0.00  0.00     0.093 A 
ATOM      8  O   UNL d   1      -0.443  -1.848   0.009  0.00  0.00    -0.309 OA
ATOM      9  C   UNL d   1       0.077   0.521   0.032  0.00  0.00     0.048 A 
ATOM     10  C   UNL d   1      -1.800  -1.545  -0.039  0.00  0.00     0.090 A 
ATOM     11  C   UNL d   1      -2.284  -0.293  -0.037  0.00  0.00     0.093 A 
ATOM     12  C   UNL d   1      -1.354   0.843   0.024  0.00  0.00     0.187 A 
ATOM     13  O   UNL d   1      -1.766   1.997   0.056  0.00  0.00    -0.287 OA
ATOM     14  C   UNL d   1       1.037   1.536   0.025  0.00  0.00     0.021 A 
ATOM     15  C   UNL d   1       2.396   1.207   0.023  0.00  0.00     0.038 A 
BRANCH  10  16
ATOM     16  C   UNL d   1      -2.691  -2.727  -0.129  0.00  0.00    -0.002 A 
ATOM     17  C   UNL d   1      -2.241  -3.902  -0.753  0.00  0.00     0.014 A 
ATOM     18  C   UNL d   1      -3.064  -5.029  -0.851  0.00  0.00     0.001 A 
ATOM     19  C   UNL d   1      -4.351  -5.000  -0.323  0.00  0.00     0.000 A 
ATOM     20  C   UNL d   1      -4.816  -3.849   0.305  0.00  0.00     0.001 A 
ATOM     21  C   UNL d   1      -3.991  -2.724   0.406  0.00  0.00     0.014 A 
ENDBRANCH  10  16
ENDBRANCH   4   5
ENDBRANCH   3   4
TORSDOF 3
