REMARK  4 active torsions:
REMARK  status: ('A' for Active; 'I' for Inactive)
REMARK    1  A    between atoms: N_3  and  C_1 
REMARK    2  A    between atoms: C_8  and  C_1 
REMARK       I    between atoms: C_2  and  N_4 
REMARK       I    between atoms: N_7  and  C_2 
REMARK    3  A    between atoms: N_4  and  N_3 
REMARK    4  A    between atoms: C_12  and  N_7 
ROOT
ATOM      1  N   UNL d   1       0.505  -1.295   0.574  0.00  0.00    -0.202 NA
ATOM      2  H   UNL d   1      -0.458  -1.347   0.943  0.00  0.00     0.149 HD
ENDROOT
BRANCH   1   3
ATOM      3  C   UNL d   1       0.785  -0.089  -0.043  0.00  0.00     0.115 C 
ATOM      4  N   UNL d   1       1.821   0.073  -0.816  0.00  0.00    -0.387 N 
ATOM      5  H   UNL d   1       2.306  -0.825  -0.847  0.00  0.00     0.157 HD
ATOM      6  HN  UNL d   1       2.095   0.931  -1.296  1.00  0.00     0.157 HD
BRANCH   3   7
ATOM      7  C   UNL d   1      -0.145   1.067   0.207  0.00  0.00     0.071 A 
ATOM      8  N   UNL d   1      -1.211   0.800   1.011  0.00  0.00    -0.363 N 
ATOM      9  C   UNL d   1      -2.066   1.825   1.226  0.00  0.00     0.088 A 
ATOM     10  HN  UNL d   1      -1.357  -0.120   1.427  1.00  0.00     0.165 HD
ATOM     11  C   UNL d   1      -1.913   3.090   0.677  0.00  0.00     0.017 A 
ATOM     12  C   UNL d   1      -0.812   3.332  -0.139  0.00  0.00     0.004 A 
ATOM     13  C   UNL d   1       0.093   2.303  -0.380  0.00  0.00     0.033 A 
ENDBRANCH   3   7
ENDBRANCH   1   3
BRANCH   1  14
ATOM     14  N   UNL d   1       0.878  -2.460  -0.152  0.00  0.00    -0.171 NA
ATOM     15  C   UNL d   1      -0.029  -3.519  -0.075  0.00  0.00     0.312 C 
ATOM     16  N   UNL d   1       0.459  -4.627  -0.739  0.00  0.00    -0.313 N 
ATOM     17  O   UNL d   1      -1.098  -3.416   0.519  0.00  0.00    -0.252 OA
ATOM     18  H   UNL d   1       1.241  -4.453  -1.353  0.00  0.00     0.170 HD
ATOM     19  H   UNL d   1       1.841  -2.728   0.017  0.00  0.00     0.152 HD
BRANCH  16  20
ATOM     20  C   UNL d   1      -0.080  -5.929  -0.761  0.00  0.00     0.035 A 
ATOM     21  C   UNL d   1      -1.192  -6.322  -0.015  0.00  0.00     0.029 A 
ATOM     22  C   UNL d   1      -1.635  -7.649  -0.047  0.00  0.00     0.002 A 
ATOM     23  C   UNL d   1      -0.970  -8.593  -0.826  0.00  0.00     0.000 A 
ATOM     24  C   UNL d   1       0.131  -8.209  -1.585  0.00  0.00     0.002 A 
ATOM     25  C   UNL d   1       0.572  -6.883  -1.555  0.00  0.00     0.029 A 
ENDBRANCH  16  20
ENDBRANCH   1  14
TORSDOF 4
