REMARK  7 active torsions:
REMARK  status: ('A' for Active; 'I' for Inactive)
REMARK    1  A    between atoms: C_8  and  C_1 
REMARK    2  A    between atoms: N_5  and  C_4 
REMARK       I    between atoms: C_10  and  N_5 
REMARK    3  A    between atoms: O_19  and  C_8 
REMARK    4  A    between atoms: C_9  and  S_11 
REMARK    5  A    between atoms: C_16  and  C_10 
REMARK    6  A    between atoms: S_11  and  C_16 
REMARK    7  A    between atoms: C_23  and  O_19 
ROOT
ATOM      1  N   UNL d   1       0.262  -2.588  -0.049  0.00  0.00    -0.306 N 
ATOM      2  C   UNL d   1       1.285  -3.509  -0.032  0.00  0.00     0.233 C 
ATOM      3  O   UNL d   1       2.485  -3.260   0.086  0.00  0.00    -0.272 OA
ATOM      4  H   UNL d   1      -0.677  -2.902  -0.247  0.00  0.00     0.171 HD
ENDROOT
BRANCH   1   5
ATOM      5  C   UNL d   1       0.468  -1.245   0.034  0.00  0.00     0.151 A 
ATOM      6  N   UNL d   1       1.572  -0.601   0.285  0.00  0.00    -0.331 N 
ATOM      7  C   UNL d   1       1.349   0.772   0.219  0.00  0.00     0.117 A 
ATOM      8  HN  UNL d   1       2.468  -1.039   0.498  1.00  0.00     0.168 HD
ATOM      9  C   UNL d   1       0.040   1.120  -0.073  0.00  0.00     0.089 A 
ATOM     10  S   UNL d   1      -0.921  -0.293  -0.240  0.00  0.00    -0.063 SA
BRANCH   7  11
ATOM     11  C   UNL d   1       2.441   1.729   0.379  0.00  0.00     0.310 C 
ATOM     12  O   UNL d   1       2.323   2.930   0.164  0.00  0.00    -0.258 OA
BRANCH  11  13
ATOM     13  O   UNL d   1       3.606   1.109   0.721  0.00  0.00    -0.317 OA
BRANCH  13  14
ATOM     14  C   UNL d   1       4.809   1.845   0.496  0.00  0.00     0.175 C 
ATOM     15  C   UNL d   1       5.242   1.621  -0.942  0.00  0.00     0.034 C 
ENDBRANCH  13  14
ENDBRANCH  11  13
ENDBRANCH   7  11
ENDBRANCH   1   5
BRANCH   2  16
ATOM     16  C   UNL d   1       0.832  -4.964  -0.122  0.00  0.00     0.182 C 
BRANCH  16  17
ATOM     17  S   UNL d   1      -0.865  -5.132  -0.795  0.00  0.00    -0.119 SA
BRANCH  17  18
ATOM     18  C   UNL d   1      -1.008  -6.910  -0.937  0.00  0.00     0.024 A 
ATOM     19  C   UNL d   1      -1.147  -7.419  -2.239  0.00  0.00     0.044 A 
ATOM     20  C   UNL d   1      -1.371  -8.779  -2.447  0.00  0.00     0.035 A 
ATOM     21 CL   UNL d   1      -1.573  -9.376  -4.047  0.00  0.00    -0.084 Cl
ATOM     22  C   UNL d   1      -1.456  -9.654  -1.368  0.00  0.00     0.025 A 
ATOM     23  C   UNL d   1      -1.314  -9.164  -0.070  0.00  0.00     0.027 A 
ATOM     24  C   UNL d   1      -1.099  -7.797   0.150  0.00  0.00     0.051 A 
ATOM     25 CL   UNL d   1      -1.014  -7.274   1.796  0.00  0.00    -0.083 Cl
ENDBRANCH  17  18
ENDBRANCH  16  17
ENDBRANCH   2  16
TORSDOF 7
