REMARK  7 active torsions:
REMARK  status: ('A' for Active; 'I' for Inactive)
REMARK       I    between atoms: N_8  and  C_11 
REMARK    1  A    between atoms: C_10  and  N_8 
REMARK    2  A    between atoms: C_11  and  C_20 
REMARK    3  A    between atoms: O_19  and  C_14 
REMARK    4  A    between atoms: C_20  and  O_19 
REMARK    5  A    between atoms: C_27  and  C_21 
REMARK    6  A    between atoms: C_28  and  C_27 
REMARK    7  A    between atoms: C_29  and  C_28 
ROOT
ATOM      1  C   UNL d   1       4.778   0.726  -0.303  0.00  0.00     0.278 C 
ENDROOT
BRANCH   1   2
ATOM      2  C   UNL d   1       5.903   1.768  -0.325  0.00  0.00     0.246 C 
ATOM      3  N   UNL d   1       5.812   2.762   0.646  0.00  0.00    -0.325 N 
ATOM      4  H   UNL d   1       5.295   2.502   1.479  0.00  0.00     0.169 HD
ATOM      5  O   UNL d   1       6.853   1.635  -1.100  0.00  0.00    -0.271 OA
BRANCH   3   6
ATOM      6  C   UNL d   1       6.862   3.703   0.821  0.00  0.00     0.040 A 
ATOM      7  C   UNL d   1       7.339   4.518  -0.221  0.00  0.00    -0.035 A 
ATOM      8  C   UNL d   1       8.478   5.317   0.001  0.00  0.00     0.016 A 
ATOM      9  C   UNL d   1       6.698   4.597  -1.579  0.00  0.00     0.050 C 
ATOM     10  C   UNL d   1       9.144   5.320   1.233  0.00  0.00    -0.058 A 
ATOM     11  C   UNL d   1       8.607   4.564   2.280  0.00  0.00     0.009 A 
ATOM     12  C   UNL d   1       7.462   3.783   2.083  0.00  0.00     0.030 A 
BRANCH  10  13
ATOM     13  C   UNL d   1      10.453   6.058   1.400  0.00  0.00     0.038 C 
BRANCH  13  14
ATOM     14  C   UNL d   1      10.386   7.577   1.221  0.00  0.00     0.004 C 
BRANCH  14  15
ATOM     15  C   UNL d   1       9.520   8.273   2.271  0.00  0.00    -0.004 C 
ATOM     16  C   UNL d   1       9.526   9.781   2.067  0.00  0.00     0.005 C 
ENDBRANCH  14  15
ENDBRANCH  13  14
ENDBRANCH  10  13
ENDBRANCH   3   6
ENDBRANCH   1   2
BRANCH   1  17
ATOM     17  O   UNL d   1       3.487   1.258  -0.575  0.00  0.00    -0.342 OA
BRANCH  17  18
ATOM     18  C   UNL d   1       2.482   0.348  -0.806  0.00  0.00     0.072 A 
ATOM     19  C   UNL d   1       2.593  -1.040  -0.692  0.00  0.00     0.044 A 
ATOM     20  C   UNL d   1       1.502  -1.905  -0.961  0.00  0.00    -0.043 A 
ATOM     21  C   UNL d   1       0.268  -1.342  -1.343  0.00  0.00     0.049 A 
ATOM     22  C   UNL d   1       1.784  -3.376  -0.799  0.00  0.00     0.049 C 
ATOM     23  C   UNL d   1      -0.951  -2.148  -1.648  0.00  0.00     0.165 C 
ATOM     24  C   UNL d   1       0.155   0.055  -1.453  0.00  0.00     0.086 A 
ATOM     25  C   UNL d   1      -2.233  -1.373  -1.774  0.00  0.00     0.121 C 
ATOM     26  O   UNL d   1      -0.953  -3.362  -1.769  0.00  0.00    -0.292 OA
ATOM     27  C   UNL d   1      -1.970  -0.075  -2.524  0.00  0.00     0.067 C 
ATOM     28  O   UNL d   1      -0.995   0.717  -1.821  0.00  0.00    -0.340 OA
ATOM     29  C   UNL d   1      -1.511  -0.285  -3.977  0.00  0.00     0.046 C 
ATOM     30  C   UNL d   1      -3.279   0.729  -2.552  0.00  0.00     0.046 C 
ATOM     31  C   UNL d   1       1.252   0.886  -1.182  0.00  0.00     0.074 A 
ENDBRANCH  17  18
ENDBRANCH   1  17
TORSDOF 7
