REMARK  3 active torsions:
REMARK  status: ('A' for Active; 'I' for Inactive)
REMARK    1  A    between atoms: C_2  and  C_1 
REMARK    2  A    between atoms: C_13  and  N_3 
REMARK    3  A    between atoms: C_14  and  N_4 
ROOT
ATOM      1  C   UNL d   1      -0.124  -1.274  -0.130  0.00  0.00     0.152 C 
ATOM      2  N   UNL d   1       0.976  -0.675   0.460  0.00  0.00    -0.224 N 
ATOM      3  N   UNL d   1       0.704   0.639   0.621  0.00  0.00     0.001 NA
ATOM      4  N   UNL d   1      -0.402   0.857  -0.080  0.00  0.00    -0.007 NA
ATOM      5  N   UNL d   1      -0.909  -0.316  -0.584  0.00  0.00    -0.269 N 
ATOM      6  HN  UNL d   1      -1.725  -0.424  -1.186  1.00  0.00     0.185 HD
ENDROOT
BRANCH   1   7
ATOM      7  C   UNL d   1      -0.447  -2.720  -0.150  0.00  0.00     0.052 C 
ATOM      8  C   UNL d   1      -1.208  -3.389  -1.089  0.00  0.00     0.046 C 
ATOM      9  N   UNL d   1      -1.193  -4.728  -0.700  0.00  0.00    -0.260 N 
ATOM     10  C   UNL d   1      -1.919  -2.827  -2.268  0.00  0.00     0.071 C 
ATOM     11  N   UNL d   1      -0.608  -4.877   0.523  0.00  0.00    -0.304 N 
ATOM     12  C   UNL d   1      -0.100  -3.684   0.808  0.00  0.00     0.125 C 
ATOM     13  HN  UNL d   1      -0.570  -5.720   1.095  1.00  0.00     0.186 HD
BRANCH   9  14
ATOM     14  C   UNL d   1      -1.637  -5.894  -1.383  0.00  0.00     0.056 A 
ATOM     15  C   UNL d   1      -1.662  -5.962  -2.780  0.00  0.00     0.031 A 
ATOM     16  C   UNL d   1      -2.107  -7.124  -3.416  0.00  0.00     0.002 A 
ATOM     17  C   UNL d   1      -2.519  -8.223  -2.663  0.00  0.00     0.000 A 
ATOM     18  C   UNL d   1      -2.465  -8.175  -1.272  0.00  0.00     0.002 A 
ATOM     19  C   UNL d   1      -2.010  -7.020  -0.632  0.00  0.00     0.031 A 
ENDBRANCH   9  14
ENDBRANCH   1   7
BRANCH   2  20
ATOM     20  C   UNL d   1       2.263  -1.209   0.703  0.00  0.00     0.056 A 
ATOM     21  C   UNL d   1       2.743  -2.266  -0.085  0.00  0.00     0.032 A 
ATOM     22  C   UNL d   1       4.028  -2.764   0.123  0.00  0.00     0.009 A 
ATOM     23  C   UNL d   1       4.842  -2.222   1.122  0.00  0.00    -0.062 A 
ATOM     24  C   UNL d   1       4.359  -1.161   1.900  0.00  0.00     0.009 A 
ATOM     25  C   UNL d   1       6.233  -2.752   1.307  0.00  0.00     0.048 C 
ATOM     26  C   UNL d   1       3.080  -0.641   1.684  0.00  0.00     0.032 A 
ENDBRANCH   2  20
TORSDOF 3
