REMARK  4 active torsions:
REMARK  status: ('A' for Active; 'I' for Inactive)
REMARK    1  A    between atoms: C_2  and  C_1 
REMARK    2  A    between atoms: O_3  and  C_2 
REMARK    3  A    between atoms: C_13  and  O_3 
REMARK    4  A    between atoms: C_10  and  C_13 
ROOT
ATOM      1  C   UNL d   1      -0.008   2.250   0.049  0.00  0.00     0.299 C 
ATOM      2  O   UNL d   1      -0.144   1.038  -0.014  0.00  0.00    -0.259 OA
ENDROOT
BRANCH   1   3
ATOM      3  C   UNL d   1       1.312   2.904   0.025  0.00  0.00     0.116 A 
ATOM      4  C   UNL d   1       1.528   4.122  -0.620  0.00  0.00     0.135 A 
ATOM      5  F   UNL d   1       0.524   4.783  -1.212  0.00  0.00    -0.205 F 
ATOM      6  C   UNL d   1       2.811   4.670  -0.707  0.00  0.00     0.043 A 
ATOM      7  C   UNL d   1       3.899   3.998  -0.150  0.00  0.00     0.006 A 
ATOM      8  C   UNL d   1       3.694   2.782   0.498  0.00  0.00     0.043 A 
ATOM      9  C   UNL d   1       2.408   2.244   0.581  0.00  0.00     0.135 A 
ATOM     10  F   UNL d   1       2.260   1.075   1.220  0.00  0.00    -0.205 F 
ENDBRANCH   1   3
BRANCH   1  11
ATOM     11  O   UNL d   1      -1.012   3.156   0.137  0.00  0.00    -0.313 OA
BRANCH  11  12
ATOM     12  C   UNL d   1      -2.347   2.631   0.023  0.00  0.00     0.217 C 
BRANCH  12  13
ATOM     13  C   UNL d   1      -3.218   3.077   1.175  0.00  0.00    -0.028 A 
ATOM     14  C   UNL d   1      -3.051   4.330   1.781  0.00  0.00     0.051 A 
ATOM     15  C   UNL d   1      -3.895   4.726   2.819  0.00  0.00     0.119 A 
ATOM     16  F   UNL d   1      -3.713   5.924   3.389  0.00  0.00    -0.206 F 
ATOM     17  C   UNL d   1      -4.921   3.907   3.267  0.00  0.00     0.084 A 
ATOM     18  C   UNL d   1      -5.103   2.678   2.655  0.00  0.00     0.119 A 
ATOM     19  C   UNL d   1      -4.271   2.258   1.617  0.00  0.00     0.051 A 
ATOM     20  F   UNL d   1      -6.100   1.880   3.061  0.00  0.00    -0.206 F 
ENDBRANCH  12  13
ENDBRANCH  11  12
ENDBRANCH   1  11
TORSDOF 4
