REMARK  4 active torsions:
REMARK  status: ('A' for Active; 'I' for Inactive)
REMARK    1  A    between atoms: C_5  and  S_1 
REMARK    2  A    between atoms: N_7  and  S_1 
REMARK    3  A    between atoms: C_2  and  C_13 
REMARK    4  A    between atoms: C_19  and  N_7 
ROOT
ATOM      1  C   UNL d   1       1.167   4.837   2.265  0.00  0.00    -0.002 A 
ATOM      2  C   UNL d   1       0.697   2.659   0.535  0.00  0.00     0.042 A 
ATOM      3  C   UNL d   1       2.211   3.981   1.875  0.00  0.00     0.016 A 
ATOM      4  C   UNL d   1      -0.118   4.579   1.762  0.00  0.00     0.016 A 
ATOM      5  C   UNL d   1      -0.353   3.497   0.900  0.00  0.00     0.031 A 
ATOM      6  C   UNL d   1       1.977   2.896   1.025  0.00  0.00     0.031 A 
ENDROOT
BRANCH   2   7
ATOM      7  N   UNL d   1       0.463   1.498  -0.233  0.00  0.00    -0.281 N 
ATOM      8  H   UNL d   1       0.324   0.600   0.225  0.00  0.00     0.179 HD
BRANCH   7   9
ATOM      9  S   UNL d   1       0.347   1.533  -1.897  0.00  0.00     0.263 S 
ATOM     10  O   UNL d   1       0.131   0.167  -2.318  0.00  0.00    -0.200 OA
ATOM     11  O   UNL d   1      -0.552   2.593  -2.296  0.00  0.00    -0.200 OA
BRANCH   9  12
ATOM     12  C   UNL d   1       1.993   1.984  -2.405  0.00  0.00     0.081 A 
ATOM     13  C   UNL d   1       2.286   3.330  -2.650  0.00  0.00     0.050 A 
ATOM     14  C   UNL d   1       3.568   3.692  -3.072  0.00  0.00     0.057 A 
ATOM     15 CL   UNL d   1       3.877   5.369  -3.342  0.00  0.00    -0.083 Cl
ATOM     16  C   UNL d   1       4.548   2.708  -3.260  0.00  0.00     0.055 A 
ATOM     17  C   UNL d   1       4.239   1.361  -3.036  0.00  0.00     0.027 A 
ATOM     18 CL   UNL d   1       6.155   3.088  -3.770  0.00  0.00    -0.083 Cl
ATOM     19  C   UNL d   1       2.959   0.994  -2.616  0.00  0.00     0.027 A 
ENDBRANCH   9  12
ENDBRANCH   7   9
ENDBRANCH   2   7
BRANCH   1  20
ATOM     20  C   UNL d   1       1.417   5.969   3.158  0.00  0.00     0.087 A 
ATOM     21  O   UNL d   1       2.713   6.139   3.567  0.00  0.00    -0.309 OA
ATOM     22  C   UNL d   1       2.762   7.264   4.328  0.00  0.00     0.086 A 
ATOM     23  C   UNL d   1       3.911   7.801   4.905  0.00  0.00     0.040 A 
ATOM     24  C   UNL d   1       1.496   7.825   4.439  0.00  0.00     0.002 A 
ATOM     25  C   UNL d   1       3.751   8.993   5.620  0.00  0.00     0.026 A 
ATOM     26  C   UNL d   1       2.493   9.588   5.748  0.00  0.00     0.035 A 
ATOM     27  C   UNL d   1       1.349   9.015   5.174  0.00  0.00     0.038 A 
ATOM     28 CL   UNL d   1       2.343  11.065   6.622  0.00  0.00    -0.084 Cl
ATOM     29  C   UNL d   1       0.632   6.970   3.701  0.00  0.00     0.052 A 
ENDBRANCH   1  20
TORSDOF 4
