REMARK  3 active torsions:
REMARK  status: ('A' for Active; 'I' for Inactive)
REMARK    1  A    between atoms: C_4  and  C_1 
REMARK       I    between atoms: N_6  and  C_4 
REMARK    2  A    between atoms: C_9  and  N_6 
REMARK    3  A    between atoms: N_8  and  C_10 
ROOT
ATOM      1  C   UNL d   1      -4.039   0.520  -0.047  0.00  0.00     0.056 A 
ATOM      2  C   UNL d   1      -3.205   1.208  -0.974  0.00  0.00     0.037 A 
ATOM      3  C   UNL d   1      -5.036   1.201   0.668  0.00  0.00     0.031 A 
ATOM      4  C   UNL d   1      -3.431   2.592  -1.118  0.00  0.00     0.026 A 
ATOM      5  C   UNL d   1      -5.221   2.569   0.502  0.00  0.00     0.002 A 
ATOM      6  C   UNL d   1      -4.419   3.265  -0.391  0.00  0.00     0.002 A 
ENDROOT
BRANCH   1   7
ATOM      7  N   UNL d   1      -3.801  -0.852   0.196  0.00  0.00    -0.320 N 
ATOM      8  C   UNL d   1      -4.773  -1.789   0.501  0.00  0.00     0.274 C 
ATOM      9  O   UNL d   1      -5.960  -1.549   0.701  0.00  0.00    -0.266 OA
ATOM     10  H   UNL d   1      -2.906  -1.204  -0.130  0.00  0.00     0.169 HD
BRANCH   8  11
ATOM     11  C   UNL d   1      -4.290  -3.172   0.475  0.00  0.00     0.125 A 
ATOM     12  N   UNL d   1      -2.985  -3.492   0.448  0.00  0.00    -0.256 N 
ATOM     13  O   UNL d   1      -2.935  -4.876   0.438  0.00  0.00    -0.242 OA
ATOM     14  HN  UNL d   1      -2.194  -2.848   0.436  1.00  0.00     0.195 HD
ATOM     15  C   UNL d   1      -4.199  -5.378   0.425  0.00  0.00     0.075 A 
ATOM     16  C   UNL d   1      -5.094  -4.341   0.441  0.00  0.00     0.071 A 
ATOM     17  C   UNL d   1      -4.330  -6.846   0.394  0.00  0.00     0.079 C 
ENDBRANCH   8  11
ENDBRANCH   1   7
BRANCH   2  18
ATOM     18  N   UNL d   1      -2.194   0.535  -1.700  0.00  0.00    -0.281 NA
ATOM     19  C   UNL d   1      -2.663  -0.537  -2.606  0.00  0.00     0.096 C 
ATOM     20  C   UNL d   1      -1.488  -1.486  -2.850  0.00  0.00     0.015 C 
ATOM     21  C   UNL d   1      -0.327  -0.741  -3.505  0.00  0.00     0.002 C 
ATOM     22  C   UNL d   1       0.059   0.496  -2.697  0.00  0.00     0.015 C 
ATOM     23  C   UNL d   1      -1.152   1.363  -2.342  0.00  0.00     0.096 C 
ENDBRANCH   2  18
TORSDOF 3
