REMARK  3 active torsions:
REMARK  status: ('A' for Active; 'I' for Inactive)
REMARK    1  A    between atoms: C_2  and  C_1 
REMARK       I    between atoms: N_3  and  C_1 
REMARK    2  A    between atoms: C_5  and  N_3 
REMARK    3  A    between atoms: C_4  and  C_6 
ROOT
ATOM      1  C   UNL d   1       1.092   0.172   0.039  0.00  0.00     0.260 C 
ATOM      2  N   UNL d   1       0.380  -0.494   1.056  0.00  0.00    -0.318 N 
ATOM      3  O   UNL d   1       2.301   0.394   0.038  0.00  0.00    -0.267 OA
ATOM      4  C   UNL d   1      -1.048  -0.842   0.979  0.00  0.00     0.159 C 
ENDROOT
BRANCH   1   5
ATOM      5  C   UNL d   1       0.387   0.638  -1.176  0.00  0.00     0.062 A 
ATOM      6  C   UNL d   1       0.840   0.338  -2.469  0.00  0.00     0.066 A 
ATOM      7  C   UNL d   1       0.121   0.859  -3.561  0.00  0.00     0.034 A 
ATOM      8  C   UNL d   1      -0.997   1.645  -3.325  0.00  0.00     0.088 A 
ATOM      9  N   UNL d   1      -1.421   1.969  -2.094  0.00  0.00    -0.374 N 
ATOM     10  C   UNL d   1      -0.709   1.487  -1.049  0.00  0.00     0.105 A 
ATOM     11  HN  UNL d   1      -2.245   2.553  -1.952  1.00  0.00     0.164 HD
BRANCH   6  12
ATOM     12  C   UNL d   1       2.084  -0.462  -2.758  0.00  0.00     0.418 C 
ATOM     13  F   UNL d   1       2.435  -1.372  -1.815  0.00  0.00    -0.166 F 
ATOM     14  F   UNL d   1       1.937  -1.201  -3.902  0.00  0.00    -0.166 F 
ATOM     15  F   UNL d   1       3.168   0.328  -2.987  0.00  0.00    -0.166 F 
ENDBRANCH   6  12
ENDBRANCH   1   5
BRANCH   2  16
ATOM     16  C   UNL d   1       1.070  -0.938   2.247  0.00  0.00     0.043 A 
ATOM     17  C   UNL d   1       1.918  -0.105   3.021  0.00  0.00    -0.029 A 
ATOM     18  C   UNL d   1       2.613  -0.660   4.133  0.00  0.00    -0.054 A 
ATOM     19  C   UNL d   1       2.078   1.368   2.734  0.00  0.00     0.051 C 
ATOM     20  C   UNL d   1       3.580   0.124   4.983  0.00  0.00     0.049 C 
ATOM     21  C   UNL d   1       2.383  -1.992   4.511  0.00  0.00     0.007 A 
ATOM     22  C   UNL d   1       1.515  -2.791   3.784  0.00  0.00     0.003 A 
ATOM     23  C   UNL d   1       0.879  -2.272   2.660  0.00  0.00     0.030 A 
ENDBRANCH   2  16
TORSDOF 3
