REMARK  3 active torsions:
REMARK  status: ('A' for Active; 'I' for Inactive)
REMARK    1  A    between atoms: C1_2  and  C3_5 
REMARK    2  A    between atoms: C2_3  and  C5_7 
REMARK    3  A    between atoms: O2_9  and  C3_5 
ROOT
ATOM      1  N1  <1> d   1      -1.578  -0.646  -0.338  0.00  0.00     0.114 N 
ATOM      2  C1  <1> d   1      -1.593   0.772   0.159  0.00  0.00     0.327 C 
ATOM      3  C2  <1> d   1      -0.192  -1.088  -0.595  0.00  0.00     0.290 C 
ATOM      4  S1  <1> d   1       0.935   0.151   0.095  0.00  0.00    -0.130 SA
ATOM      5  C4  <1> d   1      -0.264   1.478  -0.044  0.00  0.00     0.122 C 
ATOM      6  H2  <1> d   1      -1.931  -1.224   0.432  0.00  0.00     0.318 HD
ENDROOT
BRANCH   2   7
ATOM      7  C3  <1> d   1      -2.687   1.541  -0.593  0.00  0.00     0.175 C 
ATOM      8  O1  <1> d   1      -2.939   2.721  -0.429  0.00  0.00    -0.648 OA
BRANCH   7   9
ATOM      9  O2  <1> d   1      -3.352   0.750  -1.473  0.00  0.00    -0.775 OA
ATOM     10  H6  <1> d   1      -2.918  -0.137  -1.428  0.00  0.00     0.167 HD
ENDBRANCH   7   9
ENDBRANCH   2   7
BRANCH   3  11
ATOM     11  C5  <1> d   1       0.022  -1.438  -2.109  0.00  0.00    -0.011 C 
ATOM     12  C6  <1> d   1      -0.179  -0.233  -3.050  0.00  0.00     0.017 C 
ATOM     13  C7  <1> d   1       1.445  -1.992  -2.351  0.00  0.00     0.017 C 
ATOM     14  C8  <1> d   1      -0.974  -2.550  -2.516  0.00  0.00     0.017 C 
ENDBRANCH   3  11
TORSDOF 3
