REMARK  4 active torsions:
REMARK  status: ('A' for Active; 'I' for Inactive)
REMARK    1  A    between atoms: C_14  and  C_2 
REMARK    2  A    between atoms: C_10  and  C_11 
REMARK    3  A    between atoms: C_19  and  C_13 
REMARK    4  A    between atoms: C_18  and  C_20 
ROOT
ATOM      1  N   UNL d   1       4.641   0.274  -0.991  0.00  0.00    -0.318 N 
ATOM      2  HN  UNL d   1       4.462  -0.217  -1.867  1.00  0.00     0.169 HD
ATOM      3  C   UNL d   1       3.773   0.683  -0.086  0.00  0.00     0.189 A 
ATOM      4  C   UNL d   1       5.857   0.673  -0.460  0.00  0.00     0.138 A 
ATOM      5  N   UNL d   1       5.750   1.290   0.726  0.00  0.00    -0.242 N 
ATOM      6  HN  UNL d   1       6.499   1.663   1.310  1.00  0.00     0.196 HD
ATOM      7  O   UNL d   1       4.389   1.304   0.972  0.00  0.00    -0.217 OA
ENDROOT
BRANCH   3   8
ATOM      8  C   UNL d   1       2.344   0.522  -0.153  0.00  0.00     0.061 A 
ATOM      9  C   UNL d   1       1.570  -0.211  -1.065  0.00  0.00     0.040 A 
ATOM     10  C   UNL d   1       0.220  -0.095  -0.712  0.00  0.00     0.034 A 
ATOM     11  C   UNL d   1      -1.014  -0.575  -1.162  0.00  0.00     0.145 A 
ATOM     12  C   UNL d   1      -0.009   0.677   0.355  0.00  0.00     0.104 A 
ATOM     13  N   UNL d   1      -1.996  -0.070  -0.359  0.00  0.00    -0.293 N 
ATOM     14  N   UNL d   1      -1.340   0.696   0.557  0.00  0.00    -0.288 N 
ATOM     15  HN  UNL d   1      -3.001  -0.230  -0.430  1.00  0.00     0.187 HD
ATOM     16  C   UNL d   1      -2.084   1.397   1.572  0.00  0.00     0.178 C 
ATOM     17  S   UNL d   1       1.347   1.321   1.048  0.00  0.00    -0.066 SA
BRANCH  11  18
ATOM     18  C   UNL d   1      -1.324  -1.494  -2.306  0.00  0.00     0.434 C 
ATOM     19  F   UNL d   1      -0.203  -1.894  -2.970  0.00  0.00    -0.165 F 
ATOM     20  F   UNL d   1      -1.950  -2.631  -1.899  0.00  0.00    -0.165 F 
ATOM     21  F   UNL d   1      -2.130  -0.912  -3.234  0.00  0.00    -0.165 F 
ENDBRANCH  11  18
ENDBRANCH   3   8
BRANCH   4  22
ATOM     22  C   UNL d   1       7.138   0.470  -1.132  0.00  0.00     0.010 A 
ATOM     23  C   UNL d   1       7.194  -0.086  -2.415  0.00  0.00     0.016 A 
ATOM     24  C   UNL d   1       8.421  -0.241  -3.073  0.00  0.00     0.017 A 
ATOM     25  C   UNL d   1       9.620   0.156  -2.460  0.00  0.00     0.048 A 
ATOM     26  C   UNL d   1       9.567   0.696  -1.168  0.00  0.00     0.017 A 
ATOM     27  C   UNL d   1       8.341   0.851  -0.513  0.00  0.00     0.016 A 
BRANCH  25  28
ATOM     28  C   UNL d   1      10.947   0.024  -3.168  0.00  0.00     0.417 C 
ATOM     29  F   UNL d   1      10.848  -0.510  -4.418  0.00  0.00    -0.166 F 
ATOM     30  F   UNL d   1      11.573   1.224  -3.325  0.00  0.00    -0.166 F 
ATOM     31  F   UNL d   1      11.824  -0.768  -2.492  0.00  0.00    -0.166 F 
ENDBRANCH  25  28
ENDBRANCH   4  22
TORSDOF 4
