REMARK  4 active torsions:
REMARK  status: ('A' for Active; 'I' for Inactive)
REMARK    1  A    between atoms: C_6  and  C_1 
REMARK    2  A    between atoms: N_7  and  N_2 
REMARK    3  A    between atoms: C_10  and  N_7 
REMARK    4  A    between atoms: O_16  and  C_11 
ROOT
ATOM      1  C   UNL d   1       0.979   0.043   0.016  0.00  0.00     0.155 C 
ATOM      2  N   UNL d   1       0.344  -1.094  -0.070  0.00  0.00    -0.288 N 
ATOM      3  HN  UNL d   1      -0.670  -1.103  -0.183  1.00  0.00     0.188 HD
ATOM      4  C   UNL d   1       2.416   0.029   0.163  0.00  0.00     0.121 C 
ATOM      5  N   UNL d   1       3.571  -0.056   0.286  0.00  0.00    -0.190 NA
ENDROOT
BRANCH   1   6
ATOM      6  C   UNL d   1       0.310   1.361  -0.035  0.00  0.00     0.071 A 
ATOM      7  N   UNL d   1       1.114   2.448   0.087  0.00  0.00    -0.363 N 
ATOM      8  C   UNL d   1       0.523   3.661   0.042  0.00  0.00     0.088 A 
ATOM      9  HN  UNL d   1       2.122   2.352   0.209  1.00  0.00     0.165 HD
ATOM     10  C   UNL d   1      -0.839   3.845  -0.122  0.00  0.00     0.017 A 
ATOM     11  C   UNL d   1      -1.647   2.719  -0.244  0.00  0.00     0.004 A 
ATOM     12  C   UNL d   1      -1.068   1.451  -0.200  0.00  0.00     0.032 A 
ENDBRANCH   1   6
BRANCH   2  13
ATOM     13  N   UNL d   1       1.034  -2.268  -0.010  0.00  0.00    -0.300 N 
ATOM     14  H   UNL d   1       2.027  -2.333   0.216  0.00  0.00     0.187 HD
BRANCH  13  15
ATOM     15  C   UNL d   1       0.346  -3.492  -0.096  0.00  0.00     0.048 A 
ATOM     16  C   UNL d   1      -1.021  -3.563  -0.383  0.00  0.00     0.034 A 
ATOM     17  C   UNL d   1      -1.681  -4.795  -0.492  0.00  0.00     0.039 A 
ATOM     18  C   UNL d   1      -0.980  -5.984  -0.305  0.00  0.00     0.068 A 
ATOM     19  C   UNL d   1       0.383  -5.926  -0.012  0.00  0.00     0.039 A 
ATOM     20  C   UNL d   1       1.041  -4.694   0.089  0.00  0.00     0.034 A 
BRANCH  18  21
ATOM     21  O   UNL d   1      -1.501  -7.246  -0.378  0.00  0.00    -0.356 OA
ATOM     22  C   UNL d   1      -2.886  -7.350  -0.686  0.00  0.00     0.210 C 
ENDBRANCH  18  21
ENDBRANCH  13  15
ENDBRANCH   2  13
TORSDOF 4
