REMARK  3 active torsions:
REMARK  status: ('A' for Active; 'I' for Inactive)
REMARK    1  A    between atoms: N_14  and  C_7 
REMARK    2  A    between atoms: C_15  and  N_14 
REMARK    3  A    between atoms: O_25  and  C_16 
ROOT
ATOM      1  C   UNL d   1      -0.713   1.204  -0.030  0.00  0.00     0.087 A 
ATOM      2  C   UNL d   1      -1.442   0.006  -0.049  0.00  0.00     0.089 A 
ATOM      3  N   UNL d   1      -1.394   2.357  -0.012  0.00  0.00    -0.283 N 
ATOM      4  HN  UNL d   1      -0.889   3.243  -0.009  1.00  0.00     0.187 HD
ATOM      5  N   UNL d   1      -2.801   0.017  -0.066  0.00  0.00    -0.187 N 
ATOM      6  HN  UNL d   1      -3.330  -0.853  -0.118  1.00  0.00     0.184 HD
ATOM      7  C   UNL d   1      -3.428   1.198  -0.015  0.00  0.00     0.697 A 
ATOM      8  C   UNL d   1      -0.735  -1.212  -0.036  0.00  0.00     0.005 A 
ATOM      9  C   UNL d   1       0.692   1.208  -0.021  0.00  0.00     0.005 A 
ATOM     10  C   UNL d   1       0.686  -1.240  -0.020  0.00  0.00    -0.012 A 
ATOM     11  C   UNL d   1       1.413  -0.006  -0.016  0.00  0.00    -0.012 A 
ATOM     12  N   UNL d   1      -2.754   2.357   0.003  0.00  0.00    -0.131 N 
ATOM     13  HN  UNL d   1      -3.262   3.241   0.028  1.00  0.00     0.205 HD
ATOM     14  C   UNL d   1      -1.440  -2.438  -0.028  0.00  0.00     0.014 A 
ATOM     15  C   UNL d   1       1.401   2.435  -0.015  0.00  0.00     0.014 A 
ATOM     16  C   UNL d   1       1.315  -2.512  -0.005  0.00  0.00     0.013 A 
ATOM     17  C   UNL d   1       2.831   0.082  -0.001  0.00  0.00     0.013 A 
ATOM     18  C   UNL d   1      -0.789  -3.669  -0.009  0.00  0.00     0.001 A 
ATOM     19  C   UNL d   1       2.792   2.485  -0.002  0.00  0.00     0.001 A 
ATOM     20  C   UNL d   1       3.509   1.304   0.006  0.00  0.00     0.001 A 
ATOM     21  C   UNL d   1       0.594  -3.704   0.002  0.00  0.00     0.001 A 
ENDROOT
BRANCH   7  22
ATOM     22  N   UNL d   1      -4.824   1.193  -0.002  0.00  0.00    -0.190 N 
ATOM     23  H   UNL d   1      -5.209   0.281  -0.174  0.00  0.00     0.184 HD
BRANCH  22  24
ATOM     24  C   UNL d   1      -5.688   2.188   0.478  0.00  0.00     0.049 A 
ATOM     25  C   UNL d   1      -6.948   2.358  -0.102  0.00  0.00     0.033 A 
ATOM     26  C   UNL d   1      -7.766   3.431   0.275  0.00  0.00     0.039 A 
ATOM     27  C   UNL d   1      -7.357   4.333   1.259  0.00  0.00     0.068 A 
ATOM     28  C   UNL d   1      -6.116   4.157   1.862  0.00  0.00     0.039 A 
ATOM     29  C   UNL d   1      -5.290   3.102   1.464  0.00  0.00     0.033 A 
BRANCH  27  30
ATOM     30  O   UNL d   1      -8.213   5.371   1.497  0.00  0.00    -0.356 OA
ATOM     31  C   UNL d   1      -8.121   5.987   2.776  0.00  0.00     0.210 C 
ENDBRANCH  27  30
ENDBRANCH  22  24
ENDBRANCH   7  22
TORSDOF 3
