REMARK  6 active torsions:
REMARK  status: ('A' for Active; 'I' for Inactive)
REMARK    1  A    between atoms: C_4  and  N_1 
REMARK    2  A    between atoms: C_7  and  C_4 
REMARK    3  A    between atoms: C_11  and  C_4 
REMARK    4  A    between atoms: C_10  and  C_7 
REMARK    5  A    between atoms: O_12  and  C_7 
REMARK    6  A    between atoms: O_15  and  C_11 
ROOT
ATOM      1  C   UNL d   1       3.338   0.039  -0.162  0.00  0.00     0.153 C 
ENDROOT
BRANCH   1   2
ATOM      2  N   UNL d   1       1.855   0.040  -0.084  0.00  0.00    -0.270 N 
ATOM      3  C   UNL d   1       1.043   1.130   0.076  0.00  0.00     0.262 A 
ATOM      4  C   UNL d   1      -0.332   0.651   0.057  0.00  0.00     0.048 A 
ATOM      5  O   UNL d   1       1.327   2.296   0.266  0.00  0.00    -0.267 OA
ATOM      6  C   UNL d   1      -1.522   1.354   0.145  0.00  0.00     0.018 A 
ATOM      7  C   UNL d   1      -0.296  -0.721  -0.066  0.00  0.00     0.048 A 
ATOM      8  C   UNL d   1      -2.702   0.613   0.088  0.00  0.00     0.001 A 
ATOM      9  C   UNL d   1      -2.668  -0.790  -0.054  0.00  0.00     0.001 A 
ATOM     10  C   UNL d   1      -1.450  -1.476  -0.130  0.00  0.00     0.018 A 
ATOM     11  C   UNL d   1       1.110  -1.115  -0.117  0.00  0.00     0.262 A 
ATOM     12  O   UNL d   1       1.484  -2.267  -0.188  0.00  0.00    -0.267 OA
ENDBRANCH   1   2
BRANCH   1  13
ATOM     13  C   UNL d   1       3.862  -0.627  -1.476  0.00  0.00     0.176 C 
BRANCH  13  14
ATOM     14  C   UNL d   1       3.440   0.037  -2.774  0.00  0.00    -0.028 A 
ATOM     15  C   UNL d   1       4.206   1.041  -3.382  0.00  0.00     0.010 A 
ATOM     16  C   UNL d   1       3.837   1.563  -4.626  0.00  0.00     0.001 A 
ATOM     17  C   UNL d   1       2.692   1.100  -5.270  0.00  0.00     0.000 A 
ATOM     18  C   UNL d   1       1.903   0.126  -4.667  0.00  0.00     0.001 A 
ATOM     19  C   UNL d   1       2.275  -0.403  -3.429  0.00  0.00     0.010 A 
ENDBRANCH  13  14
BRANCH  13  20
ATOM     20  O   UNL d   1       5.279  -0.846  -1.479  0.00  0.00    -0.389 OA
ATOM     21  H   UNL d   1       5.742  -0.074  -1.123  0.00  0.00     0.210 HD
ENDBRANCH  13  20
ENDBRANCH   1  13
BRANCH   1  22
ATOM     22  C   UNL d   1       3.984   1.412   0.115  0.00  0.00     0.193 C 
BRANCH  22  23
ATOM     23  O   UNL d   1       3.807   1.772   1.487  0.00  0.00    -0.399 OA
ATOM     24  H   UNL d   1       2.867   2.024   1.584  0.00  0.00     0.209 HD
ENDBRANCH  22  23
ENDBRANCH   1  22
TORSDOF 6
