REMARK  4 active torsions:
REMARK  status: ('A' for Active; 'I' for Inactive)
REMARK    1  A    between atoms: C_8  and  N_1 
REMARK    2  A    between atoms: C_7  and  C_2 
REMARK    3  A    between atoms: N_11  and  C_9 
REMARK    4  A    between atoms: C_10  and  N_11 
ROOT
ATOM      1  N   UNL d   1       3.808   0.718   0.044  0.00  0.00    -0.225 N 
ATOM      2  C   UNL d   1       3.707  -0.671  -0.059  0.00  0.00     0.139 C 
ATOM      3  N   UNL d   1       5.748  -0.064  -0.417  0.00  0.00    -0.007 NA
ATOM      4  N   UNL d   1       5.073   1.066  -0.306  0.00  0.00     0.001 NA
ATOM      5  N   UNL d   1       4.924  -1.143  -0.269  0.00  0.00    -0.270 N 
ATOM      6  HN  UNL d   1       5.195  -2.125  -0.312  1.00  0.00     0.185 HD
ENDROOT
BRANCH   2   7
ATOM      7  C   UNL d   1       2.456  -1.339  -0.130  0.00  0.00     0.063 C 
ATOM      8  C   UNL d   1       2.281  -2.615   0.246  0.00  0.00     0.066 C 
BRANCH   8   9
ATOM      9  N   UNL d   1       3.165  -3.487   0.850  0.00  0.00    -0.269 NA
ATOM     10  H   UNL d   1       3.150  -4.402   0.404  0.00  0.00     0.133 HD
BRANCH   9  11
ATOM     11  C   UNL d   1       3.193  -3.695   2.263  0.00  0.00     0.018 A 
ATOM     12  C   UNL d   1       3.992  -4.722   2.816  0.00  0.00    -0.041 A 
ATOM     13  C   UNL d   1       4.780  -5.689   1.973  0.00  0.00     0.050 C 
ATOM     14  C   UNL d   1       4.030  -4.895   4.212  0.00  0.00     0.008 A 
ATOM     15  C   UNL d   1       3.330  -4.041   5.061  0.00  0.00     0.001 A 
ATOM     16  C   UNL d   1       2.581  -3.002   4.526  0.00  0.00     0.002 A 
ATOM     17  C   UNL d   1       2.525  -2.825   3.143  0.00  0.00     0.024 A 
ENDBRANCH   9  11
ENDBRANCH   8   9
ENDBRANCH   2   7
BRANCH   1  18
ATOM     18  C   UNL d   1       2.886   1.717   0.463  0.00  0.00     0.056 A 
ATOM     19  C   UNL d   1       1.804   1.410   1.301  0.00  0.00     0.034 A 
ATOM     20  C   UNL d   1       0.954   2.431   1.744  0.00  0.00     0.044 A 
ATOM     21  C   UNL d   1       1.178   3.743   1.344  0.00  0.00     0.116 A 
ATOM     22  C   UNL d   1       2.244   4.064   0.514  0.00  0.00     0.044 A 
ATOM     23  F   UNL d   1       0.364   4.713   1.778  0.00  0.00    -0.206 F 
ATOM     24  C   UNL d   1       3.108   3.054   0.083  0.00  0.00     0.034 A 
ENDBRANCH   1  18
TORSDOF 4
