REMARK  2 active torsions:
REMARK  status: ('A' for Active; 'I' for Inactive)
REMARK    1  A    between atoms: S_15  and  C_5 
REMARK    2  A    between atoms: C_8  and  N_9 
ROOT
ATOM      1  C   UNL d   1       3.504  -1.626  -0.559  0.00  0.00     0.166 A 
ATOM      2  S   UNL d   1       2.051  -2.346  -1.163  0.00  0.00    -0.027 SA
ATOM      3  N   UNL d   1       4.553  -2.419  -0.670  0.00  0.00    -0.278 N 
ATOM      4  HN  UNL d   1       5.475  -2.188  -0.302  1.00  0.00     0.189 HD
ATOM      5  C   UNL d   1       3.005  -3.665  -1.682  0.00  0.00     0.127 A 
ATOM      6  N   UNL d   1       4.269  -3.596  -1.337  0.00  0.00    -0.286 N 
ATOM      7  HN  UNL d   1       4.957  -4.322  -1.536  1.00  0.00     0.188 HD
ATOM      8  N   UNL d   1       3.466  -0.369  -0.058  0.00  0.00    -0.335 N 
ATOM      9  H   UNL d   1       2.561   0.087  -0.025  0.00  0.00     0.168 HD
ENDROOT
BRANCH   8  10
ATOM     10  C   UNL d   1       4.518   0.582  -0.075  0.00  0.00     0.046 A 
ATOM     11  C   UNL d   1       5.432   0.729  -1.145  0.00  0.00    -0.034 A 
ATOM     12  C   UNL d   1       6.429   1.725  -1.072  0.00  0.00     0.015 A 
ATOM     13  C   UNL d   1       5.439  -0.103  -2.404  0.00  0.00     0.050 C 
ATOM     14  C   UNL d   1       6.506   2.617  -0.006  0.00  0.00    -0.061 A 
ATOM     15  C   UNL d   1       5.583   2.499   1.028  0.00  0.00     0.015 A 
ATOM     16  C   UNL d   1       7.564   3.679   0.006  0.00  0.00     0.048 C 
ATOM     17  C   UNL d   1       4.601   1.491   1.014  0.00  0.00    -0.034 A 
ATOM     18  C   UNL d   1       3.644   1.452   2.179  0.00  0.00     0.050 C 
ENDBRANCH   8  10
BRANCH   5  19
ATOM     19  S   UNL d   1       2.372  -4.993  -2.618  0.00  0.00    -0.117 SA
ATOM     20  H   UNL d   1       1.154  -4.479  -2.833  0.00  0.00     0.109 HD
ENDBRANCH   5  19
TORSDOF 2
