REMARK  4 active torsions:
REMARK  status: ('A' for Active; 'I' for Inactive)
REMARK    1  A    between atoms: N_2  and  C_1 
REMARK    2  A    between atoms: N_8  and  C_5 
REMARK       I    between atoms: C_6  and  N_8 
REMARK       I    between atoms: N_11  and  C_6 
REMARK    3  A    between atoms: C_16  and  N_11 
REMARK    4  A    between atoms: C_15  and  C_16 
ROOT
ATOM      1  C   UNL d   1       3.704  -0.880  -0.148  0.00  0.00     0.321 C 
ATOM      2  N   UNL d   1       4.455  -2.000  -0.114  0.00  0.00    -0.308 N 
ATOM      3  N   UNL d   1       4.279   0.354  -0.189  0.00  0.00    -0.339 N 
ATOM      4  O   UNL d   1       2.479  -1.034  -0.131  0.00  0.00    -0.247 OA
ATOM      5  H   UNL d   1       3.841  -2.804  -0.041  0.00  0.00     0.170 HD
ATOM      6  H   UNL d   1       5.144   0.439   0.321  0.00  0.00     0.164 HD
ENDROOT
BRANCH   2   7
ATOM      7  C   UNL d   1       5.802  -2.293  -0.208  0.00  0.00     0.045 A 
ATOM      8  C   UNL d   1       6.935  -1.448  -0.412  0.00  0.00     0.074 A 
ATOM      9  C   UNL d   1       8.116  -2.173  -0.452  0.00  0.00     0.145 A 
ATOM     10  S   UNL d   1       7.878  -3.840  -0.260  0.00  0.00    -0.076 SA
ATOM     11  C   UNL d   1       6.192  -3.621  -0.122  0.00  0.00     0.081 A 
BRANCH   9  12
ATOM     12  N   UNL d   1       9.446  -1.649  -0.631  0.00  0.00    -0.108 N 
ATOM     13  O   UNL d   1       9.540  -0.418  -0.713  0.00  0.00    -0.531 OA
ATOM     14  O   UNL d   1      10.390  -2.448  -0.692  0.00  0.00    -0.531 OA
ENDBRANCH   9  12
ENDBRANCH   2   7
BRANCH   3  15
ATOM     15  C   UNL d   1       3.356   1.471  -0.060  0.00  0.00     0.164 C 
BRANCH  15  16
ATOM     16  C   UNL d   1       3.904   2.840  -0.328  0.00  0.00    -0.025 A 
ATOM     17  C   UNL d   1       3.325   3.932   0.323  0.00  0.00     0.096 A 
ATOM     18  N   UNL d   1       3.630   5.226   0.079  0.00  0.00    -0.375 N 
ATOM     19  C   UNL d   1       4.548   5.455  -0.881  0.00  0.00     0.087 A 
ATOM     20  HN  UNL d   1       3.189   5.988   0.593  1.00  0.00     0.164 HD
ATOM     21  C   UNL d   1       5.178   4.449  -1.595  0.00  0.00     0.018 A 
ATOM     22  C   UNL d   1       4.847   3.123  -1.316  0.00  0.00     0.011 A 
ENDBRANCH  15  16
ENDBRANCH   3  15
TORSDOF 4
