REMARK  4 active torsions:
REMARK  status: ('A' for Active; 'I' for Inactive)
REMARK    1  A    between atoms: N_6  and  C_2 
REMARK    2  A    between atoms: C_3  and  N_4 
REMARK    3  A    between atoms: N_8  and  C_3 
REMARK    4  A    between atoms: C_15  and  N_8 
ROOT
ATOM      1  N   UNL d   1      -1.321  -5.665  -0.303  0.00  0.00    -0.356 N 
ATOM      2  N   UNL d   1      -1.315  -2.794  -0.020  0.00  0.00    -0.265 NA
ATOM      3  C   UNL d   1      -2.295  -4.825  -1.023  0.00  0.00     0.140 C 
ATOM      4  C   UNL d   1      -0.723  -5.023   0.883  0.00  0.00     0.140 C 
ATOM      5  C   UNL d   1      -0.209  -3.600   0.560  0.00  0.00     0.117 C 
ATOM      6  C   UNL d   1      -1.787  -3.398  -1.292  0.00  0.00     0.117 C 
ENDROOT
BRANCH   1   7
ATOM      7  C   UNL d   1      -0.679  -6.732  -0.885  0.00  0.00     0.174 C 
ATOM      8  S   UNL d   1      -0.058  -6.721  -2.441  0.00  0.00    -0.041 SA
BRANCH   7   9
ATOM      9  N   UNL d   1      -0.484  -7.855  -0.129  0.00  0.00    -0.331 N 
ATOM     10  H   UNL d   1       0.202  -8.498  -0.519  0.00  0.00     0.168 HD
BRANCH   9  11
ATOM     11  C   UNL d   1      -1.315  -8.435   0.863  0.00  0.00     0.073 A 
ATOM     12  C   UNL d   1      -0.923  -9.682   1.377  0.00  0.00     0.145 A 
ATOM     13  C   UNL d   1      -1.711 -10.385   2.284  0.00  0.00     0.086 A 
ATOM     14  F   UNL d   1       0.230 -10.233   0.966  0.00  0.00    -0.204 F 
ATOM     15  C   UNL d   1      -2.917  -9.833   2.685  0.00  0.00     0.119 A 
ATOM     16  C   UNL d   1      -3.335  -8.600   2.200  0.00  0.00     0.044 A 
ATOM     17  F   UNL d   1      -3.700 -10.503   3.541  0.00  0.00    -0.206 F 
ATOM     18  C   UNL d   1      -2.537  -7.905   1.284  0.00  0.00     0.036 A 
ENDBRANCH   9  11
ENDBRANCH   7   9
ENDBRANCH   1   7
BRANCH   2  19
ATOM     19  C   UNL d   1      -0.925  -1.462  -0.266  0.00  0.00     0.097 A 
ATOM     20  C   UNL d   1      -1.809  -0.362  -0.104  0.00  0.00     0.043 A 
ATOM     21  C   UNL d   1      -1.279   0.880  -0.433  0.00  0.00     0.088 A 
ATOM     22  C   UNL d   1      -3.184  -0.221   0.354  0.00  0.00    -0.039 A 
ATOM     23  S   UNL d   1      -2.379   2.161  -0.228  0.00  0.00    -0.083 SA
ATOM     24  N   UNL d   1      -0.040   1.141  -0.881  0.00  0.00    -0.346 N 
ATOM     25  C   UNL d   1      -3.591   1.104   0.329  0.00  0.00     0.059 A 
ATOM     26  C   UNL d   1       0.702   0.042  -0.980  0.00  0.00     0.182 A 
ATOM     27  HN  UNL d   1       0.293   2.076  -1.118  1.00  0.00     0.167 HD
ATOM     28  N   UNL d   1       0.337  -1.215  -0.700  0.00  0.00    -0.342 N 
ATOM     29  HN  UNL d   1       1.001  -1.981  -0.812  1.00  0.00     0.167 HD
ATOM     30  C   UNL d   1      -4.082  -1.313   0.835  0.00  0.00     0.050 C 
ENDBRANCH   2  19
TORSDOF 4
