REMARK  5 active torsions:
REMARK  status: ('A' for Active; 'I' for Inactive)
REMARK    1  A    between atoms: C_2  and  C_1 
REMARK    2  A    between atoms: N_10  and  C_2 
REMARK    3  A    between atoms: O_11  and  N_3 
REMARK    4  A    between atoms: O_13  and  C_8 
REMARK    5  A    between atoms: O_12  and  C_9 
ROOT
ATOM      1  C   UNL d   1       3.307  -1.877   0.282  0.00  0.00     0.009 A 
ATOM      2  C   UNL d   1       2.358  -2.908   0.265  0.00  0.00     0.051 A 
ATOM      3  C   UNL d   1       4.672  -2.178   0.286  0.00  0.00     0.051 A 
ATOM      4  C   UNL d   1       4.148  -4.529   0.239  0.00  0.00     0.073 A 
ATOM      5  C   UNL d   1       2.779  -4.236   0.241  0.00  0.00     0.071 A 
ATOM      6  C   UNL d   1       5.098  -3.506   0.254  0.00  0.00     0.071 A 
ENDROOT
BRANCH   1   7
ATOM      7  C   UNL d   1       2.853  -0.456   0.278  0.00  0.00     0.108 C 
ATOM      8  N   UNL d   1       3.617   0.451   0.820  0.00  0.00    -0.258 N 
ATOM      9  HN  UNL d   1       4.513   0.261   1.268  1.00  0.00     0.195 HD
BRANCH   8  10
ATOM     10  O   UNL d   1       3.038   1.726   0.703  0.00  0.00    -0.289 OA
ATOM     11  H   UNL d   1       3.651   2.273   1.229  0.00  0.00     0.244 HD
ENDBRANCH   8  10
BRANCH   7  12
ATOM     12  N   UNL d   1       1.650  -0.142  -0.312  0.00  0.00    -0.286 NA
ATOM     13  H   UNL d   1       1.488  -0.603  -1.200  0.00  0.00     0.125 HD
ATOM     14  H   UNL d   1       1.583   0.870  -0.399  0.00  0.00     0.125 HD
ENDBRANCH   7  12
ENDBRANCH   1   7
BRANCH   5  15
ATOM     15  O   UNL d   1       1.962  -5.335   0.212  0.00  0.00    -0.356 OA
ATOM     16  C   UNL d   1       0.560  -5.097   0.198  0.00  0.00     0.210 C 
ENDBRANCH   5  15
BRANCH   6  17
ATOM     17  O   UNL d   1       6.456  -3.672   0.225  0.00  0.00    -0.356 OA
ATOM     18  C   UNL d   1       6.942  -5.009   0.176  0.00  0.00     0.210 C 
ENDBRANCH   6  17
TORSDOF 5
