REMARK  5 active torsions:
REMARK  status: ('A' for Active; 'I' for Inactive)
REMARK    1  A    between atoms: C_4  and  S_1 
REMARK    2  A    between atoms: N_6  and  S_1 
REMARK    3  A    between atoms: S_3  and  C_2 
REMARK    4  A    between atoms: C_16  and  S_3 
REMARK    5  A    between atoms: C_8  and  N_6 
ROOT
ATOM      1  C   UNL d   1      -0.869  -0.796   3.596  0.00  0.00     0.072 A 
ATOM      2  C   UNL d   1       0.219  -0.166   1.628  0.00  0.00     0.116 A 
ATOM      3  C   UNL d   1      -0.736  -0.995   2.188  0.00  0.00     0.056 A 
ATOM      4  S   UNL d   1       0.909   0.875   2.800  0.00  0.00    -0.087 SA
ATOM      5  C   UNL d   1      -0.011   0.176   4.064  0.00  0.00     0.074 A 
ENDROOT
BRANCH   2   6
ATOM      6  S   UNL d   1       0.830  -0.006  -0.040  0.00  0.00     0.248 S 
ATOM      7  O   UNL d   1      -0.012  -0.879  -0.830  0.00  0.00    -0.205 OA
ATOM      8  O   UNL d   1       2.258  -0.198   0.054  0.00  0.00    -0.205 OA
BRANCH   6   9
ATOM      9  N   UNL d   1       0.574   1.573  -0.536  0.00  0.00    -0.202 NA
ATOM     10  H   UNL d   1       1.444   2.003  -0.869  0.00  0.00     0.141 HD
BRANCH   9  11
ATOM     11  C   UNL d   1      -0.591   1.885  -1.408  0.00  0.00     0.163 C 
ATOM     12  C   UNL d   1      -0.428   3.350  -1.862  0.00  0.00     0.236 C 
ATOM     13  N   UNL d   1      -1.356   3.863  -2.724  0.00  0.00    -0.360 N 
ATOM     14  O   UNL d   1       0.508   4.064  -1.499  0.00  0.00    -0.272 OA
ATOM     15  C   UNL d   1      -2.399   3.127  -3.402  0.00  0.00     0.122 C 
ATOM     16  H   UNL d   1      -1.183   4.827  -2.988  0.00  0.00     0.162 HD
ATOM     17  C   UNL d   1      -3.497   2.668  -2.454  0.00  0.00     0.020 C 
ATOM     18  C   UNL d   1      -3.102   1.473  -1.588  0.00  0.00     0.004 C 
ATOM     19  C   UNL d   1      -1.913   1.719  -0.657  0.00  0.00     0.030 C 
ENDBRANCH   9  11
ENDBRANCH   6   9
ENDBRANCH   2   6
BRANCH   1  20
ATOM     20  S   UNL d   1      -1.975  -1.680   4.601  0.00  0.00     0.207 S 
ATOM     21  O   UNL d   1      -2.145  -2.952   3.926  0.00  0.00    -0.217 OA
ATOM     22  O   UNL d   1      -1.435  -1.574   5.939  0.00  0.00    -0.217 OA
BRANCH  20  23
ATOM     23  C   UNL d   1      -3.491  -0.773   4.512  0.00  0.00     0.064 A 
ATOM     24  C   UNL d   1      -4.440  -1.103   3.538  0.00  0.00     0.024 A 
ATOM     25  C   UNL d   1      -5.646  -0.405   3.488  0.00  0.00     0.002 A 
ATOM     26  C   UNL d   1      -5.908   0.605   4.416  0.00  0.00     0.000 A 
ATOM     27  C   UNL d   1      -4.967   0.919   5.398  0.00  0.00     0.002 A 
ATOM     28  C   UNL d   1      -3.756   0.229   5.453  0.00  0.00     0.024 A 
ENDBRANCH  20  23
ENDBRANCH   1  20
TORSDOF 5
