REMARK  4 active torsions:
REMARK  status: ('A' for Active; 'I' for Inactive)
REMARK    1  A    between atoms: C_2  and  N_1 
REMARK       I    between atoms: C_3  and  N_1 
REMARK    2  A    between atoms: N_4  and  C_2 
REMARK    3  A    between atoms: C_8  and  C_3 
REMARK    4  A    between atoms: C_5  and  N_4 
ROOT
ATOM      1  C   UNL d   1       0.250  -1.016  -0.634  0.00  0.00     0.157 C 
ATOM      2  S   UNL d   1      -1.083  -0.722  -1.601  0.00  0.00    -0.046 SA
ENDROOT
BRANCH   1   3
ATOM      3  N   UNL d   1       0.942  -0.106   0.143  0.00  0.00    -0.201 NA
ATOM      4  C   UNL d   1       0.977   1.278   0.013  0.00  0.00     0.237 C 
ATOM      5  O   UNL d   1       2.070   1.823  -0.146  0.00  0.00    -0.274 OA
ATOM      6  H   UNL d   1       1.904  -0.404   0.230  0.00  0.00     0.139 HD
BRANCH   4   7
ATOM      7  C   UNL d   1      -0.251   2.108   0.059  0.00  0.00     0.026 A 
ATOM      8  C   UNL d   1      -0.268   3.296  -0.685  0.00  0.00     0.016 A 
ATOM      9  C   UNL d   1      -1.377   4.142  -0.641  0.00  0.00     0.001 A 
ATOM     10  C   UNL d   1      -2.469   3.811   0.158  0.00  0.00     0.000 A 
ATOM     11  C   UNL d   1      -2.450   2.637   0.917  0.00  0.00     0.001 A 
ATOM     12  C   UNL d   1      -1.340   1.787   0.876  0.00  0.00     0.016 A 
ENDBRANCH   4   7
ENDBRANCH   1   3
BRANCH   1  13
ATOM     13  N   UNL d   1       0.775  -2.282  -0.706  0.00  0.00    -0.336 N 
ATOM     14  H   UNL d   1       0.431  -2.794  -1.517  0.00  0.00     0.168 HD
BRANCH  13  15
ATOM     15  C   UNL d   1       1.751  -2.977   0.043  0.00  0.00     0.055 A 
ATOM     16  C   UNL d   1       2.399  -4.074  -0.561  0.00  0.00     0.060 A 
ATOM     17 CL   UNL d   1       2.076  -4.502  -2.208  0.00  0.00    -0.082 Cl
ATOM     18  C   UNL d   1       3.344  -4.829   0.137  0.00  0.00     0.026 A 
ATOM     19  C   UNL d   1       3.635  -4.515   1.462  0.00  0.00     0.002 A 
ATOM     20  C   UNL d   1       2.986  -3.446   2.079  0.00  0.00     0.002 A 
ATOM     21  C   UNL d   1       2.049  -2.677   1.376  0.00  0.00     0.031 A 
ENDBRANCH  13  15
ENDBRANCH   1  13
TORSDOF 4
