REMARK  4 active torsions:
REMARK  status: ('A' for Active; 'I' for Inactive)
REMARK    1  A    between atoms: C_4  and  C_1 
REMARK       I    between atoms: N_9  and  C_4 
REMARK    2  A    between atoms: C_7  and  C_12 
REMARK    3  A    between atoms: C_20  and  N_9 
REMARK    4  A    between atoms: C_21  and  C_20 
ROOT
ATOM      1  C   UNL d   1       4.100   1.518   1.004  0.00  0.00     0.269 C 
ATOM      2  N   UNL d   1       4.785   0.831   0.023  0.00  0.00    -0.351 N 
ATOM      3  O   UNL d   1       3.634   0.989   2.006  0.00  0.00    -0.266 OA
ATOM      4  H   UNL d   1       5.060   1.349  -0.806  0.00  0.00     0.163 HD
ENDROOT
BRANCH   1   5
ATOM      5  C   UNL d   1       3.930   2.981   0.778  0.00  0.00     0.116 A 
ATOM      6  N   UNL d   1       4.442   3.527  -0.360  0.00  0.00    -0.349 N 
ATOM      7  C   UNL d   1       4.244   4.859  -0.509  0.00  0.00     0.059 A 
ATOM      8  HN  UNL d   1       4.941   2.971  -1.054  1.00  0.00     0.166 HD
ATOM      9  C   UNL d   1       4.730   5.513  -1.636  0.00  0.00     0.032 A 
ATOM     10  C   UNL d   1       3.545   5.625   0.466  0.00  0.00     0.059 A 
ATOM     11  C   UNL d   1       4.545   6.887  -1.823  0.00  0.00     0.002 A 
ATOM     12  C   UNL d   1       3.860   7.627  -0.867  0.00  0.00     0.002 A 
ATOM     13  C   UNL d   1       3.366   6.987   0.269  0.00  0.00     0.032 A 
ATOM     14  N   UNL d   1       3.048   5.060   1.582  0.00  0.00    -0.362 N 
ATOM     15  C   UNL d   1       3.251   3.729   1.723  0.00  0.00     0.123 A 
ATOM     16  HN  UNL d   1       2.545   5.605   2.282  1.00  0.00     0.165 HD
ENDBRANCH   1   5
BRANCH   2  17
ATOM     17  C   UNL d   1       4.924  -0.610   0.050  0.00  0.00     0.161 C 
BRANCH  17  18
ATOM     18  C   UNL d   1       6.344  -1.116  -0.041  0.00  0.00    -0.040 A 
ATOM     19  C   UNL d   1       7.464  -0.281  -0.113  0.00  0.00     0.010 A 
ATOM     20  C   UNL d   1       8.754  -0.820  -0.221  0.00  0.00     0.013 A 
ATOM     21  C   UNL d   1       8.969  -2.206  -0.248  0.00  0.00    -0.019 A 
ATOM     22  C   UNL d   1       7.847  -3.039  -0.145  0.00  0.00     0.013 A 
ATOM     23  C   UNL d   1       6.557  -2.504  -0.048  0.00  0.00     0.010 A 
BRANCH  21  24
ATOM     24  C   UNL d   1      10.339  -2.743  -0.367  0.00  0.00     0.015 A 
ATOM     25  S   UNL d   1      10.638  -4.244  -1.158  0.00  0.00    -0.101 SA
ATOM     26  C   UNL d   1      12.323  -4.138  -0.902  0.00  0.00     0.050 A 
ATOM     27  C   UNL d   1      12.671  -2.982  -0.246  0.00  0.00     0.008 A 
ATOM     28  C   UNL d   1      11.532  -2.182   0.061  0.00  0.00     0.020 A 
ENDBRANCH  21  24
ENDBRANCH  17  18
ENDBRANCH   2  17
TORSDOF 4
