REMARK  7 active torsions:
REMARK  status: ('A' for Active; 'I' for Inactive)
REMARK    1  A    between atoms: C_5  and  N_1 
REMARK    2  A    between atoms: C_4  and  N_2 
REMARK    3  A    between atoms: C_6  and  C_3 
REMARK    4  A    between atoms: C_9  and  C_4 
REMARK    5  A    between atoms: C_10  and  C_5 
REMARK    6  A    between atoms: O_23  and  C_12 
REMARK    7  A    between atoms: O_22  and  C_13 
ROOT
ATOM      1  N   UNL d   1       1.230   0.712  -0.305  0.00  0.00     0.131 N 
ATOM      2  N   UNL d   1      -1.238   0.640  -0.257  0.00  0.00     0.131 N 
ATOM      3  C   UNL d   1      -0.018   1.405   0.119  0.00  0.00     0.490 C 
ATOM      4  C   UNL d   1      -1.191  -0.716   0.329  0.00  0.00     0.278 C 
ATOM      5  C   UNL d   1       1.293  -0.610   0.330  0.00  0.00     0.278 C 
ATOM      6  C   UNL d   1       0.087  -1.466  -0.016  0.00  0.00     0.061 C 
ENDROOT
BRANCH   1   7
ATOM      7  C   UNL d   1       1.395   0.655  -1.767  0.00  0.00     0.314 C 
BRANCH   7   8
ATOM      8  C   UNL d   1       2.626  -0.071  -2.279  0.00  0.00    -0.030 A 
ATOM      9  C   UNL d   1       2.491  -1.211  -3.083  0.00  0.00     0.011 A 
ATOM     10  C   UNL d   1       3.614  -1.829  -3.642  0.00  0.00     0.037 A 
ATOM     11  C   UNL d   1       4.888  -1.317  -3.402  0.00  0.00     0.068 A 
ATOM     12  C   UNL d   1       5.029  -0.187  -2.592  0.00  0.00     0.037 A 
ATOM     13  C   UNL d   1       3.909   0.431  -2.030  0.00  0.00     0.011 A 
BRANCH  11  14
ATOM     14  O   UNL d   1       6.060  -1.817  -3.900  0.00  0.00    -0.356 OA
ATOM     15  C   UNL d   1       5.966  -2.986  -4.705  0.00  0.00     0.210 C 
ENDBRANCH  11  14
ENDBRANCH   7   8
ENDBRANCH   1   7
BRANCH   3  16
ATOM     16  C   UNL d   1      -0.048   2.887  -0.296  0.00  0.00     0.005 A 
ATOM     17  C   UNL d   1       0.140   3.887   0.675  0.00  0.00     0.011 A 
ATOM     18  C   UNL d   1       0.114   5.241   0.327  0.00  0.00     0.001 A 
ATOM     19  C   UNL d   1      -0.072   5.619  -1.000  0.00  0.00     0.000 A 
ATOM     20  C   UNL d   1      -0.276   4.647  -1.975  0.00  0.00     0.001 A 
ATOM     21  C   UNL d   1      -0.297   3.297  -1.619  0.00  0.00     0.011 A 
ENDBRANCH   3  16
BRANCH   2  22
ATOM     22  C   UNL d   1      -2.451   1.342   0.240  0.00  0.00     0.314 C 
BRANCH  22  23
ATOM     23  C   UNL d   1      -3.750   0.625  -0.071  0.00  0.00    -0.030 A 
ATOM     24  C   UNL d   1      -4.556   0.131   0.967  0.00  0.00     0.011 A 
ATOM     25  C   UNL d   1      -5.729  -0.572   0.678  0.00  0.00     0.037 A 
ATOM     26  C   UNL d   1      -6.113  -0.783  -0.646  0.00  0.00     0.068 A 
ATOM     27  C   UNL d   1      -5.336  -0.258  -1.682  0.00  0.00     0.037 A 
ATOM     28  C   UNL d   1      -4.158   0.435  -1.399  0.00  0.00     0.011 A 
BRANCH  26  29
ATOM     29  O   UNL d   1      -7.237  -1.461  -1.037  0.00  0.00    -0.356 OA
ATOM     30  C   UNL d   1      -7.624  -2.525  -0.173  0.00  0.00     0.210 C 
ENDBRANCH  26  29
ENDBRANCH  22  23
ENDBRANCH   2  22
TORSDOF 7
