REMARK  5 active torsions:
REMARK  status: ('A' for Active; 'I' for Inactive)
REMARK    1  A    between atoms: N_4  and  S_1 
REMARK    2  A    between atoms: C_15  and  S_1 
REMARK    3  A    between atoms: C_2  and  C_7 
REMARK    4  A    between atoms: C_5  and  N_4 
REMARK       I    between atoms: C_7  and  N_14 
REMARK    5  A    between atoms: N_14  and  C_26 
ROOT
ATOM      1  C   UNL d   1       0.503  -1.475  -0.610  0.00  0.00     0.075 A 
ATOM      2  C   UNL d   1       1.473  -2.475  -0.694  0.00  0.00     0.027 A 
ATOM      3  C   UNL d   1      -0.843  -1.783  -0.808  0.00  0.00     0.027 A 
ATOM      4  C   UNL d   1      -0.270  -4.125  -1.119  0.00  0.00     0.035 A 
ATOM      5  C   UNL d   1       1.084  -3.794  -0.956  0.00  0.00     0.031 A 
ATOM      6  C   UNL d   1      -1.224  -3.104  -1.068  0.00  0.00     0.031 A 
ENDROOT
BRANCH   1   7
ATOM      7  S   UNL d   1       0.963   0.156  -0.064  0.00  0.00     0.248 S 
ATOM      8  O   UNL d   1      -0.252   0.803   0.388  0.00  0.00    -0.205 OA
ATOM      9  O   UNL d   1       2.096   0.008   0.823  0.00  0.00    -0.205 OA
BRANCH   7  10
ATOM     10  N   UNL d   1       1.369   0.917  -1.503  0.00  0.00    -0.151 NA
ATOM     11  H   UNL d   1       0.796   1.754  -1.571  0.00  0.00     0.149 HD
BRANCH  10  12
ATOM     12  C   UNL d   1       2.712   1.280  -1.543  0.00  0.00     0.171 A 
ATOM     13  N   UNL d   1       3.582   0.370  -1.984  0.00  0.00    -0.336 N 
ATOM     14  C   UNL d   1       4.877   0.740  -1.927  0.00  0.00     0.009 A 
ATOM     15  HN  UNL d   1       3.288  -0.540  -2.339  1.00  0.00     0.168 HD
ATOM     16  C   UNL d   1       5.895  -0.229  -2.448  0.00  0.00     0.068 C 
ATOM     17  C   UNL d   1       5.279   1.957  -1.404  0.00  0.00     0.049 A 
ATOM     18  C   UNL d   1       4.282   2.808  -0.962  0.00  0.00     0.009 A 
ATOM     19  N   UNL d   1       2.976   2.492  -1.049  0.00  0.00    -0.336 N 
ATOM     20  C   UNL d   1       4.633   4.124  -0.334  0.00  0.00     0.068 C 
ATOM     21  HN  UNL d   1       2.239   3.134  -0.758  1.00  0.00     0.168 HD
ENDBRANCH  10  12
ENDBRANCH   7  10
ENDBRANCH   1   7
BRANCH   4  22
ATOM     22  N   UNL d   1      -0.586  -5.491  -1.299  0.00  0.00    -0.323 N 
ATOM     23  C   UNL d   1      -1.843  -6.062  -1.372  0.00  0.00     0.258 C 
ATOM     24  O   UNL d   1      -2.898  -5.440  -1.310  0.00  0.00    -0.267 OA
ATOM     25  H   UNL d   1       0.206  -6.120  -1.327  0.00  0.00     0.169 HD
BRANCH  23  26
ATOM     26  C   UNL d   1      -1.891  -7.524  -1.540  0.00  0.00     0.063 A 
ATOM     27  C   UNL d   1      -0.855  -8.438  -1.570  0.00  0.00     0.091 A 
ATOM     28  S   UNL d   1      -1.353 -10.048  -1.813  0.00  0.00    -0.065 SA
ATOM     29 CL   UNL d   1       0.841  -8.174  -1.398  0.00  0.00    -0.075 Cl
ATOM     30  C   UNL d   1      -2.972  -9.579  -1.869  0.00  0.00     0.077 A 
ATOM     31  C   UNL d   1      -3.147  -8.232  -1.701  0.00  0.00     0.050 A 
ATOM     32 CL   UNL d   1      -4.199 -10.751  -2.120  0.00  0.00    -0.076 Cl
ENDBRANCH  23  26
ENDBRANCH   4  22
TORSDOF 5
