REMARK  9 active torsions:
REMARK  status: ('A' for Active; 'I' for Inactive)
REMARK    1  A    between atoms: C_2  and  N_1 
REMARK    2  A    between atoms: N_6  and  C_3 
REMARK    3  A    between atoms: N_4  and  N_6 
REMARK    4  A    between atoms: C_7  and  C_8 
REMARK    5  A    between atoms: C_9  and  C_7 
REMARK    6  A    between atoms: O_13  and  C_8 
REMARK    7  A    between atoms: O_14  and  C_9 
REMARK    8  A    between atoms: C_17  and  O_13 
REMARK    9  A    between atoms: C_18  and  O_14 
ROOT
ATOM      1  N   UNL d   1       2.629  -1.012   1.562  0.00  0.00    -0.283 N 
ATOM      2  HN  UNL d   1       2.018  -1.807   1.750  1.00  0.00     0.188 HD
ATOM      3  C   UNL d   1       3.777  -0.880   2.149  0.00  0.00     0.141 C 
ENDROOT
BRANCH   1   4
ATOM      4  N   UNL d   1       2.280  -0.033   0.684  0.00  0.00    -0.297 N 
ATOM      5  H   UNL d   1       2.865   0.812   0.635  0.00  0.00     0.187 HD
BRANCH   4   6
ATOM      6  C   UNL d   1       0.900   0.148   0.441  0.00  0.00     0.081 A 
ATOM      7  C   UNL d   1       0.328   1.363   0.012  0.00  0.00     0.130 A 
ATOM      8  C   UNL d   1      -1.064   1.477  -0.185  0.00  0.00     0.038 A 
ATOM      9  C   UNL d   1      -1.897   0.378   0.025  0.00  0.00     0.003 A 
ATOM     10  C   UNL d   1      -1.349  -0.837   0.414  0.00  0.00     0.002 A 
ATOM     11  C   UNL d   1       0.029  -0.948   0.610  0.00  0.00     0.033 A 
BRANCH   7  12
ATOM     12  N   UNL d   1       1.148   2.563  -0.209  0.00  0.00    -0.113 N 
ATOM     13  O   UNL d   1       2.382   2.454  -0.167  0.00  0.00    -0.532 OA
ATOM     14  O   UNL d   1       0.558   3.635  -0.425  0.00  0.00    -0.532 OA
ENDBRANCH   7  12
ENDBRANCH   4   6
ENDBRANCH   1   4
BRANCH   3  15
ATOM     15  C   UNL d   1       4.239  -1.891   3.150  0.00  0.00     0.196 C 
BRANCH  15  16
ATOM     16  C   UNL d   1       3.361  -3.107   3.232  0.00  0.00     0.266 C 
ATOM     17  O   UNL d   1       3.469  -4.076   2.493  0.00  0.00    -0.265 OA
BRANCH  16  18
ATOM     18  O   UNL d   1       2.467  -2.993   4.255  0.00  0.00    -0.322 OA
BRANCH  18  19
ATOM     19  C   UNL d   1       1.567  -4.100   4.420  0.00  0.00     0.174 C 
ATOM     20  C   UNL d   1       2.229  -5.204   5.226  0.00  0.00     0.034 C 
ENDBRANCH  18  19
ENDBRANCH  16  18
ENDBRANCH  15  16
ENDBRANCH   3  15
BRANCH   3  21
ATOM     21  O   UNL d   1       4.543   0.213   1.921  0.00  0.00    -0.338 OA
BRANCH  21  22
ATOM     22  C   UNL d   1       5.923   0.248   2.326  0.00  0.00     0.172 C 
ATOM     23  C   UNL d   1       6.448   1.654   2.108  0.00  0.00     0.034 C 
ENDBRANCH  21  22
ENDBRANCH   3  21
TORSDOF 9
