REMARK  6 active torsions:
REMARK  status: ('A' for Active; 'I' for Inactive)
REMARK    1  A    between atoms: C_8  and  C_1 
REMARK    2  A    between atoms: N_5  and  C_4 
REMARK       I    between atoms: C_9  and  N_5 
REMARK    3  A    between atoms: O_15  and  C_8 
REMARK    4  A    between atoms: C_11  and  C_9 
REMARK    5  A    between atoms: N_10  and  C_11 
REMARK    6  A    between atoms: C_20  and  O_15 
ROOT
ATOM      1  C   UNL d   1      -3.167  -3.393   1.733  0.00  0.00     0.117 A 
ATOM      2  N   UNL d   1      -1.905  -3.566   1.170  0.00  0.00    -0.331 N 
ATOM      3  HN  UNL d   1      -1.575  -4.427   0.734  1.00  0.00     0.168 HD
ATOM      4  C   UNL d   1      -1.202  -2.470   1.279  0.00  0.00     0.151 A 
ATOM      5  S   UNL d   1      -1.995  -1.137   1.987  0.00  0.00    -0.063 SA
ATOM      6  C   UNL d   1      -3.378  -2.127   2.252  0.00  0.00     0.089 A 
ENDROOT
BRANCH   4   7
ATOM      7  N   UNL d   1       0.104  -2.258   0.936  0.00  0.00    -0.306 N 
ATOM      8  C   UNL d   1       0.937  -3.310   0.635  0.00  0.00     0.252 C 
ATOM      9  O   UNL d   1       0.608  -4.490   0.525  0.00  0.00    -0.271 OA
ATOM     10  H   UNL d   1       0.510  -1.343   1.071  0.00  0.00     0.171 HD
BRANCH   8  11
ATOM     11  C   UNL d   1       2.395  -2.929   0.381  0.00  0.00     0.375 C 
BRANCH  11  12
ATOM     12  N   UNL d   1       2.859  -1.679   1.045  0.00  0.00     0.101 N 
ATOM     13  C   UNL d   1       2.838  -1.784   2.526  0.00  0.00     0.299 C 
ATOM     14  C   UNL d   1       3.464  -0.529   3.160  0.00  0.00     0.198 C 
ATOM     15  O   UNL d   1       4.839  -0.402   2.780  0.00  0.00    -0.388 OA
ATOM     16  C   UNL d   1       4.952  -0.296   1.357  0.00  0.00     0.198 C 
ATOM     17  C   UNL d   1       4.288  -1.487   0.650  0.00  0.00     0.299 C 
ENDBRANCH  11  12
ENDBRANCH   8  11
ENDBRANCH   4   7
BRANCH   1  18
ATOM     18  C   UNL d   1      -4.145  -4.482   1.800  0.00  0.00     0.310 C 
ATOM     19  O   UNL d   1      -5.241  -4.365   2.346  0.00  0.00    -0.258 OA
BRANCH  18  20
ATOM     20  O   UNL d   1      -3.685  -5.630   1.232  0.00  0.00    -0.317 OA
BRANCH  20  21
ATOM     21  C   UNL d   1      -4.490  -6.803   1.409  0.00  0.00     0.175 C 
ATOM     22  C   UNL d   1      -4.195  -7.424   2.762  0.00  0.00     0.034 C 
ENDBRANCH  20  21
ENDBRANCH  18  20
ENDBRANCH   1  18
TORSDOF 6
