REMARK  3 active torsions:
REMARK  status: ('A' for Active; 'I' for Inactive)
REMARK    1  A    between atoms: C_11  and  C_3 
REMARK    2  A    between atoms: O_15  and  C_11 
REMARK    3  A    between atoms: C_17  and  O_15 
ROOT
ATOM      1  C   UNL d   1      -1.535  -0.768  -0.009  0.00  0.00     0.148 A 
ATOM      2  N   UNL d   1      -1.553   0.615   0.039  0.00  0.00    -0.203 N 
ATOM      3  C   UNL d   1      -2.846  -1.191  -0.011  0.00  0.00     0.102 A 
ATOM      4  C   UNL d   1      -0.407   1.431   0.067  0.00  0.00     0.276 A 
ATOM      5  C   UNL d   1       0.885   0.670   0.036  0.00  0.00     0.034 A 
ATOM      6  N   UNL d   1      -0.335  -1.392  -0.047  0.00  0.00    -0.343 N 
ATOM      7  N   UNL d   1      -2.821   1.107   0.045  0.00  0.00    -0.300 N 
ATOM      8  HN  UNL d   1      -3.117   2.083   0.067  1.00  0.00     0.186 HD
ATOM      9  C   UNL d   1       0.856  -0.682  -0.018  0.00  0.00     0.022 A 
ATOM     10  C   UNL d   1      -3.586   0.014   0.015  0.00  0.00     0.129 A 
ATOM     11  O   UNL d   1      -0.485   2.650   0.116  0.00  0.00    -0.266 OA
ATOM     12  C   UNL d   1       2.147   1.487   0.049  0.00  0.00     0.046 C 
ATOM     13  C   UNL d   1       2.136  -1.490  -0.036  0.00  0.00     0.058 C 
ATOM     14  C   UNL d   1       3.376   0.672  -0.356  0.00  0.00     0.005 C 
ATOM     15  C   UNL d   1       3.377  -0.679   0.349  0.00  0.00     0.006 C 
ATOM     16  H   UNL d   1      -0.269  -2.412  -0.091  0.00  0.00     0.167 HD
ENDROOT
BRANCH   3  17
ATOM     17  C   UNL d   1      -3.340  -2.544  -0.088  0.00  0.00     0.298 C 
ATOM     18  O   UNL d   1      -2.605  -3.525  -0.170  0.00  0.00    -0.259 OA
BRANCH  17  19
ATOM     19  O   UNL d   1      -4.701  -2.584  -0.171  0.00  0.00    -0.318 OA
BRANCH  19  20
ATOM     20  C   UNL d   1      -5.236  -3.747  -0.817  0.00  0.00     0.174 C 
ATOM     21  C   UNL d   1      -5.234  -3.480  -2.312  0.00  0.00     0.034 C 
ENDBRANCH  19  20
ENDBRANCH  17  19
ENDBRANCH   3  17
TORSDOF 3
