REMARK  1 active torsions:
REMARK  status: ('A' for Active; 'I' for Inactive)
REMARK    1  A    between atoms: C_10  and  N_2 
ROOT
ATOM      1  C   UNL d   1      -2.429  -0.014   0.104  0.00  0.00     0.332 A 
ATOM      2  N   UNL d   1      -1.594  -1.161  -0.007  0.00  0.00    -0.262 N 
ATOM      3  C   UNL d   1      -0.251  -0.735  -0.058  0.00  0.00     0.072 A 
ATOM      4  N   UNL d   1      -1.572   1.101   0.043  0.00  0.00    -0.306 N 
ATOM      5  C   UNL d   1      -0.257   0.662  -0.036  0.00  0.00     0.065 A 
ATOM      6  C   UNL d   1       0.939  -1.434  -0.021  0.00  0.00     0.058 A 
ATOM      7  C   UNL d   1       0.894   1.418  -0.035  0.00  0.00     0.057 A 
ATOM      8  C   UNL d   1       2.131  -0.693  -0.008  0.00  0.00     0.058 A 
ATOM      9  C   UNL d   1       2.108   0.722  -0.024  0.00  0.00     0.058 A 
ATOM     10  O   UNL d   1      -3.642   0.052   0.207  0.00  0.00    -0.246 OA
ATOM     11 CL   UNL d   1       3.612  -1.584   0.058  0.00  0.00    -0.082 Cl
ATOM     12 CL   UNL d   1       3.560   1.661  -0.000  0.00  0.00    -0.082 Cl
ATOM     13  H   UNL d   1      -1.903   2.051   0.095  0.00  0.00     0.171 HD
ENDROOT
BRANCH   2  14
ATOM     14  C   UNL d   1      -2.021  -2.500  -0.006  0.00  0.00     0.047 A 
ATOM     15  C   UNL d   1      -1.446  -3.446  -0.858  0.00  0.00     0.047 A 
ATOM     16  C   UNL d   1      -1.922  -4.746  -0.823  0.00  0.00     0.090 A 
ATOM     17  N   UNL d   1      -2.899  -5.164   0.006  0.00  0.00    -0.375 N 
ATOM     18  C   UNL d   1      -3.451  -4.231   0.810  0.00  0.00     0.090 A 
ATOM     19  HN  UNL d   1      -3.205  -6.136   0.026  1.00  0.00     0.164 HD
ATOM     20  C   UNL d   1      -3.067  -2.901   0.824  0.00  0.00     0.047 A 
ENDBRANCH   2  14
TORSDOF 1
