REMARK  7 active torsions:
REMARK  status: ('A' for Active; 'I' for Inactive)
REMARK    1  A    between atoms: C_14  and  N_5 
REMARK    2  A    between atoms: N_13  and  C_7 
REMARK    3  A    between atoms: C_16  and  C_14 
REMARK    4  A    between atoms: N_15  and  C_16 
REMARK    5  A    between atoms: C_17  and  N_15 
REMARK    6  A    between atoms: C_18  and  C_17 
REMARK    7  A    between atoms: C_19  and  C_18 
ROOT
ATOM      1  C   UNL d   1       0.731  -0.898  -0.507  0.00  0.00     0.116 A 
ATOM      2  N   UNL d   1       0.759  -0.844   0.872  0.00  0.00    -0.346 N 
ATOM      3  HN  UNL d   1       0.480  -1.573   1.529  1.00  0.00     0.167 HD
ATOM      4  C   UNL d   1       1.204   0.285  -1.056  0.00  0.00     0.140 A 
ATOM      5  N   UNL d   1       1.497   1.075   0.020  0.00  0.00    -0.326 N 
ATOM      6  C   UNL d   1       1.227   0.354   1.153  0.00  0.00     0.185 A 
ATOM      7  C   UNL d   1       0.330  -1.895  -1.411  0.00  0.00     0.109 A 
ATOM      8  N   UNL d   1       1.331   0.584  -2.359  0.00  0.00    -0.336 N 
ATOM      9  HN  UNL d   1       1.675   1.474  -2.719  1.00  0.00     0.168 HD
ATOM     10  N   UNL d   1       0.462  -1.657  -2.737  0.00  0.00    -0.341 N 
ATOM     11  HN  UNL d   1       0.207  -2.367  -3.424  1.00  0.00     0.167 HD
ATOM     12  C   UNL d   1       0.941  -0.455  -3.127  0.00  0.00     0.183 A 
ENDROOT
BRANCH   5  13
ATOM     13  C   UNL d   1       1.981   2.440  -0.023  0.00  0.00     0.161 C 
BRANCH  13  14
ATOM     14  C   UNL d   1       0.824   3.443  -0.038  0.00  0.00     0.289 C 
BRANCH  14  15
ATOM     15  N   UNL d   1       1.308   4.831  -0.025  0.00  0.00     0.085 N 
ATOM     16  H   UNL d   1       1.873   5.006  -0.857  0.00  0.00     0.315 HD
BRANCH  15  17
ATOM     17  C   UNL d   1       0.175   5.764  -0.014  0.00  0.00     0.269 C 
BRANCH  17  18
ATOM     18  C   UNL d   1       0.670   7.212  -0.018  0.00  0.00     0.029 C 
BRANCH  18  19
ATOM     19  C   UNL d   1      -0.510   8.187  -0.018  0.00  0.00    -0.003 C 
ATOM     20  C   UNL d   1      -0.049   9.635  -0.022  0.00  0.00     0.005 C 
ENDBRANCH  18  19
ENDBRANCH  17  18
ENDBRANCH  15  17
ENDBRANCH  14  15
ENDBRANCH  13  14
ENDBRANCH   5  13
BRANCH   7  21
ATOM     21  N   UNL d   1      -0.184  -3.122  -1.011  0.00  0.00    -0.287 NA
ATOM     22  H   UNL d   1       0.053  -3.366  -0.056  0.00  0.00     0.125 HD
ATOM     23  H   UNL d   1      -0.077  -3.833  -1.722  0.00  0.00     0.125 HD
ENDBRANCH   7  21
TORSDOF 7
