REMARK  2 active torsions:
REMARK  status: ('A' for Active; 'I' for Inactive)
REMARK    1  A    between atoms: C_7  and  C_4 
REMARK    2  A    between atoms: C_8  and  C_5 
ROOT
ATOM      1  C   UNL d   1      -1.276  -0.047   0.137  0.00  0.00    -0.007 C 
ATOM      2  C   UNL d   1       1.278   0.043   0.165  0.00  0.00    -0.007 C 
ATOM      3  C   UNL d   1       0.030  -0.767  -0.026  0.00  0.00     0.184 C 
ATOM      4  C   UNL d   1      -2.358  -0.821   0.351  0.00  0.00     0.022 C 
ATOM      5  C   UNL d   1       2.434  -0.644   0.252  0.00  0.00     0.022 C 
ATOM      6  O   UNL d   1       0.073  -1.964  -0.293  0.00  0.00    -0.287 OA
ATOM      7  C   UNL d   1       1.167   1.539   0.242  0.00  0.00     0.043 C 
ATOM      8  C   UNL d   1      -1.315   1.453   0.055  0.00  0.00     0.043 C 
ATOM      9  C   UNL d   1      -0.041   2.048  -0.529  0.00  0.00     0.009 C 
ENDROOT
BRANCH   4  10
ATOM     10  C   UNL d   1      -3.709  -0.302   0.574  0.00  0.00    -0.035 A 
ATOM     11  C   UNL d   1      -4.577  -0.115  -0.506  0.00  0.00     0.012 A 
ATOM     12  C   UNL d   1      -5.865   0.383  -0.294  0.00  0.00     0.020 A 
ATOM     13  C   UNL d   1      -6.283   0.693   1.000  0.00  0.00     0.011 A 
ATOM     14  C   UNL d   1      -5.424   0.512   2.083  0.00  0.00     0.020 A 
ATOM     15 BR   UNL d   1      -8.028   1.358   1.288  0.00  0.00    -0.051 Br
ATOM     16  C   UNL d   1      -4.136   0.016   1.869  0.00  0.00     0.012 A 
ENDBRANCH   4  10
BRANCH   5  17
ATOM     17  C   UNL d   1       3.736  -0.025   0.510  0.00  0.00    -0.035 A 
ATOM     18  C   UNL d   1       4.171   0.149   1.829  0.00  0.00     0.012 A 
ATOM     19  C   UNL d   1       5.401   0.756   2.090  0.00  0.00     0.020 A 
ATOM     20  C   UNL d   1       6.195   1.188   1.029  0.00  0.00     0.011 A 
ATOM     21  C   UNL d   1       5.770   1.020  -0.288  0.00  0.00     0.020 A 
ATOM     22 BR   UNL d   1       7.861   2.011   1.380  0.00  0.00    -0.051 Br
ATOM     23  C   UNL d   1       4.539   0.411  -0.548  0.00  0.00     0.012 A 
ENDBRANCH   5  17
TORSDOF 2
