REMARK  3 active torsions:
REMARK  status: ('A' for Active; 'I' for Inactive)
REMARK    1  A    between atoms: C_12  and  C_4 
REMARK    2  A    between atoms: C_14  and  C_10 
REMARK    3  A    between atoms: O_26  and  C_20 
ROOT
ATOM      1  N   UNL d   1      -0.529  -0.803   0.051  0.00  0.00    -0.214 N 
ATOM      2  N   UNL d   1       0.440  -1.748   0.281  0.00  0.00    -0.293 N 
ATOM      3  HN  UNL d   1       0.204  -2.686   0.606  1.00  0.00     0.187 HD
ATOM      4  C   UNL d   1      -1.896  -1.022  -0.049  0.00  0.00     0.154 A 
ATOM      5  C   UNL d   1      -0.397   0.561  -0.034  0.00  0.00     0.182 A 
ATOM      6  N   UNL d   1      -2.509   0.151  -0.143  0.00  0.00    -0.281 N 
ATOM      7  HN  UNL d   1      -3.517   0.291  -0.207  1.00  0.00     0.188 HD
ATOM      8  N   UNL d   1      -1.560   1.148  -0.139  0.00  0.00    -0.277 N 
ATOM      9  HN  UNL d   1      -1.731   2.151  -0.206  1.00  0.00     0.189 HD
ATOM     10  C   UNL d   1       1.678  -1.392   0.065  0.00  0.00     0.046 C 
ATOM     11  S   UNL d   1       1.152   1.310   0.050  0.00  0.00    -0.085 SA
ATOM     12  C   UNL d   1       2.111  -0.082  -0.583  0.00  0.00     0.142 C 
ENDROOT
BRANCH  10  13
ATOM     13  C   UNL d   1       2.752  -2.376   0.409  0.00  0.00    -0.011 A 
ATOM     14  C   UNL d   1       3.950  -2.437  -0.311  0.00  0.00     0.016 A 
ATOM     15  C   UNL d   1       4.954  -3.338   0.064  0.00  0.00     0.037 A 
ATOM     16  C   UNL d   1       4.762  -4.191   1.151  0.00  0.00     0.068 A 
ATOM     17  C   UNL d   1       3.563  -4.136   1.863  0.00  0.00     0.037 A 
ATOM     18  C   UNL d   1       2.554  -3.245   1.488  0.00  0.00     0.016 A 
BRANCH  16  19
ATOM     19  O   UNL d   1       5.685  -5.078   1.631  0.00  0.00    -0.356 OA
ATOM     20  C   UNL d   1       6.622  -5.574   0.682  0.00  0.00     0.210 C 
ENDBRANCH  16  19
ENDBRANCH  10  13
BRANCH   4  21
ATOM     21  C   UNL d   1      -2.561  -2.329  -0.052  0.00  0.00     0.011 A 
ATOM     22  C   UNL d   1      -3.869  -2.435   0.447  0.00  0.00     0.017 A 
ATOM     23  C   UNL d   1      -4.539  -3.663   0.445  0.00  0.00     0.025 A 
ATOM     24  C   UNL d   1      -3.908  -4.794  -0.064  0.00  0.00     0.034 A 
ATOM     25  C   UNL d   1      -2.617  -4.707  -0.576  0.00  0.00     0.025 A 
ATOM     26 CL   UNL d   1      -4.727  -6.306  -0.070  0.00  0.00    -0.084 Cl
ATOM     27  C   UNL d   1      -1.950  -3.478  -0.573  0.00  0.00     0.017 A 
ENDBRANCH   4  21
TORSDOF 3
