REMARK  5 active torsions:
REMARK  status: ('A' for Active; 'I' for Inactive)
REMARK    1  A    between atoms: S_10  and  C_4 
REMARK    2  A    between atoms: S_12  and  C_4 
REMARK    3  A    between atoms: C_7  and  C_6 
REMARK    4  A    between atoms: C_9  and  C_7 
REMARK    5  A    between atoms: C_8  and  S_10 
ROOT
ATOM      1  N   UNL d   1       6.481   4.037   2.307  0.00  0.00    -0.282 N 
ATOM      2  HN  UNL d   1       5.867   4.145   3.115  1.00  0.00     0.179 HD
ATOM      3  C   UNL d   1       7.687   4.614   2.293  0.00  0.00     0.183 C 
ATOM      4  C   UNL d   1       6.101   3.343   1.289  0.00  0.00     0.120 C 
ATOM      5  N   UNL d   1       8.729   5.119   2.297  0.00  0.00    -0.172 NA
ENDROOT
BRANCH   4   6
ATOM      6  S   UNL d   1       4.556   2.491   1.330  0.00  0.00    -0.076 SA
BRANCH   6   7
ATOM      7  C   UNL d   1       3.574   3.390   2.442  0.00  0.00     0.056 C 
ATOM      8  C   UNL d   1       2.353   2.943   2.770  0.00  0.00     0.063 C 
BRANCH   8   9
ATOM      9  C   UNL d   1       1.489   3.727   3.692  0.00  0.00     0.182 C 
ATOM     10  O   UNL d   1       1.682   4.919   3.898  0.00  0.00    -0.288 OA
BRANCH   9  11
ATOM     11  C   UNL d   1       0.337   3.022   4.322  0.00  0.00     0.014 A 
ATOM     12  C   UNL d   1       0.392   1.662   4.650  0.00  0.00     0.016 A 
ATOM     13  C   UNL d   1      -0.703   1.042   5.259  0.00  0.00     0.007 A 
ATOM     14  C   UNL d   1      -1.863   1.770   5.552  0.00  0.00    -0.062 A 
ATOM     15  C   UNL d   1      -1.911   3.132   5.232  0.00  0.00     0.007 A 
ATOM     16  C   UNL d   1      -3.026   1.086   6.210  0.00  0.00     0.048 C 
ATOM     17  C   UNL d   1      -0.815   3.757   4.627  0.00  0.00     0.016 A 
ENDBRANCH   9  11
ENDBRANCH   8   9
ENDBRANCH   6   7
ENDBRANCH   4   6
BRANCH   4  18
ATOM     18  S   UNL d   1       7.036   3.047  -0.172  0.00  0.00    -0.109 SA
ATOM     19  C   UNL d   1       6.031   3.936  -1.381  0.00  0.00     0.097 C 
ENDBRANCH   4  18
TORSDOF 5
