REMARK  4 active torsions:
REMARK  status: ('A' for Active; 'I' for Inactive)
REMARK    1  A    between atoms: S_11  and  C_1 
REMARK    2  A    between atoms: N_2  and  C_8 
REMARK    3  A    between atoms: C_15  and  S_11 
REMARK    4  A    between atoms: C_16  and  C_15 
ROOT
ATOM      1  C   UNL d   1      -4.303  -2.958   0.394  0.00  0.00     0.113 A 
ATOM      2  N   UNL d   1      -5.611  -3.053   0.417  0.00  0.00    -0.344 N 
ATOM      3  HN  UNL d   1      -6.256  -2.269   0.520  1.00  0.00     0.167 HD
ATOM      4  S   UNL d   1      -3.443  -4.427   0.211  0.00  0.00    -0.063 SA
ATOM      5  C   UNL d   1      -4.930  -5.288   0.134  0.00  0.00     0.036 A 
ATOM      6  C   UNL d   1      -5.984  -4.381   0.279  0.00  0.00     0.050 A 
ATOM      7  C   UNL d   1      -6.468  -7.124  -0.071  0.00  0.00     0.104 A 
ATOM      8  C   UNL d   1      -5.141  -6.667  -0.042  0.00  0.00     0.057 A 
ATOM      9  C   UNL d   1      -7.306  -4.875   0.268  0.00  0.00     0.033 A 
ATOM     10  C   UNL d   1      -7.543  -6.245   0.091  0.00  0.00     0.038 A 
ENDROOT
BRANCH   1  11
ATOM     11  S   UNL d   1      -3.466  -1.435   0.565  0.00  0.00    -0.100 SA
BRANCH  11  12
ATOM     12  C   UNL d   1      -4.713  -0.266  -0.058  0.00  0.00     0.120 C 
BRANCH  12  13
ATOM     13  C   UNL d   1      -4.107   1.109  -0.237  0.00  0.00    -0.049 A 
ATOM     14  C   UNL d   1      -3.202   1.358  -1.279  0.00  0.00     0.008 A 
ATOM     15  C   UNL d   1      -2.568   2.598  -1.395  0.00  0.00     0.007 A 
ATOM     16  C   UNL d   1      -2.841   3.621  -0.481  0.00  0.00    -0.062 A 
ATOM     17  C   UNL d   1      -3.762   3.385   0.545  0.00  0.00     0.007 A 
ATOM     18  C   UNL d   1      -2.087   4.916  -0.550  0.00  0.00     0.048 C 
ATOM     19  C   UNL d   1      -4.394   2.143   0.665  0.00  0.00     0.008 A 
ENDBRANCH  12  13
ENDBRANCH  11  12
ENDBRANCH   1  11
BRANCH   7  20
ATOM     20  N   UNL d   1      -6.727  -8.556  -0.289  0.00  0.00    -0.116 N 
ATOM     21  O   UNL d   1      -5.750  -9.299  -0.456  0.00  0.00    -0.532 OA
ATOM     22  O   UNL d   1      -7.908  -8.933  -0.298  0.00  0.00    -0.532 OA
ENDBRANCH   7  20
TORSDOF 4
