REMARK  5 active torsions:
REMARK  status: ('A' for Active; 'I' for Inactive)
REMARK    1  A    between atoms: C_2  and  C_1 
REMARK    2  A    between atoms: C_3  and  C_1 
REMARK    3  A    between atoms: S_4  and  C_2 
REMARK    4  A    between atoms: O_8  and  C_3 
REMARK    5  A    between atoms: C_6  and  S_4 
ROOT
ATOM      1  C   UNL d   1       0.462  -1.085   1.004  0.00  0.00     0.015 C 
ATOM      2  C   UNL d   1       0.833  -0.994   2.491  0.00  0.00     0.027 C 
ATOM      3  C   UNL d   1      -1.072  -1.027   0.877  0.00  0.00     0.027 C 
ENDROOT
BRANCH   1   4
ATOM      4  C   UNL d   1       1.136   0.016   0.166  0.00  0.00     0.130 C 
BRANCH   4   5
ATOM      5  C   UNL d   1       0.714   1.411   0.562  0.00  0.00     0.140 C 
ATOM      6  O   UNL d   1      -0.281   1.971   0.130  0.00  0.00    -0.650 OA
BRANCH   5   7
ATOM      7  O   UNL d   1       1.532   1.994   1.466  0.00  0.00    -0.776 OA
ATOM      8  H   UNL d   1       2.301   1.456   1.734  0.00  0.00     0.167 HD
ENDBRANCH   5   7
ENDBRANCH   4   5
ENDBRANCH   1   4
BRANCH   1   9
ATOM      9  S   UNL d   1       0.934  -2.756   0.306  0.00  0.00    -0.120 SA
BRANCH   9  10
ATOM     10  C   UNL d   1       2.669  -2.897   0.684  0.00  0.00     0.001 A 
ATOM     11  C   UNL d   1       3.077  -3.466   1.895  0.00  0.00     0.020 A 
ATOM     12  C   UNL d   1       4.436  -3.633   2.176  0.00  0.00     0.025 A 
ATOM     13  C   UNL d   1       5.389  -3.249   1.236  0.00  0.00     0.034 A 
ATOM     14  C   UNL d   1       4.994  -2.706   0.015  0.00  0.00     0.025 A 
ATOM     15 CL   UNL d   1       7.061  -3.460   1.579  0.00  0.00    -0.084 Cl
ATOM     16  C   UNL d   1       3.634  -2.537  -0.263  0.00  0.00     0.020 A 
ENDBRANCH   9  10
ENDBRANCH   1   9
TORSDOF 5
