REMARK  2 active torsions:
REMARK  status: ('A' for Active; 'I' for Inactive)
REMARK    1  A    between atoms: C_8  and  C_3 
REMARK    2  A    between atoms: C_9  and  C_8 
ROOT
ATOM      1  N   UNL d   1       1.443  -0.560   0.014  0.00  0.00    -0.325 N 
ATOM      2  HN  UNL d   1       2.384  -0.954  -0.001  1.00  0.00     0.169 HD
ATOM      3  C   UNL d   1       1.139   0.795   0.034  0.00  0.00     0.096 A 
ATOM      4  C   UNL d   1       0.328  -1.255   0.018  0.00  0.00     0.162 A 
ATOM      5  N   UNL d   1      -0.137   1.182   0.045  0.00  0.00    -0.313 N 
ATOM      6  HN  UNL d   1      -0.485   2.141   0.056  1.00  0.00     0.175 HD
ATOM      7  S   UNL d   1      -1.054  -0.215   0.038  0.00  0.00     0.024 SA
ATOM      8  N   UNL d   1       0.234  -2.597   0.005  0.00  0.00    -0.374 N 
ATOM      9  C   UNL d   1       1.409  -3.434   0.019  0.00  0.00     0.148 C 
ATOM     10  H   UNL d   1      -0.669  -3.055   0.033  0.00  0.00     0.161 HD
ENDROOT
BRANCH   3  11
ATOM     11  C   UNL d   1       2.244   1.784   0.007  0.00  0.00     0.154 C 
BRANCH  11  12
ATOM     12  C   UNL d   1       2.680   2.168   1.399  0.00  0.00     0.130 C 
ATOM     13  O   UNL d   1       2.671   3.344   1.771  0.00  0.00    -0.298 OA
ATOM     14  C   UNL d   1       3.223   1.095   2.310  0.00  0.00     0.091 C 
ENDBRANCH  11  12
ENDBRANCH   3  11
TORSDOF 2
