REMARK  6 active torsions:
REMARK  status: ('A' for Active; 'I' for Inactive)
REMARK    1  A    between atoms: C_13  and  N_3 
REMARK    2  A    between atoms: C_11  and  C_4 
REMARK    3  A    between atoms: C_10  and  C_5 
REMARK    4  A    between atoms: C_7  and  N_14 
REMARK    5  A    between atoms: N_17  and  C_7 
REMARK    6  A    between atoms: N_14  and  N_8 
ROOT
ATOM      1  N   UNL d   1       0.908  -0.610   0.125  0.00  0.00    -0.292 N 
ATOM      2  HN  UNL d   1       1.727  -1.208   0.239  1.00  0.00     0.187 HD
ATOM      3  N   UNL d   1      -0.384  -1.007   0.003  0.00  0.00    -0.266 N 
ATOM      4  C   UNL d   1      -0.449   1.209  -0.035  0.00  0.00     0.027 A 
ATOM      5  C   UNL d   1       0.888   0.731   0.065  0.00  0.00     0.072 A 
ATOM      6  C   UNL d   1      -1.224   0.072  -0.107  0.00  0.00     0.132 A 
ENDROOT
BRANCH   4   7
ATOM      7  C   UNL d   1      -0.945   2.563  -0.057  0.00  0.00     0.122 C 
ATOM      8  N   UNL d   1      -2.072   2.798  -0.643  0.00  0.00    -0.309 N 
ATOM      9  HN  UNL d   1      -2.630   2.059  -1.070  1.00  0.00     0.186 HD
BRANCH   8  10
ATOM     10  N   UNL d   1      -2.462   4.109  -0.650  0.00  0.00    -0.277 N 
ATOM     11  H   UNL d   1      -1.926   4.819  -0.160  0.00  0.00     0.189 HD
BRANCH  10  12
ATOM     12  C   UNL d   1      -3.572   4.505  -1.343  0.00  0.00     0.184 C 
ATOM     13  S   UNL d   1      -4.071   6.085  -1.385  0.00  0.00    -0.040 SA
BRANCH  12  14
ATOM     14  N   UNL d   1      -4.231   3.522  -1.998  0.00  0.00    -0.375 N 
ATOM     15  H   UNL d   1      -3.817   2.597  -1.979  0.00  0.00     0.158 HD
ATOM     16  H   UNL d   1      -5.032   3.717  -2.579  0.00  0.00     0.158 HD
ENDBRANCH  12  14
ENDBRANCH  10  12
ENDBRANCH   8  10
ENDBRANCH   4   7
BRANCH   5  17
ATOM     17  C   UNL d   1       2.136   1.505   0.094  0.00  0.00    -0.007 A 
ATOM     18  C   UNL d   1       3.247   1.034   0.811  0.00  0.00     0.015 A 
ATOM     19  C   UNL d   1       4.431   1.778   0.866  0.00  0.00     0.024 A 
ATOM     20  C   UNL d   1       4.514   3.000   0.203  0.00  0.00     0.034 A 
ATOM     21  C   UNL d   1       3.432   3.472  -0.534  0.00  0.00     0.024 A 
ATOM     22 CL   UNL d   1       5.958   3.929   0.287  0.00  0.00    -0.084 Cl
ATOM     23  C   UNL d   1       2.255   2.720  -0.602  0.00  0.00     0.015 A 
ENDBRANCH   5  17
BRANCH   3  24
ATOM     24  C   UNL d   1      -0.742  -2.386   0.014  0.00  0.00     0.056 A 
ATOM     25  C   UNL d   1       0.255  -3.361   0.169  0.00  0.00     0.031 A 
ATOM     26  C   UNL d   1      -0.083  -4.716   0.187  0.00  0.00     0.002 A 
ATOM     27  C   UNL d   1      -1.413  -5.109   0.047  0.00  0.00     0.000 A 
ATOM     28  C   UNL d   1      -2.409  -4.147  -0.109  0.00  0.00     0.002 A 
ATOM     29  C   UNL d   1      -2.079  -2.789  -0.126  0.00  0.00     0.031 A 
ENDBRANCH   3  24
TORSDOF 6
