REMARK  4 active torsions:
REMARK  status: ('A' for Active; 'I' for Inactive)
REMARK    1  A    between atoms: C_2  and  C_1 
REMARK       I    between atoms: N_6  and  C_2 
REMARK    2  A    between atoms: C_3  and  C_5 
REMARK    3  A    between atoms: C_4  and  C_7 
REMARK    4  A    between atoms: C_19  and  N_6 
ROOT
ATOM      1  C   UNL d   1       1.194   2.572  -0.206  0.00  0.00     0.258 C 
ATOM      2  N   UNL d   1       0.433   3.720  -0.090  0.00  0.00    -0.323 N 
ATOM      3  O   UNL d   1       0.745   1.429  -0.140  0.00  0.00    -0.267 OA
ATOM      4  H   UNL d   1       0.834   4.603  -0.378  0.00  0.00     0.169 HD
ENDROOT
BRANCH   1   5
ATOM      5  C   UNL d   1       2.675   2.709  -0.360  0.00  0.00     0.062 A 
ATOM      6  C   UNL d   1       3.419   3.728  -0.974  0.00  0.00     0.066 A 
ATOM      7  C   UNL d   1       4.831   3.663  -0.906  0.00  0.00     0.034 A 
ATOM      8  C   UNL d   1       5.446   2.588  -0.291  0.00  0.00     0.088 A 
ATOM      9  N   UNL d   1       4.760   1.577   0.259  0.00  0.00    -0.374 N 
ATOM     10  C   UNL d   1       3.406   1.658   0.210  0.00  0.00     0.105 A 
ATOM     11  HN  UNL d   1       5.232   0.785   0.694  1.00  0.00     0.164 HD
BRANCH   6  12
ATOM     12  C   UNL d   1       2.862   4.895  -1.733  0.00  0.00     0.418 C 
ATOM     13  F   UNL d   1       1.531   4.840  -1.988  0.00  0.00    -0.166 F 
ATOM     14  F   UNL d   1       3.049   6.065  -1.061  0.00  0.00    -0.166 F 
ATOM     15  F   UNL d   1       3.459   5.063  -2.945  0.00  0.00    -0.166 F 
ENDBRANCH   6  12
ENDBRANCH   1   5
BRANCH   2  16
ATOM     16  C   UNL d   1      -0.921   3.799   0.309  0.00  0.00     0.035 A 
ATOM     17  C   UNL d   1      -1.611   2.749   0.918  0.00  0.00     0.030 A 
ATOM     18  C   UNL d   1      -2.917   2.931   1.389  0.00  0.00     0.018 A 
ATOM     19  C   UNL d   1      -3.562   4.166   1.254  0.00  0.00     0.048 A 
ATOM     20  C   UNL d   1      -2.887   5.206   0.601  0.00  0.00     0.018 A 
ATOM     21  C   UNL d   1      -1.576   5.025   0.141  0.00  0.00     0.030 A 
BRANCH  19  22
ATOM     22  C   UNL d   1      -4.939   4.395   1.828  0.00  0.00     0.417 C 
ATOM     23  F   UNL d   1      -5.451   3.310   2.474  0.00  0.00    -0.166 F 
ATOM     24  F   UNL d   1      -4.955   5.408   2.739  0.00  0.00    -0.166 F 
ATOM     25  F   UNL d   1      -5.856   4.733   0.880  0.00  0.00    -0.166 F 
ENDBRANCH  19  22
ENDBRANCH   2  16
TORSDOF 4
