REMARK  4 active torsions:
REMARK  status: ('A' for Active; 'I' for Inactive)
REMARK    1  A    between atoms: C4_7  and  N1_1 
REMARK    2  A    between atoms: C1_3  and  C3_6 
REMARK    3  A    between atoms: C2_4  and  C6_10 
REMARK    4  A    between atoms: O4_17  and  C3_6 
ROOT
ATOM      1  N2  <1> d   1      -2.088   4.558  -0.576  0.00  0.00     0.117 N 
ATOM      2  C1  <1> d   1      -1.036   5.007  -1.559  0.00  0.00     0.328 C 
ATOM      3  C2  <1> d   1      -1.462   4.549   0.767  0.00  0.00     0.316 C 
ATOM      4  S1  <1> d   1      -0.480   6.063   0.802  0.00  0.00    -0.126 SA
ATOM      5  C5  <1> d   1       0.036   5.880  -0.914  0.00  0.00     0.123 C 
ATOM      6  H3  <1> d   1      -2.758   5.332  -0.520  0.00  0.00     0.319 HD
ENDROOT
BRANCH   3   7
ATOM      7  C6  <1> d   1      -0.726   3.256   1.118  0.00  0.00    -0.015 A 
ATOM      8  C10 <1> d   1       0.418   3.241   1.941  0.00  0.00     0.012 A 
ATOM      9  C8  <1> d   1       0.970   2.040   2.407  0.00  0.00     0.037 A 
ATOM     10  C4  <1> d   1       0.374   0.826   2.058  0.00  0.00     0.102 A 
ATOM     11  C7  <1> d   1      -0.735   0.805   1.209  0.00  0.00     0.037 A 
ATOM     12  C9  <1> d   1      -1.283   2.011   0.760  0.00  0.00     0.012 A 
BRANCH  10  13
ATOM     13  N1  <1> d   1       0.867  -0.425   2.646  0.00  0.00    -0.116 N 
ATOM     14  O1  <1> d   1       0.263  -1.471   2.367  0.00  0.00    -0.532 OA
ATOM     15  O2  <1> d   1       1.841  -0.360   3.411  0.00  0.00    -0.532 OA
ENDBRANCH  10  13
ENDBRANCH   3   7
BRANCH   2  16
ATOM     16  C3  <1> d   1      -0.457   3.781  -2.269  0.00  0.00     0.175 C 
ATOM     17  O3  <1> d   1       0.651   3.703  -2.764  0.00  0.00    -0.648 OA
BRANCH  16  18
ATOM     18  O4  <1> d   1      -1.389   2.792  -2.367  0.00  0.00    -0.775 OA
ATOM     19  H10 <1> d   1      -2.167   3.084  -1.837  0.00  0.00     0.167 HD
ENDBRANCH  16  18
ENDBRANCH   2  16
TORSDOF 4
