REMARK  4 active torsions:
REMARK  status: ('A' for Active; 'I' for Inactive)
REMARK    1  A    between atoms: C_3  and  C_2 
REMARK    2  A    between atoms: C_7  and  C_3 
REMARK    3  A    between atoms: C_5  and  N_8 
REMARK    4  A    between atoms: N_8  and  C_6 
ROOT
ATOM      1  C   UNL d   1      -4.931  -2.167  -0.090  0.00  0.00     0.072 C 
ATOM      2  C   UNL d   1      -3.795  -1.488   0.106  0.00  0.00     0.092 C 
ENDROOT
BRANCH   2   3
ATOM      3  N   UNL d   1      -2.507  -1.957   0.051  0.00  0.00    -0.364 N 
ATOM      4  H   UNL d   1      -2.357  -2.866  -0.383  0.00  0.00     0.165 HD
BRANCH   3   5
ATOM      5  C   UNL d   1      -1.328  -1.246   0.366  0.00  0.00     0.054 A 
ATOM      6  C   UNL d   1      -0.093  -1.592  -0.221  0.00  0.00     0.062 A 
ATOM      7  C   UNL d   1       1.070  -0.858   0.035  0.00  0.00     0.050 A 
ATOM      8 CL   UNL d   1       0.021  -2.942  -1.301  0.00  0.00    -0.082 Cl
ATOM      9  C   UNL d   1       1.013   0.236   0.892  0.00  0.00     0.035 A 
ATOM     10 CL   UNL d   1       2.434   1.150   1.213  0.00  0.00    -0.084 Cl
ATOM     11  C   UNL d   1      -0.188   0.599   1.492  0.00  0.00     0.026 A 
ATOM     12  C   UNL d   1      -1.348  -0.135   1.226  0.00  0.00     0.033 A 
ENDBRANCH   3   5
ENDBRANCH   2   3
BRANCH   1  13
ATOM     13  C   UNL d   1      -6.217  -1.420  -0.020  0.00  0.00     0.183 C 
ATOM     14  O   UNL d   1      -6.263  -0.203  -0.176  0.00  0.00    -0.288 OA
BRANCH  13  15
ATOM     15  C   UNL d   1      -7.473  -2.175   0.224  0.00  0.00     0.014 A 
ATOM     16  C   UNL d   1      -7.501  -3.365   0.962  0.00  0.00     0.017 A 
ATOM     17  C   UNL d   1      -8.723  -3.997   1.222  0.00  0.00     0.025 A 
ATOM     18  C   UNL d   1      -9.912  -3.441   0.749  0.00  0.00     0.034 A 
ATOM     19  C   UNL d   1      -9.894  -2.257   0.016  0.00  0.00     0.025 A 
ATOM     20 CL   UNL d   1     -11.411  -4.212   1.091  0.00  0.00    -0.084 Cl
ATOM     21  C   UNL d   1      -8.676  -1.622  -0.242  0.00  0.00     0.017 A 
ENDBRANCH  13  15
ENDBRANCH   1  13
TORSDOF 4
