REMARK  12 active torsions:
REMARK  status: ('A' for Active; 'I' for Inactive)
REMARK    1  A    between atoms: C_2  and  C_1 
REMARK    2  A    between atoms: C_12  and  N_3 
REMARK    3  A    between atoms: C_11  and  N_4 
REMARK    4  A    between atoms: O_26  and  C_5 
REMARK    5  A    between atoms: O_27  and  C_6 
REMARK    6  A    between atoms: O_28  and  C_7 
REMARK    7  A    between atoms: O_29  and  C_8 
REMARK    8  A    between atoms: O_31  and  C_9 
REMARK    9  A    between atoms: O_30  and  C_10 
REMARK   10  A    between atoms: C_13  and  C_11 
REMARK   11  A    between atoms: C_14  and  C_12 
REMARK   12  A    between atoms: O_33  and  C_15 
ROOT
ATOM      1  C   UNL d   1      -0.018   1.446   0.145  0.00  0.00     0.493 C 
ATOM      2  N   UNL d   1      -1.237   0.701  -0.280  0.00  0.00     0.131 N 
ATOM      3  N   UNL d   1       1.232   0.731  -0.221  0.00  0.00     0.131 N 
ATOM      4  C   UNL d   1      -1.234  -0.650   0.335  0.00  0.00     0.278 C 
ATOM      5  C   UNL d   1       1.252  -0.578   0.440  0.00  0.00     0.278 C 
ATOM      6  C   UNL d   1       0.045  -1.423   0.065  0.00  0.00     0.061 C 
ENDROOT
BRANCH   2   7
ATOM      7  C   UNL d   1      -2.459   1.407   0.200  0.00  0.00     0.314 C 
BRANCH   7   8
ATOM      8  C   UNL d   1      -3.750   0.730  -0.185  0.00  0.00    -0.025 A 
ATOM      9  C   UNL d   1      -4.600   0.213   0.806  0.00  0.00     0.048 A 
ATOM     10  C   UNL d   1      -5.808  -0.424   0.468  0.00  0.00     0.104 A 
ATOM     11  C   UNL d   1      -6.185  -0.555  -0.890  0.00  0.00     0.135 A 
ATOM     12  C   UNL d   1      -5.309  -0.061  -1.884  0.00  0.00     0.104 A 
ATOM     13  C   UNL d   1      -4.119   0.579  -1.517  0.00  0.00     0.048 A 
BRANCH  10  14
ATOM     14  O   UNL d   1      -6.585  -1.010   1.438  0.00  0.00    -0.353 OA
ATOM     15  C   UNL d   1      -6.554  -0.409   2.731  0.00  0.00     0.210 C 
ENDBRANCH  10  14
BRANCH  11  16
ATOM     16  O   UNL d   1      -7.328  -1.159  -1.342  0.00  0.00    -0.351 OA
ATOM     17  C   UNL d   1      -8.420  -1.371  -0.461  0.00  0.00     0.210 C 
ENDBRANCH  11  16
BRANCH  12  18
ATOM     18  O   UNL d   1      -5.418  -0.154  -3.249  0.00  0.00    -0.353 OA
ATOM     19  C   UNL d   1      -6.693  -0.372  -3.829  0.00  0.00     0.210 C 
ENDBRANCH  12  18
ENDBRANCH   7   8
ENDBRANCH   2   7
BRANCH   1  20
ATOM     20  C   UNL d   1      -0.020   2.921  -0.285  0.00  0.00     0.039 A 
ATOM     21  C   UNL d   1      -0.279   3.358  -1.590  0.00  0.00     0.076 A 
ATOM     22  C   UNL d   1      -0.189   4.704  -1.947  0.00  0.00     0.038 A 
ATOM     23  C   UNL d   1       0.056   5.662  -0.966  0.00  0.00     0.022 A 
ATOM     24  C   UNL d   1       0.211   5.264   0.358  0.00  0.00     0.011 A 
ATOM     25  C   UNL d   1       0.204   3.907   0.697  0.00  0.00     0.033 A 
ATOM     26 BR   UNL d   1       0.397   6.566   1.715  0.00  0.00    -0.051 Br
BRANCH  21  27
ATOM     27  O   UNL d   1      -0.693   2.504  -2.578  0.00  0.00    -0.360 OA
ATOM     28  H   UNL d   1      -0.995   1.682  -2.139  0.00  0.00     0.217 HD
ENDBRANCH  21  27
ENDBRANCH   1  20
BRANCH   3  29
ATOM     29  C   UNL d   1       1.494   0.667  -1.673  0.00  0.00     0.314 C 
BRANCH  29  30
ATOM     30  C   UNL d   1       2.719  -0.112  -2.117  0.00  0.00    -0.025 A 
ATOM     31  C   UNL d   1       2.601  -1.451  -2.505  0.00  0.00     0.048 A 
ATOM     32  C   UNL d   1       3.710  -2.200  -2.926  0.00  0.00     0.104 A 
ATOM     33  C   UNL d   1       4.974  -1.581  -3.027  0.00  0.00     0.135 A 
ATOM     34  C   UNL d   1       5.101  -0.230  -2.630  0.00  0.00     0.104 A 
ATOM     35  C   UNL d   1       3.981   0.480  -2.167  0.00  0.00     0.048 A 
BRANCH  32  36
ATOM     36  O   UNL d   1       3.607  -3.553  -3.147  0.00  0.00    -0.353 OA
ATOM     37  C   UNL d   1       2.324  -4.047  -3.522  0.00  0.00     0.210 C 
ENDBRANCH  32  36
BRANCH  33  38
ATOM     38  O   UNL d   1       6.123  -2.216  -3.417  0.00  0.00    -0.351 OA
ATOM     39  C   UNL d   1       6.053  -3.336  -4.289  0.00  0.00     0.210 C 
ENDBRANCH  33  38
BRANCH  34  40
ATOM     40  O   UNL d   1       6.248   0.524  -2.563  0.00  0.00    -0.353 OA
ATOM     41  C   UNL d   1       7.293   0.257  -3.486  0.00  0.00     0.210 C 
ENDBRANCH  34  40
ENDBRANCH  29  30
ENDBRANCH   3  29
TORSDOF 12
