REMARK  1 active torsions:
REMARK  status: ('A' for Active; 'I' for Inactive)
REMARK    1  A    between atoms: C_9  and  C_6 
ROOT
ATOM      1  C   UNL d   1      -1.204  -0.715   0.054  0.00  0.00     0.045 A 
ATOM      2  C   UNL d   1      -1.809   0.668   0.081  0.00  0.00     0.257 A 
ATOM      3  N   UNL d   1      -0.723   1.530   0.086  0.00  0.00    -0.322 N 
ATOM      4  C   UNL d   1       0.255  -0.544   0.042  0.00  0.00     0.006 A 
ATOM      5  C   UNL d   1       0.482   0.836   0.060  0.00  0.00     0.046 A 
ATOM      6  C   UNL d   1      -1.864  -1.882   0.033  0.00  0.00     0.029 C 
ATOM      7  O   UNL d   1      -2.980   0.991   0.094  0.00  0.00    -0.267 OA
ATOM      8  C   UNL d   1       1.322  -1.425   0.004  0.00  0.00     0.015 A 
ATOM      9  C   UNL d   1       1.749   1.385   0.043  0.00  0.00     0.030 A 
ATOM     10  C   UNL d   1       2.617  -0.891  -0.016  0.00  0.00     0.001 A 
ATOM     11  C   UNL d   1       2.829   0.501   0.004  0.00  0.00     0.002 A 
ATOM     12  H   UNL d   1      -0.829   2.532   0.101  0.00  0.00     0.169 HD
ENDROOT
BRANCH   6  13
ATOM     13  C   UNL d   1      -3.323  -2.022   0.009  0.00  0.00    -0.035 A 
ATOM     14  C   UNL d   1      -3.993  -2.090  -1.222  0.00  0.00     0.021 A 
ATOM     15  C   UNL d   1      -5.370  -2.241  -1.216  0.00  0.00    -0.022 A 
ATOM     16  C   UNL d   1      -6.309  -2.397  -2.347  0.00  0.00     0.068 C 
ATOM     17  C   UNL d   1      -6.070  -2.336  -0.024  0.00  0.00     0.075 A 
ATOM     18  C   UNL d   1      -7.630  -2.230  -1.593  0.00  0.00     0.180 C 
ATOM     19  O   UNL d   1      -7.419  -2.513  -0.189  0.00  0.00    -0.350 OA
ATOM     20  C   UNL d   1      -5.437  -2.275   1.200  0.00  0.00     0.038 A 
ATOM     21  C   UNL d   1      -4.048  -2.110   1.214  0.00  0.00     0.014 A 
ENDBRANCH   6  13
TORSDOF 1
