REMARK  5 active torsions:
REMARK  status: ('A' for Active; 'I' for Inactive)
REMARK    1  A    between atoms: N_2  and  S_1 
REMARK    2  A    between atoms: C_5  and  S_1 
REMARK    3  A    between atoms: C_7  and  N_2 
REMARK    4  A    between atoms: O_6  and  C_8 
REMARK    5  A    between atoms: C_9  and  O_6 
ROOT
ATOM      1  C   UNL d   1       0.868  -0.411  -2.672  0.00  0.00     0.042 A 
ATOM      2  C   UNL d   1       1.619   0.788  -5.077  0.00  0.00     0.076 A 
ATOM      3  C   UNL d   1       2.196  -0.046  -2.879  0.00  0.00     0.033 A 
ATOM      4  C   UNL d   1      -0.084  -0.200  -3.669  0.00  0.00     0.033 A 
ATOM      5  C   UNL d   1       2.580   0.516  -4.098  0.00  0.00     0.039 A 
ATOM      6  C   UNL d   1       0.294   0.405  -4.872  0.00  0.00     0.039 A 
ENDROOT
BRANCH   1   7
ATOM      7  N   UNL d   1       0.485  -0.969  -1.424  0.00  0.00    -0.281 N 
ATOM      8  H   UNL d   1      -0.117  -1.791  -1.432  0.00  0.00     0.179 HD
BRANCH   7   9
ATOM      9  S   UNL d   1       0.160   0.058  -0.126  0.00  0.00     0.263 S 
ATOM     10  O   UNL d   1       1.300   0.922   0.103  0.00  0.00    -0.200 OA
ATOM     11  O   UNL d   1      -0.369  -0.781   0.930  0.00  0.00    -0.200 OA
BRANCH   9  12
ATOM     12  C   UNL d   1      -1.183   1.063  -0.724  0.00  0.00     0.079 A 
ATOM     13  C   UNL d   1      -2.500   0.613  -0.578  0.00  0.00     0.025 A 
ATOM     14  C   UNL d   1      -3.549   1.397  -1.060  0.00  0.00     0.002 A 
ATOM     15  C   UNL d   1      -3.284   2.623  -1.673  0.00  0.00     0.000 A 
ATOM     16  C   UNL d   1      -1.968   3.077  -1.792  0.00  0.00     0.002 A 
ATOM     17  C   UNL d   1      -0.914   2.303  -1.310  0.00  0.00     0.025 A 
ENDBRANCH   9  12
ENDBRANCH   7   9
ENDBRANCH   1   7
BRANCH   2  18
ATOM     18  O   UNL d   1       1.903   1.385  -6.287  0.00  0.00    -0.311 OA
BRANCH  18  19
ATOM     19  C   UNL d   1       2.870   2.365  -6.337  0.00  0.00     0.076 A 
ATOM     20  C   UNL d   1       3.642   2.420  -7.501  0.00  0.00     0.039 A 
ATOM     21  C   UNL d   1       4.667   3.362  -7.616  0.00  0.00     0.026 A 
ATOM     22  C   UNL d   1       4.912   4.249  -6.568  0.00  0.00     0.034 A 
ATOM     23  C   UNL d   1       4.115   4.231  -5.426  0.00  0.00     0.026 A 
ATOM     24 CL   UNL d   1       6.208   5.375  -6.684  0.00  0.00    -0.084 Cl
ATOM     25  C   UNL d   1       3.075   3.305  -5.322  0.00  0.00     0.039 A 
ENDBRANCH  18  19
ENDBRANCH   2  18
TORSDOF 5
