REMARK  7 active torsions:
REMARK  status: ('A' for Active; 'I' for Inactive)
REMARK    1  A    between atoms: C_10  and  C_2 
REMARK    2  A    between atoms: C_11  and  C_4 
REMARK    3  A    between atoms: O_20  and  C_10 
REMARK    4  A    between atoms: S_12  and  C_11 
REMARK    5  A    between atoms: C_19  and  S_12 
REMARK    6  A    between atoms: C_21  and  C_19 
REMARK    7  A    between atoms: C_28  and  O_20 
ROOT
ATOM      1  C   UNL d   1      -0.568   0.655   0.056  0.00  0.00     0.062 A 
ATOM      2  C   UNL d   1      -1.998   0.795   0.053  0.00  0.00     0.086 A 
ATOM      3  C   UNL d   1      -0.320  -0.713   0.031  0.00  0.00     0.132 A 
ATOM      4  C   UNL d   1      -2.506  -0.496   0.067  0.00  0.00     0.082 A 
ATOM      5  O   UNL d   1      -1.489  -1.407   0.031  0.00  0.00    -0.309 OA
ATOM      6  C   UNL d   1       0.552   1.513   0.047  0.00  0.00     0.172 A 
ATOM      7  C   UNL d   1       0.959  -1.268   0.005  0.00  0.00     0.192 A 
ATOM      8  C   UNL d   1       1.841   0.979   0.031  0.00  0.00     0.197 A 
ATOM      9  C   UNL d   1       2.040  -0.393   0.009  0.00  0.00     0.199 A 
ATOM     10  F   UNL d   1       0.409   2.844   0.040  0.00  0.00    -0.202 F 
ATOM     11  F   UNL d   1       1.148  -2.593  -0.030  0.00  0.00    -0.200 F 
ATOM     12  F   UNL d   1       2.896   1.807   0.026  0.00  0.00    -0.199 F 
ATOM     13  F   UNL d   1       3.289  -0.879  -0.019  0.00  0.00    -0.199 F 
ENDROOT
BRANCH   4  14
ATOM     14  C   UNL d   1      -3.876  -1.071   0.179  0.00  0.00     0.175 C 
BRANCH  14  15
ATOM     15  S   UNL d   1      -4.233  -1.357   1.949  0.00  0.00     0.025 S 
ATOM     16  O   UNL d   1      -4.378  -0.013   2.599  0.00  0.00    -0.257 OA
BRANCH  15  17
ATOM     17  C   UNL d   1      -5.898  -2.064   1.718  0.00  0.00     0.147 C 
BRANCH  17  18
ATOM     18  C   UNL d   1      -6.521  -2.423   3.046  0.00  0.00    -0.046 A 
ATOM     19  C   UNL d   1      -7.235  -1.458   3.774  0.00  0.00     0.009 A 
ATOM     20  C   UNL d   1      -7.762  -1.759   5.032  0.00  0.00     0.024 A 
ATOM     21  C   UNL d   1      -7.575  -3.027   5.574  0.00  0.00     0.034 A 
ATOM     22  C   UNL d   1      -6.872  -3.999   4.866  0.00  0.00     0.024 A 
ATOM     23 CL   UNL d   1      -8.204  -3.392   7.134  0.00  0.00    -0.084 Cl
ATOM     24  C   UNL d   1      -6.345  -3.699   3.605  0.00  0.00     0.009 A 
ENDBRANCH  17  18
ENDBRANCH  15  17
ENDBRANCH  14  15
ENDBRANCH   4  14
BRANCH   2  25
ATOM     25  C   UNL d   1      -2.793   2.011   0.018  0.00  0.00     0.296 C 
ATOM     26  O   UNL d   1      -3.914   2.056  -0.474  0.00  0.00    -0.259 OA
BRANCH  25  27
ATOM     27  O   UNL d   1      -2.100   3.080   0.487  0.00  0.00    -0.318 OA
BRANCH  27  28
ATOM     28  C   UNL d   1      -2.571   4.382   0.117  0.00  0.00     0.174 C 
ATOM     29  C   UNL d   1      -1.820   4.819  -1.129  0.00  0.00     0.034 C 
ENDBRANCH  27  28
ENDBRANCH  25  27
ENDBRANCH   2  25
TORSDOF 7
