REMARK  4 active torsions:
REMARK  status: ('A' for Active; 'I' for Inactive)
REMARK       I    between atoms: N_2  and  C_1 
REMARK    1  A    between atoms: C_5  and  C_1 
REMARK    2  A    between atoms: C_4  and  N_3 
REMARK    3  A    between atoms: O_18  and  C_11 
REMARK    4  A    between atoms: N_15  and  C_14 
ROOT
ATOM      1  C   UNL d   1       1.122   0.047  -0.160  0.00  0.00     0.253 C 
ATOM      2  N   UNL d   1       0.586  -1.252  -0.119  0.00  0.00    -0.345 N 
ATOM      3  N   UNL d   1      -0.577  -3.799   0.520  0.00  0.00    -0.376 N 
ATOM      4  C   UNL d   1       1.309  -2.213   0.741  0.00  0.00     0.146 C 
ATOM      5  C   UNL d   1      -0.863  -1.509  -0.217  0.00  0.00     0.146 C 
ATOM      6  C   UNL d   1       0.892  -3.701   0.565  0.00  0.00     0.143 C 
ATOM      7  C   UNL d   1      -1.160  -2.974  -0.545  0.00  0.00     0.143 C 
ATOM      8  O   UNL d   1       2.185   0.334   0.397  0.00  0.00    -0.267 OA
ENDROOT
BRANCH   1   9
ATOM      9  C   UNL d   1       0.409   1.141  -0.875  0.00  0.00     0.032 C 
ATOM     10  C   UNL d   1       0.458   2.437  -0.348  0.00  0.00     0.019 C 
ATOM     11  C   UNL d   1      -0.220   3.482  -0.987  0.00  0.00     0.024 C 
ATOM     12  C   UNL d   1      -1.000   3.244  -2.117  0.00  0.00     0.005 C 
ATOM     13  C   UNL d   1      -0.961   1.974  -2.695  0.00  0.00     0.024 C 
ATOM     14  C   UNL d   1      -0.248   0.933  -2.091  0.00  0.00     0.019 C 
BRANCH  12  15
ATOM     15  N   UNL d   1      -1.610   4.304  -2.797  0.00  0.00    -0.303 NA
ATOM     16  H   UNL d   1      -2.393   4.023  -3.378  0.00  0.00     0.124 HD
ATOM     17  H   UNL d   1      -1.837   5.097  -2.205  0.00  0.00     0.124 HD
ENDBRANCH  12  15
ENDBRANCH   1   9
BRANCH   3  18
ATOM     18  C   UNL d   1      -1.254  -4.950   0.921  0.00  0.00     0.064 A 
ATOM     19  C   UNL d   1      -1.210  -5.467   2.235  0.00  0.00     0.094 A 
ATOM     20  C   UNL d   1      -2.048  -6.531   2.619  0.00  0.00     0.039 A 
ATOM     21  C   UNL d   1      -2.927  -7.120   1.714  0.00  0.00     0.003 A 
ATOM     22  C   UNL d   1      -2.936  -6.681   0.401  0.00  0.00     0.002 A 
ATOM     23  C   UNL d   1      -2.103  -5.621   0.015  0.00  0.00     0.032 A 
BRANCH  19  24
ATOM     24  O   UNL d   1      -0.369  -5.066   3.245  0.00  0.00    -0.354 OA
ATOM     25  C   UNL d   1      -0.390  -3.683   3.563  0.00  0.00     0.210 C 
ENDBRANCH  19  24
ENDBRANCH   3  18
TORSDOF 4
