REMARK  3 active torsions:
REMARK  status: ('A' for Active; 'I' for Inactive)
REMARK    1  A    between atoms: N_11  and  N_5 
REMARK    2  A    between atoms: C_18  and  N_7 
REMARK    3  A    between atoms: C_15  and  C_14 
ROOT
ATOM      1  C   UNL d   1      -0.226  -0.680  -0.018  0.00  0.00     0.146 A 
ATOM      2  C   UNL d   1      -0.286   0.690  -0.058  0.00  0.00     0.097 A 
ATOM      3  N   UNL d   1       0.908  -1.422  -0.029  0.00  0.00    -0.328 N 
ATOM      4  HN  UNL d   1       0.896  -2.442  -0.027  1.00  0.00     0.168 HD
ATOM      5  N   UNL d   1       2.089   0.672  -0.007  0.00  0.00    -0.208 N 
ATOM      6  C   UNL d   1       0.920   1.468  -0.096  0.00  0.00     0.283 A 
ATOM      7  N   UNL d   1      -1.548  -1.131  -0.017  0.00  0.00    -0.239 N 
ATOM      8  C   UNL d   1       2.017  -0.732  -0.044  0.00  0.00     0.104 A 
ATOM      9  N   UNL d   1      -2.416  -0.068  -0.060  0.00  0.00    -0.302 N 
ATOM     10  HN  UNL d   1      -3.436  -0.100  -0.073  1.00  0.00     0.186 HD
ATOM     11  C   UNL d   1      -1.640   1.016  -0.083  0.00  0.00     0.128 A 
ATOM     12  O   UNL d   1       0.881   2.688  -0.224  0.00  0.00    -0.265 OA
ATOM     13  C   UNL d   1       3.308  -1.522  -0.062  0.00  0.00     0.091 C 
ENDROOT
BRANCH   5  14
ATOM     14  N   UNL d   1       3.361   1.246  -0.063  0.00  0.00    -0.300 N 
ATOM     15  C   UNL d   1       3.535   2.416   0.470  0.00  0.00     0.126 C 
ATOM     16  HN  UNL d   1       4.134   0.758  -0.513  1.00  0.00     0.186 HD
BRANCH  15  17
ATOM     17  C   UNL d   1       4.807   3.091   0.367  0.00  0.00     0.021 A 
ATOM     18  S   UNL d   1       4.980   4.636   1.083  0.00  0.00    -0.101 SA
ATOM     19  C   UNL d   1       6.605   4.766   0.567  0.00  0.00     0.050 A 
ATOM     20  C   UNL d   1       7.012   3.653  -0.135  0.00  0.00     0.008 A 
ATOM     21  C   UNL d   1       5.972   2.684  -0.252  0.00  0.00     0.021 A 
ENDBRANCH  15  17
ENDBRANCH   5  14
BRANCH   7  22
ATOM     22  C   UNL d   1      -2.058  -2.464   0.010  0.00  0.00     0.058 A 
ATOM     23  C   UNL d   1      -1.221  -3.576   0.166  0.00  0.00     0.031 A 
ATOM     24  C   UNL d   1      -1.756  -4.868   0.172  0.00  0.00     0.002 A 
ATOM     25  C   UNL d   1      -3.127  -5.062   0.022  0.00  0.00     0.000 A 
ATOM     26  C   UNL d   1      -3.970  -3.964  -0.127  0.00  0.00     0.002 A 
ATOM     27  C   UNL d   1      -3.442  -2.671  -0.128  0.00  0.00     0.031 A 
ENDBRANCH   7  22
TORSDOF 3
