REMARK  4 active torsions:
REMARK  status: ('A' for Active; 'I' for Inactive)
REMARK    1  A    between atoms: C_8  and  N_1 
REMARK    2  A    between atoms: S_10  and  C_3 
REMARK    3  A    between atoms: N_11  and  C_7 
REMARK    4  A    between atoms: C_12  and  C_8 
ROOT
ATOM      1  N   UNL d   1       1.447  -1.075  -0.194  0.00  0.00    -0.288 N 
ATOM      2  C   UNL d   1       0.037   0.664  -0.126  0.00  0.00     0.118 A 
ATOM      3  C   UNL d   1       0.147  -1.439  -0.082  0.00  0.00     0.149 A 
ATOM      4  C   UNL d   1       1.481   0.293  -0.228  0.00  0.00     0.278 A 
ATOM      5  N   UNL d   1      -0.720  -0.479  -0.045  0.00  0.00    -0.331 N 
ATOM      6  HN  UNL d   1      -1.734  -0.555   0.028  1.00  0.00     0.168 HD
ATOM      7  C   UNL d   1      -0.398   1.932  -0.086  0.00  0.00     0.120 C 
ATOM      8  O   UNL d   1       2.438   1.040  -0.283  0.00  0.00    -0.265 OA
ENDROOT
BRANCH   1   9
ATOM      9  C   UNL d   1       2.646  -1.893  -0.203  0.00  0.00     0.173 C 
BRANCH   9  10
ATOM     10  C   UNL d   1       3.104  -2.251  -1.599  0.00  0.00    -0.040 A 
ATOM     11  C   UNL d   1       3.997  -1.416  -2.287  0.00  0.00     0.009 A 
ATOM     12  C   UNL d   1       4.439  -1.752  -3.568  0.00  0.00     0.001 A 
ATOM     13  C   UNL d   1       3.983  -2.916  -4.183  0.00  0.00     0.000 A 
ATOM     14  C   UNL d   1       3.086  -3.747  -3.516  0.00  0.00     0.001 A 
ATOM     15  C   UNL d   1       2.650  -3.418  -2.231  0.00  0.00     0.009 A 
ENDBRANCH   9  10
ENDBRANCH   1   9
BRANCH   3  16
ATOM     16  S   UNL d   1      -0.313  -3.106   0.028  0.00  0.00    -0.098 SA
ATOM     17  C   UNL d   1      -2.110  -2.933   0.129  0.00  0.00     0.099 C 
ENDBRANCH   3  16
BRANCH   7  18
ATOM     18  N   UNL d   1      -1.676   2.477   0.052  0.00  0.00    -0.396 N 
ATOM     19  C   UNL d   1      -2.905   1.690   0.163  0.00  0.00     0.148 C 
ATOM     20  C   UNL d   1      -1.913   3.917  -0.046  0.00  0.00     0.148 C 
ENDBRANCH   7  18
TORSDOF 4
