REMARK  2 active torsions:
REMARK  status: ('A' for Active; 'I' for Inactive)
REMARK    1  A    between atoms: C_9  and  C_3 
REMARK    2  A    between atoms: C_10  and  C_4 
ROOT
ATOM      1  N   UNL d   1      -0.764   1.153  -0.089  0.00  0.00    -0.294 N 
ATOM      2  HN  UNL d   1      -1.225   2.063  -0.114  1.00  0.00     0.187 HD
ATOM      3  C   UNL d   1      -1.440   0.043  -0.011  0.00  0.00     0.086 A 
ATOM      4  C   UNL d   1      -0.695  -1.287  -0.047  0.00  0.00     0.075 A 
ATOM      5  N   UNL d   1       0.603  -1.316  -0.031  0.00  0.00    -0.305 N 
ATOM      6  HN  UNL d   1       1.098  -2.208  -0.005  1.00  0.00     0.171 HD
ATOM      7  C   UNL d   1       1.300  -0.140  -0.048  0.00  0.00     0.339 A 
ATOM      8  N   UNL d   1       0.587   1.033  -0.135  0.00  0.00    -0.251 N 
ATOM      9  O   UNL d   1       2.523  -0.099  -0.005  0.00  0.00    -0.245 OA
ATOM     10  H   UNL d   1       1.130   1.888  -0.140  0.00  0.00     0.191 HD
ENDROOT
BRANCH   3  11
ATOM     11  C   UNL d   1      -2.918   0.146   0.114  0.00  0.00    -0.006 A 
ATOM     12  C   UNL d   1      -3.581   1.097  -0.675  0.00  0.00     0.014 A 
ATOM     13  C   UNL d   1      -4.971   1.202  -0.628  0.00  0.00     0.001 A 
ATOM     14  C   UNL d   1      -5.704   0.360   0.207  0.00  0.00     0.000 A 
ATOM     15  C   UNL d   1      -5.046  -0.560   1.024  0.00  0.00     0.001 A 
ATOM     16  C   UNL d   1      -3.652  -0.653   0.997  0.00  0.00     0.014 A 
ENDBRANCH   3  11
BRANCH   4  17
ATOM     17  C   UNL d   1      -1.399  -2.594  -0.097  0.00  0.00    -0.007 A 
ATOM     18  C   UNL d   1      -2.486  -2.824  -0.947  0.00  0.00     0.014 A 
ATOM     19  C   UNL d   1      -3.165  -4.043  -0.890  0.00  0.00     0.001 A 
ATOM     20  C   UNL d   1      -2.735  -5.046  -0.021  0.00  0.00     0.000 A 
ATOM     21  C   UNL d   1      -1.613  -4.843   0.781  0.00  0.00     0.001 A 
ATOM     22  C   UNL d   1      -0.943  -3.620   0.741  0.00  0.00     0.014 A 
ENDBRANCH   4  17
TORSDOF 2
