REMARK  7 active torsions:
REMARK  status: ('A' for Active; 'I' for Inactive)
REMARK    1  A    between atoms: S_2  and  C_1 
REMARK    2  A    between atoms: O_9  and  S_2 
REMARK    3  A    between atoms: C_8  and  C_3 
REMARK    4  A    between atoms: C_12  and  C_4 
REMARK    5  A    between atoms: C_7  and  C_5 
REMARK    6  A    between atoms: O_19  and  C_8 
REMARK    7  A    between atoms: C_14  and  O_9 
ROOT
ATOM      1  C   UNL d   1       1.548   0.846  -0.153  0.00  0.00     0.122 A 
ATOM      2  C   UNL d   1       0.264   1.360  -0.131  0.00  0.00     0.105 A 
ATOM      3  C   UNL d   1       1.571  -0.612  -0.063  0.00  0.00     0.021 A 
ATOM      4  C   UNL d   1       0.266  -1.114   0.033  0.00  0.00     0.102 A 
ATOM      5  S   UNL d   1      -0.908   0.131  -0.119  0.00  0.00    -0.077 SA
ENDROOT
BRANCH   1   6
ATOM      6  S   UNL d   1       2.934   1.906  -0.240  0.00  0.00     0.305 S 
ATOM      7  O   UNL d   1       2.475   3.073  -0.973  0.00  0.00    -0.193 OA
ATOM      8  O   UNL d   1       3.392   1.967   1.132  0.00  0.00    -0.193 OA
BRANCH   6   9
ATOM      9  O   UNL d   1       3.973   1.085  -1.178  0.00  0.00    -0.229 OA
BRANCH   9  10
ATOM     10  C   UNL d   1       5.223   1.579  -1.464  0.00  0.00     0.090 A 
ATOM     11  C   UNL d   1       5.904   2.526  -0.692  0.00  0.00     0.044 A 
ATOM     12  C   UNL d   1       7.215   2.901  -1.018  0.00  0.00    -0.059 A 
ATOM     13  C   UNL d   1       7.973   3.867  -0.153  0.00  0.00     0.048 C 
ATOM     14  C   UNL d   1       7.833   2.327  -2.134  0.00  0.00     0.007 A 
ATOM     15  C   UNL d   1       7.148   1.401  -2.919  0.00  0.00     0.003 A 
ATOM     16  C   UNL d   1       5.847   1.025  -2.582  0.00  0.00     0.038 A 
ENDBRANCH   9  10
ENDBRANCH   6   9
ENDBRANCH   1   6
BRANCH   2  17
ATOM     17  C   UNL d   1      -0.214   2.729  -0.144  0.00  0.00     0.301 C 
ATOM     18  O   UNL d   1      -1.108   3.164  -0.858  0.00  0.00    -0.259 OA
BRANCH  17  19
ATOM     19  O   UNL d   1       0.430   3.450   0.820  0.00  0.00    -0.322 OA
ATOM     20  C   UNL d   1       0.056   4.829   0.835  0.00  0.00     0.213 C 
ENDBRANCH  17  19
ENDBRANCH   2  17
BRANCH   3  21
ATOM     21  C   UNL d   1       2.735  -1.516  -0.034  0.00  0.00    -0.023 A 
ATOM     22  C   UNL d   1       3.815  -1.283   0.828  0.00  0.00     0.012 A 
ATOM     23  C   UNL d   1       4.913  -2.152   0.857  0.00  0.00     0.001 A 
ATOM     24  C   UNL d   1       4.923  -3.297   0.067  0.00  0.00     0.000 A 
ATOM     25  C   UNL d   1       3.851  -3.556  -0.780  0.00  0.00     0.001 A 
ATOM     26  C   UNL d   1       2.783  -2.655  -0.856  0.00  0.00     0.012 A 
ENDBRANCH   3  21
BRANCH   4  27
ATOM     27  C   UNL d   1      -0.281  -2.506   0.206  0.00  0.00     0.424 C 
ATOM     28  F   UNL d   1       0.623  -3.408   0.653  0.00  0.00    -0.166 F 
ATOM     29  F   UNL d   1      -1.313  -2.543   1.092  0.00  0.00    -0.166 F 
ATOM     30  F   UNL d   1      -0.765  -2.989  -0.972  0.00  0.00    -0.166 F 
ENDBRANCH   4  27
TORSDOF 7
