REMARK  3 active torsions:
REMARK  status: ('A' for Active; 'I' for Inactive)
REMARK    1  A    between atoms: C_2  and  C_1 
REMARK    2  A    between atoms: C_6  and  C_8 
REMARK    3  A    between atoms: C_10  and  C_7 
ROOT
ATOM      1  C   UNL d   1      -0.213   1.011  -0.063  0.00  0.00     0.160 A 
ATOM      2  N   UNL d   1      -1.309   0.300  -0.218  0.00  0.00    -0.343 N 
ATOM      3  HN  UNL d   1      -2.272   0.631  -0.282  1.00  0.00     0.167 HD
ATOM      4  O   UNL d   1       0.941   0.274  -0.032  0.00  0.00    -0.291 OA
ATOM      5  C   UNL d   1       0.522  -1.028  -0.159  0.00  0.00     0.103 A 
ATOM      6  C   UNL d   1      -0.851  -0.994  -0.272  0.00  0.00     0.128 A 
ENDROOT
BRANCH   1   7
ATOM      7  C   UNL d   1      -0.065   2.452   0.053  0.00  0.00     0.046 A 
ATOM      8  C   UNL d   1      -0.985   3.278   0.721  0.00  0.00     0.065 A 
ATOM      9  C   UNL d   1      -0.793   4.673   0.677  0.00  0.00     0.034 A 
ATOM     10  C   UNL d   1       0.308   5.188   0.017  0.00  0.00     0.088 A 
ATOM     11  N   UNL d   1       1.225   4.418  -0.596  0.00  0.00    -0.374 N 
ATOM     12  C   UNL d   1       1.017   3.079  -0.567  0.00  0.00     0.104 A 
ATOM     13  HN  UNL d   1       2.039   4.823  -1.060  1.00  0.00     0.164 HD
BRANCH   8  14
ATOM     14  C   UNL d   1      -2.179   2.756   1.480  0.00  0.00     0.418 C 
ATOM     15  F   UNL d   1      -2.044   1.508   1.998  0.00  0.00    -0.166 F 
ATOM     16  F   UNL d   1      -2.462   3.543   2.563  0.00  0.00    -0.166 F 
ATOM     17  F   UNL d   1      -3.316   2.758   0.733  0.00  0.00    -0.166 F 
ENDBRANCH   8  14
ENDBRANCH   1   7
BRANCH   5  18
ATOM     18  C   UNL d   1       1.542  -2.070  -0.151  0.00  0.00    -0.001 A 
ATOM     19  C   UNL d   1       2.908  -1.762  -0.062  0.00  0.00     0.014 A 
ATOM     20  C   UNL d   1       3.874  -2.771  -0.070  0.00  0.00     0.001 A 
ATOM     21  C   UNL d   1       3.489  -4.107  -0.164  0.00  0.00     0.000 A 
ATOM     22  C   UNL d   1       2.140  -4.434  -0.246  0.00  0.00     0.001 A 
ATOM     23  C   UNL d   1       1.173  -3.422  -0.240  0.00  0.00     0.014 A 
ENDBRANCH   5  18
TORSDOF 3
