REMARK  6 active torsions:
REMARK  status: ('A' for Active; 'I' for Inactive)
REMARK    1  A    between atoms: C_2  and  C_7 
REMARK    2  A    between atoms: C_3  and  C_8 
REMARK    3  A    between atoms: C_14  and  C_4 
REMARK    4  A    between atoms: N_12  and  N_24 
REMARK    5  A    between atoms: C_17  and  C_25 
REMARK    6  A    between atoms: N_24  and  C_28 
ROOT
ATOM      1  N   UNL d   1       6.139  -4.934  -1.250  0.00  0.00    -0.311 N 
ATOM      2  HN  UNL d   1       5.577  -4.863  -2.098  1.00  0.00     0.186 HD
ATOM      3  C   UNL d   1       7.023  -5.865  -1.098  0.00  0.00     0.118 C 
ENDROOT
BRANCH   1   4
ATOM      4  N   UNL d   1       5.996  -4.057  -0.225  0.00  0.00    -0.301 N 
ATOM      5  H   UNL d   1       6.226  -4.333   0.727  0.00  0.00     0.187 HD
BRANCH   4   6
ATOM      6  C   UNL d   1       4.941  -3.122  -0.324  0.00  0.00     0.048 A 
ATOM      7  C   UNL d   1       4.210  -2.963  -1.508  0.00  0.00     0.032 A 
ATOM      8  C   UNL d   1       3.199  -2.005  -1.617  0.00  0.00     0.016 A 
ATOM      9  C   UNL d   1       2.908  -1.154  -0.546  0.00  0.00    -0.008 A 
ATOM     10  C   UNL d   1       3.674  -1.267   0.623  0.00  0.00     0.016 A 
ATOM     11  C   UNL d   1       4.682  -2.238   0.729  0.00  0.00     0.032 A 
BRANCH   9  12
ATOM     12  C   UNL d   1       1.848  -0.160  -0.638  0.00  0.00     0.063 A 
ATOM     13  N   UNL d   1       1.894   1.023   0.091  0.00  0.00    -0.292 N 
ATOM     14  N   UNL d   1       0.841   1.789  -0.140  0.00  0.00    -0.061 NA
ATOM     15  HN  UNL d   1       2.650   1.270   0.729  1.00  0.00     0.183 HD
ATOM     16  S   UNL d   1      -0.238   1.105  -1.218  0.00  0.00    -0.010 SA
ATOM     17  C   UNL d   1       0.714  -0.306  -1.425  0.00  0.00     0.096 A 
ENDBRANCH   9  12
ENDBRANCH   4   6
ENDBRANCH   1   4
BRANCH   3  18
ATOM     18  C   UNL d   1       7.279  -6.829  -2.192  0.00  0.00    -0.018 A 
ATOM     19  C   UNL d   1       6.559  -6.742  -3.390  0.00  0.00     0.029 A 
ATOM     20  C   UNL d   1       6.840  -7.607  -4.457  0.00  0.00     0.049 A 
ATOM     21  C   UNL d   1       7.843  -8.577  -4.294  0.00  0.00     0.032 A 
ATOM     22  C   UNL d   1       8.572  -8.675  -3.095  0.00  0.00     0.049 A 
ATOM     23  C   UNL d   1       8.279  -7.793  -2.041  0.00  0.00     0.029 A 
BRANCH  20  24
ATOM     24  C   UNL d   1       6.090  -7.462  -5.761  0.00  0.00     0.417 C 
ATOM     25  F   UNL d   1       6.511  -8.327  -6.724  0.00  0.00    -0.166 F 
ATOM     26  F   UNL d   1       4.753  -7.676  -5.623  0.00  0.00    -0.166 F 
ATOM     27  F   UNL d   1       6.220  -6.217  -6.297  0.00  0.00    -0.166 F 
ENDBRANCH  20  24
BRANCH  22  28
ATOM     28  C   UNL d   1       9.680  -9.691  -2.943  0.00  0.00     0.417 C 
ATOM     29  F   UNL d   1       9.855 -10.474  -4.042  0.00  0.00    -0.166 F 
ATOM     30  F   UNL d   1      10.884  -9.104  -2.704  0.00  0.00    -0.166 F 
ATOM     31  F   UNL d   1       9.464 -10.543  -1.904  0.00  0.00    -0.166 F 
ENDBRANCH  22  28
ENDBRANCH   3  18
TORSDOF 6
