REMARK  1 active torsions:
REMARK  status: ('A' for Active; 'I' for Inactive)
REMARK    1  A    between atoms: C_10  and  N_2 
ROOT
ATOM      1  C   UNL d   1       0.736   0.432  -0.014  0.00  0.00     0.074 A 
ATOM      2  N   UNL d   1       3.008   1.212   0.019  0.00  0.00    -0.229 N 
ATOM      3  C   UNL d   1       1.247  -0.825  -0.105  0.00  0.00     0.094 A 
ATOM      4  C   UNL d   1       1.642   1.557   0.092  0.00  0.00     0.270 A 
ATOM      5  C   UNL d   1       3.498  -0.098  -0.152  0.00  0.00     0.335 A 
ATOM      6  N   UNL d   1       2.570  -1.116  -0.169  0.00  0.00    -0.301 N 
ATOM      7  C   UNL d   1      -0.692   0.399  -0.058  0.00  0.00    -0.026 A 
ATOM      8  C   UNL d   1      -1.158  -0.909  -0.057  0.00  0.00    -0.008 A 
ATOM      9  S   UNL d   1       0.108  -2.058  -0.137  0.00  0.00    -0.075 SA
ATOM     10  C   UNL d   1      -1.613   1.583  -0.042  0.00  0.00     0.041 C 
ATOM     11  O   UNL d   1       4.688  -0.404  -0.249  0.00  0.00    -0.246 OA
ATOM     12  O   UNL d   1       1.204   2.697   0.207  0.00  0.00    -0.266 OA
ATOM     13  C   UNL d   1      -2.603  -1.304  -0.014  0.00  0.00     0.051 C 
ATOM     14  C   UNL d   1      -3.070   1.173  -0.308  0.00  0.00     0.009 C 
ATOM     15  C   UNL d   1      -3.477  -0.112   0.446  0.00  0.00    -0.014 C 
ATOM     16  C   UNL d   1      -3.409   0.086   1.966  0.00  0.00     0.010 C 
ATOM     17  H   UNL d   1       2.895  -2.070  -0.249  0.00  0.00     0.171 HD
ENDROOT
BRANCH   2  18
ATOM     18  C   UNL d   1       3.948   2.283   0.110  0.00  0.00     0.047 A 
ATOM     19  C   UNL d   1       4.896   2.488  -0.898  0.00  0.00     0.031 A 
ATOM     20  C   UNL d   1       5.760   3.585  -0.838  0.00  0.00     0.009 A 
ATOM     21  C   UNL d   1       5.716   4.467   0.249  0.00  0.00    -0.062 A 
ATOM     22  C   UNL d   1       4.786   4.247   1.269  0.00  0.00     0.009 A 
ATOM     23  C   UNL d   1       6.647   5.641   0.300  0.00  0.00     0.048 C 
ATOM     24  C   UNL d   1       3.900   3.172   1.193  0.00  0.00     0.031 A 
ENDBRANCH   2  18
TORSDOF 1
