REMARK  4 active torsions:
REMARK  status: ('A' for Active; 'I' for Inactive)
REMARK    1  A    between atoms: C_6  and  C_1 
REMARK    2  A    between atoms: C_3  and  C_6 
REMARK    3  A    between atoms: C_11  and  C_4 
REMARK    4  A    between atoms: C_13  and  C_8 
ROOT
ATOM      1  C   UNL d   1      -0.755  -3.574  -1.117  0.00  0.00     0.096 C 
ATOM      2  C   UNL d   1      -0.674  -4.917  -0.982  0.00  0.00     0.038 C 
ATOM      3  C   UNL d   1      -1.704  -3.062  -2.047  0.00  0.00     0.103 C 
ATOM      4  N   UNL d   1      -2.504  -2.672  -2.794  0.00  0.00    -0.191 NA
ENDROOT
BRANCH   1   5
ATOM      5  C   UNL d   1       0.164  -2.635  -0.388  0.00  0.00     0.205 C 
ATOM      6  O   UNL d   1       1.260  -3.001   0.025  0.00  0.00    -0.286 OA
BRANCH   5   7
ATOM      7  C   UNL d   1      -0.275  -1.250  -0.225  0.00  0.00     0.048 A 
ATOM      8  C   UNL d   1      -1.585  -0.684  -0.127  0.00  0.00     0.056 A 
ATOM      9  C   UNL d   1      -1.440   0.679   0.031  0.00  0.00     0.086 A 
ATOM     10  O   UNL d   1      -0.115   0.988   0.066  0.00  0.00    -0.314 OA
ATOM     11  C   UNL d   1       0.586  -0.171  -0.073  0.00  0.00     0.064 A 
ATOM     12  C   UNL d   1       2.058  -0.010  -0.047  0.00  0.00     0.077 C 
BRANCH   9  13
ATOM     13  C   UNL d   1      -2.374   1.791   0.174  0.00  0.00    -0.002 A 
ATOM     14  C   UNL d   1      -1.983   2.997   0.774  0.00  0.00     0.014 A 
ATOM     15  C   UNL d   1      -2.897   4.040   0.951  0.00  0.00     0.001 A 
ATOM     16  C   UNL d   1      -4.213   3.893   0.520  0.00  0.00     0.000 A 
ATOM     17  C   UNL d   1      -4.614   2.709  -0.096  0.00  0.00     0.001 A 
ATOM     18  C   UNL d   1      -3.700   1.666  -0.268  0.00  0.00     0.014 A 
ENDBRANCH   9  13
ENDBRANCH   5   7
ENDBRANCH   1   5
BRANCH   2  19
ATOM     19  C   UNL d   1       0.233  -5.662  -0.106  0.00  0.00    -0.035 A 
ATOM     20  C   UNL d   1      -0.170  -6.005   1.190  0.00  0.00     0.013 A 
ATOM     21  C   UNL d   1       0.707  -6.685   2.039  0.00  0.00     0.024 A 
ATOM     22  C   UNL d   1       1.984  -7.022   1.592  0.00  0.00     0.034 A 
ATOM     23  C   UNL d   1       2.388  -6.699   0.298  0.00  0.00     0.024 A 
ATOM     24 CL   UNL d   1       3.069  -7.839   2.648  0.00  0.00    -0.084 Cl
ATOM     25  C   UNL d   1       1.510  -6.024  -0.553  0.00  0.00     0.013 A 
ENDBRANCH   2  19
TORSDOF 4
