REMARK  4 active torsions:
REMARK  status: ('A' for Active; 'I' for Inactive)
REMARK    1  A    between atoms: C_2  and  C_1 
REMARK    2  A    between atoms: C_4  and  C_1 
REMARK    3  A    between atoms: C_5  and  C_3 
REMARK    4  A    between atoms: O_12  and  C_5 
ROOT
ATOM      1  C   UNL d   1       0.248   0.607   0.943  0.00  0.00     0.032 A 
ATOM      2  C   UNL d   1       0.706   1.867   1.383  0.00  0.00     0.051 A 
ATOM      3  C   UNL d   1      -0.940   0.070   1.493  0.00  0.00     0.016 A 
ATOM      4  C   UNL d   1      -0.092   2.562   2.324  0.00  0.00     0.019 A 
ATOM      5  C   UNL d   1      -1.710   0.787   2.406  0.00  0.00     0.001 A 
ATOM      6  C   UNL d   1      -1.286   2.039   2.821  0.00  0.00     0.001 A 
ENDROOT
BRANCH   1   7
ATOM      7  C   UNL d   1       0.997  -0.266  -0.000  0.00  0.00     0.200 C 
ATOM      8  O   UNL d   1       2.220  -0.293   0.155  0.00  0.00    -0.286 OA
BRANCH   7   9
ATOM      9  C   UNL d   1       0.330  -1.112  -0.985  0.00  0.00     0.055 A 
ATOM     10  S   UNL d   1      -1.153  -0.687  -1.729  0.00  0.00    -0.098 SA
ATOM     11  C   UNL d   1      -1.212  -2.154  -2.607  0.00  0.00     0.050 A 
ATOM     12  C   UNL d   1      -0.082  -2.918  -2.409  0.00  0.00     0.009 A 
ATOM     13  C   UNL d   1       0.817  -2.301  -1.493  0.00  0.00     0.023 A 
ENDBRANCH   7   9
ENDBRANCH   1   7
BRANCH   2  14
ATOM     14  C   UNL d   1       1.929   2.631   0.952  0.00  0.00     0.177 C 
ATOM     15  O   UNL d   1       2.106   3.782   1.331  0.00  0.00    -0.646 OA
BRANCH  14  16
ATOM     16  O   UNL d   1       2.810   2.065   0.114  0.00  0.00    -0.773 OA
ATOM     17  H   UNL d   1       2.812   1.079   0.079  0.00  0.00     0.167 HD
ENDBRANCH  14  16
ENDBRANCH   2  14
TORSDOF 4
