REMARK  5 active torsions:
REMARK  status: ('A' for Active; 'I' for Inactive)
REMARK    1  A    between atoms: C_5  and  C_1 
REMARK       I    between atoms: N_6  and  C_1 
REMARK    2  A    between atoms: C_2  and  O_7 
REMARK       I    between atoms: N_8  and  C_2 
REMARK    3  A    between atoms: C_3  and  C_4 
REMARK    4  A    between atoms: C_11  and  N_6 
REMARK    5  A    between atoms: O_7  and  C_12 
ROOT
ATOM      1  C   UNL d   1       0.842   0.260  -0.242  0.00  0.00     0.257 C 
ATOM      2  N   UNL d   1      -0.022   1.083   0.445  0.00  0.00    -0.323 N 
ATOM      3  O   UNL d   1       0.546  -0.768  -0.848  0.00  0.00    -0.267 OA
ATOM      4  H   UNL d   1       0.352   1.936   0.839  0.00  0.00     0.169 HD
ENDROOT
BRANCH   2   5
ATOM      5  C   UNL d   1      -1.395   0.883   0.707  0.00  0.00     0.037 A 
ATOM      6  C   UNL d   1      -2.087  -0.309   0.465  0.00  0.00     0.067 A 
ATOM      7  C   UNL d   1      -3.415  -0.446   0.902  0.00  0.00     0.083 A 
ATOM      8  C   UNL d   1      -4.077   0.629   1.494  0.00  0.00     0.037 A 
ATOM      9  C   UNL d   1      -3.401   1.829   1.699  0.00  0.00     0.005 A 
ATOM     10  C   UNL d   1      -2.065   1.948   1.323  0.00  0.00     0.029 A 
BRANCH   7  11
ATOM     11  O   UNL d   1      -3.981  -1.748   0.763  0.00  0.00    -0.261 OA
BRANCH  11  12
ATOM     12  C   UNL d   1      -5.161  -2.189   1.384  0.00  0.00     0.367 C 
ATOM     13  N   UNL d   1      -5.371  -3.561   1.278  0.00  0.00    -0.336 N 
ATOM     14  C   UNL d   1      -6.622  -4.100   1.780  0.00  0.00     0.154 C 
ATOM     15  C   UNL d   1      -4.556  -4.436   0.457  0.00  0.00     0.154 C 
ATOM     16  O   UNL d   1      -5.944  -1.457   1.983  0.00  0.00    -0.238 OA
ENDBRANCH  11  12
ENDBRANCH   7  11
ENDBRANCH   2   5
BRANCH   1  17
ATOM     17  C   UNL d   1       2.291   0.625  -0.135  0.00  0.00     0.047 A 
ATOM     18  C   UNL d   1       2.831   1.919  -0.248  0.00  0.00     0.063 A 
ATOM     19  C   UNL d   1       4.200   2.106   0.052  0.00  0.00     0.017 A 
ATOM     20  C   UNL d   1       5.024   1.036   0.401  0.00  0.00     0.001 A 
ATOM     21  C   UNL d   1       4.502  -0.250   0.432  0.00  0.00     0.001 A 
ATOM     22  C   UNL d   1       3.148  -0.454   0.166  0.00  0.00     0.018 A 
BRANCH  18  23
ATOM     23  C   UNL d   1       2.066   3.140  -0.684  0.00  0.00     0.418 C 
ATOM     24  F   UNL d   1       0.815   2.914  -1.152  0.00  0.00    -0.166 F 
ATOM     25  F   UNL d   1       1.915   4.020   0.347  0.00  0.00    -0.166 F 
ATOM     26  F   UNL d   1       2.704   3.831  -1.670  0.00  0.00    -0.166 F 
ENDBRANCH  18  23
ENDBRANCH   1  17
TORSDOF 5
