REMARK  6 active torsions:
REMARK  status: ('A' for Active; 'I' for Inactive)
REMARK    1  A    between atoms: C_11  and  C_4 
REMARK    2  A    between atoms: S_8  and  C_5 
REMARK    3  A    between atoms: C_13  and  S_8 
REMARK    4  A    between atoms: C_9  and  C_13 
REMARK    5  A    between atoms: C_10  and  C_9 
REMARK    6  A    between atoms: C_21  and  C_12 
ROOT
ATOM      1  S   UNL d   1      -1.728   1.852  -0.008  0.00  0.00    -0.077 SA
ENDROOT
BRANCH   1   2
ATOM      2  C   UNL d   1      -2.399   1.413   1.534  0.00  0.00     0.204 A 
ATOM      3  O   UNL d   1      -3.547   1.939   2.054  0.00  0.00    -0.267 OA
ATOM      4  C   UNL d   1      -3.579   1.391   3.307  0.00  0.00     0.175 A 
ATOM      5  N   UNL d   1      -2.582   0.556   3.515  0.00  0.00    -0.277 N 
ATOM      6  N   UNL d   1      -1.818   0.570   2.364  0.00  0.00    -0.272 N 
ATOM      7  HN  UNL d   1      -2.408   0.008   4.358  1.00  0.00     0.189 HD
ATOM      8  HN  UNL d   1      -0.969   0.032   2.190  1.00  0.00     0.189 HD
BRANCH   4   9
ATOM      9  C   UNL d   1      -4.621   1.851   4.212  0.00  0.00     0.019 A 
ATOM     10  C   UNL d   1      -4.599   1.456   5.553  0.00  0.00     0.033 A 
ATOM     11  C   UNL d   1      -5.574   1.943   6.407  0.00  0.00     0.088 A 
ATOM     12  N   UNL d   1      -6.559   2.778   6.019  0.00  0.00    -0.375 N 
ATOM     13  C   UNL d   1      -6.569   3.146   4.721  0.00  0.00     0.088 A 
ATOM     14  HN  UNL d   1      -7.263   3.116   6.675  1.00  0.00     0.164 HD
ATOM     15  C   UNL d   1      -5.635   2.717   3.792  0.00  0.00     0.033 A 
ENDBRANCH   4   9
ENDBRANCH   1   2
BRANCH   1  16
ATOM     16  C   UNL d   1      -3.008   2.912  -0.715  0.00  0.00     0.166 C 
BRANCH  16  17
ATOM     17  C   UNL d   1      -3.199   4.202   0.054  0.00  0.00     0.169 C 
ATOM     18  O   UNL d   1      -4.190   4.360   0.774  0.00  0.00    -0.291 OA
BRANCH  17  19
ATOM     19  C   UNL d   1      -2.216   5.324  -0.070  0.00  0.00     0.011 A 
ATOM     20  C   UNL d   1      -1.124   5.303  -0.939  0.00  0.00     0.016 A 
ATOM     21  C   UNL d   1      -0.237   6.393  -0.988  0.00  0.00     0.013 A 
ATOM     22  C   UNL d   1      -0.414   7.534  -0.184  0.00  0.00    -0.026 A 
ATOM     23  C   UNL d   1      -1.535   7.545   0.662  0.00  0.00     0.013 A 
ATOM     24  C   UNL d   1      -2.416   6.459   0.726  0.00  0.00     0.016 A 
BRANCH  22  25
ATOM     25  C   UNL d   1       0.549   8.664  -0.204  0.00  0.00    -0.026 A 
ATOM     26  C   UNL d   1       0.849   9.388   0.966  0.00  0.00     0.012 A 
ATOM     27  C   UNL d   1       1.767  10.444   0.964  0.00  0.00     0.001 A 
ATOM     28  C   UNL d   1       2.421  10.795  -0.211  0.00  0.00     0.000 A 
ATOM     29  C   UNL d   1       2.146  10.098  -1.384  0.00  0.00     0.001 A 
ATOM     30  C   UNL d   1       1.216   9.051  -1.381  0.00  0.00     0.012 A 
ENDBRANCH  22  25
ENDBRANCH  17  19
ENDBRANCH  16  17
ENDBRANCH   1  16
TORSDOF 6
