REMARK  2 active torsions:
REMARK  status: ('A' for Active; 'I' for Inactive)
REMARK    1  A    between atoms: C_12  and  C_7 
REMARK    2  A    between atoms: O_24  and  C_17 
ROOT
ATOM      1  C   UNL d   1       0.102   2.208   0.779  0.00  0.00     0.081 A 
ATOM      2  C   UNL d   1       0.184   2.207  -0.776  0.00  0.00     0.081 A 
ATOM      3  C   UNL d   1       0.059   0.762  -1.320  0.00  0.00     0.065 C 
ATOM      4  C   UNL d   1       0.005   0.764   1.327  0.00  0.00     0.065 C 
ATOM      5  C   UNL d   1       1.342   2.919   1.257  0.00  0.00     0.148 A 
ATOM      6  C   UNL d   1       1.516   2.853  -1.110  0.00  0.00     0.148 A 
ATOM      7  C   UNL d   1       2.235   3.386   0.116  0.00  0.00     0.158 A 
ATOM      8  C   UNL d   1       1.193  -0.041  -0.685  0.00  0.00    -0.042 A 
ATOM      9  C   UNL d   1       1.164  -0.041   0.735  0.00  0.00    -0.042 A 
ATOM     10  C   UNL d   1      -1.267   0.196   0.695  0.00  0.00    -0.042 A 
ATOM     11  C   UNL d   1      -1.240   0.194  -0.730  0.00  0.00    -0.042 A 
ATOM     12  O   UNL d   1       1.904   2.986  -2.270  0.00  0.00    -0.296 OA
ATOM     13  O   UNL d   1       1.543   3.133   2.448  0.00  0.00    -0.296 OA
ATOM     14  C   UNL d   1       2.088  -0.777   1.459  0.00  0.00     0.008 A 
ATOM     15  C   UNL d   1      -2.270  -0.396  -1.448  0.00  0.00     0.008 A 
ATOM     16  C   UNL d   1      -2.324  -0.374   1.390  0.00  0.00     0.008 A 
ATOM     17  C   UNL d   1       2.158  -0.757  -1.377  0.00  0.00     0.008 A 
ATOM     18  C   UNL d   1      -3.326  -0.980  -0.743  0.00  0.00     0.001 A 
ATOM     19  C   UNL d   1      -3.354  -0.967   0.661  0.00  0.00     0.001 A 
ATOM     20  C   UNL d   1       3.094  -1.487  -0.644  0.00  0.00     0.001 A 
ATOM     21  C   UNL d   1       3.056  -1.501   0.759  0.00  0.00     0.001 A 
ENDROOT
BRANCH   7  22
ATOM     22  C   UNL d   1       3.695   3.014   0.307  0.00  0.00    -0.040 A 
ATOM     23  C   UNL d   1       4.432   2.234  -0.592  0.00  0.00     0.011 A 
ATOM     24  C   UNL d   1       5.771   1.908  -0.329  0.00  0.00     0.037 A 
ATOM     25  C   UNL d   1       6.396   2.339   0.841  0.00  0.00     0.068 A 
ATOM     26  C   UNL d   1       5.695   3.160   1.716  0.00  0.00     0.037 A 
ATOM     27  C   UNL d   1       4.366   3.496   1.446  0.00  0.00     0.011 A 
BRANCH  25  28
ATOM     28  O   UNL d   1       7.690   1.930   1.017  0.00  0.00    -0.356 OA
ATOM     29  C   UNL d   1       8.117   1.845   2.374  0.00  0.00     0.210 C 
ENDBRANCH  25  28
ENDBRANCH   7  22
TORSDOF 2
