REMARK  6 active torsions:
REMARK  status: ('A' for Active; 'I' for Inactive)
REMARK    1  A    between atoms: C_10  and  C_1 
REMARK    2  A    between atoms: N_14  and  C_3 
REMARK    3  A    between atoms: C_12  and  C_6 
REMARK    4  A    between atoms: C_18  and  C_9 
REMARK    5  A    between atoms: O_20  and  C_10 
REMARK    6  A    between atoms: C_23  and  O_20 
ROOT
ATOM      1  C   UNL d   1       2.370   0.081   0.062  0.00  0.00     0.179 A 
ATOM      2  C   UNL d   1       0.256   0.895   0.084  0.00  0.00     0.058 A 
ATOM      3  C   UNL d   1       1.636   1.247   0.128  0.00  0.00     0.082 A 
ATOM      4  C   UNL d   1       0.246  -0.500   0.036  0.00  0.00     0.162 A 
ATOM      5  O   UNL d   1       1.517  -0.988   0.031  0.00  0.00    -0.284 OA
ATOM      6  C   UNL d   1      -1.003   1.530   0.084  0.00  0.00     0.017 A 
ATOM      7  N   UNL d   1      -0.821  -1.314  -0.015  0.00  0.00    -0.335 N 
ATOM      8  HN  UNL d   1      -0.737  -2.330  -0.037  1.00  0.00     0.168 HD
ATOM      9  C   UNL d   1      -2.013  -0.681  -0.036  0.00  0.00     0.045 A 
ATOM     10  C   UNL d   1      -2.139   0.708   0.028  0.00  0.00     0.045 A 
ENDROOT
BRANCH   9  11
ATOM     11  C   UNL d   1      -3.198  -1.563  -0.141  0.00  0.00    -0.009 A 
ATOM     12  C   UNL d   1      -3.230  -2.813   0.503  0.00  0.00     0.013 A 
ATOM     13  C   UNL d   1      -4.345  -3.653   0.409  0.00  0.00     0.001 A 
ATOM     14  C   UNL d   1      -5.452  -3.262  -0.338  0.00  0.00     0.000 A 
ATOM     15  C   UNL d   1      -5.445  -2.035  -0.991  0.00  0.00     0.001 A 
ATOM     16  C   UNL d   1      -4.330  -1.196  -0.895  0.00  0.00     0.013 A 
ENDBRANCH   9  11
BRANCH   6  17
ATOM     17  C   UNL d   1      -1.143   2.977   0.158  0.00  0.00     0.086 A 
ATOM     18  O   UNL d   1      -0.183   3.735  -0.451  0.00  0.00    -0.322 OA
ATOM     19  C   UNL d   1      -0.509   5.039  -0.258  0.00  0.00     0.142 A 
ATOM     20  C   UNL d   1      -1.686   5.138   0.443  0.00  0.00     0.027 A 
ATOM     21  C   UNL d   1      -2.106   3.810   0.696  0.00  0.00     0.040 A 
ENDBRANCH   6  17
BRANCH   1  22
ATOM     22  C   UNL d   1       3.791  -0.124  -0.054  0.00  0.00     0.319 C 
ATOM     23  O   UNL d   1       4.631   0.768  -0.153  0.00  0.00    -0.257 OA
BRANCH  22  24
ATOM     24  O   UNL d   1       4.070  -1.456  -0.145  0.00  0.00    -0.316 OA
BRANCH  24  25
ATOM     25  C   UNL d   1       5.357  -1.779  -0.686  0.00  0.00     0.175 C 
ATOM     26  C   UNL d   1       5.242  -1.808  -2.200  0.00  0.00     0.034 C 
ENDBRANCH  24  25
ENDBRANCH  22  24
ENDBRANCH   1  22
BRANCH   3  27
ATOM     27  N   UNL d   1       2.160   2.489   0.181  0.00  0.00    -0.396 N 
ATOM     28  H   UNL d   1       1.571   3.293  -0.038  0.00  0.00     0.156 HD
ATOM     29  H   UNL d   1       3.149   2.651  -0.009  0.00  0.00     0.156 HD
ENDBRANCH   3  27
TORSDOF 6
