REMARK  9 active torsions:
REMARK  status: ('A' for Active; 'I' for Inactive)
REMARK    1  A    between atoms: C_12  and  N_1 
REMARK    2  A    between atoms: S_9  and  C_2 
REMARK    3  A    between atoms: C_10  and  C_3 
REMARK    4  A    between atoms: C_8  and  O_11 
REMARK    5  A    between atoms: C_18  and  S_9 
REMARK    6  A    between atoms: O_13  and  C_10 
REMARK    7  A    between atoms: O_11  and  C_17 
REMARK    8  A    between atoms: C_19  and  O_13 
REMARK    9  A    between atoms: C_24  and  C_18 
ROOT
ATOM      1  N   UNL d   1      -0.401  -1.192  -0.018  0.00  0.00    -0.309 N 
ATOM      2  C   UNL d   1       0.872  -0.656  -0.024  0.00  0.00     0.163 A 
ATOM      3  C   UNL d   1      -1.247  -0.088   0.052  0.00  0.00     0.125 A 
ATOM      4  N   UNL d   1       0.807   0.650   0.044  0.00  0.00    -0.278 N 
ATOM      5  HN  UNL d   1       1.601   1.289   0.062  1.00  0.00     0.189 HD
ATOM      6  N   UNL d   1      -0.508   1.006   0.088  0.00  0.00    -0.285 N 
ATOM      7  HN  UNL d   1      -0.864   1.961   0.139  1.00  0.00     0.188 HD
ENDROOT
BRANCH   3   8
ATOM      8  C   UNL d   1      -2.741  -0.050   0.022  0.00  0.00     0.253 C 
BRANCH   8   9
ATOM      9  O   UNL d   1      -3.207  -0.252   1.356  0.00  0.00    -0.344 OA
BRANCH   9  10
ATOM     10  C   UNL d   1      -4.564  -0.266   1.537  0.00  0.00     0.069 A 
ATOM     11  C   UNL d   1      -4.995  -0.936   2.683  0.00  0.00     0.039 A 
ATOM     12  C   UNL d   1      -6.354  -1.002   3.000  0.00  0.00     0.040 A 
ATOM     13  C   UNL d   1      -7.302  -0.370   2.195  0.00  0.00     0.078 A 
ATOM     14  C   UNL d   1      -6.881   0.276   1.034  0.00  0.00     0.040 A 
ATOM     15  C   UNL d   1      -5.513   0.340   0.713  0.00  0.00     0.039 A 
BRANCH  13  16
ATOM     16  O   UNL d   1      -8.593  -0.517   2.602  0.00  0.00    -0.255 OA
BRANCH  16  17
ATOM     17  C   UNL d   1      -9.504   0.557   2.419  0.00  0.00     0.530 C 
ATOM     18  F   UNL d   1      -8.956   1.677   1.910  0.00  0.00    -0.144 F 
ATOM     19  F   UNL d   1     -10.503   0.153   1.603  0.00  0.00    -0.144 F 
ATOM     20  F   UNL d   1     -10.049   0.867   3.619  0.00  0.00    -0.144 F 
ENDBRANCH  16  17
ENDBRANCH  13  16
ENDBRANCH   9  10
ENDBRANCH   8   9
ENDBRANCH   3   8
BRANCH   1  21
ATOM     21  C   UNL d   1      -0.769  -2.602  -0.088  0.00  0.00     0.085 C 
ATOM     22  C   UNL d   1      -1.555  -3.093   1.130  0.00  0.00     0.032 C 
ATOM     23  C   UNL d   1      -1.481  -2.979  -1.390  0.00  0.00     0.032 C 
ENDBRANCH   1  21
BRANCH   2  24
ATOM     24  S   UNL d   1       2.383  -1.531  -0.134  0.00  0.00    -0.088 SA
BRANCH  24  25
ATOM     25  C   UNL d   1       3.547  -0.120  -0.090  0.00  0.00     0.121 C 
BRANCH  25  26
ATOM     26  C   UNL d   1       5.044  -0.365  -0.181  0.00  0.00    -0.049 A 
ATOM     27  C   UNL d   1       5.663  -1.618  -0.281  0.00  0.00     0.008 A 
ATOM     28  C   UNL d   1       7.062  -1.722  -0.357  0.00  0.00     0.001 A 
ATOM     29  C   UNL d   1       7.863  -0.579  -0.336  0.00  0.00     0.000 A 
ATOM     30  C   UNL d   1       7.271   0.672  -0.236  0.00  0.00     0.001 A 
ATOM     31  C   UNL d   1       5.877   0.776  -0.160  0.00  0.00     0.008 A 
ENDBRANCH  25  26
ENDBRANCH  24  25
ENDBRANCH   2  24
TORSDOF 9
