REMARK  2 active torsions:
REMARK  status: ('A' for Active; 'I' for Inactive)
REMARK    1  A    between atoms: N_7  and  C_5 
REMARK    2  A    between atoms: C_20  and  N_10 
ROOT
ATOM      1  C   UNL d   1       1.982   0.579   0.909  0.00  0.00     0.044 A 
ATOM      2  C   UNL d   1       2.424  -0.582   0.278  0.00  0.00     0.089 A 
ATOM      3  C   UNL d   1       2.807  -0.735   2.683  0.00  0.00    -0.008 C 
ATOM      4  C   UNL d   1       2.127   0.428   2.354  0.00  0.00    -0.029 C 
ATOM      5  C   UNL d   1       1.558   1.621   0.029  0.00  0.00     0.097 A 
ATOM      6  S   UNL d   1       3.089  -1.732   1.343  0.00  0.00    -0.075 SA
ATOM      7  N   UNL d   1       2.413  -0.852  -1.036  0.00  0.00    -0.346 N 
ATOM      8  HN  UNL d   1       2.731  -1.735  -1.438  1.00  0.00     0.167 HD
ATOM      9  N   UNL d   1       1.539   1.354  -1.304  0.00  0.00    -0.342 N 
ATOM     10  HN  UNL d   1       1.216   2.064  -1.962  1.00  0.00     0.167 HD
ATOM     11  C   UNL d   1       1.694   1.382   3.436  0.00  0.00     0.041 C 
ATOM     12  C   UNL d   1       1.943   0.161  -1.754  0.00  0.00     0.182 A 
ATOM     13  C   UNL d   1       3.247  -1.142   4.060  0.00  0.00     0.051 C 
ATOM     14  C   UNL d   1       1.869   0.804   4.851  0.00  0.00     0.009 C 
ATOM     15  C   UNL d   1       3.199   0.059   5.029  0.00  0.00    -0.014 C 
ATOM     16  C   UNL d   1       4.392   1.001   4.843  0.00  0.00     0.010 C 
ENDROOT
BRANCH   5  17
ATOM     17  N   UNL d   1       1.338   2.943   0.434  0.00  0.00    -0.265 NA
ATOM     18  C   UNL d   1       1.525   3.941  -0.659  0.00  0.00     0.116 C 
ATOM     19  C   UNL d   1       1.546   5.379  -0.083  0.00  0.00     0.138 C 
ATOM     20  N   UNL d   1       0.396   5.632   0.817  0.00  0.00    -0.379 N 
ATOM     21  C   UNL d   1       0.152   4.575   1.815  0.00  0.00     0.138 C 
ATOM     22  C   UNL d   1       0.053   3.199   1.109  0.00  0.00     0.116 C 
BRANCH  20  23
ATOM     23  C   UNL d   1      -0.482   6.681   0.659  0.00  0.00     0.030 A 
ATOM     24  C   UNL d   1      -1.148   7.248   1.761  0.00  0.00     0.029 A 
ATOM     25  C   UNL d   1      -2.061   8.296   1.623  0.00  0.00     0.002 A 
ATOM     26  C   UNL d   1      -2.335   8.821   0.367  0.00  0.00     0.000 A 
ATOM     27  C   UNL d   1      -1.683   8.292  -0.745  0.00  0.00     0.002 A 
ATOM     28  C   UNL d   1      -0.772   7.245  -0.595  0.00  0.00     0.029 A 
ENDBRANCH  20  23
ENDBRANCH   5  17
TORSDOF 2
