REMARK  3 active torsions:
REMARK  status: ('A' for Active; 'I' for Inactive)
REMARK    1  A    between atoms: C_6  and  N_1 
REMARK    2  A    between atoms: C_10  and  C_2 
REMARK    3  A    between atoms: O_16  and  C_13 
ROOT
ATOM      1  N   UNL d   1      -0.197  -1.324  -0.198  0.00  0.00    -0.239 N 
ATOM      2  C   UNL d   1       0.979  -0.689   0.018  0.00  0.00     0.147 A 
ATOM      3  N   UNL d   1       0.850   0.586   0.207  0.00  0.00    -0.238 N 
ATOM      4  HN  UNL d   1       1.594   1.264   0.372  1.00  0.00     0.196 HD
ATOM      5  C   UNL d   1      -1.159  -0.377  -0.056  0.00  0.00     0.395 A 
ATOM      6  O   UNL d   1      -0.549   0.840   0.137  0.00  0.00    -0.179 OA
ATOM      7  O   UNL d   1      -2.374  -0.533  -0.058  0.00  0.00    -0.235 OA
ENDROOT
BRANCH   1   8
ATOM      8  C   UNL d   1      -0.486  -2.690  -0.070  0.00  0.00     0.048 A 
ATOM      9  C   UNL d   1      -0.742  -3.442  -1.219  0.00  0.00     0.057 A 
ATOM     10  C   UNL d   1      -0.985  -4.822  -1.140  0.00  0.00     0.069 A 
ATOM     11 CL   UNL d   1      -1.146  -5.608  -2.671  0.00  0.00    -0.081 Cl
ATOM     12  C   UNL d   1      -1.037  -5.452   0.111  0.00  0.00     0.090 A 
ATOM     13  C   UNL d   1      -0.820  -4.669   1.260  0.00  0.00     0.041 A 
ATOM     14  C   UNL d   1      -0.532  -3.304   1.179  0.00  0.00     0.033 A 
BRANCH  12  15
ATOM     15  O   UNL d   1      -1.263  -6.759   0.442  0.00  0.00    -0.354 OA
ATOM     16  C   UNL d   1      -1.575  -7.715  -0.556  0.00  0.00     0.210 C 
ENDBRANCH  12  15
ENDBRANCH   1   8
BRANCH   2  17
ATOM     17  C   UNL d   1       2.305  -1.353  -0.002  0.00  0.00     0.010 A 
ATOM     18  C   UNL d   1       2.581  -2.454  -0.820  0.00  0.00     0.015 A 
ATOM     19  C   UNL d   1       3.859  -3.020  -0.841  0.00  0.00     0.001 A 
ATOM     20  C   UNL d   1       4.878  -2.470  -0.068  0.00  0.00     0.000 A 
ATOM     21  C   UNL d   1       4.623  -1.351   0.722  0.00  0.00     0.001 A 
ATOM     22  C   UNL d   1       3.342  -0.792   0.755  0.00  0.00     0.015 A 
ENDBRANCH   2  17
TORSDOF 3
