REMARK  7 active torsions:
REMARK  status: ('A' for Active; 'I' for Inactive)
REMARK    1  A    between atoms: O_5  and  C_1 
REMARK    2  A    between atoms: C_3  and  C_2 
REMARK    3  A    between atoms: C_6  and  C_3 
REMARK    4  A    between atoms: C_4  and  N_8 
REMARK    5  A    between atoms: C_14  and  O_5 
REMARK    6  A    between atoms: N_8  and  C_15 
REMARK    7  A    between atoms: O_23  and  C_16 
ROOT
ATOM      1  N   UNL d   1       4.083  -0.562  -5.560  0.00  0.00    -0.366 N 
ATOM      2  H   UNL d   1       5.080  -0.400  -5.715  0.00  0.00     0.165 HD
ENDROOT
BRANCH   1   3
ATOM      3  C   UNL d   1       3.410  -1.091  -6.628  0.00  0.00     0.092 C 
ATOM      4  C   UNL d   1       3.848  -1.309  -7.878  0.00  0.00     0.072 C 
BRANCH   4   5
ATOM      5  C   UNL d   1       5.211  -0.965  -8.362  0.00  0.00     0.183 C 
ATOM      6  O   UNL d   1       6.136  -0.712  -7.601  0.00  0.00    -0.288 OA
BRANCH   5   7
ATOM      7  C   UNL d   1       5.411  -0.999  -9.841  0.00  0.00     0.014 A 
ATOM      8  C   UNL d   1       4.387  -0.623 -10.721  0.00  0.00     0.018 A 
ATOM      9  C   UNL d   1       4.567  -0.727 -12.104  0.00  0.00     0.037 A 
ATOM     10  C   UNL d   1       5.774  -1.198 -12.618  0.00  0.00     0.068 A 
ATOM     11  C   UNL d   1       6.819  -1.509 -11.744  0.00  0.00     0.037 A 
ATOM     12  C   UNL d   1       6.641  -1.413 -10.359  0.00  0.00     0.018 A 
BRANCH  10  13
ATOM     13  O   UNL d   1       6.049  -1.341 -13.951  0.00  0.00    -0.356 OA
ATOM     14  C   UNL d   1       4.935  -1.697 -14.766  0.00  0.00     0.210 C 
ENDBRANCH  10  13
ENDBRANCH   5   7
ENDBRANCH   4   5
ENDBRANCH   1   3
BRANCH   1  15
ATOM     15  C   UNL d   1       3.571  -0.239  -4.294  0.00  0.00     0.032 A 
ATOM     16  C   UNL d   1       4.442  -0.172  -3.203  0.00  0.00     0.032 A 
ATOM     17  C   UNL d   1       3.959   0.050  -1.907  0.00  0.00     0.039 A 
ATOM     18  C   UNL d   1       2.592   0.204  -1.664  0.00  0.00     0.078 A 
ATOM     19  C   UNL d   1       1.719   0.190  -2.745  0.00  0.00     0.039 A 
ATOM     20  C   UNL d   1       2.204  -0.056  -4.040  0.00  0.00     0.032 A 
BRANCH  18  21
ATOM     21  O   UNL d   1       2.272   0.372  -0.353  0.00  0.00    -0.255 OA
BRANCH  21  22
ATOM     22  C   UNL d   1       0.951   0.127   0.104  0.00  0.00     0.530 C 
ATOM     23  F   UNL d   1       0.217  -0.650  -0.721  0.00  0.00    -0.144 F 
ATOM     24  F   UNL d   1       0.309   1.299   0.293  0.00  0.00    -0.144 F 
ATOM     25  F   UNL d   1       1.027  -0.506   1.298  0.00  0.00    -0.144 F 
ENDBRANCH  21  22
ENDBRANCH  18  21
ENDBRANCH   1  15
TORSDOF 7
