REMARK  10 active torsions:
REMARK  status: ('A' for Active; 'I' for Inactive)
REMARK    1  A    between atoms: C_11  and  C_2 
REMARK    2  A    between atoms: C_12  and  C_3 
REMARK    3  A    between atoms: N_19  and  C_4 
REMARK    4  A    between atoms: N_20  and  C_5 
REMARK    5  A    between atoms: C_9  and  C_6 
REMARK    6  A    between atoms: C_8  and  C_7 
REMARK    7  A    between atoms: O_23  and  C_11 
REMARK    8  A    between atoms: O_24  and  C_12 
REMARK    9  A    between atoms: C_29  and  O_23 
REMARK   10  A    between atoms: C_30  and  O_24 
ROOT
ATOM      1  C   UNL d   1      -0.494  -0.028   0.765  0.00  0.00     0.099 C 
ATOM      2  C   UNL d   1       0.022   1.293   0.665  0.00  0.00     0.063 C 
ATOM      3  C   UNL d   1       0.221  -1.196   0.288  0.00  0.00     0.063 C 
ATOM      4  C   UNL d   1       1.271   1.402   0.022  0.00  0.00    -0.005 C 
ATOM      5  C   UNL d   1       1.619  -1.014   0.082  0.00  0.00    -0.005 C 
ATOM      6  C   UNL d   1      -1.709  -0.274   1.505  0.00  0.00     0.104 C 
ATOM      7  C   UNL d   1       2.098   0.285  -0.089  0.00  0.00     0.027 C 
ATOM      8  N   UNL d   1      -2.691  -0.474   2.094  0.00  0.00    -0.191 NA
ENDROOT
BRANCH   2   9
ATOM      9  N   UNL d   1      -0.568   2.483   1.149  0.00  0.00    -0.388 N 
ATOM     10  C   UNL d   1      -2.005   2.596   1.416  0.00  0.00     0.149 C 
ATOM     11  C   UNL d   1       0.233   3.182   2.175  0.00  0.00     0.149 C 
ENDBRANCH   2   9
BRANCH   3  12
ATOM     12  N   UNL d   1      -0.462  -2.397   0.014  0.00  0.00    -0.388 N 
ATOM     13  C   UNL d   1       0.097  -3.749   0.012  0.00  0.00     0.149 C 
ATOM     14  C   UNL d   1      -1.829  -2.337  -0.539  0.00  0.00     0.149 C 
ENDBRANCH   3  12
BRANCH   4  15
ATOM     15  C   UNL d   1       1.794   2.669  -0.511  0.00  0.00     0.042 C 
ATOM     16  C   UNL d   1       1.440   3.287  -1.661  0.00  0.00     0.120 C 
ATOM     17  C   UNL d   1       2.055   4.545  -1.931  0.00  0.00     0.105 C 
ATOM     18  N   UNL d   1       2.599   5.562  -2.092  0.00  0.00    -0.191 NA
BRANCH  16  19
ATOM     19  C   UNL d   1       0.478   2.834  -2.706  0.00  0.00     0.303 C 
ATOM     20  O   UNL d   1       0.164   3.536  -3.658  0.00  0.00    -0.258 OA
BRANCH  19  21
ATOM     21  O   UNL d   1       0.031   1.569  -2.511  0.00  0.00    -0.317 OA
BRANCH  21  22
ATOM     22  C   UNL d   1      -0.912   1.083  -3.482  0.00  0.00     0.174 C 
ATOM     23  C   UNL d   1      -2.308   1.593  -3.168  0.00  0.00     0.034 C 
ENDBRANCH  21  22
ENDBRANCH  19  21
ENDBRANCH  16  19
ENDBRANCH   4  15
BRANCH   5  24
ATOM     24  C   UNL d   1       2.604  -2.111   0.264  0.00  0.00     0.042 C 
ATOM     25  C   UNL d   1       3.854  -2.442  -0.143  0.00  0.00     0.120 C 
ATOM     26  C   UNL d   1       4.361  -3.671   0.393  0.00  0.00     0.105 C 
ATOM     27  N   UNL d   1       4.699  -4.682   0.853  0.00  0.00    -0.191 NA
BRANCH  25  28
ATOM     28  C   UNL d   1       4.843  -1.756  -1.019  0.00  0.00     0.303 C 
ATOM     29  O   UNL d   1       6.011  -2.116  -1.087  0.00  0.00    -0.258 OA
BRANCH  28  30
ATOM     30  O   UNL d   1       4.346  -0.690  -1.682  0.00  0.00    -0.317 OA
BRANCH  30  31
ATOM     31  C   UNL d   1       5.324   0.139  -2.340  0.00  0.00     0.174 C 
ATOM     32  C   UNL d   1       6.032   1.039  -1.336  0.00  0.00     0.034 C 
ENDBRANCH  30  31
ENDBRANCH  28  30
ENDBRANCH  25  28
ENDBRANCH   5  24
TORSDOF 10
