REMARK  6 active torsions:
REMARK  status: ('A' for Active; 'I' for Inactive)
REMARK    1  A    between atoms: C_3  and  C_1 
REMARK    2  A    between atoms: C_2  and  C_3 
REMARK    3  A    between atoms: N_11  and  N_4 
REMARK    4  A    between atoms: C_6  and  O_13 
REMARK    5  A    between atoms: C_19  and  N_11 
REMARK    6  A    between atoms: O_13  and  C_20 
ROOT
ATOM      1  C   UNL d   1       0.928  -0.088   0.060  0.00  0.00     0.179 C 
ATOM      2  N   UNL d   1       0.211  -0.188   1.144  0.00  0.00    -0.287 N 
ATOM      3  HN  UNL d   1       0.662  -0.113   2.056  1.00  0.00     0.188 HD
ATOM      4  C   UNL d   1       0.265  -0.074  -1.214  0.00  0.00     0.123 C 
ATOM      5  N   UNL d   1      -0.331  -0.067  -2.217  0.00  0.00    -0.190 NA
ENDROOT
BRANCH   1   6
ATOM      6  C   UNL d   1       2.426   0.003   0.152  0.00  0.00     0.221 C 
ATOM      7  O   UNL d   1       2.973   0.722  -0.681  0.00  0.00    -0.284 OA
BRANCH   6   8
ATOM      8  C   UNL d   1       3.205  -0.744   1.147  0.00  0.00     0.024 A 
ATOM      9  C   UNL d   1       2.689  -1.580   2.122  0.00  0.00     0.065 A 
ATOM     10  S   UNL d   1       3.893  -2.263   3.130  0.00  0.00    -0.113 SA
ATOM     11  C   UNL d   1       5.137  -1.477   2.265  0.00  0.00     0.050 A 
ATOM     12  C   UNL d   1       4.641  -0.708   1.237  0.00  0.00     0.023 A 
ENDBRANCH   6   8
ENDBRANCH   1   6
BRANCH   2  13
ATOM     13  N   UNL d   1      -1.128  -0.392   1.076  0.00  0.00    -0.300 N 
ATOM     14  H   UNL d   1      -1.688  -0.341   0.222  0.00  0.00     0.187 HD
BRANCH  13  15
ATOM     15  C   UNL d   1      -1.850  -0.580   2.265  0.00  0.00     0.048 A 
ATOM     16  C   UNL d   1      -1.386  -0.114   3.501  0.00  0.00     0.034 A 
ATOM     17  C   UNL d   1      -2.119  -0.320   4.677  0.00  0.00     0.039 A 
ATOM     18  C   UNL d   1      -3.324  -1.015   4.633  0.00  0.00     0.078 A 
ATOM     19  C   UNL d   1      -3.742  -1.570   3.421  0.00  0.00     0.039 A 
ATOM     20  C   UNL d   1      -3.016  -1.349   2.247  0.00  0.00     0.034 A 
BRANCH  18  21
ATOM     21  O   UNL d   1      -4.150  -1.266   5.684  0.00  0.00    -0.255 OA
BRANCH  21  22
ATOM     22  C   UNL d   1      -4.207  -0.346   6.765  0.00  0.00     0.530 C 
ATOM     23  F   UNL d   1      -3.631   0.847   6.508  0.00  0.00    -0.144 F 
ATOM     24  F   UNL d   1      -5.507  -0.118   7.061  0.00  0.00    -0.144 F 
ATOM     25  F   UNL d   1      -3.619  -0.893   7.850  0.00  0.00    -0.144 F 
ENDBRANCH  21  22
ENDBRANCH  18  21
ENDBRANCH  13  15
ENDBRANCH   2  13
TORSDOF 6
