REMARK  5 active torsions:
REMARK  status: ('A' for Active; 'I' for Inactive)
REMARK    1  A    between atoms: C_11  and  C_3 
REMARK    2  A    between atoms: C_13  and  C_7 
REMARK    3  A    between atoms: O_21  and  C_11 
REMARK    4  A    between atoms: C_20  and  C_12 
REMARK    5  A    between atoms: O_26  and  C_23 
ROOT
ATOM      1  N   UNL d   1      -0.103   1.406   0.004  0.00  0.00    -0.279 N 
ATOM      2  C   UNL d   1      -0.379   0.091   0.183  0.00  0.00     0.155 A 
ATOM      3  C   UNL d   1      -2.499   1.776   0.302  0.00  0.00     0.067 A 
ATOM      4  C   UNL d   1       1.187   1.712  -0.360  0.00  0.00     0.267 C 
ATOM      5  N   UNL d   1      -1.534  -0.408   0.436  0.00  0.00    -0.339 N 
ATOM      6  HN  UNL d   1      -1.649  -1.412   0.578  1.00  0.00     0.168 HD
ATOM      7  C   UNL d   1      -1.149   2.411   0.034  0.00  0.00     0.169 A 
ATOM      8  C   UNL d   1       2.051   0.505  -0.201  0.00  0.00     0.077 C 
ATOM      9  C   UNL d   1      -2.617   0.444   0.510  0.00  0.00     0.022 A 
ATOM     10  S   UNL d   1       1.055  -0.887   0.029  0.00  0.00    -0.048 SA
ATOM     11  C   UNL d   1       3.390   0.476  -0.148  0.00  0.00     0.037 C 
ATOM     12  O   UNL d   1       1.565   2.784  -0.806  0.00  0.00    -0.266 OA
ATOM     13  C   UNL d   1      -3.889  -0.307   0.826  0.00  0.00     0.069 C 
ENDROOT
BRANCH   7  14
ATOM     14  C   UNL d   1      -0.801   3.496   1.056  0.00  0.00    -0.030 A 
ATOM     15  C   UNL d   1      -0.699   3.217   2.427  0.00  0.00     0.012 A 
ATOM     16  C   UNL d   1      -0.363   4.226   3.338  0.00  0.00     0.037 A 
ATOM     17  C   UNL d   1      -0.127   5.527   2.894  0.00  0.00     0.068 A 
ATOM     18  C   UNL d   1      -0.217   5.809   1.531  0.00  0.00     0.037 A 
ATOM     19  C   UNL d   1      -0.546   4.805   0.618  0.00  0.00     0.012 A 
BRANCH  17  20
ATOM     20  O   UNL d   1       0.193   6.602   3.676  0.00  0.00    -0.356 OA
ATOM     21  C   UNL d   1       0.314   6.368   5.072  0.00  0.00     0.210 C 
ENDBRANCH  17  20
ENDBRANCH   7  14
BRANCH   3  22
ATOM     22  C   UNL d   1      -3.657   2.712   0.345  0.00  0.00     0.293 C 
ATOM     23  O   UNL d   1      -4.668   2.559   1.008  0.00  0.00    -0.259 OA
BRANCH  22  24
ATOM     24  O   UNL d   1      -3.403   3.788  -0.447  0.00  0.00    -0.323 OA
ATOM     25  C   UNL d   1      -4.360   4.847  -0.347  0.00  0.00     0.213 C 
ENDBRANCH  22  24
ENDBRANCH   3  22
BRANCH  11  26
ATOM     26  C   UNL d   1       4.219   1.680  -0.135  0.00  0.00    -0.019 A 
ATOM     27  C   UNL d   1       4.692   2.273  -1.300  0.00  0.00     0.099 A 
ATOM     28  N   UNL d   1       5.416   3.418  -1.329  0.00  0.00    -0.374 N 
ATOM     29  C   UNL d   1       5.654   4.012  -0.140  0.00  0.00     0.087 A 
ATOM     30  HN  UNL d   1       5.764   3.811  -2.204  1.00  0.00     0.164 HD
ATOM     31  C   UNL d   1       5.234   3.500   1.077  0.00  0.00     0.018 A 
ATOM     32  C   UNL d   1       4.511   2.310   1.077  0.00  0.00     0.014 A 
ENDBRANCH  11  26
TORSDOF 5
