REMARK  4 active torsions:
REMARK  status: ('A' for Active; 'I' for Inactive)
REMARK    1  A    between atoms: C_2  and  C_1 
REMARK    2  A    between atoms: C_3  and  C_1 
REMARK    3  A    between atoms: S_5  and  C_3 
REMARK    4  A    between atoms: C_11  and  S_5 
ROOT
ATOM      1  C   UNL d   1       0.951  -0.016   0.232  0.00  0.00     0.173 C 
ATOM      2  O   UNL d   1       0.215   0.666   0.949  0.00  0.00    -0.291 OA
ENDROOT
BRANCH   1   3
ATOM      3  C   UNL d   1       2.430   0.088   0.444  0.00  0.00     0.013 A 
ATOM      4  C   UNL d   1       3.354  -0.169  -0.571  0.00  0.00     0.039 A 
ATOM      5  C   UNL d   1       4.727  -0.123  -0.297  0.00  0.00     0.040 A 
ATOM      6 CL   UNL d   1       5.816  -0.486  -1.588  0.00  0.00    -0.084 Cl
ATOM      7  C   UNL d   1       5.195   0.195   0.988  0.00  0.00    -0.040 A 
ATOM      8  C   UNL d   1       4.259   0.486   1.990  0.00  0.00     0.009 A 
ATOM      9  C   UNL d   1       6.662   0.208   1.319  0.00  0.00     0.050 C 
ATOM     10  C   UNL d   1       2.888   0.439   1.718  0.00  0.00     0.016 A 
ENDBRANCH   1   3
BRANCH   1  11
ATOM     11  C   UNL d   1       0.407  -0.940  -0.860  0.00  0.00     0.123 C 
ATOM     12  C   UNL d   1      -1.099  -0.789  -1.066  0.00  0.00     0.030 C 
BRANCH  11  13
ATOM     13  S   UNL d   1       0.884  -2.698  -0.548  0.00  0.00    -0.117 SA
BRANCH  13  14
ATOM     14  C   UNL d   1       0.083  -3.017   1.014  0.00  0.00     0.001 A 
ATOM     15  C   UNL d   1      -1.219  -3.524   1.038  0.00  0.00     0.019 A 
ATOM     16  C   UNL d   1      -1.876  -3.729   2.253  0.00  0.00     0.008 A 
ATOM     17  C   UNL d   1      -1.233  -3.446   3.463  0.00  0.00    -0.062 A 
ATOM     18  C   UNL d   1       0.093  -3.001   3.439  0.00  0.00     0.008 A 
ATOM     19  C   UNL d   1      -1.964  -3.631   4.760  0.00  0.00     0.048 C 
ATOM     20  C   UNL d   1       0.750  -2.795   2.221  0.00  0.00     0.019 A 
ENDBRANCH  13  14
ENDBRANCH  11  13
ENDBRANCH   1  11
TORSDOF 4
