REMARK  4 active torsions:
REMARK  status: ('A' for Active; 'I' for Inactive)
REMARK    1  A    between atoms: C_5  and  O_21 
REMARK    2  A    between atoms: C_5  and  C_14 
REMARK    3  A    between atoms: C_25  and  C_14 
REMARK    4  A    between atoms: O_26  and  C_25 
ROOT
ATOM      1  C   UNL d   1      -3.296   1.458  -4.862  0.00  0.00     0.002 C 
ATOM      2  C   UNL d   1      -2.379   0.805  -1.430  0.00  0.00    -0.063 C 
ATOM      3  C   UNL d   1      -2.488   0.479   0.101  0.00  0.00     0.021 C 
ATOM      4  C   UNL d   1      -3.587  -0.420  -4.199  0.00  0.00     0.006 C 
ATOM      5  C   UNL d   1      -2.090   0.961  -5.428  0.00  0.00     0.131 C 
ATOM      6  C   UNL d   1      -2.733  -0.655  -2.500  0.00  0.00     0.021 C 
ATOM      7  C   UNL d   1      -2.405  -1.020   0.466  0.00  0.00    -0.060 C 
ATOM      8  C   UNL d   1      -2.228   2.186  -1.907  0.00  0.00    -0.021 C 
ATOM      9  C   UNL d   1      -2.259  -0.382  -6.167  0.00  0.00     0.025 C 
ATOM     10  C   UNL d   1      -3.838   0.969   0.647  0.00  0.00    -0.004 C 
ATOM     11  C   UNL d   1      -2.864  -1.347  -5.173  0.00  0.00     0.014 C 
ATOM     12  C   UNL d   1      -2.622   2.859  -3.612  0.00  0.00     0.040 C 
ATOM     13  C   UNL d   1      -2.828  -1.471   1.667  0.00  0.00     0.059 C 
ATOM     14  C   UNL d   1      -3.180  -1.864  -1.716  0.00  0.00     0.014 C 
ATOM     15  C   UNL d   1      -4.378   0.489   1.781  0.00  0.00     0.052 C 
ATOM     16  C   UNL d   1      -3.694  -0.609   2.503  0.00  0.00     0.172 C 
ATOM     17  C   UNL d   1      -2.147  -2.058  -0.586  0.00  0.00     0.036 C 
ATOM     18  O   UNL d   1      -3.943  -0.873   3.666  0.00  0.00    -0.289 OA
ATOM     19  C   UNL d   1      -4.262   2.147  -5.833  0.00  0.00     0.019 C 
ATOM     20  C   UNL d   1      -1.407   1.275   0.876  0.00  0.00     0.029 C 
ATOM     21  C   UNL d   1      -3.157  -0.359  -7.411  0.00  0.00     0.013 C 
ENDROOT
BRANCH   5  22
ATOM     22  O   UNL d   1      -1.307   1.889  -6.106  0.00  0.00    -0.381 OA
ATOM     23  H   UNL d   1      -0.392   1.727  -5.807  0.00  0.00     0.211 HD
ENDBRANCH   5  22
BRANCH   5  24
ATOM     24  C   UNL d   1      -2.144   0.948  -3.884  0.00  0.00     0.185 C 
ATOM     25  O   UNL d   1      -0.972   0.835  -3.450  0.00  0.00    -0.292 OA
BRANCH  24  26
ATOM     26  C   UNL d   1      -4.028   1.295  -2.987  0.00  0.00     0.245 C 
BRANCH  26  27
ATOM     27  O   UNL d   1      -4.762   2.448  -2.491  0.00  0.00    -0.393 OA
ATOM     28  H   UNL d   1      -4.370   2.731  -1.652  0.00  0.00     0.209 HD
ENDBRANCH  26  27
ENDBRANCH  24  26
ENDBRANCH   5  24
TORSDOF 4
