REMARK  5 active torsions:
REMARK  status: ('A' for Active; 'I' for Inactive)
REMARK    1  A    between atoms: C_7  and  N_1 
REMARK    2  A    between atoms: C_6  and  N_2 
REMARK    3  A    between atoms: C_4  and  C_3 
REMARK    4  A    between atoms: C_15  and  C_6 
REMARK    5  A    between atoms: C_16  and  C_7 
ROOT
ATOM      1  N   UNL d   1      -1.254   0.614  -0.235  0.00  0.00     0.131 N 
ATOM      2  N   UNL d   1       1.221   0.657  -0.236  0.00  0.00     0.131 N 
ATOM      3  C   UNL d   1      -0.031   1.369   0.155  0.00  0.00     0.490 C 
ATOM      4  C   UNL d   1      -1.228  -0.761   0.307  0.00  0.00     0.278 C 
ATOM      5  C   UNL d   1       1.249  -0.662   0.407  0.00  0.00     0.278 C 
ATOM      6  C   UNL d   1       0.059  -1.510  -0.004  0.00  0.00     0.061 C 
ENDROOT
BRANCH   3   7
ATOM      7  C   UNL d   1      -0.059   2.853  -0.286  0.00  0.00     0.005 C 
ATOM      8  C   UNL d   1      -0.103   3.881   0.683  0.00  0.00     0.021 C 
ATOM      9  C   UNL d   1      -0.169   5.202   0.259  0.00  0.00    -0.022 C 
ATOM     10  C   UNL d   1      -0.292   6.454   1.042  0.00  0.00     0.068 C 
ATOM     11  C   UNL d   1      -0.096   5.524  -1.085  0.00  0.00     0.075 C 
ATOM     12  C   UNL d   1      -0.585   7.431  -0.101  0.00  0.00     0.180 C 
ATOM     13  O   UNL d   1      -0.107   6.868  -1.341  0.00  0.00    -0.350 OA
ATOM     14  C   UNL d   1      -0.053   4.558  -2.061  0.00  0.00     0.038 C 
ATOM     15  C   UNL d   1      -0.116   3.228  -1.652  0.00  0.00     0.014 C 
ENDBRANCH   3   7
BRANCH   2  16
ATOM     16  C   UNL d   1       1.419   0.580  -1.694  0.00  0.00     0.314 C 
BRANCH  16  17
ATOM     17  C   UNL d   1       2.607  -0.220  -2.195  0.00  0.00    -0.030 A 
ATOM     18  C   UNL d   1       2.406  -1.305  -3.063  0.00  0.00     0.012 A 
ATOM     19  C   UNL d   1       3.494  -1.969  -3.622  0.00  0.00     0.043 A 
ATOM     20  C   UNL d   1       4.784  -1.547  -3.313  0.00  0.00     0.116 A 
ATOM     21  C   UNL d   1       5.004  -0.478  -2.455  0.00  0.00     0.043 A 
ATOM     22  F   UNL d   1       5.827  -2.167  -3.871  0.00  0.00    -0.206 F 
ATOM     23  C   UNL d   1       3.915   0.182  -1.889  0.00  0.00     0.012 A 
ENDBRANCH  16  17
ENDBRANCH   2  16
BRANCH   1  24
ATOM     24  C   UNL d   1      -2.458   1.308   0.291  0.00  0.00     0.314 C 
BRANCH  24  25
ATOM     25  C   UNL d   1      -3.781   0.652  -0.060  0.00  0.00    -0.030 A 
ATOM     26  C   UNL d   1      -4.641   0.195   0.954  0.00  0.00     0.012 A 
ATOM     27  C   UNL d   1      -5.885  -0.347   0.630  0.00  0.00     0.043 A 
ATOM     28  C   UNL d   1      -6.270  -0.430  -0.703  0.00  0.00     0.116 A 
ATOM     29  C   UNL d   1      -5.428   0.001  -1.721  0.00  0.00     0.043 A 
ATOM     30  F   UNL d   1      -7.476  -0.926  -1.010  0.00  0.00    -0.206 F 
ATOM     31  C   UNL d   1      -4.181   0.538  -1.400  0.00  0.00     0.012 A 
ENDBRANCH  24  25
ENDBRANCH   1  24
TORSDOF 5
