REMARK  4 active torsions:
REMARK  status: ('A' for Active; 'I' for Inactive)
REMARK    1  A    between atoms: C_7  and  C_2 
REMARK    2  A    between atoms: C_3  and  C_7 
REMARK    3  A    between atoms: N_10  and  C_3 
REMARK    4  A    between atoms: O_12  and  N_5 
ROOT
ATOM      1  C   UNL d   1       1.892  -4.933  -0.160  0.00  0.00     0.112 C 
ENDROOT
BRANCH   1   2
ATOM      2  C   UNL d   1       2.215  -4.317   1.193  0.00  0.00     0.079 C 
ATOM      3  N   UNL d   1       1.346  -3.502   1.718  0.00  0.00    -0.262 N 
ATOM      4  HN  UNL d   1       0.456  -3.248   1.289  1.00  0.00     0.195 HD
BRANCH   3   5
ATOM      5  O   UNL d   1       1.803  -3.022   2.957  0.00  0.00    -0.289 OA
ATOM      6  H   UNL d   1       1.140  -2.338   3.168  0.00  0.00     0.244 HD
ENDBRANCH   3   5
BRANCH   2   7
ATOM      7  N   UNL d   1       3.405  -4.641   1.796  0.00  0.00    -0.290 NA
ATOM      8  H   UNL d   1       3.769  -5.570   1.619  0.00  0.00     0.125 HD
ATOM      9  H   UNL d   1       3.407  -4.372   2.776  0.00  0.00     0.125 HD
ENDBRANCH   2   7
ENDBRANCH   1   2
BRANCH   1  10
ATOM     10  C   UNL d   1       1.284  -6.317  -0.065  0.00  0.00    -0.030 A 
ATOM     11  C   UNL d   1       2.055  -7.493  -0.025  0.00  0.00     0.043 A 
ATOM     12  C   UNL d   1       1.441  -8.747   0.010  0.00  0.00     0.066 A 
ATOM     13 CL   UNL d   1       3.782  -7.456  -0.025  0.00  0.00    -0.084 Cl
ATOM     14  C   UNL d   1       0.056  -8.832   0.019  0.00  0.00     0.118 A 
ATOM     15  C   UNL d   1      -0.730  -7.687   0.010  0.00  0.00     0.043 A 
ATOM     16  F   UNL d   1      -0.531 -10.035   0.036  0.00  0.00    -0.206 F 
ATOM     17  C   UNL d   1      -0.118  -6.433  -0.026  0.00  0.00     0.012 A 
ENDBRANCH   1  10
TORSDOF 4
