REMARK  6 active torsions:
REMARK  status: ('A' for Active; 'I' for Inactive)
REMARK    1  A    between atoms: N_2  and  C_1 
REMARK    2  A    between atoms: N_6  and  C_1 
REMARK    3  A    between atoms: C_3  and  N_2 
REMARK    4  A    between atoms: C_10  and  N_6 
REMARK    5  A    between atoms: O_7  and  C_12 
REMARK    6  A    between atoms: C_12  and  C_10 
ROOT
ATOM      1  N   UNL d   1       0.478   0.155   1.245  0.00  0.00    -0.333 N 
ATOM      2  H   UNL d   1       0.979   0.282   0.380  0.00  0.00     0.168 HD
ENDROOT
BRANCH   1   3
ATOM      3  C   UNL d   1      -0.766  -0.404   1.080  0.00  0.00     0.172 C 
ATOM      4  S   UNL d   1      -2.206   0.146   1.724  0.00  0.00    -0.041 SA
BRANCH   3   5
ATOM      5  N   UNL d   1      -0.810  -1.481   0.239  0.00  0.00    -0.365 N 
ATOM      6  H   UNL d   1      -1.745  -1.875   0.162  0.00  0.00     0.161 HD
BRANCH   5   7
ATOM      7  C   UNL d   1       0.246  -2.483   0.097  0.00  0.00     0.148 C 
BRANCH   7   8
ATOM      8  C   UNL d   1       0.126  -3.557   1.183  0.00  0.00     0.183 C 
BRANCH   8   9
ATOM      9  O   UNL d   1      -1.131  -4.224   1.059  0.00  0.00    -0.399 OA
ATOM     10  H   UNL d   1      -1.223  -4.807   1.831  0.00  0.00     0.209 HD
ENDBRANCH   8   9
ENDBRANCH   7   8
ENDBRANCH   5   7
ENDBRANCH   3   5
ENDBRANCH   1   3
BRANCH   1  11
ATOM     11  C   UNL d   1       0.965   0.844   2.378  0.00  0.00     0.040 A 
ATOM     12  C   UNL d   1       1.877   1.907   2.244  0.00  0.00    -0.035 A 
ATOM     13  C   UNL d   1       2.252   2.530   0.929  0.00  0.00     0.050 C 
ATOM     14  C   UNL d   1       2.456   2.453   3.407  0.00  0.00     0.009 A 
ATOM     15  C   UNL d   1       2.120   1.977   4.673  0.00  0.00     0.001 A 
ATOM     16  C   UNL d   1       1.196   0.948   4.799  0.00  0.00     0.002 A 
ATOM     17  C   UNL d   1       0.625   0.384   3.658  0.00  0.00     0.030 A 
ENDBRANCH   1  11
TORSDOF 6
