REMARK  3 active torsions:
REMARK  status: ('A' for Active; 'I' for Inactive)
REMARK    1  A    between atoms: N_3  and  C_9 
REMARK    2  A    between atoms: C_14  and  C_4 
REMARK    3  A    between atoms: C_11  and  C_6 
ROOT
ATOM      1  N   UNL d   1      -0.424   1.621  -0.765  0.00  0.00    -0.358 N 
ATOM      2  HN  UNL d   1      -0.247   2.194  -1.590  1.00  0.00     0.166 HD
ATOM      3  C   UNL d   1      -1.554   1.742  -0.133  0.00  0.00     0.021 C 
ATOM      4  S   UNL d   1      -1.193  -1.493  -0.456  0.00  0.00    -0.118 SA
ATOM      5  C   UNL d   1      -2.356  -0.545   0.616  0.00  0.00     0.091 C 
ATOM      6  C   UNL d   1      -1.935   0.866   1.050  0.00  0.00     0.078 C 
ATOM      7  C   UNL d   1       0.560   0.715  -0.328  0.00  0.00     0.049 A 
ATOM      8  C   UNL d   1       0.363  -0.669  -0.153  0.00  0.00     0.028 A 
ATOM      9  C   UNL d   1       1.838   1.248  -0.104  0.00  0.00     0.031 A 
ATOM     10  C   UNL d   1       1.446  -1.480   0.223  0.00  0.00     0.021 A 
ATOM     11  C   UNL d   1       2.709  -0.929   0.446  0.00  0.00     0.002 A 
ATOM     12  C   UNL d   1       2.905   0.438   0.286  0.00  0.00     0.002 A 
ENDROOT
BRANCH   5  13
ATOM     13  C   UNL d   1      -3.769  -0.525   0.032  0.00  0.00    -0.041 A 
ATOM     14  C   UNL d   1      -4.008  -0.264  -1.330  0.00  0.00     0.044 A 
ATOM     15  C   UNL d   1      -5.319  -0.160  -1.813  0.00  0.00     0.103 A 
ATOM     16  C   UNL d   1      -6.409  -0.320  -0.951  0.00  0.00     0.036 A 
ATOM     17  C   UNL d   1      -6.183  -0.587   0.398  0.00  0.00     0.003 A 
ATOM     18  C   UNL d   1      -4.876  -0.686   0.885  0.00  0.00     0.008 A 
BRANCH  15  19
ATOM     19  N   UNL d   1      -5.546   0.138  -3.233  0.00  0.00    -0.116 N 
ATOM     20  O   UNL d   1      -4.557   0.281  -3.964  0.00  0.00    -0.532 OA
ATOM     21  O   UNL d   1      -6.722   0.231  -3.619  0.00  0.00    -0.532 OA
ENDBRANCH  15  19
ENDBRANCH   5  13
BRANCH   3  22
ATOM     22  C   UNL d   1      -2.505   2.804  -0.596  0.00  0.00    -0.013 A 
ATOM     23  C   UNL d   1      -2.533   3.149  -1.952  0.00  0.00     0.014 A 
ATOM     24  C   UNL d   1      -3.332   4.209  -2.397  0.00  0.00     0.007 A 
ATOM     25  C   UNL d   1      -4.098   4.947  -1.488  0.00  0.00    -0.062 A 
ATOM     26  C   UNL d   1      -4.100   4.573  -0.140  0.00  0.00     0.007 A 
ATOM     27  C   UNL d   1      -4.894   6.130  -1.955  0.00  0.00     0.048 C 
ATOM     28  C   UNL d   1      -3.304   3.514   0.306  0.00  0.00     0.014 A 
ENDBRANCH   3  22
TORSDOF 3
