REMARK  6 active torsions:
REMARK  status: ('A' for Active; 'I' for Inactive)
REMARK    1  A    between atoms: N_2  and  S_1 
REMARK    2  A    between atoms: C_3  and  S_1 
REMARK    3  A    between atoms: N_4  and  N_2 
REMARK    4  A    between atoms: O_17  and  C_8 
REMARK    5  A    between atoms: O_21  and  C_9 
REMARK    6  A    between atoms: C_15  and  C_14 
ROOT
ATOM      1  N   UNL d   1       0.875  -1.248   2.403  0.00  0.00    -0.302 N 
ATOM      2  HN  UNL d   1       1.473  -1.988   2.035  1.00  0.00     0.186 HD
ATOM      3  C   UNL d   1       0.431  -1.270   3.617  0.00  0.00     0.119 C 
ENDROOT
BRANCH   1   4
ATOM      4  N   UNL d   1       0.484  -0.136   1.611  0.00  0.00    -0.223 N 
ATOM      5  H   UNL d   1      -0.186   0.578   1.896  0.00  0.00     0.200 HD
BRANCH   4   6
ATOM      6  S   UNL d   1       1.059   0.013   0.023  0.00  0.00     0.276 S 
ATOM      7  O   UNL d   1       2.505  -0.053   0.029  0.00  0.00    -0.199 OA
ATOM      8  O   UNL d   1       0.365   1.152  -0.551  0.00  0.00    -0.199 OA
BRANCH   6   9
ATOM      9  C   UNL d   1       0.432  -1.456  -0.760  0.00  0.00     0.081 A 
ATOM     10  C   UNL d   1      -0.810  -1.426  -1.400  0.00  0.00     0.026 A 
ATOM     11  C   UNL d   1      -1.248  -2.549  -2.107  0.00  0.00     0.008 A 
ATOM     12  C   UNL d   1      -0.446  -3.696  -2.189  0.00  0.00    -0.062 A 
ATOM     13  C   UNL d   1       0.790  -3.718  -1.531  0.00  0.00     0.008 A 
ATOM     14  C   UNL d   1      -0.906  -4.870  -3.006  0.00  0.00     0.048 C 
ATOM     15  C   UNL d   1       1.233  -2.600  -0.821  0.00  0.00     0.026 A 
ENDBRANCH   6   9
ENDBRANCH   4   6
ENDBRANCH   1   4
BRANCH   3  16
ATOM     16  C   UNL d   1       0.785  -2.388   4.514  0.00  0.00    -0.017 A 
ATOM     17  C   UNL d   1       0.301  -2.414   5.827  0.00  0.00     0.052 A 
ATOM     18  C   UNL d   1       0.628  -3.479   6.685  0.00  0.00     0.102 A 
ATOM     19  C   UNL d   1       1.450  -4.519   6.204  0.00  0.00     0.101 A 
ATOM     20  C   UNL d   1       1.927  -4.471   4.887  0.00  0.00     0.040 A 
ATOM     21  C   UNL d   1       1.601  -3.415   4.044  0.00  0.00     0.016 A 
BRANCH  18  22
ATOM     22  O   UNL d   1       0.184  -3.557   7.978  0.00  0.00    -0.353 OA
ATOM     23  C   UNL d   1      -0.646  -2.521   8.482  0.00  0.00     0.210 C 
ENDBRANCH  18  22
BRANCH  19  24
ATOM     24  O   UNL d   1       1.887  -5.644   6.853  0.00  0.00    -0.353 OA
ATOM     25  C   UNL d   1       1.494  -5.867   8.197  0.00  0.00     0.210 C 
ENDBRANCH  19  24
ENDBRANCH   3  16
TORSDOF 6
