REMARK  5 active torsions:
REMARK  status: ('A' for Active; 'I' for Inactive)
REMARK    1  A    between atoms: C_9  and  N_1 
REMARK    2  A    between atoms: C_7  and  C_2 
REMARK    3  A    between atoms: N_10  and  C_8 
REMARK    4  A    between atoms: C_11  and  N_10 
REMARK    5  A    between atoms: O_17  and  C_12 
ROOT
ATOM      1  N   UNL d   1       3.729   0.703   0.019  0.00  0.00    -0.225 N 
ATOM      2  C   UNL d   1       3.669  -0.692   0.011  0.00  0.00     0.139 C 
ATOM      3  N   UNL d   1       5.727  -0.060  -0.055  0.00  0.00    -0.007 NA
ATOM      4  N   UNL d   1       5.027   1.059  -0.151  0.00  0.00     0.001 NA
ATOM      5  N   UNL d   1       4.907  -1.150   0.059  0.00  0.00    -0.270 N 
ATOM      6  HN  UNL d   1       5.195  -2.123   0.162  1.00  0.00     0.185 HD
ENDROOT
BRANCH   2   7
ATOM      7  C   UNL d   1       2.440  -1.369  -0.188  0.00  0.00     0.068 C 
ATOM      8  C   UNL d   1       2.203  -2.640   0.154  0.00  0.00     0.092 C 
BRANCH   8   9
ATOM      9  N   UNL d   1       3.002  -3.579   0.752  0.00  0.00    -0.366 N 
ATOM     10  H   UNL d   1       3.973  -3.304   0.891  0.00  0.00     0.165 HD
BRANCH   9  11
ATOM     11  C   UNL d   1       2.685  -4.920   1.051  0.00  0.00     0.032 A 
ATOM     12  C   UNL d   1       1.454  -5.513   0.728  0.00  0.00     0.032 A 
ATOM     13  C   UNL d   1       1.164  -6.834   1.083  0.00  0.00     0.039 A 
ATOM     14  C   UNL d   1       2.101  -7.579   1.780  0.00  0.00     0.065 A 
ATOM     15  C   UNL d   1       3.324  -7.021   2.130  0.00  0.00     0.039 A 
ATOM     16  C   UNL d   1       3.609  -5.696   1.769  0.00  0.00     0.032 A 
BRANCH  14  17
ATOM     17  O   UNL d   1       1.775  -8.860   2.107  0.00  0.00    -0.361 OA
ATOM     18  H   UNL d   1       2.522  -9.260   2.581  0.00  0.00     0.217 HD
ENDBRANCH  14  17
ENDBRANCH   9  11
ENDBRANCH   8   9
ENDBRANCH   2   7
BRANCH   1  19
ATOM     19  C   UNL d   1       2.714   1.681   0.195  0.00  0.00     0.056 A 
ATOM     20  C   UNL d   1       1.552   1.393   0.926  0.00  0.00     0.031 A 
ATOM     21  C   UNL d   1       0.547   2.354   1.055  0.00  0.00     0.002 A 
ATOM     22  C   UNL d   1       0.696   3.603   0.459  0.00  0.00     0.000 A 
ATOM     23  C   UNL d   1       1.863   3.908  -0.241  0.00  0.00     0.002 A 
ATOM     24  C   UNL d   1       2.881   2.958  -0.359  0.00  0.00     0.031 A 
ENDBRANCH   1  19
TORSDOF 5
