REMARK  5 active torsions:
REMARK  status: ('A' for Active; 'I' for Inactive)
REMARK    1  A    between atoms: C_4  and  C_1 
REMARK    2  A    between atoms: O_9  and  C_2 
REMARK    3  A    between atoms: O_8  and  C_4 
REMARK    4  A    between atoms: C_7  and  O_9 
REMARK    5  A    between atoms: C_16  and  O_8 
ROOT
ATOM      1  C   UNL d   1      -0.018   1.223  -0.145  0.00  0.00     0.153 A 
ATOM      2  C   UNL d   1      -0.087  -0.973  -0.085  0.00  0.00     0.191 A 
ATOM      3  O   UNL d   1      -0.865   0.147  -0.092  0.00  0.00    -0.281 OA
ATOM      4  C   UNL d   1       1.290   0.777  -0.223  0.00  0.00     0.048 A 
ATOM      5  C   UNL d   1       1.242  -0.633  -0.211  0.00  0.00     0.067 A 
ENDROOT
BRANCH   1   6
ATOM      6  C   UNL d   1      -0.517   2.577  -0.066  0.00  0.00     0.322 C 
ATOM      7  O   UNL d   1       0.197   3.553   0.130  0.00  0.00    -0.257 OA
BRANCH   6   8
ATOM      8  O   UNL d   1      -1.902   2.603  -0.238  0.00  0.00    -0.273 OA
BRANCH   8   9
ATOM      9  C   UNL d   1      -2.597   3.830  -0.166  0.00  0.00     0.082 A 
ATOM     10  C   UNL d   1      -2.097   5.029  -0.669  0.00  0.00     0.079 A 
ATOM     11  C   UNL d   1      -2.859   6.185  -0.534  0.00  0.00     0.119 A 
ATOM     12  F   UNL d   1      -2.374   7.349  -0.986  0.00  0.00    -0.206 F 
ATOM     13  C   UNL d   1      -4.115   6.156   0.063  0.00  0.00     0.042 A 
ATOM     14  C   UNL d   1      -4.628   4.945   0.527  0.00  0.00     0.006 A 
ATOM     15  C   UNL d   1      -3.870   3.777   0.409  0.00  0.00     0.037 A 
ENDBRANCH   8   9
ENDBRANCH   6   8
ENDBRANCH   1   6
BRANCH   2  16
ATOM     16  O   UNL d   1      -0.766  -2.111   0.058  0.00  0.00    -0.288 OA
BRANCH  16  17
ATOM     17  C   UNL d   1      -0.145  -3.213   0.602  0.00  0.00     0.081 A 
ATOM     18  C   UNL d   1       0.634  -3.130   1.760  0.00  0.00     0.061 A 
ATOM     19  C   UNL d   1       1.234  -4.279   2.272  0.00  0.00     0.038 A 
ATOM     20 CL   UNL d   1       2.228  -4.165   3.672  0.00  0.00    -0.084 Cl
ATOM     21  C   UNL d   1       1.040  -5.513   1.660  0.00  0.00     0.048 A 
ATOM     22  C   UNL d   1       0.229  -5.592   0.528  0.00  0.00     0.038 A 
ATOM     23  C   UNL d   1      -0.369  -4.449  -0.004  0.00  0.00     0.061 A 
ATOM     24 CL   UNL d   1      -0.033  -7.119  -0.221  0.00  0.00    -0.084 Cl
ENDBRANCH  16  17
ENDBRANCH   2  16
TORSDOF 5
