REMARK  6 active torsions:
REMARK  status: ('A' for Active; 'I' for Inactive)
REMARK    1  A    between atoms: C_4  and  C_1 
REMARK    2  A    between atoms: C_6  and  C_2 
REMARK    3  A    between atoms: O_11  and  C_3 
REMARK    4  A    between atoms: O_12  and  C_4 
REMARK    5  A    between atoms: C_14  and  C_6 
REMARK    6  A    between atoms: O_13  and  C_8 
ROOT
ATOM      1  C   UNL d   1       1.477  -0.319   0.036  0.00  0.00     0.058 A 
ATOM      2  C   UNL d   1       0.685  -1.464  -0.136  0.00  0.00     0.059 A 
ATOM      3  C   UNL d   1      -0.713  -1.303  -0.167  0.00  0.00     0.085 A 
ATOM      4  C   UNL d   1      -1.295  -0.029  -0.005  0.00  0.00     0.074 A 
ATOM      5  C   UNL d   1       0.889   0.946   0.186  0.00  0.00     0.055 A 
ATOM      6  C   UNL d   1      -0.495   1.096   0.182  0.00  0.00     0.071 A 
ENDROOT
BRANCH   1   7
ATOM      7  C   UNL d   1       2.947  -0.318  -0.001  0.00  0.00     0.294 C 
ATOM      8  O   UNL d   1       3.581   0.392  -0.763  0.00  0.00    -0.259 OA
BRANCH   7   9
ATOM      9  O   UNL d   1       3.430  -1.139   0.954  0.00  0.00    -0.322 OA
ATOM     10  C   UNL d   1       4.857  -1.172   1.079  0.00  0.00     0.213 C 
ENDBRANCH   7   9
ENDBRANCH   1   7
BRANCH   2  11
ATOM     11  C   UNL d   1       1.299  -2.806  -0.303  0.00  0.00     0.163 C 
ATOM     12  O   UNL d   1       1.002  -3.704   0.485  0.00  0.00    -0.292 OA
BRANCH  11  13
ATOM     13  C   UNL d   1       2.335  -3.006  -1.396  0.00  0.00     0.079 C 
ATOM     14  C   UNL d   1       2.206  -4.364  -2.055  0.00  0.00     0.013 C 
ENDBRANCH  11  13
ENDBRANCH   2  11
BRANCH   3  15
ATOM     15  O   UNL d   1      -1.584  -2.281  -0.576  0.00  0.00    -0.355 OA
ATOM     16  C   UNL d   1      -1.810  -3.315   0.382  0.00  0.00     0.210 C 
ENDBRANCH   3  15
BRANCH   6  17
ATOM     17  O   UNL d   1      -0.916   2.384   0.342  0.00  0.00    -0.356 OA
ATOM     18  C   UNL d   1      -2.313   2.633   0.267  0.00  0.00     0.210 C 
ENDBRANCH   6  17
TORSDOF 6
