REMARK  3 active torsions:
REMARK  status: ('A' for Active; 'I' for Inactive)
REMARK    1  A    between atoms: N_5  and  C_1 
REMARK    2  A    between atoms: S_6  and  C_1 
REMARK    3  A    between atoms: C_7  and  S_6 
ROOT
ATOM      1  N   UNL d   1       2.378   2.755   2.289  0.00  0.00    -0.197 NA
ATOM      2  C   UNL d   1       2.814   2.299   1.313  0.00  0.00     0.069 C 
ATOM      3  C   UNL d   1       3.371   1.726   0.082  0.00  0.00     0.205 C 
ENDROOT
BRANCH   3   4
ATOM      4  S   UNL d   1       2.956  -0.030  -0.158  0.00  0.00    -0.086 SA
BRANCH   4   5
ATOM      5  C   UNL d   1       1.188   0.072  -0.182  0.00  0.00     0.136 C 
ATOM      6  S   UNL d   1       0.457   0.798  -1.517  0.00  0.00    -0.053 SA
BRANCH   5   7
ATOM      7  N   UNL d   1       0.514  -0.511   0.901  0.00  0.00    -0.375 N 
ATOM      8  C   UNL d   1       1.159  -1.195   2.026  0.00  0.00     0.150 C 
ATOM      9  C   UNL d   1      -0.950  -0.560   0.977  0.00  0.00     0.150 C 
ENDBRANCH   5   7
ENDBRANCH   4   5
ENDBRANCH   3   4
TORSDOF 3
