REMARK  4 active torsions:
REMARK  status: ('A' for Active; 'I' for Inactive)
REMARK    1  A    between atoms: C_8  and  N_3 
REMARK    2  A    between atoms: C_10  and  C_8 
REMARK       I    between atoms: N_16  and  C_10 
REMARK    3  A    between atoms: N_14  and  N_16 
REMARK    4  A    between atoms: C_21  and  C_20 
ROOT
ATOM      1  N   UNL d   1      -0.755   0.823  -0.699  0.00  0.00    -0.248 N 
ATOM      2  C   UNL d   1      -1.211  -0.040   0.237  0.00  0.00     0.117 A 
ATOM      3  N   UNL d   1      -2.951   0.959  -0.429  0.00  0.00    -0.232 N 
ATOM      4  C   UNL d   1      -1.861   1.539  -1.111  0.00  0.00     0.350 A 
ATOM      5  N   UNL d   1      -2.499   0.008   0.459  0.00  0.00    -0.281 N 
ATOM      6  HN  UNL d   1      -3.042  -0.532   1.133  1.00  0.00     0.188 HD
ATOM      7  C   UNL d   1       0.596   0.995  -1.078  0.00  0.00     0.062 A 
ATOM      8  S   UNL d   1       1.107  -1.498   0.102  0.00  0.00    -0.120 SA
ATOM      9  C   UNL d   1      -0.287  -0.883   1.061  0.00  0.00     0.158 C 
ATOM     10  C   UNL d   1       1.554   0.024  -0.724  0.00  0.00     0.028 A 
ATOM     11  O   UNL d   1      -1.929   2.503  -1.858  0.00  0.00    -0.244 OA
ATOM     12  C   UNL d   1       1.022   2.112  -1.811  0.00  0.00     0.031 A 
ATOM     13  C   UNL d   1       2.900   0.191  -1.083  0.00  0.00     0.021 A 
ATOM     14  C   UNL d   1       2.368   2.278  -2.155  0.00  0.00     0.002 A 
ATOM     15  C   UNL d   1       3.307   1.322  -1.787  0.00  0.00     0.002 A 
ENDROOT
BRANCH   3  16
ATOM     16  C   UNL d   1      -4.234   1.625  -0.309  0.00  0.00     0.258 C 
BRANCH  16  17
ATOM     17  C   UNL d   1      -5.480   0.754  -0.197  0.00  0.00     0.256 C 
ATOM     18  N   UNL d   1      -5.260  -0.506   0.333  0.00  0.00    -0.269 N 
ATOM     19  H   UNL d   1      -4.302  -0.787   0.544  0.00  0.00     0.190 HD
ATOM     20  O   UNL d   1      -6.594   1.221  -0.442  0.00  0.00    -0.270 OA
BRANCH  18  21
ATOM     21  N   UNL d   1      -6.313  -1.347   0.528  0.00  0.00    -0.308 N 
ATOM     22  C   UNL d   1      -6.045  -2.497   1.055  0.00  0.00     0.120 C 
ATOM     23  HN  UNL d   1      -7.264  -1.084   0.272  1.00  0.00     0.186 HD
BRANCH  22  24
ATOM     24  C   UNL d   1      -7.109  -3.490   1.284  0.00  0.00    -0.004 A 
ATOM     25  C   UNL d   1      -6.797  -4.722   1.839  0.00  0.00     0.100 A 
ATOM     26  N   UNL d   1      -7.707  -5.699   2.065  0.00  0.00    -0.374 N 
ATOM     27  C   UNL d   1      -8.988  -5.427   1.719  0.00  0.00     0.087 A 
ATOM     28  HN  UNL d   1      -7.442  -6.594   2.475  1.00  0.00     0.164 HD
ATOM     29  C   UNL d   1      -9.397  -4.224   1.165  0.00  0.00     0.018 A 
ATOM     30  C   UNL d   1      -8.439  -3.237   0.945  0.00  0.00     0.015 A 
ENDBRANCH  22  24
ENDBRANCH  18  21
ENDBRANCH  16  17
ENDBRANCH   3  16
TORSDOF 4
