REMARK  5 active torsions:
REMARK  status: ('A' for Active; 'I' for Inactive)
REMARK    1  A    between atoms: N_6  and  C_1 
REMARK    2  A    between atoms: O_5  and  C_4 
REMARK    3  A    between atoms: C_7  and  O_5 
REMARK    4  A    between atoms: C_8  and  C_7 
REMARK    5  A    between atoms: O_14  and  C_9 
ROOT
ATOM      1  C   UNL d   1       0.978  -0.010  -0.177  0.00  0.00     0.111 A 
ATOM      2  N   UNL d   1       0.341   1.174  -0.311  0.00  0.00    -0.355 N 
ATOM      3  HN  UNL d   1       0.864   2.049  -0.362  1.00  0.00     0.166 HD
ATOM      4  C   UNL d   1       0.297  -1.231  -0.095  0.00  0.00     0.107 A 
ATOM      5  C   UNL d   1      -1.008   1.166  -0.377  0.00  0.00     0.089 A 
ATOM      6  C   UNL d   1      -1.100  -1.193  -0.155  0.00  0.00     0.041 A 
ATOM      7  C   UNL d   1      -1.769   0.018  -0.301  0.00  0.00     0.020 A 
ENDROOT
BRANCH   4   8
ATOM      8  O   UNL d   1       0.789  -2.500   0.046  0.00  0.00    -0.343 OA
BRANCH   8   9
ATOM      9  C   UNL d   1       2.191  -2.672   0.217  0.00  0.00     0.214 C 
BRANCH   9  10
ATOM     10  C   UNL d   1       2.483  -4.143   0.403  0.00  0.00    -0.034 A 
ATOM     11  C   UNL d   1       2.137  -5.066  -0.595  0.00  0.00     0.012 A 
ATOM     12  C   UNL d   1       2.439  -6.424  -0.451  0.00  0.00     0.037 A 
ATOM     13  C   UNL d   1       3.091  -6.879   0.695  0.00  0.00     0.068 A 
ATOM     14  C   UNL d   1       3.439  -5.962   1.690  0.00  0.00     0.037 A 
ATOM     15  C   UNL d   1       3.141  -4.605   1.548  0.00  0.00     0.012 A 
BRANCH  13  16
ATOM     16  O   UNL d   1       3.439  -8.174   0.961  0.00  0.00    -0.356 OA
ATOM     17  C   UNL d   1       3.084  -9.145  -0.016  0.00  0.00     0.210 C 
ENDBRANCH  13  16
ENDBRANCH   9  10
ENDBRANCH   8   9
ENDBRANCH   4   8
BRANCH   1  18
ATOM     18  N   UNL d   1       2.364   0.129  -0.162  0.00  0.00    -0.286 NA
ATOM     19  H   UNL d   1       2.527   1.134  -0.217  0.00  0.00     0.125 HD
ATOM     20  H   UNL d   1       2.766  -0.319  -0.979  0.00  0.00     0.125 HD
ENDBRANCH   1  18
TORSDOF 5
