REMARK  6 active torsions:
REMARK  status: ('A' for Active; 'I' for Inactive)
REMARK       I    between atoms: N_2  and  C_1 
REMARK    1  A    between atoms: C_3  and  C_1 
REMARK    2  A    between atoms: C_8  and  N_2 
REMARK    3  A    between atoms: C_7  and  C_3 
REMARK    4  A    between atoms: C_4  and  C_5 
REMARK    5  A    between atoms: C_18  and  C_13 
REMARK    6  A    between atoms: C_23  and  C_18 
ROOT
ATOM      1  C   UNL d   1       1.056   0.046   0.127  0.00  0.00     0.230 C 
ATOM      2  N   UNL d   1       0.674  -1.274  -0.061  0.00  0.00    -0.327 N 
ATOM      3  O   UNL d   1       2.047   0.421   0.749  0.00  0.00    -0.272 OA
ATOM      4  H   UNL d   1      -0.107  -1.448  -0.674  0.00  0.00     0.169 HD
ENDROOT
BRANCH   1   5
ATOM      5  C   UNL d   1       0.167   1.082  -0.579  0.00  0.00     0.107 C 
ATOM      6  C   UNL d   1      -1.335   0.843  -0.407  0.00  0.00     0.025 C 
BRANCH   5   7
ATOM      7  C   UNL d   1       0.549   1.283  -2.036  0.00  0.00    -0.045 A 
ATOM      8  C   UNL d   1       0.457   0.252  -2.981  0.00  0.00     0.008 A 
ATOM      9  C   UNL d   1       0.814   0.467  -4.313  0.00  0.00     0.007 A 
ATOM     10  C   UNL d   1       1.262   1.721  -4.738  0.00  0.00    -0.058 A 
ATOM     11  C   UNL d   1       1.345   2.758  -3.803  0.00  0.00     0.007 A 
ATOM     12  C   UNL d   1       1.002   2.539  -2.466  0.00  0.00     0.008 A 
BRANCH  10  13
ATOM     13  C   UNL d   1       1.620   1.941  -6.187  0.00  0.00     0.042 C 
BRANCH  13  14
ATOM     14  C   UNL d   1       3.066   2.416  -6.429  0.00  0.00    -0.019 C 
ATOM     15  C   UNL d   1       4.100   1.395  -5.951  0.00  0.00     0.010 C 
ATOM     16  C   UNL d   1       3.267   2.696  -7.920  0.00  0.00     0.010 C 
ENDBRANCH  13  14
ENDBRANCH  10  13
ENDBRANCH   5   7
ENDBRANCH   1   5
BRANCH   2  17
ATOM     17  C   UNL d   1       1.345  -2.422   0.409  0.00  0.00     0.034 A 
ATOM     18  C   UNL d   1       2.369  -2.385   1.347  0.00  0.00     0.030 A 
ATOM     19  C   UNL d   1       2.996  -3.564   1.763  0.00  0.00     0.010 A 
ATOM     20  C   UNL d   1       2.623  -4.821   1.256  0.00  0.00    -0.051 A 
ATOM     21  C   UNL d   1       1.590  -4.843   0.306  0.00  0.00     0.010 A 
ATOM     22  C   UNL d   1       0.953  -3.662  -0.103  0.00  0.00     0.030 A 
BRANCH  20  23
ATOM     23  C   UNL d   1       3.331  -6.088   1.760  0.00  0.00    -0.024 C 
ATOM     24  C   UNL d   1       2.797  -7.391   1.124  0.00  0.00     0.019 C 
ATOM     25  C   UNL d   1       4.840  -6.008   1.446  0.00  0.00     0.019 C 
ATOM     26  C   UNL d   1       3.138  -6.210   3.287  0.00  0.00     0.019 C 
ENDBRANCH  20  23
ENDBRANCH   2  17
TORSDOF 6
