REMARK  2 active torsions:
REMARK  status: ('A' for Active; 'I' for Inactive)
REMARK    1  A    between atoms: C_6  and  N_2 
REMARK    2  A    between atoms: C_9  and  C_6 
ROOT
ATOM      1  S   UNL d   1       1.351   0.312   0.070  0.00  0.00     0.268 S 
ATOM      2  N   UNL d   1       1.194  -1.365   0.115  0.00  0.00    -0.237 N 
ATOM      3  C   UNL d   1      -0.142  -1.798  -0.062  0.00  0.00     0.269 C 
ATOM      4  C   UNL d   1      -1.044  -0.628  -0.021  0.00  0.00     0.056 A 
ATOM      5  C   UNL d   1      -0.365   0.579   0.053  0.00  0.00     0.095 A 
ATOM      6  O   UNL d   1       1.879   0.782   1.329  0.00  0.00    -0.200 OA
ATOM      7  O   UNL d   1       1.879   0.709  -1.214  0.00  0.00    -0.200 OA
ATOM      8  O   UNL d   1      -0.513  -2.944  -0.249  0.00  0.00    -0.266 OA
ATOM      9  C   UNL d   1      -2.430  -0.651  -0.059  0.00  0.00     0.018 A 
ATOM     10  C   UNL d   1      -1.012   1.802   0.094  0.00  0.00     0.026 A 
ATOM     11  C   UNL d   1      -3.112   0.571  -0.014  0.00  0.00     0.001 A 
ATOM     12  C   UNL d   1      -2.409   1.789   0.060  0.00  0.00     0.002 A 
ENDROOT
BRANCH   2  13
ATOM     13  C   UNL d   1       2.402  -2.158  -0.118  0.00  0.00     0.149 C 
BRANCH  13  14
ATOM     14  C   UNL d   1       2.833  -3.021   1.035  0.00  0.00     0.005 A 
ATOM     15  C   UNL d   1       2.037  -4.232   1.459  0.00  0.00     0.007 A 
ATOM     16  C   UNL d   1       2.154  -3.054   2.385  0.00  0.00     0.007 A 
ENDBRANCH  13  14
ENDBRANCH   2  13
TORSDOF 2
