REMARK  3 active torsions:
REMARK  status: ('A' for Active; 'I' for Inactive)
REMARK    1  A    between atoms: C_3  and  C_1 
REMARK       I    between atoms: N_12  and  C_3 
REMARK    2  A    between atoms: C_22  and  N_12 
REMARK    3  A    between atoms: C_13  and  C_15 
ROOT
ATOM      1  C   UNL d   1      -1.400  -3.034   0.554  0.00  0.00     0.258 C 
ATOM      2  N   UNL d   1      -0.240  -3.633   0.085  0.00  0.00    -0.323 N 
ATOM      3  O   UNL d   1      -1.445  -2.023   1.257  0.00  0.00    -0.267 OA
ATOM      4  H   UNL d   1      -0.346  -4.420  -0.549  0.00  0.00     0.169 HD
ENDROOT
BRANCH   2   5
ATOM      5  C   UNL d   1       1.067  -3.111   0.259  0.00  0.00     0.035 A 
ATOM      6  C   UNL d   1       1.358  -2.087   1.168  0.00  0.00     0.043 A 
ATOM      7  C   UNL d   1       2.607  -1.450   1.202  0.00  0.00     0.001 A 
ATOM      8  C   UNL d   1       3.614  -1.929   0.359  0.00  0.00     0.014 A 
ATOM      9  C   UNL d   1       3.366  -3.003  -0.501  0.00  0.00     0.003 A 
ATOM     10  C   UNL d   1       2.096  -3.591  -0.553  0.00  0.00     0.029 A 
BRANCH   7  11
ATOM     11  C   UNL d   1       2.785  -0.275   2.045  0.00  0.00     0.102 A 
ATOM     12  O   UNL d   1       4.001   0.359   2.009  0.00  0.00    -0.304 OA
ATOM     13  C   UNL d   1       3.834   1.437   2.822  0.00  0.00     0.233 A 
ATOM     14  N   UNL d   1       2.653   1.544   3.382  0.00  0.00    -0.354 N 
ATOM     15  C   UNL d   1       1.974   0.459   2.889  0.00  0.00     0.127 A 
ATOM     16  HN  UNL d   1       2.320   2.259   4.028  1.00  0.00     0.166 HD
ENDBRANCH   7  11
ENDBRANCH   2   5
BRANCH   1  17
ATOM     17  C   UNL d   1      -2.705  -3.588   0.151  0.00  0.00     0.061 A 
ATOM     18  C   UNL d   1      -2.899  -4.779  -0.590  0.00  0.00     0.082 A 
ATOM     19  N   UNL d   1      -1.960  -5.632  -1.042  0.00  0.00    -0.310 N 
ATOM     20  C   UNL d   1      -4.305  -5.212  -0.965  0.00  0.00     0.068 A 
ATOM     21  S   UNL d   1      -2.767  -6.861  -1.820  0.00  0.00     0.068 SA
ATOM     22  HN  UNL d   1      -0.950  -5.542  -0.930  1.00  0.00     0.176 HD
ATOM     23  N   UNL d   1      -4.339  -6.359  -1.659  0.00  0.00    -0.310 N 
ATOM     24  HN  UNL d   1      -5.169  -6.830  -2.019  1.00  0.00     0.176 HD
ATOM     25  C   UNL d   1      -5.439  -4.446  -0.596  0.00  0.00     0.032 A 
ATOM     26  C   UNL d   1      -5.190  -3.285   0.145  0.00  0.00     0.003 A 
ATOM     27  C   UNL d   1      -3.885  -2.879   0.503  0.00  0.00     0.019 A 
ENDBRANCH   1  17
TORSDOF 3
