REMARK  4 active torsions:
REMARK  status: ('A' for Active; 'I' for Inactive)
REMARK    1  A    between atoms: C_11  and  N_1 
REMARK    2  A    between atoms: C_8  and  C_5 
REMARK    3  A    between atoms: N_9  and  C_6 
REMARK    4  A    between atoms: C_13  and  C_8 
REMARK       I    between atoms: C_10  and  N_9 
ROOT
ATOM      1  N   UNL d   1      -0.553   1.150   0.071  0.00  0.00    -0.218 N 
ATOM      2  N   UNL d   1      -1.320   0.006   0.180  0.00  0.00    -0.287 N 
ATOM      3  HN  UNL d   1      -2.325   0.063   0.344  1.00  0.00     0.188 HD
ATOM      4  C   UNL d   1       0.844   1.123  -0.039  0.00  0.00     0.293 A 
ATOM      5  C   UNL d   1      -0.729  -1.137   0.067  0.00  0.00     0.102 A 
ATOM      6  C   UNL d   1       1.483  -0.245  -0.115  0.00  0.00     0.107 A 
ATOM      7  C   UNL d   1       0.713  -1.332  -0.115  0.00  0.00     0.070 A 
ATOM      8  O   UNL d   1       1.608   2.090  -0.062  0.00  0.00    -0.264 OA
ENDROOT
BRANCH   5   9
ATOM      9  C   UNL d   1      -1.559  -2.405   0.162  0.00  0.00     0.210 C 
ATOM     10  O   UNL d   1      -1.053  -3.401   0.664  0.00  0.00    -0.285 OA
BRANCH   9  11
ATOM     11  C   UNL d   1      -2.971  -2.422  -0.290  0.00  0.00     0.016 A 
ATOM     12  C   UNL d   1      -3.450  -1.558  -1.281  0.00  0.00     0.017 A 
ATOM     13  C   UNL d   1      -4.811  -1.547  -1.595  0.00  0.00     0.025 A 
ATOM     14  C   UNL d   1      -5.685  -2.407  -0.929  0.00  0.00     0.034 A 
ATOM     15  C   UNL d   1      -5.206  -3.306   0.022  0.00  0.00     0.025 A 
ATOM     16 CL   UNL d   1      -7.370  -2.344  -1.270  0.00  0.00    -0.084 Cl
ATOM     17  C   UNL d   1      -3.845  -3.321   0.335  0.00  0.00     0.017 A 
ENDBRANCH   9  11
ENDBRANCH   5   9
BRANCH   1  18
ATOM     18  C   UNL d   1      -1.328   2.361   0.050  0.00  0.00     0.060 A 
ATOM     19  C   UNL d   1      -0.852   3.541  -0.538  0.00  0.00     0.031 A 
ATOM     20  C   UNL d   1      -1.639   4.699  -0.583  0.00  0.00     0.002 A 
ATOM     21  C   UNL d   1      -2.913   4.703  -0.024  0.00  0.00     0.000 A 
ATOM     22  C   UNL d   1      -3.407   3.545   0.568  0.00  0.00     0.002 A 
ATOM     23  C   UNL d   1      -2.627   2.382   0.592  0.00  0.00     0.031 A 
ENDBRANCH   1  18
BRANCH   6  24
ATOM     24  N   UNL d   1       2.868  -0.253  -0.168  0.00  0.00    -0.323 N 
ATOM     25  C   UNL d   1       3.704  -1.348  -0.239  0.00  0.00     0.218 C 
ATOM     26  O   UNL d   1       3.342  -2.516  -0.342  0.00  0.00    -0.274 OA
ATOM     27  C   UNL d   1       5.170  -1.007  -0.188  0.00  0.00     0.117 C 
ATOM     28  H   UNL d   1       3.285   0.677  -0.120  0.00  0.00     0.169 HD
ENDBRANCH   6  24
TORSDOF 4
