REMARK  4 active torsions:
REMARK  status: ('A' for Active; 'I' for Inactive)
REMARK    1  A    between atoms: C_2  and  N_1 
REMARK       I    between atoms: C_3  and  N_1 
REMARK    2  A    between atoms: C_5  and  C_3 
REMARK    3  A    between atoms: C_6  and  C_7 
REMARK    4  A    between atoms: O_14  and  C_6 
ROOT
ATOM      1  N   UNL d   1       1.126  -0.070   0.282  0.00  0.00    -0.322 N 
ATOM      2  C   UNL d   1       2.486  -0.053   0.046  0.00  0.00     0.245 C 
ATOM      3  O   UNL d   1       3.285   0.773   0.466  0.00  0.00    -0.268 OA
ATOM      4  H   UNL d   1       0.655  -0.967   0.230  0.00  0.00     0.169 HD
ENDROOT
BRANCH   1   5
ATOM      5  C   UNL d   1       0.445   0.943   0.991  0.00  0.00     0.057 A 
ATOM      6  C   UNL d   1      -0.553   0.593   1.914  0.00  0.00     0.062 A 
ATOM      7  C   UNL d   1      -1.249   1.577   2.617  0.00  0.00     0.045 A 
ATOM      8 CL   UNL d   1      -0.888  -1.067   2.270  0.00  0.00    -0.082 Cl
ATOM      9  C   UNL d   1      -0.979   2.920   2.361  0.00  0.00     0.012 A 
ATOM     10  C   UNL d   1      -0.008   3.284   1.428  0.00  0.00     0.021 A 
ATOM     11 BR   UNL d   1      -1.940   4.260   3.285  0.00  0.00    -0.051 Br
ATOM     12  C   UNL d   1       0.716   2.295   0.755  0.00  0.00     0.032 A 
ENDBRANCH   1   5
BRANCH   2  13
ATOM     13  C   UNL d   1       2.929  -1.232  -0.735  0.00  0.00     0.081 C 
ATOM     14  C   UNL d   1       4.230  -1.536  -0.811  0.00  0.00     0.086 C 
BRANCH  14  15
ATOM     15  C   UNL d   1       4.618  -2.681  -1.653  0.00  0.00     0.165 C 
ATOM     16  O   UNL d   1       3.834  -3.347  -2.294  0.00  0.00    -0.647 OA
BRANCH  15  17
ATOM     17  O   UNL d   1       5.946  -2.905  -1.642  0.00  0.00    -0.773 OA
ATOM     18  H   UNL d   1       6.475  -2.301  -1.095  0.00  0.00     0.167 HD
ENDBRANCH  15  17
ENDBRANCH  14  15
ENDBRANCH   2  13
TORSDOF 4
