REMARK  9 active torsions:
REMARK  status: ('A' for Active; 'I' for Inactive)
REMARK    1  A    between atoms: C_2  and  C_1 
REMARK    2  A    between atoms: C_3  and  C_1 
REMARK    3  A    between atoms: O_13  and  C_2 
REMARK    4  A    between atoms: O_12  and  C_3 
REMARK    5  A    between atoms: N_5  and  C_4 
REMARK    6  A    between atoms: N_9  and  N_5 
REMARK    7  A    between atoms: C_10  and  N_9 
REMARK    8  A    between atoms: C_18  and  O_12 
REMARK    9  A    between atoms: C_19  and  O_13 
ROOT
ATOM      1  C   UNL d   1       0.882   0.063   0.172  0.00  0.00     0.126 C 
ATOM      2  C   UNL d   1       2.225   0.032   0.230  0.00  0.00     0.103 C 
ENDROOT
BRANCH   2   3
ATOM      3  N   UNL d   1       3.088   0.912   0.866  0.00  0.00    -0.215 NA
ATOM      4  H   UNL d   1       2.626   1.825   0.980  0.00  0.00     0.152 HD
BRANCH   3   5
ATOM      5  N   UNL d   1       3.726   0.573   2.029  0.00  0.00    -0.318 N 
ATOM      6  H   UNL d   1       3.676  -0.411   2.295  0.00  0.00     0.181 HD
BRANCH   5   7
ATOM      7  C   UNL d   1       4.936   1.181   2.423  0.00  0.00     0.044 A 
ATOM      8  C   UNL d   1       5.715   0.564   3.408  0.00  0.00     0.054 A 
ATOM      9  C   UNL d   1       6.926   1.126   3.803  0.00  0.00     0.036 A 
ATOM     10 CL   UNL d   1       7.900   0.313   4.966  0.00  0.00    -0.084 Cl
ATOM     11  C   UNL d   1       7.360   2.330   3.256  0.00  0.00     0.024 A 
ATOM     12  C   UNL d   1       6.566   2.987   2.319  0.00  0.00     0.004 A 
ATOM     13  C   UNL d   1       5.356   2.417   1.913  0.00  0.00     0.030 A 
ENDBRANCH   5   7
ENDBRANCH   3   5
ENDBRANCH   2   3
BRANCH   1  14
ATOM     14  C   UNL d   1       0.065   1.043   0.919  0.00  0.00     0.300 C 
ATOM     15  O   UNL d   1      -1.097   0.865   1.247  0.00  0.00    -0.259 OA
BRANCH  14  16
ATOM     16  O   UNL d   1       0.773   2.188   1.126  0.00  0.00    -0.318 OA
BRANCH  16  17
ATOM     17  C   UNL d   1       0.012   3.338   1.516  0.00  0.00     0.174 C 
ATOM     18  C   UNL d   1      -0.281   4.118   0.252  0.00  0.00     0.034 C 
ENDBRANCH  16  17
ENDBRANCH  14  16
ENDBRANCH   1  14
BRANCH   1  19
ATOM     19  C   UNL d   1       0.243  -0.909  -0.744  0.00  0.00     0.300 C 
ATOM     20  O   UNL d   1       0.770  -1.930  -1.150  0.00  0.00    -0.259 OA
BRANCH  19  21
ATOM     21  O   UNL d   1      -0.915  -0.372  -1.201  0.00  0.00    -0.318 OA
BRANCH  21  22
ATOM     22  C   UNL d   1      -1.447  -0.912  -2.413  0.00  0.00     0.174 C 
ATOM     23  C   UNL d   1      -0.998  -0.001  -3.545  0.00  0.00     0.034 C 
ENDBRANCH  21  22
ENDBRANCH  19  21
ENDBRANCH   1  19
TORSDOF 9
