REMARK  4 active torsions:
REMARK  status: ('A' for Active; 'I' for Inactive)
REMARK    1  A    between atoms: N_3  and  S_1 
REMARK    2  A    between atoms: C_12  and  S_1 
REMARK    3  A    between atoms: C_2  and  N_8 
REMARK    4  A    between atoms: N_9  and  C_17 
ROOT
ATOM      1  N   UNL d   1       0.566   0.183  -0.972  0.00  0.00    -0.303 N 
ATOM      2  N   UNL d   1      -2.071   1.492  -1.357  0.00  0.00     0.105 N 
ATOM      3  C   UNL d   1       0.477   1.572  -1.482  0.00  0.00     0.165 C 
ATOM      4  C   UNL d   1      -0.624  -0.636  -1.278  0.00  0.00     0.165 C 
ATOM      5  C   UNL d   1      -0.834   2.226  -1.013  0.00  0.00     0.294 C 
ATOM      6  C   UNL d   1      -1.950   0.084  -0.939  0.00  0.00     0.294 C 
ENDROOT
BRANCH   1   7
ATOM      7  S   UNL d   1       1.378  -0.083   0.474  0.00  0.00     0.260 S 
ATOM      8  O   UNL d   1       1.056  -1.401   0.976  0.00  0.00    -0.200 OA
ATOM      9  O   UNL d   1       1.242   1.098   1.301  0.00  0.00    -0.200 OA
BRANCH   7  10
ATOM     10  C   UNL d   1       3.062  -0.167  -0.095  0.00  0.00     0.079 A 
ATOM     11  C   UNL d   1       4.020   0.717   0.403  0.00  0.00     0.027 A 
ATOM     12  C   UNL d   1       5.354   0.580   0.009  0.00  0.00     0.033 A 
ATOM     13  C   UNL d   1       5.728  -0.437  -0.885  0.00  0.00     0.056 A 
ATOM     14  C   UNL d   1       4.746  -1.293  -1.410  0.00  0.00     0.033 A 
ATOM     15  C   UNL d   1       3.415  -1.163  -1.011  0.00  0.00     0.027 A 
BRANCH  13  16
ATOM     16  N   UNL d   1       7.091  -0.637  -1.243  0.00  0.00    -0.268 N 
ATOM     17  N   UNL d   1       7.448  -1.601  -2.132  0.00  0.00    -0.305 N 
ATOM     18  C   UNL d   1       8.780  -1.540  -2.185  0.00  0.00     0.109 A 
ATOM     19  HN  UNL d   1       6.833  -2.232  -2.645  1.00  0.00     0.186 HD
ATOM     20  C   UNL d   1       9.305  -0.544  -1.354  0.00  0.00     0.038 A 
ATOM     21  C   UNL d   1       8.203   0.029  -0.764  0.00  0.00     0.118 A 
ENDBRANCH  13  16
ENDBRANCH   7  10
ENDBRANCH   1   7
BRANCH   2  22
ATOM     22  C   UNL d   1      -2.662   1.726  -2.693  0.00  0.00     0.290 C 
ATOM     23  C   UNL d   1      -1.911   1.157  -3.893  0.00  0.00    -0.009 C 
ATOM     24  C   UNL d   1      -1.336   2.201  -4.649  0.00  0.00    -0.017 C 
ATOM     25  C   UNL d   1      -1.789  -0.163  -4.305  0.00  0.00     0.010 C 
ATOM     26  C   UNL d   1      -0.477   1.917  -5.699  0.00  0.00     0.013 C 
ATOM     27  C   UNL d   1      -1.829   3.468  -4.146  0.00  0.00    -0.017 A 
ATOM     28  C   UNL d   1      -0.244   0.578  -6.027  0.00  0.00     0.001 C 
ATOM     29  C   UNL d   1      -0.924  -0.452  -5.360  0.00  0.00     0.001 C 
ATOM     30  C   UNL d   1      -2.676   3.218  -3.043  0.00  0.00    -0.009 A 
ATOM     31  C   UNL d   1      -1.621   4.758  -4.595  0.00  0.00     0.013 A 
ATOM     32  C   UNL d   1      -3.323   4.252  -2.381  0.00  0.00     0.010 A 
ATOM     33  C   UNL d   1      -3.104   5.556  -2.827  0.00  0.00     0.001 A 
ATOM     34  C   UNL d   1      -2.261   5.808  -3.924  0.00  0.00     0.001 A 
ENDBRANCH   2  22
TORSDOF 4
