REMARK  6 active torsions:
REMARK  status: ('A' for Active; 'I' for Inactive)
REMARK    1  A    between atoms: C_2  and  C_1 
REMARK    2  A    between atoms: C_3  and  C_5 
REMARK    3  A    between atoms: N_8  and  C_4 
REMARK       I    between atoms: C_5  and  N_10 
REMARK    4  A    between atoms: N_10  and  N_8 
REMARK    5  A    between atoms: O_21  and  C_13 
REMARK    6  A    between atoms: O_20  and  C_14 
ROOT
ATOM      1  N   UNL d   1       0.953   5.580   1.851  0.00  0.00    -0.186 NA
ATOM      2  H   UNL d   1       1.103   6.463   1.357  0.00  0.00     0.154 HD
ENDROOT
BRANCH   1   3
ATOM      3  C   UNL d   1       0.826   4.491   0.951  0.00  0.00     0.120 A 
ATOM      4  N   UNL d   1      -0.258   3.673   1.050  0.00  0.00    -0.353 N 
ATOM      5  C   UNL d   1      -0.365   2.636   0.189  0.00  0.00     0.105 A 
ATOM      6  HN  UNL d   1      -0.973   3.840   1.758  1.00  0.00     0.166 HD
ATOM      7  C   UNL d   1       0.590   2.313  -0.761  0.00  0.00     0.065 A 
ATOM      8  C   UNL d   1       1.727   3.120  -0.827  0.00  0.00     0.044 A 
ATOM      9  C   UNL d   1       1.846   4.222   0.025  0.00  0.00     0.074 A 
ATOM     10 CL   UNL d   1       3.273   5.188  -0.082  0.00  0.00    -0.081 Cl
BRANCH   7  11
ATOM     11  C   UNL d   1       0.364   1.139  -1.662  0.00  0.00     0.418 C 
ATOM     12  F   UNL d   1       1.403   0.893  -2.505  0.00  0.00    -0.166 F 
ATOM     13  F   UNL d   1      -0.731   1.298  -2.454  0.00  0.00    -0.166 F 
ATOM     14  F   UNL d   1       0.161  -0.016  -0.972  0.00  0.00    -0.166 F 
ENDBRANCH   7  11
ENDBRANCH   1   3
BRANCH   1  15
ATOM     15  N   UNL d   1      -0.131   5.666   2.750  0.00  0.00    -0.281 N 
ATOM     16  C   UNL d   1      -0.377   6.883   3.361  0.00  0.00     0.271 C 
ATOM     17  O   UNL d   1       0.055   7.946   2.914  0.00  0.00    -0.266 OA
ATOM     18  H   UNL d   1      -0.335   4.798   3.240  0.00  0.00     0.184 HD
BRANCH  16  19
ATOM     19  C   UNL d   1      -1.187   6.817   4.624  0.00  0.00     0.099 A 
ATOM     20  C   UNL d   1      -0.961   5.784   5.567  0.00  0.00     0.086 A 
ATOM     21  C   UNL d   1      -1.663   5.786   6.778  0.00  0.00     0.038 A 
ATOM     22  C   UNL d   1      -2.614   6.767   7.041  0.00  0.00     0.005 A 
ATOM     23  C   UNL d   1      -2.867   7.762   6.102  0.00  0.00     0.038 A 
ATOM     24  C   UNL d   1      -2.151   7.811   4.897  0.00  0.00     0.086 A 
BRANCH  20  25
ATOM     25  O   UNL d   1      -0.025   4.828   5.259  0.00  0.00    -0.355 OA
ATOM     26  C   UNL d   1      -0.043   3.624   6.018  0.00  0.00     0.210 C 
ENDBRANCH  20  25
BRANCH  24  27
ATOM     27  O   UNL d   1      -2.405   8.753   3.932  0.00  0.00    -0.355 OA
ATOM     28  C   UNL d   1      -3.018   9.963   4.364  0.00  0.00     0.210 C 
ENDBRANCH  24  27
ENDBRANCH  16  19
ENDBRANCH   1  15
TORSDOF 6
