REMARK  2 active torsions:
REMARK  status: ('A' for Active; 'I' for Inactive)
REMARK    1  A    between atoms: O_19  and  C_12 
REMARK    2  A    between atoms: O_21  and  C_16 
ROOT
ATOM      1  C   UNL d   1      -1.745  -1.158  -0.437  0.00  0.00    -0.014 C 
ATOM      2  C   UNL d   1       0.544  -2.084  -1.086  0.00  0.00    -0.000 C 
ATOM      3  C   UNL d   1      -0.402  -1.755   0.102  0.00  0.00     0.001 C 
ATOM      4  C   UNL d   1       0.995  -0.842  -1.884  0.00  0.00     0.027 C 
ATOM      5  C   UNL d   1       2.096  -0.099  -1.119  0.00  0.00    -0.047 C 
ATOM      6  C   UNL d   1      -1.615  -0.671  -1.911  0.00  0.00     0.017 C 
ATOM      7  C   UNL d   1      -0.268  -0.027  -2.322  0.00  0.00    -0.009 C 
ATOM      8  C   UNL d   1       2.997  -0.833  -0.309  0.00  0.00    -0.049 C 
ATOM      9  C   UNL d   1       1.725  -3.003  -0.779  0.00  0.00     0.010 C 
ATOM     10  C   UNL d   1       0.050  -0.770   1.204  0.00  0.00     0.008 C 
ATOM     11  C   UNL d   1       2.217   1.301  -1.128  0.00  0.00     0.011 C 
ATOM     12  C   UNL d   1      -2.082   0.013   0.526  0.00  0.00     0.126 C 
ATOM     13  C   UNL d   1       2.945  -2.332  -0.176  0.00  0.00     0.039 C 
ATOM     14  C   UNL d   1       3.902  -0.161   0.529  0.00  0.00     0.044 C 
ATOM     15  C   UNL d   1      -0.728   0.525   0.985  0.00  0.00     0.033 C 
ATOM     16  C   UNL d   1       3.881   1.217   0.609  0.00  0.00     0.066 C 
ATOM     17  C   UNL d   1       3.072   1.958  -0.236  0.00  0.00     0.037 C 
ATOM     18  C   UNL d   1      -2.839  -2.245  -0.401  0.00  0.00     0.018 C 
ATOM     19  C   UNL d   1      -0.263   0.144  -3.852  0.00  0.00     0.011 C 
ENDROOT
BRANCH  12  20
ATOM     20  O   UNL d   1      -2.802  -0.453   1.668  0.00  0.00    -0.395 OA
ATOM     21  H   UNL d   1      -2.723   0.216   2.369  0.00  0.00     0.210 HD
ENDBRANCH  12  20
BRANCH  16  22
ATOM     22  O   UNL d   1       4.636   1.810   1.577  0.00  0.00    -0.361 OA
ATOM     23  H   UNL d   1       4.160   2.607   1.865  0.00  0.00     0.217 HD
ENDBRANCH  16  22
TORSDOF 2
