REMARK  0 active torsions:
REMARK  status: ('A' for Active; 'I' for Inactive)
ROOT
ATOM      1  C   UNL d   1       2.460  -0.035  -0.019  0.00  0.00     0.148 A 
ATOM      2  N   UNL d   1       1.709   0.488   0.928  0.00  0.00    -0.334 N 
ATOM      3  HN  UNL d   1       2.076   1.010   1.724  1.00  0.00     0.168 HD
ATOM      4  C   UNL d   1       0.357   0.244   0.715  0.00  0.00     0.073 A 
ATOM      5  S   UNL d   1       1.551  -0.903  -1.209  0.00  0.00    -0.052 SA
ATOM      6  C   UNL d   1       0.080  -0.506  -0.427  0.00  0.00     0.038 A 
ATOM      7  N   UNL d   1       3.809   0.119  -0.074  0.00  0.00    -0.357 N 
ATOM      8  C   UNL d   1      -0.749   0.660   1.490  0.00  0.00     0.063 A 
ATOM      9  C   UNL d   1      -1.230  -0.840  -0.813  0.00  0.00     0.045 A 
ATOM     10  C   UNL d   1      -2.060   0.349   1.136  0.00  0.00     0.050 A 
ATOM     11  C   UNL d   1      -2.287  -0.398  -0.013  0.00  0.00     0.037 A 
ATOM     12  O   UNL d   1       6.423   1.146  -0.530  0.00  0.00    -0.388 OA
ATOM     13 CL   UNL d   1      -0.396   1.581   2.888  0.00  0.00    -0.082 Cl
ATOM     14 CL   UNL d   1      -3.901  -0.785  -0.470  0.00  0.00    -0.084 Cl
ATOM     15  C   UNL d   1       4.534   0.781   1.016  0.00  0.00     0.151 C 
ATOM     16  C   UNL d   1       4.677  -0.487  -1.086  0.00  0.00     0.151 C 
ATOM     17  C   UNL d   1       5.550   1.774   0.426  0.00  0.00     0.187 C 
ATOM     18  C   UNL d   1       5.658   0.576  -1.604  0.00  0.00     0.187 C 
ENDROOT
TORSDOF 0
