REMARK  2 active torsions:
REMARK  status: ('A' for Active; 'I' for Inactive)
REMARK    1  A    between atoms: C_2  and  C_1 
REMARK       I    between atoms: N_8  and  C_2 
REMARK    2  A    between atoms: C_11  and  N_8 
ROOT
ATOM      1  C   UNL d   1      -1.389   2.458   0.156  0.00  0.00     0.280 C 
ATOM      2  N   UNL d   1      -0.691   3.582  -0.231  0.00  0.00    -0.321 N 
ATOM      3  O   UNL d   1      -2.571   2.407   0.485  0.00  0.00    -0.265 OA
ATOM      4  H   UNL d   1       0.264   3.441  -0.544  0.00  0.00     0.169 HD
ENDROOT
BRANCH   1   5
ATOM      5  C   UNL d   1      -0.564   1.206   0.134  0.00  0.00     0.147 A 
ATOM      6  O   UNL d   1       0.779   1.270  -0.298  0.00  0.00    -0.270 OA
ATOM      7  C   UNL d   1       1.533   0.128  -0.327  0.00  0.00     0.288 A 
ATOM      8  O   UNL d   1       2.696   0.129  -0.717  0.00  0.00    -0.260 OA
ATOM      9  C   UNL d   1       0.907  -1.124   0.142  0.00  0.00     0.089 A 
ATOM     10  C   UNL d   1      -0.366  -1.154   0.559  0.00  0.00    -0.053 A 
ATOM     11  C   UNL d   1      -1.135   0.061   0.534  0.00  0.00     0.050 A 
ATOM     12  C   UNL d   1      -1.025  -2.399   1.070  0.00  0.00     0.048 C 
ENDBRANCH   1   5
BRANCH   2  13
ATOM     13  C   UNL d   1      -1.198   4.898  -0.306  0.00  0.00     0.035 A 
ATOM     14  C   UNL d   1      -2.456   5.269   0.180  0.00  0.00     0.029 A 
ATOM     15  C   UNL d   1      -2.921   6.579   0.036  0.00  0.00     0.002 A 
ATOM     16  C   UNL d   1      -2.130   7.535  -0.592  0.00  0.00     0.000 A 
ATOM     17  C   UNL d   1      -0.865   7.186  -1.057  0.00  0.00     0.002 A 
ATOM     18  C   UNL d   1      -0.397   5.875  -0.908  0.00  0.00     0.029 A 
ENDBRANCH   2  13
TORSDOF 2
