REMARK  4 active torsions:
REMARK  status: ('A' for Active; 'I' for Inactive)
REMARK    1  A    between atoms: N_2  and  C_1 
REMARK    2  A    between atoms: N_6  and  C_1 
REMARK    3  A    between atoms: C_3  and  N_2 
REMARK    4  A    between atoms: N_4  and  N_6 
ROOT
ATOM      1  C   UNL d   1       1.105   0.230   0.281  0.00  0.00     0.186 C 
ATOM      2  S   UNL d   1       2.727   0.412   0.659  0.00  0.00    -0.040 SA
ENDROOT
BRANCH   1   3
ATOM      3  N   UNL d   1       0.557  -0.870  -0.361  0.00  0.00    -0.361 N 
ATOM      4  H   UNL d   1      -0.427  -1.044  -0.221  0.00  0.00     0.162 HD
BRANCH   3   5
ATOM      5  C   UNL d   1       1.310  -1.892  -1.075  0.00  0.00     0.092 C 
ATOM      6  C   UNL d   1       2.040  -1.389  -2.334  0.00  0.00     0.009 C 
ATOM      7  C   UNL d   1       2.617  -2.699  -2.894  0.00  0.00     0.007 C 
ATOM      8  C   UNL d   1       0.886  -0.928  -3.245  0.00  0.00     0.007 C 
ATOM      9  C   UNL d   1       1.501  -3.715  -2.606  0.00  0.00     0.007 C 
ATOM     10  C   UNL d   1       0.436  -2.863  -1.888  0.00  0.00     0.009 C 
ATOM     11  C   UNL d   1      -0.222  -1.946  -2.940  0.00  0.00     0.007 C 
ENDBRANCH   3   5
ENDBRANCH   1   3
BRANCH   1  12
ATOM     12  N   UNL d   1       0.127   1.188   0.548  0.00  0.00    -0.277 N 
ATOM     13  H   UNL d   1      -0.806   1.000   0.204  0.00  0.00     0.189 HD
BRANCH  12  14
ATOM     14  N   UNL d   1       0.479   2.509   0.567  0.00  0.00    -0.307 N 
ATOM     15  C   UNL d   1      -0.358   3.364   1.062  0.00  0.00     0.004 C 
ATOM     16  C   UNL d   1      -0.019   4.837   0.951  0.00  0.00     0.054 C 
ATOM     17  C   UNL d   1      -1.638   3.041   1.801  0.00  0.00     0.054 C 
ATOM     18  C   UNL d   1       0.049   5.436   2.349  0.00  0.00     0.006 C 
ATOM     19  C   UNL d   1      -1.227   5.152   3.144  0.00  0.00     0.001 C 
ATOM     20  C   UNL d   1      -1.540   3.654   3.197  0.00  0.00     0.006 C 
ATOM     21  HN  UNL d   1       1.380   2.813   0.200  1.00  0.00     0.186 HD
ENDBRANCH  12  14
ENDBRANCH   1  12
TORSDOF 4
