REMARK  6 active torsions:
REMARK  status: ('A' for Active; 'I' for Inactive)
REMARK    1  A    between atoms: C_20  and  N_1 
REMARK    2  A    between atoms: C_2  and  N_13 
REMARK    3  A    between atoms: C_19  and  C_4 
REMARK    4  A    between atoms: S_16  and  C_9 
REMARK       I    between atoms: N_13  and  C_17 
REMARK    5  A    between atoms: C_23  and  S_16 
REMARK    6  A    between atoms: C_17  and  C_23 
ROOT
ATOM      1  C   UNL d   1      -6.538   0.097   0.215  0.00  0.00     0.098 C 
ATOM      2  C   UNL d   1      -7.598  -0.470  -0.462  0.00  0.00     0.085 C 
ATOM      3  C   UNL d   1      -8.801   0.262  -0.245  0.00  0.00    -0.021 C 
ATOM      4  C   UNL d   1      -8.541   1.501   0.301  0.00  0.00    -0.007 C 
ATOM      5  S   UNL d   1      -6.934   1.636   0.847  0.00  0.00    -0.075 SA
ATOM      6  C   UNL d   1      -7.497  -1.551  -1.393  0.00  0.00     0.103 C 
ATOM      7  N   UNL d   1      -7.446  -2.347  -2.243  0.00  0.00    -0.191 NA
ATOM      8  C   UNL d   1     -10.175  -0.049  -0.735  0.00  0.00     0.042 C 
ATOM      9  C   UNL d   1      -9.562   2.602   0.349  0.00  0.00     0.051 C 
ATOM     10  C   UNL d   1     -10.630   1.129  -1.586  0.00  0.00     0.009 C 
ATOM     11  C   UNL d   1     -10.602   2.482  -0.819  0.00  0.00    -0.014 C 
ATOM     12  C   UNL d   1     -10.433   3.618  -1.836  0.00  0.00     0.010 C 
ENDROOT
BRANCH   1  13
ATOM     13  N   UNL d   1      -5.228  -0.293   0.402  0.00  0.00    -0.319 N 
ATOM     14  C   UNL d   1      -4.859  -1.629   0.379  0.00  0.00     0.232 C 
ATOM     15  O   UNL d   1      -5.651  -2.568   0.394  0.00  0.00    -0.272 OA
ATOM     16  H   UNL d   1      -4.584   0.379   0.804  0.00  0.00     0.169 HD
BRANCH  14  17
ATOM     17  C   UNL d   1      -3.369  -1.896   0.278  0.00  0.00     0.185 C 
BRANCH  17  18
ATOM     18  S   UNL d   1      -2.436  -0.883   1.449  0.00  0.00    -0.083 SA
BRANCH  18  19
ATOM     19  C   UNL d   1      -0.914  -1.703   1.389  0.00  0.00     0.168 C 
ATOM     20  N   UNL d   1      -0.312  -2.472   2.381  0.00  0.00    -0.275 N 
ATOM     21  C   UNL d   1       1.030  -2.491   1.961  0.00  0.00     0.139 C 
ATOM     22  N   UNL d   1       1.070  -2.165   0.679  0.00  0.00    -0.282 N 
ATOM     23  N   UNL d   1      -0.141  -1.648   0.330  0.00  0.00    -0.278 N 
ATOM     24  HN  UNL d   1       1.871  -2.282   0.058  1.00  0.00     0.188 HD
ATOM     25  HN  UNL d   1      -0.400  -1.284  -0.587  1.00  0.00     0.189 HD
BRANCH  20  26
ATOM     26  C   UNL d   1      -0.885  -3.156   3.510  0.00  0.00     0.043 A 
ATOM     27  C   UNL d   1      -2.116  -2.793   4.071  0.00  0.00     0.030 A 
ATOM     28  C   UNL d   1      -2.647  -3.490   5.163  0.00  0.00     0.002 A 
ATOM     29  C   UNL d   1      -1.954  -4.556   5.722  0.00  0.00     0.000 A 
ATOM     30  C   UNL d   1      -0.741  -4.947   5.168  0.00  0.00     0.002 A 
ATOM     31  C   UNL d   1      -0.222  -4.268   4.060  0.00  0.00     0.030 A 
ENDBRANCH  20  26
BRANCH  21  32
ATOM     32  C   UNL d   1       2.241  -2.693   2.773  0.00  0.00     0.010 A 
ATOM     33  C   UNL d   1       3.408  -3.182   2.162  0.00  0.00     0.017 A 
ATOM     34  C   UNL d   1       4.593  -3.332   2.890  0.00  0.00     0.025 A 
ATOM     35  C   UNL d   1       4.623  -2.993   4.240  0.00  0.00     0.034 A 
ATOM     36  C   UNL d   1       3.483  -2.491   4.862  0.00  0.00     0.025 A 
ATOM     37 CL   UNL d   1       6.075  -3.179   5.141  0.00  0.00    -0.084 Cl
ATOM     38  C   UNL d   1       2.304  -2.324   4.127  0.00  0.00     0.017 A 
ENDBRANCH  21  32
ENDBRANCH  18  19
ENDBRANCH  17  18
ENDBRANCH  14  17
ENDBRANCH   1  13
TORSDOF 6
