REMARK  3 active torsions:
REMARK  status: ('A' for Active; 'I' for Inactive)
REMARK    1  A    between atoms: O_6  and  N_1 
REMARK    2  A    between atoms: C_9  and  O_6 
REMARK    3  A    between atoms: C_12  and  C_9 
ROOT
ATOM      1  N   UNL d   1       1.838   0.098  -0.070  0.00  0.00    -0.145 N 
ATOM      2  C   UNL d   1       1.005   1.005  -0.648  0.00  0.00     0.286 A 
ATOM      3  C   UNL d   1       1.174  -0.896   0.594  0.00  0.00     0.286 A 
ATOM      4  C   UNL d   1      -0.345   0.593  -0.288  0.00  0.00     0.050 A 
ATOM      5  C   UNL d   1      -0.252  -0.568   0.460  0.00  0.00     0.050 A 
ATOM      6  O   UNL d   1       1.225   1.981  -1.343  0.00  0.00    -0.265 OA
ATOM      7  O   UNL d   1       1.585  -1.882   1.174  0.00  0.00    -0.265 OA
ATOM      8  C   UNL d   1      -1.558   1.171  -0.614  0.00  0.00     0.018 A 
ATOM      9  C   UNL d   1      -1.379  -1.221   0.917  0.00  0.00     0.018 A 
ATOM     10  C   UNL d   1      -2.711   0.529  -0.158  0.00  0.00     0.001 A 
ATOM     11  C   UNL d   1      -2.623  -0.658   0.599  0.00  0.00     0.001 A 
ENDROOT
BRANCH   1  12
ATOM     12  O   UNL d   1       3.225   0.021  -0.248  0.00  0.00    -0.263 OA
BRANCH  12  13
ATOM     13  C   UNL d   1       3.825   1.320  -0.208  0.00  0.00     0.240 C 
BRANCH  13  14
ATOM     14  C   UNL d   1       5.334   1.263  -0.272  0.00  0.00    -0.032 A 
ATOM     15  C   UNL d   1       6.021   2.292  -0.941  0.00  0.00     0.009 A 
ATOM     16  C   UNL d   1       7.414   2.313  -0.985  0.00  0.00     0.001 A 
ATOM     17  C   UNL d   1       8.142   1.311  -0.352  0.00  0.00     0.000 A 
ATOM     18  C   UNL d   1       7.475   0.288   0.323  0.00  0.00     0.001 A 
ATOM     19  C   UNL d   1       6.077   0.264   0.368  0.00  0.00     0.009 A 
ENDBRANCH  13  14
ENDBRANCH  12  13
ENDBRANCH   1  12
TORSDOF 3
