REMARK  7 active torsions:
REMARK  status: ('A' for Active; 'I' for Inactive)
REMARK    1  A    between atoms: C_2  and  S_1 
REMARK    2  A    between atoms: N_3  and  S_1 
REMARK    3  A    between atoms: C_15  and  N_5 
REMARK       I    between atoms: C_7  and  N_14 
REMARK    4  A    between atoms: C_21  and  C_7 
REMARK    5  A    between atoms: C_27  and  C_8 
REMARK    6  A    between atoms: N_14  and  C_27 
REMARK    7  A    between atoms: C_19  and  C_18 
ROOT
ATOM      1  S   UNL d   1       0.989  -0.000  -0.165  0.00  0.00     0.250 S 
ATOM      2  O   UNL d   1       2.157  -0.534  -0.825  0.00  0.00    -0.205 OA
ATOM      3  O   UNL d   1      -0.174   0.399  -0.928  0.00  0.00    -0.205 OA
ENDROOT
BRANCH   1   4
ATOM      4  C   UNL d   1       1.551   1.540   0.544  0.00  0.00     0.115 A 
ATOM      5  S   UNL d   1       1.558   1.729   2.243  0.00  0.00    -0.080 SA
ATOM      6  C   UNL d   1       2.134   3.344   2.141  0.00  0.00     0.002 A 
ATOM      7  C   UNL d   1       2.238   3.752   0.826  0.00  0.00     0.018 A 
ATOM      8  C   UNL d   1       1.980   2.693  -0.087  0.00  0.00     0.033 A 
BRANCH   6   9
ATOM      9  C   UNL d   1       2.485   4.130   3.369  0.00  0.00     0.169 C 
BRANCH   9  10
ATOM     10  N   UNL d   1       1.303   4.740   3.920  0.00  0.00    -0.352 N 
ATOM     11  C   UNL d   1       1.397   5.522   5.053  0.00  0.00     0.251 C 
ATOM     12  O   UNL d   1       2.456   5.755   5.623  0.00  0.00    -0.268 OA
ATOM     13  H   UNL d   1       0.462   4.772   3.357  0.00  0.00     0.163 HD
BRANCH  11  14
ATOM     14  C   UNL d   1       0.123   6.105   5.561  0.00  0.00     0.032 A 
ATOM     15  C   UNL d   1      -1.101   5.449   5.375  0.00  0.00     0.017 A 
ATOM     16  C   UNL d   1      -2.274   6.000   5.895  0.00  0.00     0.001 A 
ATOM     17  C   UNL d   1      -2.230   7.199   6.603  0.00  0.00     0.000 A 
ATOM     18  C   UNL d   1      -1.012   7.852   6.798  0.00  0.00     0.001 A 
ATOM     19  C   UNL d   1       0.165   7.304   6.282  0.00  0.00     0.017 A 
ENDBRANCH  11  14
ENDBRANCH   9  10
ENDBRANCH   6   9
ENDBRANCH   1   4
BRANCH   1  20
ATOM     20  N   UNL d   1       0.475  -1.099   1.023  0.00  0.00    -0.203 NA
ATOM     21  C   UNL d   1       1.554  -1.794   1.797  0.00  0.00     0.127 C 
ATOM     22  C   UNL d   1       2.188  -2.962   1.020  0.00  0.00     0.138 C 
ATOM     23  N   UNL d   1       1.147  -3.897   0.557  0.00  0.00    -0.379 N 
ATOM     24  C   UNL d   1       0.068  -3.266  -0.231  0.00  0.00     0.138 C 
ATOM     25  C   UNL d   1      -0.551  -2.099   0.570  0.00  0.00     0.127 C 
BRANCH  23  26
ATOM     26  C   UNL d   1       1.448  -5.244   0.412  0.00  0.00     0.030 A 
ATOM     27  C   UNL d   1       2.771  -5.719   0.407  0.00  0.00     0.030 A 
ATOM     28  C   UNL d   1       3.075  -7.085   0.453  0.00  0.00     0.017 A 
ATOM     29  C   UNL d   1       2.047  -8.022   0.490  0.00  0.00     0.009 A 
ATOM     30  C   UNL d   1       0.723  -7.583   0.411  0.00  0.00     0.017 A 
ATOM     31  C   UNL d   1       0.433  -6.212   0.376  0.00  0.00     0.030 A 
BRANCH  29  32
ATOM     32  C   UNL d   1       2.311  -9.473   0.632  0.00  0.00     0.155 C 
ATOM     33  O   UNL d   1       1.484 -10.288   0.211  0.00  0.00    -0.293 OA
ATOM     34  C   UNL d   1       3.575  -9.934   1.318  0.00  0.00     0.096 C 
ENDBRANCH  29  32
ENDBRANCH  23  26
ENDBRANCH   1  20
TORSDOF 7
