REMARK  5 active torsions:
REMARK  status: ('A' for Active; 'I' for Inactive)
REMARK    1  A    between atoms: O_18  and  C_3 
REMARK    2  A    between atoms: O_19  and  C_5 
REMARK    3  A    between atoms: C_15  and  C_6 
REMARK    4  A    between atoms: C_7  and  N_10 
REMARK    5  A    between atoms: N_10  and  N_11 
ROOT
ATOM      1  C   UNL d   1      -0.088   0.670  -0.006  0.00  0.00     0.118 A 
ATOM      2  C   UNL d   1      -0.041  -0.720  -0.028  0.00  0.00     0.025 A 
ATOM      3  C   UNL d   1       1.111   1.366   0.052  0.00  0.00     0.134 A 
ATOM      4  C   UNL d   1      -1.320  -1.467  -0.046  0.00  0.00     0.037 C 
ATOM      5  C   UNL d   1       2.341   0.697   0.046  0.00  0.00     0.108 A 
ATOM      6  C   UNL d   1       2.422  -0.706  -0.015  0.00  0.00    -0.014 A 
ATOM      7  O   UNL d   1      -1.238   1.416  -0.053  0.00  0.00    -0.337 OA
ATOM      8  C   UNL d   1       1.191  -1.395  -0.041  0.00  0.00     0.027 A 
ATOM      9  N   UNL d   1      -1.331  -2.730  -0.358  0.00  0.00    -0.320 N 
ATOM     10  HN  UNL d   1      -0.465  -3.225  -0.574  1.00  0.00     0.181 HD
ATOM     11  C   UNL d   1      -2.421   0.690  -0.446  0.00  0.00     0.066 C 
ATOM     12  C   UNL d   1      -2.525  -0.632   0.316  0.00  0.00     0.096 C 
ATOM     13  C   UNL d   1      -2.438   0.499  -1.975  0.00  0.00     0.046 C 
ATOM     14  C   UNL d   1      -3.620   1.570  -0.063  0.00  0.00     0.046 C 
ENDROOT
BRANCH   9  15
ATOM     15  N   UNL d   1      -2.526  -3.368  -0.388  0.00  0.00    -0.202 NA
ATOM     16  H   UNL d   1      -3.294  -2.885  -0.857  0.00  0.00     0.153 HD
BRANCH  15  17
ATOM     17  C   UNL d   1      -2.559  -4.747  -0.757  0.00  0.00     0.071 A 
ATOM     18  C   UNL d   1      -1.538  -5.687  -0.503  0.00  0.00     0.058 A 
ATOM     19 CL   UNL d   1      -0.026  -5.302   0.251  0.00  0.00    -0.082 Cl
ATOM     20  C   UNL d   1      -1.715  -7.043  -0.830  0.00  0.00     0.026 A 
ATOM     21  C   UNL d   1      -2.908  -7.497  -1.389  0.00  0.00     0.003 A 
ATOM     22  C   UNL d   1      -3.935  -6.596  -1.634  0.00  0.00     0.026 A 
ATOM     23  C   UNL d   1      -3.762  -5.245  -1.318  0.00  0.00     0.058 A 
ATOM     24 CL   UNL d   1      -5.083  -4.170  -1.661  0.00  0.00    -0.082 Cl
ENDBRANCH  15  17
ENDBRANCH   9  15
BRANCH   3  25
ATOM     25  O   UNL d   1       1.123   2.739   0.102  0.00  0.00    -0.356 OA
ATOM     26  H   UNL d   1       0.181   3.002   0.107  0.00  0.00     0.218 HD
ENDBRANCH   3  25
BRANCH   6  27
ATOM     27  C   UNL d   1       3.765  -1.464  -0.050  0.00  0.00    -0.021 C 
ATOM     28  C   UNL d   1       4.565  -1.199   1.244  0.00  0.00     0.019 C 
ATOM     29  C   UNL d   1       3.602  -3.002  -0.159  0.00  0.00     0.019 C 
ATOM     30  C   UNL d   1       4.603  -1.034  -1.274  0.00  0.00     0.019 C 
ENDBRANCH   6  27
BRANCH   5  31
ATOM     31  O   UNL d   1       3.470   1.473   0.093  0.00  0.00    -0.357 OA
ATOM     32  H   UNL d   1       3.142   2.394   0.124  0.00  0.00     0.217 HD
ENDBRANCH   5  31
TORSDOF 5
