REMARK  5 active torsions:
REMARK  status: ('A' for Active; 'I' for Inactive)
REMARK    1  A    between atoms: C_2  and  N_1 
REMARK    2  A    between atoms: O_6  and  C_3 
REMARK    3  A    between atoms: C_4  and  O_6 
REMARK    4  A    between atoms: C_8  and  C_4 
REMARK    5  A    between atoms: C_9  and  C_8 
ROOT
ATOM      1  C   UNL d   1       0.547   1.560  -1.030  0.00  0.00     0.137 A 
ATOM      2  C   UNL d   1      -0.555   1.980  -0.291  0.00  0.00     0.112 A 
ATOM      3  C   UNL d   1       0.610   1.717  -2.415  0.00  0.00     0.045 A 
ATOM      4  C   UNL d   1      -1.638   2.564  -0.944  0.00  0.00     0.040 A 
ATOM      5  C   UNL d   1      -0.474   2.306  -3.079  0.00  0.00    -0.059 A 
ATOM      6  C   UNL d   1      -1.594   2.722  -2.336  0.00  0.00     0.009 A 
ATOM      7  C   UNL d   1      -0.400   2.569  -4.555  0.00  0.00     0.048 C 
ENDROOT
BRANCH   2   8
ATOM      8  O   UNL d   1      -0.459   1.994   1.107  0.00  0.00    -0.273 OA
BRANCH   8   9
ATOM      9  C   UNL d   1      -1.431   1.401   1.891  0.00  0.00     0.288 C 
ATOM     10  O   UNL d   1      -2.417   0.794   1.507  0.00  0.00    -0.260 OA
BRANCH   9  11
ATOM     11  C   UNL d   1      -1.132   1.646   3.326  0.00  0.00     0.084 C 
BRANCH  11  12
ATOM     12  C   UNL d   1      -0.005   2.253   3.733  0.00  0.00     0.025 C 
ATOM     13  C   UNL d   1       0.267   2.571   5.095  0.00  0.00     0.005 A 
ATOM     14  S   UNL d   1       1.813   3.251   5.472  0.00  0.00    -0.102 SA
ATOM     15  C   UNL d   1      -0.501   2.470   6.243  0.00  0.00     0.019 A 
ATOM     16  C   UNL d   1       1.427   3.422   7.123  0.00  0.00     0.050 A 
ATOM     17  C   UNL d   1       0.162   2.967   7.405  0.00  0.00     0.008 A 
ENDBRANCH  11  12
ENDBRANCH   9  11
ENDBRANCH   8   9
ENDBRANCH   2   8
BRANCH   1  18
ATOM     18  N   UNL d   1       1.673   0.979  -0.344  0.00  0.00    -0.113 N 
ATOM     19  O   UNL d   1       1.601  -0.226  -0.064  0.00  0.00    -0.532 OA
ATOM     20  O   UNL d   1       2.625   1.728  -0.089  0.00  0.00    -0.532 OA
ENDBRANCH   1  18
TORSDOF 5
