REMARK  2 active torsions:
REMARK  status: ('A' for Active; 'I' for Inactive)
REMARK    1  A    between atoms: C_8  and  N_2 
REMARK    2  A    between atoms: O_9  and  C_5 
ROOT
ATOM      1  C   UNL d   1       2.451  -0.692   0.105  0.00  0.00     0.255 A 
ATOM      2  N   UNL d   1       1.244  -1.391   0.057  0.00  0.00    -0.278 N 
ATOM      3  C   UNL d   1       2.378   0.786   0.081  0.00  0.00     0.112 A 
ATOM      4  C   UNL d   1      -0.026  -0.718   0.021  0.00  0.00     0.056 A 
ATOM      5  C   UNL d   1       1.216   1.435   0.015  0.00  0.00     0.083 A 
ATOM      6  C   UNL d   1      -0.049   0.691  -0.020  0.00  0.00     0.025 A 
ATOM      7  O   UNL d   1       3.575  -1.193   0.129  0.00  0.00    -0.268 OA
ATOM      8  C   UNL d   1      -1.257  -1.399   0.081  0.00  0.00     0.031 A 
ATOM      9  C   UNL d   1      -1.277   1.374  -0.071  0.00  0.00     0.016 A 
ATOM     10  C   UNL d   1      -2.472  -0.709   0.022  0.00  0.00     0.002 A 
ATOM     11  C   UNL d   1      -2.483   0.676  -0.067  0.00  0.00     0.001 A 
ENDROOT
BRANCH   2  12
ATOM     12  C   UNL d   1       1.289  -2.815   0.003  0.00  0.00     0.043 A 
ATOM     13  C   UNL d   1       1.946  -3.533   1.012  0.00  0.00     0.030 A 
ATOM     14  C   UNL d   1       2.021  -4.927   0.956  0.00  0.00     0.002 A 
ATOM     15  C   UNL d   1       1.463  -5.613  -0.121  0.00  0.00     0.000 A 
ATOM     16  C   UNL d   1       0.834  -4.907  -1.145  0.00  0.00     0.002 A 
ATOM     17  C   UNL d   1       0.748  -3.514  -1.085  0.00  0.00     0.030 A 
ENDBRANCH   2  12
BRANCH   5  18
ATOM     18  O   UNL d   1       1.129   2.811  -0.004  0.00  0.00    -0.360 OA
ATOM     19  H   UNL d   1       2.027   3.184   0.038  0.00  0.00     0.217 HD
ENDBRANCH   5  18
TORSDOF 2
