REMARK  2 active torsions:
REMARK  status: ('A' for Active; 'I' for Inactive)
REMARK    1  A    between atoms: N_7  and  C_1 
REMARK       I    between atoms: C_8  and  N_7 
REMARK    2  A    between atoms: C_10  and  C_8 
ROOT
ATOM      1  C   UNL d   1      -3.014  -1.103   0.105  0.00  0.00     0.152 A 
ATOM      2  C   UNL d   1      -0.922  -0.600   0.025  0.00  0.00     0.058 A 
ATOM      3  C   UNL d   1      -1.435   0.665   0.146  0.00  0.00     0.018 A 
ATOM      4  N   UNL d   1      -1.808  -1.626  -0.036  0.00  0.00    -0.335 N 
ATOM      5  HN  UNL d   1      -1.586  -2.613  -0.167  1.00  0.00     0.168 HD
ATOM      6  S   UNL d   1      -3.102   0.616   0.277  0.00  0.00    -0.056 SA
ATOM      7  C   UNL d   1       0.504  -0.498  -0.022  0.00  0.00    -0.002 A 
ATOM      8  C   UNL d   1       0.850   0.881   0.045  0.00  0.00    -0.041 A 
ATOM      9  C   UNL d   1      -0.408   1.742   0.147  0.00  0.00     0.088 A 
ATOM     10  C   UNL d   1       1.457  -1.492  -0.084  0.00  0.00     0.014 A 
ATOM     11  C   UNL d   1       2.175   1.273   0.029  0.00  0.00     0.008 A 
ATOM     12  C   UNL d   1       2.796  -1.094  -0.087  0.00  0.00     0.001 A 
ATOM     13  C   UNL d   1       3.151   0.270  -0.036  0.00  0.00     0.001 A 
ENDROOT
BRANCH   1  14
ATOM     14  N   UNL d   1      -4.123  -1.901   0.056  0.00  0.00    -0.302 N 
ATOM     15  C   UNL d   1      -5.418  -1.583   0.393  0.00  0.00     0.264 C 
ATOM     16  O   UNL d   1      -5.786  -0.500   0.833  0.00  0.00    -0.267 OA
ATOM     17  H   UNL d   1      -3.915  -2.861  -0.182  0.00  0.00     0.171 HD
BRANCH  15  18
ATOM     18  C   UNL d   1      -6.364  -2.693   0.229  0.00  0.00     0.072 A 
ATOM     19  S   UNL d   1      -5.915  -4.187  -0.490  0.00  0.00    -0.097 SA
ATOM     20  C   UNL d   1      -7.473  -4.850  -0.264  0.00  0.00     0.050 A 
ATOM     21  C   UNL d   1      -8.332  -3.956   0.331  0.00  0.00     0.009 A 
ATOM     22  C   UNL d   1      -7.697  -2.709   0.605  0.00  0.00     0.025 A 
ENDBRANCH  15  18
ENDBRANCH   1  14
TORSDOF 2
