REMARK  8 active torsions:
REMARK  status: ('A' for Active; 'I' for Inactive)
REMARK    1  A    between atoms: C_15  and  N_1 
REMARK    2  A    between atoms: N_3  and  C_2 
REMARK    3  A    between atoms: C_18  and  C_8 
REMARK    4  A    between atoms: N_9  and  C_13 
REMARK    5  A    between atoms: C_14  and  N_24 
REMARK    6  A    between atoms: C_31  and  C_18 
REMARK    7  A    between atoms: N_24  and  N_21 
REMARK    8  A    between atoms: C_32  and  C_23 
ROOT
ATOM      1  N   UNL d   1      -0.370  -1.242   0.053  0.00  0.00    -0.227 N 
ATOM      2  N   UNL d   1       0.698   0.625   0.170  0.00  0.00    -0.226 N 
ATOM      3  HN  UNL d   1       1.456   1.304   0.223  1.00  0.00     0.210 HD
ATOM      4  N   UNL d   1       0.864  -0.684   0.178  0.00  0.00    -0.220 N 
ATOM      5  HN  UNL d   1       1.750  -1.183   0.261  1.00  0.00     0.210 HD
ATOM      6  C   UNL d   1      -1.289  -0.193   0.030  0.00  0.00     0.125 A 
ATOM      7  N   UNL d   1      -0.620   0.945   0.083  0.00  0.00    -0.271 N 
ATOM      8  HN  UNL d   1      -1.017   1.885   0.063  1.00  0.00     0.190 HD
ENDROOT
BRANCH   6   9
ATOM      9  C   UNL d   1      -2.766  -0.251  -0.011  0.00  0.00     0.126 C 
BRANCH   9  10
ATOM     10  C   UNL d   1      -3.308  -0.711   1.316  0.00  0.00     0.087 C 
ATOM     11  N   UNL d   1      -4.172  -1.675   1.357  0.00  0.00    -0.315 N 
ATOM     12  HN  UNL d   1      -4.484  -2.171   0.521  1.00  0.00     0.185 HD
BRANCH  11  13
ATOM     13  N   UNL d   1      -4.632  -1.975   2.606  0.00  0.00    -0.299 N 
ATOM     14  H   UNL d   1      -3.937  -2.297   3.295  0.00  0.00     0.187 HD
BRANCH  13  15
ATOM     15  C   UNL d   1      -5.842  -2.722   2.654  0.00  0.00     0.081 A 
ATOM     16  C   UNL d   1      -6.210  -3.575   3.718  0.00  0.00     0.133 A 
ATOM     17  C   UNL d   1      -7.441  -4.270   3.706  0.00  0.00     0.074 A 
ATOM     18  C   UNL d   1      -8.329  -4.081   2.637  0.00  0.00     0.105 A 
ATOM     19  C   UNL d   1      -8.016  -3.196   1.607  0.00  0.00     0.038 A 
ATOM     20  C   UNL d   1      -6.790  -2.528   1.625  0.00  0.00     0.036 A 
BRANCH  16  21
ATOM     21  N   UNL d   1      -5.322  -3.789   4.872  0.00  0.00    -0.113 N 
ATOM     22  O   UNL d   1      -5.715  -4.544   5.772  0.00  0.00    -0.532 OA
ATOM     23  O   UNL d   1      -4.225  -3.209   4.884  0.00  0.00    -0.532 OA
ENDBRANCH  16  21
BRANCH  18  24
ATOM     24  N   UNL d   1      -9.600  -4.816   2.597  0.00  0.00    -0.116 N 
ATOM     25  O   UNL d   1      -9.816  -5.635   3.497  0.00  0.00    -0.532 OA
ATOM     26  O   UNL d   1     -10.370  -4.584   1.653  0.00  0.00    -0.532 OA
ENDBRANCH  18  24
ENDBRANCH  13  15
ENDBRANCH  11  13
ENDBRANCH   9  10
ENDBRANCH   6   9
BRANCH   1  27
ATOM     27  C   UNL d   1      -0.501  -2.659   0.003  0.00  0.00     0.059 A 
ATOM     28  C   UNL d   1       0.637  -3.454   0.213  0.00  0.00     0.032 A 
ATOM     29  C   UNL d   1       0.548  -4.853   0.214  0.00  0.00     0.014 A 
ATOM     30  C   UNL d   1      -0.675  -5.513   0.017  0.00  0.00    -0.026 A 
ATOM     31  C   UNL d   1      -1.795  -4.702  -0.220  0.00  0.00     0.014 A 
ATOM     32  C   UNL d   1      -1.711  -3.302  -0.245  0.00  0.00     0.032 A 
BRANCH  30  33
ATOM     33  C   UNL d   1      -0.784  -6.991   0.057  0.00  0.00    -0.026 A 
ATOM     34  C   UNL d   1      -1.727  -7.682  -0.728  0.00  0.00     0.012 A 
ATOM     35  C   UNL d   1      -1.838  -9.075  -0.685  0.00  0.00     0.001 A 
ATOM     36  C   UNL d   1      -0.996  -9.816   0.136  0.00  0.00     0.000 A 
ATOM     37  C   UNL d   1      -0.053  -9.163   0.923  0.00  0.00     0.001 A 
ATOM     38  C   UNL d   1       0.044  -7.768   0.889  0.00  0.00     0.012 A 
ENDBRANCH  30  33
ENDBRANCH   1  27
TORSDOF 8
