REMARK  5 active torsions:
REMARK  status: ('A' for Active; 'I' for Inactive)
REMARK    1  A    between atoms: C_10  and  N_1 
REMARK    2  A    between atoms: C_9  and  C_2 
REMARK    3  A    between atoms: N_13  and  C_11 
REMARK    4  A    between atoms: C_12  and  N_13 
REMARK    5  A    between atoms: O_21  and  C_14 
ROOT
ATOM      1  N   UNL d   1       4.005   0.551   0.355  0.00  0.00    -0.223 N 
ATOM      2  C   UNL d   1       3.675  -0.765  -0.012  0.00  0.00     0.145 A 
ATOM      3  N   UNL d   1       5.736  -0.379  -0.534  0.00  0.00    -0.226 N 
ATOM      4  HN  UNL d   1       6.679  -0.526  -0.893  1.00  0.00     0.210 HD
ATOM      5  N   UNL d   1       5.310   0.744   0.009  0.00  0.00    -0.219 N 
ATOM      6  HN  UNL d   1       5.853   1.596   0.145  1.00  0.00     0.210 HD
ATOM      7  N   UNL d   1       4.751  -1.313  -0.552  0.00  0.00    -0.268 N 
ATOM      8  HN  UNL d   1       4.827  -2.263  -0.916  1.00  0.00     0.190 HD
ENDROOT
BRANCH   2   9
ATOM      9  C   UNL d   1       2.396  -1.355   0.143  0.00  0.00     0.063 C 
ATOM     10  C   UNL d   1       2.223  -2.630   0.516  0.00  0.00     0.066 C 
BRANCH  10  11
ATOM     11  N   UNL d   1       3.133  -3.608   0.854  0.00  0.00    -0.267 NA
ATOM     12  H   UNL d   1       2.858  -4.530   0.508  0.00  0.00     0.133 HD
BRANCH  11  13
ATOM     13  C   UNL d   1       3.663  -3.819   2.158  0.00  0.00     0.045 A 
ATOM     14  C   UNL d   1       4.393  -4.998   2.430  0.00  0.00     0.089 A 
ATOM     15  C   UNL d   1       4.903  -5.256   3.709  0.00  0.00     0.038 A 
ATOM     16  C   UNL d   1       4.741  -4.316   4.723  0.00  0.00     0.003 A 
ATOM     17  C   UNL d   1       4.072  -3.122   4.459  0.00  0.00     0.002 A 
ATOM     18  C   UNL d   1       3.553  -2.869   3.184  0.00  0.00     0.026 A 
BRANCH  14  19
ATOM     19  O   UNL d   1       4.539  -6.010   1.511  0.00  0.00    -0.354 OA
ATOM     20  C   UNL d   1       5.306  -5.621   0.369  0.00  0.00     0.210 C 
ENDBRANCH  14  19
ENDBRANCH  11  13
ENDBRANCH  10  11
ENDBRANCH   2   9
BRANCH   1  21
ATOM     21  C   UNL d   1       3.296   1.636   0.972  0.00  0.00     0.060 A 
ATOM     22  C   UNL d   1       4.020   2.808   1.294  0.00  0.00     0.034 A 
ATOM     23  C   UNL d   1       3.396   3.909   1.888  0.00  0.00     0.044 A 
ATOM     24  C   UNL d   1       2.038   3.860   2.153  0.00  0.00     0.116 A 
ATOM     25  C   UNL d   1       1.301   2.724   1.847  0.00  0.00     0.044 A 
ATOM     26  F   UNL d   1       1.430   4.914   2.710  0.00  0.00    -0.206 F 
ATOM     27  C   UNL d   1       1.927   1.608   1.269  0.00  0.00     0.034 A 
ENDBRANCH   1  21
TORSDOF 5
