REMARK  1 active torsions:
REMARK  status: ('A' for Active; 'I' for Inactive)
REMARK    1  A    between atoms: C_15  and  C_12 
ROOT
ATOM      1  N   UNL d   1      -0.805   1.027   0.001  0.00  0.00    -0.196 N 
ATOM      2  C   UNL d   1       0.064  -0.037   0.004  0.00  0.00     0.177 A 
ATOM      3  N   UNL d   1       1.349   0.021   0.019  0.00  0.00    -0.300 N 
ATOM      4  HN  UNL d   1       1.941  -0.809   0.020  1.00  0.00     0.171 HD
ATOM      5  N   UNL d   1      -0.377   2.336   0.015  0.00  0.00    -0.288 N 
ATOM      6  HN  UNL d   1      -1.028   3.121   0.012  1.00  0.00     0.187 HD
ATOM      7  C   UNL d   1      -2.161   0.737  -0.015  0.00  0.00     0.285 A 
ATOM      8  C   UNL d   1      -2.342  -0.747  -0.014  0.00  0.00     0.079 A 
ATOM      9  S   UNL d   1      -0.810  -1.544  -0.015  0.00  0.00    -0.046 SA
ATOM     10  C   UNL d   1       1.859   1.301   0.036  0.00  0.00     0.271 A 
ATOM     11  C   UNL d   1       0.913   2.504   0.031  0.00  0.00     0.090 A 
ATOM     12  C   UNL d   1      -3.562  -1.305  -0.017  0.00  0.00     0.036 C 
ATOM     13  O   UNL d   1      -3.096   1.529  -0.025  0.00  0.00    -0.265 OA
ATOM     14  O   UNL d   1       3.059   1.531   0.056  0.00  0.00    -0.266 OA
ATOM     15  C   UNL d   1       1.492   3.887   0.044  0.00  0.00     0.076 C 
ENDROOT
BRANCH  12  16
ATOM     16  C   UNL d   1      -3.842  -2.744  -0.009  0.00  0.00    -0.035 A 
ATOM     17  C   UNL d   1      -3.980  -3.438   1.202  0.00  0.00     0.014 A 
ATOM     18  C   UNL d   1      -4.192  -4.819   1.201  0.00  0.00     0.043 A 
ATOM     19  C   UNL d   1      -4.281  -5.497  -0.009  0.00  0.00     0.116 A 
ATOM     20  C   UNL d   1      -4.183  -4.818  -1.218  0.00  0.00     0.043 A 
ATOM     21  F   UNL d   1      -4.461  -6.825  -0.011  0.00  0.00    -0.206 F 
ATOM     22  C   UNL d   1      -3.965  -3.438  -1.219  0.00  0.00     0.014 A 
ENDBRANCH  12  16
TORSDOF 1
