REMARK  4 active torsions:
REMARK  status: ('A' for Active; 'I' for Inactive)
REMARK    1  A    between atoms: N_5  and  C_1 
REMARK    2  A    between atoms: C_2  and  C_8 
REMARK       I    between atoms: C_3  and  N_5 
REMARK       I    between atoms: N_6  and  C_3 
REMARK    3  A    between atoms: N_7  and  C_4 
REMARK    4  A    between atoms: C_9  and  N_6 
ROOT
ATOM      1  C   UNL d   1       4.475  -0.795   0.603  0.00  0.00     0.325 C 
ATOM      2  N   UNL d   1       3.435   0.050   0.809  0.00  0.00    -0.307 N 
ATOM      3  N   UNL d   1       5.338  -1.000   1.642  0.00  0.00    -0.308 N 
ATOM      4  O   UNL d   1       4.826  -1.264  -0.479  0.00  0.00    -0.247 OA
ATOM      5  H   UNL d   1       3.647   0.786   1.468  0.00  0.00     0.170 HD
ATOM      6  H   UNL d   1       6.189  -1.406   1.273  0.00  0.00     0.170 HD
ENDROOT
BRANCH   2   7
ATOM      7  C   UNL d   1       2.164   0.107   0.180  0.00  0.00     0.058 A 
ATOM      8  C   UNL d   1       1.520  -0.954  -0.506  0.00  0.00     0.037 A 
ATOM      9  C   UNL d   1       0.181  -0.753  -0.909  0.00  0.00     0.027 A 
ATOM     10  C   UNL d   1      -0.507   0.435  -0.655  0.00  0.00     0.018 A 
ATOM     11  C   UNL d   1       0.132   1.488  -0.004  0.00  0.00     0.050 A 
ATOM     12  C   UNL d   1       1.457   1.305   0.420  0.00  0.00     0.047 A 
BRANCH   8  13
ATOM     13  N   UNL d   1       2.143  -2.182  -0.764  0.00  0.00    -0.281 NA
ATOM     14  C   UNL d   1       1.428  -3.419  -0.443  0.00  0.00     0.096 C 
ATOM     15  C   UNL d   1       2.274  -4.477  -1.135  0.00  0.00     0.016 C 
ATOM     16  C   UNL d   1       2.665  -3.805  -2.443  0.00  0.00     0.016 C 
ATOM     17  C   UNL d   1       2.653  -2.303  -2.146  0.00  0.00     0.096 C 
ENDBRANCH   8  13
BRANCH  11  18
ATOM     18  C   UNL d   1      -0.595   2.777   0.280  0.00  0.00     0.417 C 
ATOM     19  F   UNL d   1       0.206   3.873   0.176  0.00  0.00    -0.166 F 
ATOM     20  F   UNL d   1      -1.641   3.001  -0.564  0.00  0.00    -0.166 F 
ATOM     21  F   UNL d   1      -1.116   2.812   1.537  0.00  0.00    -0.166 F 
ENDBRANCH  11  18
ENDBRANCH   2   7
BRANCH   3  22
ATOM     22  C   UNL d   1       5.358  -0.640   3.007  0.00  0.00     0.047 C 
ATOM     23  C   UNL d   1       4.233  -0.407   3.852  0.00  0.00     0.001 C 
ATOM     24  C   UNL d   1       4.468   0.140   5.142  0.00  0.00    -0.024 C 
ATOM     25  C   UNL d   1       2.890  -0.734   3.546  0.00  0.00     0.014 C 
ATOM     26  C   UNL d   1       3.390   0.471   5.984  0.00  0.00     0.012 C 
ATOM     27  C   UNL d   1       5.780   0.318   5.606  0.00  0.00     0.012 C 
ATOM     28  C   UNL d   1       2.075   0.232   5.593  0.00  0.00     0.001 C 
ATOM     29  C   UNL d   1       1.825  -0.394   4.384  0.00  0.00     0.001 C 
ATOM     30  C   UNL d   1       6.869  -0.036   4.821  0.00  0.00     0.003 C 
ATOM     31  C   UNL d   1       6.657  -0.506   3.531  0.00  0.00     0.030 C 
ENDBRANCH   3  22
TORSDOF 4
