REMARK  3 active torsions:
REMARK  status: ('A' for Active; 'I' for Inactive)
REMARK    1  A    between atoms: C_3  and  C_1 
REMARK    2  A    between atoms: C_11  and  C_2 
REMARK    3  A    between atoms: C_15  and  C_10 
ROOT
ATOM      1  C   UNL d   1      -2.626   1.560   0.063  0.00  0.00     0.157 A 
ATOM      2  N   UNL d   1      -2.941   2.345  -1.014  0.00  0.00    -0.317 N 
ATOM      3  HN  UNL d   1      -2.437   2.456  -1.894  1.00  0.00     0.169 HD
ATOM      4  N   UNL d   1      -3.497   1.616   1.078  0.00  0.00    -0.241 N 
ATOM      5  HN  UNL d   1      -3.470   1.113   1.966  1.00  0.00     0.196 HD
ATOM      6  C   UNL d   1      -4.059   2.918  -0.625  0.00  0.00     0.182 A 
ATOM      7  O   UNL d   1      -4.451   2.530   0.627  0.00  0.00    -0.217 OA
ENDROOT
BRANCH   1   8
ATOM      8  C   UNL d   1      -1.430   0.725   0.040  0.00  0.00     0.119 A 
ATOM      9  C   UNL d   1      -0.252   0.923  -0.643  0.00  0.00     0.191 A 
ATOM     10  O   UNL d   1       0.560  -0.159  -0.378  0.00  0.00    -0.291 OA
ATOM     11  C   UNL d   1      -0.183  -0.943   0.460  0.00  0.00     0.121 A 
ATOM     12  N   UNL d   1      -1.369  -0.456   0.751  0.00  0.00    -0.335 N 
ATOM     13  C   UNL d   1       0.437  -2.207   0.903  0.00  0.00     0.098 C 
ATOM     14  HN  UNL d   1      -2.081  -0.858   1.362  1.00  0.00     0.168 HD
BRANCH   9  15
ATOM     15  C   UNL d   1       0.288   1.980  -1.513  0.00  0.00     0.442 C 
ATOM     16  F   UNL d   1      -0.510   3.068  -1.625  0.00  0.00    -0.164 F 
ATOM     17  F   UNL d   1       1.482   2.440  -1.048  0.00  0.00    -0.164 F 
ATOM     18  F   UNL d   1       0.516   1.529  -2.774  0.00  0.00    -0.164 F 
ENDBRANCH   9  15
ENDBRANCH   1   8
BRANCH   6  19
ATOM     19  C   UNL d   1      -4.912   3.865  -1.331  0.00  0.00     0.019 A 
ATOM     20  C   UNL d   1      -4.591   4.231  -2.647  0.00  0.00     0.039 A 
ATOM     21  C   UNL d   1      -5.401   5.124  -3.348  0.00  0.00     0.035 A 
ATOM     22 CL   UNL d   1      -4.998   5.553  -4.965  0.00  0.00    -0.084 Cl
ATOM     23  C   UNL d   1      -6.535   5.669  -2.752  0.00  0.00     0.024 A 
ATOM     24  C   UNL d   1      -6.862   5.318  -1.444  0.00  0.00     0.003 A 
ATOM     25  C   UNL d   1      -6.055   4.423  -0.737  0.00  0.00     0.016 A 
ENDBRANCH   6  19
TORSDOF 3
