REMARK  5 active torsions:
REMARK  status: ('A' for Active; 'I' for Inactive)
REMARK    1  A    between atoms: C_8  and  C_1 
REMARK    2  A    between atoms: C_11  and  C_4 
REMARK    3  A    between atoms: C_14  and  C_4 
REMARK    4  A    between atoms: N_5  and  O_12 
REMARK    5  A    between atoms: O_12  and  C_8 
ROOT
ATOM      1  C   UNL d   1      -3.640   3.088  -0.041  0.00  0.00     0.057 C 
ATOM      2  N   UNL d   1      -2.464   2.512  -0.039  0.00  0.00    -0.259 N 
ATOM      3  HN  UNL d   1      -1.612   3.072  -0.084  1.00  0.00     0.194 HD
ENDROOT
BRANCH   2   4
ATOM      4  O   UNL d   1      -2.396   1.099   0.026  0.00  0.00    -0.195 OA
BRANCH   4   5
ATOM      5  C   UNL d   1      -1.076   0.693  -0.051  0.00  0.00     0.319 C 
ATOM      6  O   UNL d   1      -0.116   1.460  -0.150  0.00  0.00    -0.257 OA
BRANCH   5   7
ATOM      7  C   UNL d   1      -0.877  -0.756  -0.005  0.00  0.00     0.096 A 
ATOM      8  C   UNL d   1       0.372  -1.353  -0.098  0.00  0.00     0.090 A 
ATOM      9  O   UNL d   1       0.253  -2.700  -0.034  0.00  0.00    -0.242 OA
ATOM     10  C   UNL d   1       1.752  -0.848  -0.243  0.00  0.00     0.080 C 
ATOM     11  N   UNL d   1      -1.067  -3.037   0.105  0.00  0.00    -0.265 N 
ATOM     12  C   UNL d   1      -1.747  -1.883   0.127  0.00  0.00     0.047 A 
ATOM     13  HN  UNL d   1      -1.455  -3.977   0.178  1.00  0.00     0.194 HD
ATOM     14  C   UNL d   1      -3.214  -1.979   0.282  0.00  0.00     0.071 C 
ENDBRANCH   5   7
ENDBRANCH   4   5
ENDBRANCH   2   4
BRANCH   1  15
ATOM     15  C   UNL d   1      -3.622   4.582  -0.097  0.00  0.00     0.030 A 
ATOM     16  S   UNL d   1      -2.103   5.420  -0.112  0.00  0.00    -0.100 SA
ATOM     17  C   UNL d   1      -2.837   6.959  -0.174  0.00  0.00     0.050 A 
ATOM     18  C   UNL d   1      -4.206   6.872  -0.189  0.00  0.00     0.008 A 
ATOM     19  C   UNL d   1      -4.649   5.517  -0.135  0.00  0.00     0.021 A 
ENDBRANCH   1  15
BRANCH   1  20
ATOM     20  C   UNL d   1      -5.038   2.364   0.019  0.00  0.00    -0.005 C 
ATOM     21  C   UNL d   1      -4.973   0.833   0.038  0.00  0.00     0.021 C 
ATOM     22  C   UNL d   1      -5.768   2.751   1.321  0.00  0.00     0.021 C 
ATOM     23  C   UNL d   1      -5.878   2.695  -1.233  0.00  0.00     0.021 C 
ENDBRANCH   1  20
TORSDOF 5
