REMARK  4 active torsions:
REMARK  status: ('A' for Active; 'I' for Inactive)
REMARK    1  A    between atoms: N_4  and  C_5 
REMARK    2  A    between atoms: C_7  and  C_6 
REMARK    3  A    between atoms: C_10  and  C_15 
REMARK    4  A    between atoms: C_13  and  C_11 
ROOT
ATOM      1  C   UNL d   1       5.230  -3.001   0.313  0.00  0.00     0.088 A 
ATOM      2  O   UNL d   1       4.846  -1.756   0.724  0.00  0.00    -0.310 OA
ATOM      3  C   UNL d   1       3.808  -1.336  -0.077  0.00  0.00     0.077 A 
ATOM      4  C   UNL d   1       4.451  -3.392  -0.756  0.00  0.00     0.041 A 
ATOM      5  C   UNL d   1       3.571  -2.323  -1.023  0.00  0.00     0.040 A 
ENDROOT
BRANCH   1   6
ATOM      6  C   UNL d   1       6.297  -3.650   1.075  0.00  0.00     0.031 A 
ATOM      7  C   UNL d   1       7.197  -4.569   0.515  0.00  0.00     0.116 A 
ATOM      8  C   UNL d   1       8.109  -5.307   1.289  0.00  0.00     0.053 A 
ATOM      9  C   UNL d   1       8.151  -5.125   2.676  0.00  0.00     0.050 A 
ATOM     10  C   UNL d   1       7.304  -4.163   3.249  0.00  0.00     0.017 A 
ATOM     11  C   UNL d   1       6.393  -3.439   2.462  0.00  0.00     0.017 A 
BRANCH   7  12
ATOM     12  N   UNL d   1       7.233  -4.797  -0.916  0.00  0.00    -0.115 N 
ATOM     13  O   UNL d   1       7.565  -3.847  -1.637  0.00  0.00    -0.532 OA
ATOM     14  O   UNL d   1       6.961  -5.940  -1.306  0.00  0.00    -0.532 OA
ENDBRANCH   7  12
BRANCH   9  15
ATOM     15  C   UNL d   1       9.067  -5.959   3.542  0.00  0.00     0.417 C 
ATOM     16  F   UNL d   1       9.784  -6.876   2.837  0.00  0.00    -0.166 F 
ATOM     17  F   UNL d   1       9.977  -5.207   4.216  0.00  0.00    -0.166 F 
ATOM     18  F   UNL d   1       8.384  -6.664   4.484  0.00  0.00    -0.166 F 
ENDBRANCH   9  15
ENDBRANCH   1   6
BRANCH   3  19
ATOM     19  C   UNL d   1       3.111  -0.116   0.088  0.00  0.00     0.056 C 
ATOM     20  C   UNL d   1       1.999  -0.049   0.831  0.00  0.00     0.068 A 
ATOM     21  C   UNL d   1       1.359  -1.113   1.653  0.00  0.00     0.197 A 
ATOM     22  C   UNL d   1       1.153   1.171   0.893  0.00  0.00     0.197 A 
ATOM     23  C   UNL d   1       0.134  -0.506   2.182  0.00  0.00     0.029 A 
ATOM     24  O   UNL d   1       1.724  -2.248   1.867  0.00  0.00    -0.286 OA
ATOM     25  C   UNL d   1      -0.813  -1.097   2.997  0.00  0.00     0.016 A 
ATOM     26  C   UNL d   1       0.007   0.807   1.736  0.00  0.00     0.029 A 
ATOM     27  C   UNL d   1      -1.923  -0.328   3.358  0.00  0.00     0.001 A 
ATOM     28  C   UNL d   1      -2.061   0.997   2.897  0.00  0.00     0.001 A 
ATOM     29  C   UNL d   1      -1.089   1.579   2.076  0.00  0.00     0.016 A 
ATOM     30  O   UNL d   1       1.338   2.237   0.346  0.00  0.00    -0.286 OA
ENDBRANCH   3  19
TORSDOF 4
