REMARK  5 active torsions:
REMARK  status: ('A' for Active; 'I' for Inactive)
REMARK    1  A    between atoms: N_2  and  C_1 
REMARK    2  A    between atoms: C_5  and  N_2 
REMARK    3  A    between atoms: C_10  and  N_4 
REMARK    4  A    between atoms: C_9  and  C_10 
REMARK    5  A    between atoms: S_12  and  C_11 
ROOT
ATOM      1  C   UNL d   1       0.997  -0.017  -0.098  0.00  0.00     0.172 C 
ATOM      2  S   UNL d   1       2.558   0.302   0.410  0.00  0.00    -0.041 SA
ATOM      3  N   UNL d   1       0.280  -0.926   0.628  0.00  0.00    -0.363 N 
ATOM      4  H   UNL d   1       0.811  -1.318   1.398  0.00  0.00     0.162 HD
ENDROOT
BRANCH   1   5
ATOM      5  N   UNL d   1       0.318   0.569  -1.142  0.00  0.00    -0.333 N 
ATOM      6  H   UNL d   1      -0.615   0.875  -0.893  0.00  0.00     0.168 HD
BRANCH   5   7
ATOM      7  C   UNL d   1       0.897   1.169  -2.280  0.00  0.00     0.035 A 
ATOM      8  C   UNL d   1       1.995   0.583  -2.921  0.00  0.00     0.048 A 
ATOM      9  C   UNL d   1       2.579   1.178  -4.041  0.00  0.00     0.002 A 
ATOM     10  C   UNL d   1       2.024   2.361  -4.539  0.00  0.00     0.018 A 
ATOM     11  C   UNL d   1       0.901   2.932  -3.931  0.00  0.00     0.004 A 
ATOM     12  C   UNL d   1       0.325   2.324  -2.812  0.00  0.00     0.029 A 
BRANCH   9  13
ATOM     13  S   UNL d   1       3.982   0.475  -4.899  0.00  0.00    -0.134 SA
ATOM     14  C   UNL d   1       4.832  -0.416  -3.564  0.00  0.00     0.095 C 
ENDBRANCH   9  13
ENDBRANCH   5   7
ENDBRANCH   1   5
BRANCH   3  15
ATOM     15  C   UNL d   1      -0.777  -1.769   0.099  0.00  0.00     0.162 C 
BRANCH  15  16
ATOM     16  C   UNL d   1      -2.158  -1.347   0.502  0.00  0.00    -0.025 A 
ATOM     17  C   UNL d   1      -3.238  -1.670  -0.316  0.00  0.00     0.096 A 
ATOM     18  N   UNL d   1      -4.529  -1.411  -0.014  0.00  0.00    -0.375 N 
ATOM     19  C   UNL d   1      -4.766  -0.811   1.171  0.00  0.00     0.087 A 
ATOM     20  HN  UNL d   1      -5.288  -1.657  -0.650  1.00  0.00     0.164 HD
ATOM     21  C   UNL d   1      -3.769  -0.454   2.063  0.00  0.00     0.018 A 
ATOM     22  C   UNL d   1      -2.447  -0.730   1.722  0.00  0.00     0.011 A 
ENDBRANCH  15  16
ENDBRANCH   3  15
TORSDOF 5
