REMARK  3 active torsions:
REMARK  status: ('A' for Active; 'I' for Inactive)
REMARK    1  A    between atoms: S_7  and  C_3 
REMARK    2  A    between atoms: C_5  and  S_7 
REMARK    3  A    between atoms: C_21  and  C_10 
ROOT
ATOM      1  N   UNL d   1       0.072   0.366  -0.118  0.00  0.00    -0.287 N 
ATOM      2  C   UNL d   1      -0.110  -1.032  -0.092  0.00  0.00     0.135 A 
ATOM      3  C   UNL d   1      -1.024   1.274  -0.247  0.00  0.00     0.093 A 
ATOM      4  C   UNL d   1      -1.437  -1.559  -0.112  0.00  0.00     0.096 A 
ATOM      5  N   UNL d   1       1.032  -1.683  -0.050  0.00  0.00    -0.339 N 
ATOM      6  HN  UNL d   1       1.163  -2.694  -0.049  1.00  0.00     0.167 HD
ATOM      7  C   UNL d   1      -2.267   0.747  -0.326  0.00  0.00    -0.016 A 
ATOM      8  C   UNL d   1      -2.462  -0.700  -0.236  0.00  0.00    -0.025 A 
ATOM      9  C   UNL d   1       1.458   0.559  -0.013  0.00  0.00     0.068 A 
ATOM     10  C   UNL d   1       2.001  -0.729  -0.007  0.00  0.00     0.061 A 
ATOM     11  C   UNL d   1      -1.656  -2.964   0.012  0.00  0.00     0.104 C 
ATOM     12  N   UNL d   1      -1.895  -4.098   0.115  0.00  0.00    -0.191 NA
ATOM     13  C   UNL d   1      -3.623   1.390  -0.418  0.00  0.00     0.042 C 
ATOM     14  C   UNL d   1      -3.935  -0.999  -0.227  0.00  0.00     0.041 C 
ATOM     15  C   UNL d   1       2.303   1.681   0.073  0.00  0.00     0.032 A 
ATOM     16  C   UNL d   1       3.390  -0.919   0.047  0.00  0.00     0.032 A 
ATOM     17  C   UNL d   1      -4.552   0.334   0.172  0.00  0.00     0.009 C 
ATOM     18  C   UNL d   1       3.690   1.475   0.107  0.00  0.00     0.002 A 
ATOM     19  C   UNL d   1       4.230   0.194   0.091  0.00  0.00     0.002 A 
ENDROOT
BRANCH   3  20
ATOM     20  S   UNL d   1      -0.771   2.994  -0.173  0.00  0.00    -0.034 SA
BRANCH  20  21
ATOM     21  C   UNL d   1      -1.345   3.490  -1.731  0.00  0.00     0.169 A 
ATOM     22  N   UNL d   1      -0.544   3.756  -2.811  0.00  0.00    -0.315 N 
ATOM     23  C   UNL d   1      -1.365   4.342  -3.760  0.00  0.00     0.134 A 
ATOM     24  C   UNL d   1       0.878   3.572  -2.919  0.00  0.00     0.160 C 
ATOM     25  N   UNL d   1      -2.589   4.396  -3.263  0.00  0.00    -0.283 N 
ATOM     26  N   UNL d   1      -2.573   3.869  -1.994  0.00  0.00    -0.278 N 
ATOM     27  HN  UNL d   1      -3.409   4.768  -3.741  1.00  0.00     0.188 HD
ATOM     28  HN  UNL d   1      -3.373   3.787  -1.367  1.00  0.00     0.189 HD
BRANCH  23  29
ATOM     29  C   UNL d   1      -0.936   4.920  -5.041  0.00  0.00     0.009 A 
ATOM     30  C   UNL d   1       0.014   4.297  -5.862  0.00  0.00     0.015 A 
ATOM     31  C   UNL d   1       0.498   4.933  -7.008  0.00  0.00     0.001 A 
ATOM     32  C   UNL d   1       0.005   6.181  -7.373  0.00  0.00     0.000 A 
ATOM     33  C   UNL d   1      -0.990   6.784  -6.608  0.00  0.00     0.001 A 
ATOM     34  C   UNL d   1      -1.460   6.156  -5.449  0.00  0.00     0.015 A 
ENDBRANCH  23  29
ENDBRANCH  20  21
ENDBRANCH   3  20
TORSDOF 3
