REMARK  14 active torsions:
REMARK  status: ('A' for Active; 'I' for Inactive)
REMARK    1  A    between atoms: C_1  and  O_10 
REMARK    2  A    between atoms: C_2  and  O_10 
REMARK    3  A    between atoms: C_3  and  O_23 
REMARK    4  A    between atoms: C_5  and  O_27 
REMARK    5  A    between atoms: C_6  and  O_28 
REMARK    6  A    between atoms: C_9  and  O_29 
REMARK    7  A    between atoms: C_14  and  O_32 
REMARK    8  A    between atoms: O_33  and  C_15 
REMARK    9  A    between atoms: C_16  and  O_34 
REMARK   10  A    between atoms: C_17  and  C_38 
REMARK   11  A    between atoms: C_19  and  C_25 
REMARK   12  A    between atoms: C_21  and  O_23 
REMARK   13  A    between atoms: O_39  and  C_35 
REMARK   14  A    between atoms: O_40  and  C_38 
ROOT
ATOM      1  C   UNL d   1      -1.740  -2.527  -1.680  0.00  0.00     0.211 C 
ATOM      2  C   UNL d   1      -0.478  -1.629  -1.584  0.00  0.00     0.298 C 
ATOM      3  C   UNL d   1      -1.936  -2.897  -3.171  0.00  0.00     0.183 C 
ATOM      4  O   UNL d   1      -0.648  -0.468  -2.394  0.00  0.00    -0.348 OA
ATOM      5  C   UNL d   1      -1.935  -1.654  -4.084  0.00  0.00     0.180 C 
ATOM      6  C   UNL d   1      -0.728  -0.760  -3.792  0.00  0.00     0.179 C 
ENDROOT
BRANCH   2   7
ATOM      7  O   UNL d   1      -0.285  -1.181  -0.232  0.00  0.00    -0.318 OA
BRANCH   7   8
ATOM      8  C   UNL d   1       1.030  -1.051   0.134  0.00  0.00     0.077 A 
ATOM      9  C   UNL d   1       2.026  -0.617  -0.736  0.00  0.00     0.074 A 
ATOM     10  C   UNL d   1       3.353  -0.589  -0.319  0.00  0.00     0.089 A 
ATOM     11  O   UNL d   1       4.255  -0.249  -1.283  0.00  0.00    -0.340 OA
ATOM     12  C   UNL d   1       3.688  -0.966   0.977  0.00  0.00     0.076 A 
ATOM     13  C   UNL d   1       5.514   0.207  -0.779  0.00  0.00     0.169 C 
ATOM     14  C   UNL d   1       6.108  -0.728   0.268  0.00  0.00     0.121 C 
ATOM     15  C   UNL d   1       5.109  -0.978   1.356  0.00  0.00     0.167 C 
ATOM     16  O   UNL d   1       5.429  -1.273   2.503  0.00  0.00    -0.292 OA
ATOM     17  C   UNL d   1       2.687  -1.377   1.861  0.00  0.00     0.085 A 
ATOM     18  C   UNL d   1       1.357  -1.400   1.447  0.00  0.00     0.074 A 
BRANCH  13  19
ATOM     19  C   UNL d   1       6.425   0.297  -1.988  0.00  0.00    -0.028 A 
ATOM     20  C   UNL d   1       7.015   1.515  -2.353  0.00  0.00     0.012 A 
ATOM     21  C   UNL d   1       7.871   1.578  -3.454  0.00  0.00     0.037 A 
ATOM     22  C   UNL d   1       8.137   0.431  -4.194  0.00  0.00     0.065 A 
ATOM     23  C   UNL d   1       7.545  -0.782  -3.865  0.00  0.00     0.037 A 
ATOM     24  C   UNL d   1       6.685  -0.844  -2.771  0.00  0.00     0.012 A 
BRANCH  22  25
ATOM     25  O   UNL d   1       8.993   0.535  -5.249  0.00  0.00    -0.361 OA
ATOM     26  H   UNL d   1       9.090  -0.341  -5.656  0.00  0.00     0.217 HD
ENDBRANCH  22  25
ENDBRANCH  13  19
BRANCH  17  27
ATOM     27  O   UNL d   1       2.944  -1.815   3.131  0.00  0.00    -0.360 OA
ATOM     28  H   UNL d   1       3.916  -1.767   3.284  0.00  0.00     0.217 HD
ENDBRANCH  17  27
ENDBRANCH   7   8
ENDBRANCH   2   7
BRANCH   1  29
ATOM     29  O   UNL d   1      -1.661  -3.760  -0.935  0.00  0.00    -0.346 OA
BRANCH  29  30
ATOM     30  C   UNL d   1      -1.516  -3.639   0.477  0.00  0.00     0.292 C 
ATOM     31  C   UNL d   1      -2.639  -2.854   1.185  0.00  0.00     0.204 C 
ATOM     32  C   UNL d   1      -3.944  -3.650   1.100  0.00  0.00     0.183 C 
ATOM     33  C   UNL d   1      -3.752  -5.057   1.695  0.00  0.00     0.178 C 
ATOM     34  C   UNL d   1      -2.549  -5.740   1.020  0.00  0.00     0.152 C 
ATOM     35  O   UNL d   1      -1.377  -4.928   1.091  0.00  0.00    -0.351 OA
ATOM     36  C   UNL d   1      -2.200  -7.059   1.702  0.00  0.00     0.042 C 
BRANCH  31  37
ATOM     37  O   UNL d   1      -2.331  -2.618   2.573  0.00  0.00    -0.388 OA
ATOM     38  H   UNL d   1      -1.737  -3.341   2.870  0.00  0.00     0.210 HD
ENDBRANCH  31  37
BRANCH  32  39
ATOM     39  O   UNL d   1      -4.978  -2.943   1.796  0.00  0.00    -0.390 OA
ATOM     40  H   UNL d   1      -4.572  -2.621   2.626  0.00  0.00     0.210 HD
ENDBRANCH  32  39
BRANCH  33  41
ATOM     41  O   UNL d   1      -4.925  -5.859   1.544  0.00  0.00    -0.390 OA
ATOM     42  H   UNL d   1      -5.333  -5.646   0.687  0.00  0.00     0.210 HD
ENDBRANCH  33  41
ENDBRANCH  29  30
ENDBRANCH   1  29
BRANCH   3  43
ATOM     43  O   UNL d   1      -3.156  -3.635  -3.348  0.00  0.00    -0.390 OA
ATOM     44  H   UNL d   1      -3.906  -3.015  -3.330  0.00  0.00     0.210 HD
ENDBRANCH   3  43
BRANCH   6  45
ATOM     45  C   UNL d   1      -0.842   0.591  -4.507  0.00  0.00     0.198 C 
BRANCH  45  46
ATOM     46  O   UNL d   1       0.311   1.381  -4.204  0.00  0.00    -0.398 OA
ATOM     47  H   UNL d   1       0.351   1.429  -3.229  0.00  0.00     0.209 HD
ENDBRANCH  45  46
ENDBRANCH   6  45
BRANCH   5  48
ATOM     48  O   UNL d   1      -1.957  -2.023  -5.463  0.00  0.00    -0.390 OA
ATOM     49  H   UNL d   1      -1.382  -2.798  -5.598  0.00  0.00     0.210 HD
ENDBRANCH   5  48
TORSDOF 14
