REMARK  7 active torsions:
REMARK  status: ('A' for Active; 'I' for Inactive)
REMARK    1  A    between atoms: N_13  and  S_1 
REMARK    2  A    between atoms: C_14  and  S_1 
REMARK    3  A    between atoms: C_16  and  C_6 
REMARK    4  A    between atoms: C_7  and  N_15 
REMARK    5  A    between atoms: C_12  and  C_10 
REMARK    6  A    between atoms: N_22  and  C_11 
REMARK    7  A    between atoms: N_15  and  N_13 
ROOT
ATOM      1  N   UNL d   1       1.001   2.682  -0.992  0.00  0.00    -0.122 N 
ATOM      2  H   UNL d   1       0.376   3.482  -0.987  0.00  0.00     0.206 HD
ENDROOT
BRANCH   1   3
ATOM      3  C   UNL d   1       2.205   2.884  -0.317  0.00  0.00     0.701 A 
ATOM      4  N   UNL d   1       2.948   1.825   0.022  0.00  0.00    -0.178 N 
ATOM      5  C   UNL d   1       4.059   2.093   0.711  0.00  0.00     0.107 A 
ATOM      6  HN  UNL d   1       2.682   0.873  -0.229  1.00  0.00     0.185 HD
ATOM      7  N   UNL d   1       4.478   3.333   0.972  0.00  0.00    -0.321 N 
ATOM      8  C   UNL d   1       3.691   4.307   0.550  0.00  0.00     0.171 A 
ATOM      9  HN  UNL d   1       5.350   3.517   1.467  1.00  0.00     0.169 HD
ATOM     10  N   UNL d   1       2.527   4.143  -0.051  0.00  0.00    -0.165 N 
ATOM     11  HN  UNL d   1       1.919   4.926  -0.292  1.00  0.00     0.187 HD
BRANCH   5  12
ATOM     12  C   UNL d   1       4.953   0.936   1.162  0.00  0.00     0.008 C 
ATOM     13  C   UNL d   1       5.997   0.671   0.066  0.00  0.00     0.022 C 
ATOM     14  C   UNL d   1       5.680   1.286   2.479  0.00  0.00     0.022 C 
ATOM     15  C   UNL d   1       4.141  -0.350   1.408  0.00  0.00     0.022 C 
ENDBRANCH   5  12
BRANCH   8  16
ATOM     16  N   UNL d   1       4.107   5.602   0.783  0.00  0.00    -0.273 NA
ATOM     17  H   UNL d   1       4.757   5.634   1.556  0.00  0.00     0.127 HD
ATOM     18  H   UNL d   1       3.322   6.236   0.802  0.00  0.00     0.127 HD
ENDBRANCH   8  16
ENDBRANCH   1   3
BRANCH   1  19
ATOM     19  N   UNL d   1       0.557   1.409  -1.512  0.00  0.00    -0.208 N 
ATOM     20  H   UNL d   1       1.174   0.593  -1.444  0.00  0.00     0.201 HD
BRANCH  19  21
ATOM     21  S   UNL d   1      -1.015   1.089  -1.988  0.00  0.00     0.277 S 
ATOM     22  O   UNL d   1      -1.886   1.761  -1.049  0.00  0.00    -0.199 OA
ATOM     23  O   UNL d   1      -1.125  -0.334  -2.236  0.00  0.00    -0.199 OA
BRANCH  21  24
ATOM     24  C   UNL d   1      -1.217   1.882  -3.576  0.00  0.00     0.096 A 
ATOM     25  C   UNL d   1      -0.442   1.557  -4.702  0.00  0.00     0.071 A 
ATOM     26  C   UNL d   1      -0.861   2.061  -5.957  0.00  0.00     0.018 A 
ATOM     27  C   UNL d   1      -1.995   2.864  -6.088  0.00  0.00     0.001 A 
ATOM     28  C   UNL d   1      -2.724   3.213  -4.960  0.00  0.00     0.002 A 
ATOM     29  C   UNL d   1      -2.338   2.729  -3.710  0.00  0.00     0.026 A 
BRANCH  25  30
ATOM     30  C   UNL d   1       0.807   0.710  -4.712  0.00  0.00     0.419 C 
ATOM     31  F   UNL d   1       1.230   0.215  -3.524  0.00  0.00    -0.166 F 
ATOM     32  F   UNL d   1       0.686  -0.370  -5.535  0.00  0.00    -0.166 F 
ATOM     33  F   UNL d   1       1.869   1.416  -5.202  0.00  0.00    -0.166 F 
ENDBRANCH  25  30
ENDBRANCH  21  24
ENDBRANCH  19  21
ENDBRANCH   1  19
TORSDOF 7
