REMARK  3 active torsions:
REMARK  status: ('A' for Active; 'I' for Inactive)
REMARK    1  A    between atoms: C_4  and  C_2 
REMARK    2  A    between atoms: O_7  and  C_4 
REMARK    3  A    between atoms: C_9  and  O_7 
ROOT
ATOM      1  S   UNL d   1      -1.676   1.980   0.360  0.00  0.00    -0.083 SA
ATOM      2  C   UNL d   1      -3.185   1.208   0.212  0.00  0.00     0.082 A 
ATOM      3  C   UNL d   1      -0.784   0.516   0.170  0.00  0.00     0.027 A 
ATOM      4  C   UNL d   1      -3.030  -0.150   0.026  0.00  0.00     0.038 A 
ATOM      5  C   UNL d   1      -1.654  -0.570   0.024  0.00  0.00    -0.017 A 
ATOM      6  C   UNL d   1       0.635   0.349   0.146  0.00  0.00    -0.008 A 
ATOM      7  C   UNL d   1      -1.096  -1.862  -0.112  0.00  0.00     0.014 A 
ATOM      8  C   UNL d   1       1.161  -0.953  -0.021  0.00  0.00    -0.025 A 
ATOM      9  C   UNL d   1       0.292  -2.042  -0.131  0.00  0.00     0.013 A 
ATOM     10  C   UNL d   1       1.514   1.450   0.263  0.00  0.00     0.013 A 
ATOM     11  C   UNL d   1       2.553  -1.116  -0.078  0.00  0.00     0.012 A 
ATOM     12  C   UNL d   1       2.893   1.262   0.195  0.00  0.00     0.001 A 
ATOM     13  C   UNL d   1       3.411  -0.018   0.020  0.00  0.00     0.001 A 
ENDROOT
BRANCH   2  14
ATOM     14  C   UNL d   1      -4.428   1.954   0.297  0.00  0.00     0.305 C 
ATOM     15  O   UNL d   1      -5.533   1.526  -0.019  0.00  0.00    -0.258 OA
BRANCH  14  16
ATOM     16  O   UNL d   1      -4.192   3.212   0.852  0.00  0.00    -0.273 OA
BRANCH  16  17
ATOM     17  C   UNL d   1      -5.292   3.872   1.413  0.00  0.00     0.101 A 
ATOM     18  C   UNL d   1      -5.970   3.371   2.530  0.00  0.00     0.069 A 
ATOM     19  C   UNL d   1      -6.983   4.126   3.116  0.00  0.00     0.050 A 
ATOM     20 CL   UNL d   1      -5.538   1.874   3.276  0.00  0.00    -0.081 Cl
ATOM     21  C   UNL d   1      -7.285   5.388   2.603  0.00  0.00     0.035 A 
ATOM     22  C   UNL d   1      -6.585   5.901   1.508  0.00  0.00     0.026 A 
ATOM     23 CL   UNL d   1      -8.507   6.337   3.354  0.00  0.00    -0.084 Cl
ATOM     24  C   UNL d   1      -5.583   5.141   0.908  0.00  0.00     0.041 A 
ENDBRANCH  16  17
ENDBRANCH  14  16
ENDBRANCH   2  14
TORSDOF 3
