REMARK  6 active torsions:
REMARK  status: ('A' for Active; 'I' for Inactive)
REMARK    1  A    between atoms: O_4  and  S_1 
REMARK    2  A    between atoms: C_5  and  S_1 
REMARK    3  A    between atoms: C_2  and  O_4 
REMARK    4  A    between atoms: C_3  and  C_2 
REMARK    5  A    between atoms: C_8  and  C_2 
REMARK    6  A    between atoms: C_15  and  C_8 
ROOT
ATOM      1  C   UNL d   1       1.188  -1.565   1.833  0.00  0.00     0.254 C 
ENDROOT
BRANCH   1   2
ATOM      2  O   UNL d   1       0.897  -0.230   1.386  0.00  0.00    -0.257 OA
BRANCH   2   3
ATOM      3  S   UNL d   1       1.154   0.137  -0.179  0.00  0.00     0.298 S 
ATOM      4  O   UNL d   1       0.290  -0.691  -0.987  0.00  0.00    -0.193 OA
ATOM      5  O   UNL d   1       2.586   0.184  -0.386  0.00  0.00    -0.193 OA
BRANCH   3   6
ATOM      6  C   UNL d   1       0.555   1.808  -0.318  0.00  0.00     0.086 A 
ATOM      7  C   UNL d   1       1.248   2.726  -1.115  0.00  0.00     0.027 A 
ATOM      8  C   UNL d   1       0.806   4.049  -1.177  0.00  0.00     0.025 A 
ATOM      9  C   UNL d   1      -0.313   4.444  -0.441  0.00  0.00     0.034 A 
ATOM     10  C   UNL d   1      -1.001   3.526   0.354  0.00  0.00     0.025 A 
ATOM     11 CL   UNL d   1      -0.845   6.079  -0.508  0.00  0.00    -0.084 Cl
ATOM     12  C   UNL d   1      -0.569   2.200   0.416  0.00  0.00     0.027 A 
ENDBRANCH   3   6
ENDBRANCH   2   3
ENDBRANCH   1   2
BRANCH   1  13
ATOM     13  C   UNL d   1       2.699  -1.790   1.971  0.00  0.00     0.414 C 
ATOM     14  F   UNL d   1       3.334  -0.668   2.376  0.00  0.00    -0.168 F 
ATOM     15  F   UNL d   1       2.978  -2.754   2.880  0.00  0.00    -0.168 F 
ATOM     16  F   UNL d   1       3.243  -2.189   0.802  0.00  0.00    -0.168 F 
ENDBRANCH   1  13
BRANCH   1  17
ATOM     17  C   UNL d   1       0.501  -1.734   3.197  0.00  0.00     0.081 C 
BRANCH  17  18
ATOM     18  C   UNL d   1      -1.008  -1.746   3.082  0.00  0.00    -0.055 A 
ATOM     19  C   UNL d   1      -1.695  -2.939   2.806  0.00  0.00     0.007 A 
ATOM     20  C   UNL d   1      -3.085  -2.943   2.688  0.00  0.00     0.001 A 
ATOM     21  C   UNL d   1      -3.803  -1.757   2.835  0.00  0.00     0.000 A 
ATOM     22  C   UNL d   1      -3.131  -0.567   3.104  0.00  0.00     0.001 A 
ATOM     23  C   UNL d   1      -1.741  -0.561   3.229  0.00  0.00     0.007 A 
ENDBRANCH  17  18
ENDBRANCH   1  17
TORSDOF 6
