REMARK  6 active torsions:
REMARK  status: ('A' for Active; 'I' for Inactive)
REMARK    1  A    between atoms: C_2  and  C_1 
REMARK       I    between atoms: N_3  and  C_1 
REMARK    2  A    between atoms: C_6  and  N_3 
REMARK    3  A    between atoms: C_17  and  N_3 
REMARK    4  A    between atoms: C_4  and  C_5 
REMARK    5  A    between atoms: S_16  and  C_7 
REMARK    6  A    between atoms: C_25  and  S_16 
ROOT
ATOM      1  C   UNL d   1       0.053  -1.103   0.673  0.00  0.00     0.081 A 
ATOM      2  C   UNL d   1      -0.838  -1.174   1.766  0.00  0.00     0.067 A 
ATOM      3  C   UNL d   1       0.261  -2.275  -0.073  0.00  0.00     0.086 A 
ATOM      4  N   UNL d   1      -0.411  -3.432   0.184  0.00  0.00    -0.360 N 
ATOM      5  HN  UNL d   1      -0.248  -4.262  -0.386  1.00  0.00     0.166 HD
ATOM      6  C   UNL d   1      -1.288  -3.464   1.196  0.00  0.00     0.089 A 
ATOM      7  C   UNL d   1      -1.533  -2.377   2.001  0.00  0.00     0.034 A 
ENDROOT
BRANCH   1   8
ATOM      8  C   UNL d   1       0.874   0.102   0.358  0.00  0.00     0.262 C 
ATOM      9  N   UNL d   1       0.278   1.252  -0.215  0.00  0.00    -0.313 N 
ATOM     10  O   UNL d   1       2.077  -0.020   0.586  0.00  0.00    -0.267 OA
BRANCH   9  11
ATOM     11  C   UNL d   1       1.129   2.384  -0.512  0.00  0.00     0.049 A 
ATOM     12  C   UNL d   1       1.291   2.799  -1.858  0.00  0.00    -0.035 A 
ATOM     13  C   UNL d   1       2.047   3.951  -2.159  0.00  0.00     0.009 A 
ATOM     14  C   UNL d   1       0.723   2.064  -3.042  0.00  0.00     0.050 C 
ATOM     15  C   UNL d   1       2.686   4.669  -1.163  0.00  0.00     0.001 A 
ATOM     16  C   UNL d   1       2.584   4.235   0.155  0.00  0.00     0.009 A 
ATOM     17  C   UNL d   1       1.832   3.094   0.499  0.00  0.00    -0.035 A 
ATOM     18  C   UNL d   1       1.809   2.772   1.967  0.00  0.00     0.050 C 
ENDBRANCH   9  11
BRANCH   9  19
ATOM     19  C   UNL d   1      -1.173   1.521  -0.128  0.00  0.00     0.128 C 
ATOM     20  C   UNL d   1      -1.865   2.304  -1.232  0.00  0.00     0.027 C 
ENDBRANCH   9  19
ENDBRANCH   1   8
BRANCH   2  21
ATOM     21  C   UNL d   1      -1.150  -0.051   2.712  0.00  0.00     0.418 C 
ATOM     22  F   UNL d   1      -0.268   0.969   2.728  0.00  0.00    -0.166 F 
ATOM     23  F   UNL d   1      -2.362   0.506   2.427  0.00  0.00    -0.166 F 
ATOM     24  F   UNL d   1      -1.244  -0.474   4.004  0.00  0.00    -0.166 F 
ENDBRANCH   2  21
BRANCH   3  25
ATOM     25  S   UNL d   1       1.404  -2.386  -1.455  0.00  0.00    -0.112 SA
BRANCH  25  26
ATOM     26  C   UNL d   1       1.345  -4.171  -1.863  0.00  0.00     0.076 C 
ATOM     27  C   UNL d   1       0.158  -4.486  -2.759  0.00  0.00     0.016 C 
ENDBRANCH  25  26
ENDBRANCH   3  25
TORSDOF 6
