REMARK  5 active torsions:
REMARK  status: ('A' for Active; 'I' for Inactive)
REMARK    1  A    between atoms: O_2  and  C_1 
REMARK    2  A    between atoms: N_7  and  C_1 
REMARK    3  A    between atoms: C_3  and  O_2 
REMARK    4  A    between atoms: C_13  and  N_7 
REMARK    5  A    between atoms: C_14  and  N_7 
ROOT
ATOM      1  C   UNL d   1       0.742   1.489  -2.118  0.00  0.00     0.090 A 
ATOM      2  C   UNL d   1       1.674   1.155  -3.111  0.00  0.00    -0.027 A 
ATOM      3  C   UNL d   1       0.245   2.796  -1.982  0.00  0.00    -0.027 A 
ATOM      4  C   UNL d   1       2.200   2.185  -3.902  0.00  0.00     0.016 A 
ATOM      5  C   UNL d   1       0.782   3.801  -2.802  0.00  0.00     0.016 A 
ATOM      6  C   UNL d   1       1.777   3.509  -3.746  0.00  0.00    -0.061 A 
ATOM      7  C   UNL d   1       2.159  -0.249  -3.341  0.00  0.00     0.051 C 
ATOM      8  C   UNL d   1      -0.823   3.177  -1.001  0.00  0.00     0.051 C 
ATOM      9  C   UNL d   1       2.433   4.602  -4.538  0.00  0.00     0.048 C 
ENDROOT
BRANCH   1  10
ATOM     10  O   UNL d   1       0.261   0.466  -1.253  0.00  0.00    -0.283 OA
BRANCH  10  11
ATOM     11  C   UNL d   1       0.953  -0.055  -0.135  0.00  0.00     0.217 C 
ATOM     12  S   UNL d   1       2.417   0.601   0.358  0.00  0.00    -0.033 SA
BRANCH  11  13
ATOM     13  N   UNL d   1       0.282  -1.127   0.477  0.00  0.00    -0.353 N 
BRANCH  13  14
ATOM     14  C   UNL d   1       0.547  -1.528   1.871  0.00  0.00     0.121 C 
ATOM     15  C   UNL d   1       0.951  -2.985   2.040  0.00  0.00     0.026 C 
ENDBRANCH  13  14
BRANCH  13  16
ATOM     16  C   UNL d   1      -0.876  -1.739  -0.185  0.00  0.00     0.121 C 
ATOM     17  C   UNL d   1      -2.189  -1.078   0.201  0.00  0.00     0.026 C 
ENDBRANCH  13  16
ENDBRANCH  11  13
ENDBRANCH  10  11
ENDBRANCH   1  10
TORSDOF 5
