REMARK  6 active torsions:
REMARK  status: ('A' for Active; 'I' for Inactive)
REMARK    1  A    between atoms: N_13  and  N_5 
REMARK    2  A    between atoms: C_15  and  N_6 
REMARK    3  A    between atoms: C_19  and  C_17 
REMARK    4  A    between atoms: O_18  and  C_20 
REMARK    5  A    between atoms: C_21  and  O_18 
REMARK    6  A    between atoms: C_26  and  C_21 
ROOT
ATOM      1  C   UNL d   1      -0.052  -0.842   0.567  0.00  0.00     0.160 A 
ATOM      2  C   UNL d   1      -0.018   0.229   1.416  0.00  0.00     0.099 A 
ATOM      3  N   UNL d   1       0.980  -1.261  -0.190  0.00  0.00    -0.267 N 
ATOM      4  HN  UNL d   1       0.881  -2.071  -0.802  1.00  0.00     0.190 HD
ATOM      5  N   UNL d   1       2.223   0.472   0.716  0.00  0.00    -0.142 N 
ATOM      6  N   UNL d   1      -1.334  -1.372   0.657  0.00  0.00    -0.238 N 
ATOM      7  N   UNL d   1       2.072  -0.633  -0.126  0.00  0.00    -0.216 N 
ATOM      8  HN  UNL d   1       2.859  -0.937  -0.700  1.00  0.00     0.210 HD
ATOM      9  C   UNL d   1       1.192   0.972   1.544  0.00  0.00     0.298 A 
ATOM     10  N   UNL d   1      -2.099  -0.627   1.522  0.00  0.00    -0.302 N 
ATOM     11  HN  UNL d   1      -3.080  -0.770   1.763  1.00  0.00     0.186 HD
ATOM     12  C   UNL d   1      -1.284   0.326   1.978  0.00  0.00     0.129 A 
ATOM     13  O   UNL d   1       1.274   1.933   2.304  0.00  0.00    -0.264 OA
ENDROOT
BRANCH   5  14
ATOM     14  N   UNL d   1       3.421   1.147   0.768  0.00  0.00    -0.286 N 
ATOM     15  C   UNL d   1       4.400   0.749   0.025  0.00  0.00     0.120 C 
ATOM     16  HN  UNL d   1       3.535   1.951   1.386  1.00  0.00     0.188 HD
BRANCH  15  17
ATOM     17  C   UNL d   1       5.696   1.458   0.041  0.00  0.00    -0.019 A 
ATOM     18  C   UNL d   1       5.902   2.583   0.845  0.00  0.00     0.015 A 
ATOM     19  C   UNL d   1       7.126   3.257   0.794  0.00  0.00     0.037 A 
ATOM     20  C   UNL d   1       8.136   2.818  -0.065  0.00  0.00     0.069 A 
ATOM     21  C   UNL d   1       7.941   1.661  -0.824  0.00  0.00     0.037 A 
ATOM     22  C   UNL d   1       6.719   0.987  -0.783  0.00  0.00     0.015 A 
BRANCH  20  23
ATOM     23  O   UNL d   1       9.267   3.590  -0.098  0.00  0.00    -0.347 OA
BRANCH  23  24
ATOM     24  C   UNL d   1      10.051   3.457  -1.285  0.00  0.00     0.214 C 
BRANCH  24  25
ATOM     25  C   UNL d   1      10.925   4.672  -1.450  0.00  0.00    -0.034 A 
ATOM     26  C   UNL d   1      12.263   4.655  -1.039  0.00  0.00     0.009 A 
ATOM     27  C   UNL d   1      13.068   5.782  -1.217  0.00  0.00     0.001 A 
ATOM     28  C   UNL d   1      12.540   6.933  -1.801  0.00  0.00     0.000 A 
ATOM     29  C   UNL d   1      11.207   6.962  -2.205  0.00  0.00     0.001 A 
ATOM     30  C   UNL d   1      10.401   5.838  -2.026  0.00  0.00     0.009 A 
ENDBRANCH  24  25
ENDBRANCH  23  24
ENDBRANCH  20  23
ENDBRANCH  15  17
ENDBRANCH   5  14
BRANCH   6  31
ATOM     31  C   UNL d   1      -1.909  -2.513   0.019  0.00  0.00     0.058 A 
ATOM     32  C   UNL d   1      -1.170  -3.355  -0.820  0.00  0.00     0.031 A 
ATOM     33  C   UNL d   1      -1.776  -4.471  -1.408  0.00  0.00     0.002 A 
ATOM     34  C   UNL d   1      -3.119  -4.755  -1.167  0.00  0.00     0.000 A 
ATOM     35  C   UNL d   1      -3.864  -3.923  -0.337  0.00  0.00     0.002 A 
ATOM     36  C   UNL d   1      -3.265  -2.809   0.255  0.00  0.00     0.031 A 
ENDBRANCH   6  31
TORSDOF 6
