REMARK  5 active torsions:
REMARK  status: ('A' for Active; 'I' for Inactive)
REMARK    1  A    between atoms: N_2  and  C_1 
REMARK    2  A    between atoms: C_9  and  N_4 
REMARK    3  A    between atoms: N_8  and  C_6 
REMARK    4  A    between atoms: C_14  and  N_8 
REMARK    5  A    between atoms: O_15  and  C_11 
ROOT
ATOM      1  C   UNL d   1      -0.204  -3.812   0.659  0.00  0.00     0.085 A 
ATOM      2  C   UNL d   1      -0.386  -5.226   0.755  0.00  0.00     0.061 A 
ATOM      3  C   UNL d   1      -1.355  -2.961   0.441  0.00  0.00     0.004 A 
ATOM      4  C   UNL d   1      -1.645  -5.783   0.521  0.00  0.00     0.033 A 
ATOM      5  C   UNL d   1      -2.613  -3.580   0.213  0.00  0.00    -0.024 A 
ATOM      6  C   UNL d   1      -2.737  -4.972   0.237  0.00  0.00     0.014 A 
ATOM      7  C   UNL d   1      -1.373  -1.538   0.441  0.00  0.00     0.014 A 
ATOM      8  C   UNL d   1      -3.768  -2.815  -0.034  0.00  0.00     0.012 A 
ATOM      9  C   UNL d   1      -2.524  -0.785   0.183  0.00  0.00     0.001 A 
ATOM     10  C   UNL d   1      -3.724  -1.426  -0.056  0.00  0.00     0.001 A 
ENDROOT
BRANCH   1  11
ATOM     11  N   UNL d   1       1.170  -3.410   0.743  0.00  0.00    -0.297 N 
ATOM     12  N   UNL d   1       1.448  -2.211   0.573  0.00  0.00    -0.298 N 
ATOM     13  HN  UNL d   1       1.498  -1.552   1.350  1.00  0.00     0.187 HD
ATOM     14  HN  UNL d   1       1.902  -4.092   0.939  1.00  0.00     0.187 HD
BRANCH  12  15
ATOM     15  C   UNL d   1       1.693  -1.812  -0.769  0.00  0.00     0.081 A 
ATOM     16  C   UNL d   1       1.860  -0.435  -1.004  0.00  0.00     0.093 A 
ATOM     17  C   UNL d   1       1.965   0.088  -2.289  0.00  0.00     0.039 A 
ATOM     18  C   UNL d   1       1.920  -0.773  -3.381  0.00  0.00     0.003 A 
ATOM     19  C   UNL d   1       1.794  -2.148  -3.179  0.00  0.00     0.002 A 
ATOM     20  C   UNL d   1       1.689  -2.665  -1.882  0.00  0.00     0.034 A 
BRANCH  16  21
ATOM     21  O   UNL d   1       1.893   0.455   0.041  0.00  0.00    -0.358 OA
ATOM     22  H   UNL d   1       1.866  -0.078   0.857  0.00  0.00     0.217 HD
ENDBRANCH  16  21
ENDBRANCH  12  15
ENDBRANCH   1  11
BRANCH   2  23
ATOM     23  N   UNL d   1       0.716  -6.054   1.085  0.00  0.00    -0.354 N 
ATOM     24  H   UNL d   1       1.504  -5.545   1.477  0.00  0.00     0.166 HD
BRANCH  23  25
ATOM     25  C   UNL d   1       0.938  -7.428   0.904  0.00  0.00     0.032 A 
ATOM     26  C   UNL d   1       0.585  -8.083  -0.282  0.00  0.00     0.029 A 
ATOM     27  C   UNL d   1       0.825  -9.450  -0.444  0.00  0.00     0.002 A 
ATOM     28  C   UNL d   1       1.395 -10.186   0.591  0.00  0.00     0.000 A 
ATOM     29  C   UNL d   1       1.728  -9.555   1.788  0.00  0.00     0.002 A 
ATOM     30  C   UNL d   1       1.500  -8.185   1.941  0.00  0.00     0.029 A 
ENDBRANCH  23  25
ENDBRANCH   2  23
TORSDOF 5
