REMARK  5 active torsions:
REMARK  status: ('A' for Active; 'I' for Inactive)
REMARK    1  A    between atoms: C_10  and  C_1 
REMARK    2  A    between atoms: N_6  and  C_2 
REMARK    3  A    between atoms: C_7  and  C_3 
REMARK       I    between atoms: C_9  and  N_6 
REMARK       I    between atoms: N_11  and  C_9 
REMARK    4  A    between atoms: O_17  and  C_10 
REMARK    5  A    between atoms: N_12  and  N_11 
ROOT
ATOM      1  C   UNL d   1      -1.230  -0.399   0.770  0.00  0.00     0.122 A 
ATOM      2  C   UNL d   1      -0.880   0.843   0.269  0.00  0.00     0.193 A 
ATOM      3  C   UNL d   1      -0.135  -1.249   0.392  0.00  0.00     0.089 A 
ATOM      4  N   UNL d   1       0.820  -0.509  -0.199  0.00  0.00    -0.257 N 
ATOM      5  HN  UNL d   1       1.718  -0.845  -0.547  1.00  0.00     0.195 HD
ATOM      6  O   UNL d   1       0.365   0.769  -0.245  0.00  0.00    -0.218 OA
ENDROOT
BRANCH   2   7
ATOM      7  N   UNL d   1      -1.552   2.042   0.199  0.00  0.00    -0.285 N 
ATOM      8  C   UNL d   1      -1.130   3.214  -0.371  0.00  0.00     0.336 C 
ATOM      9  N   UNL d   1       0.164   3.248  -0.861  0.00  0.00    -0.271 N 
ATOM     10  O   UNL d   1      -1.916   4.160  -0.414  0.00  0.00    -0.246 OA
ATOM     11  H   UNL d   1       0.748   2.428  -0.743  0.00  0.00     0.185 HD
ATOM     12  H   UNL d   1      -2.512   2.068   0.528  0.00  0.00     0.172 HD
BRANCH   9  13
ATOM     13  N   UNL d   1       0.812   4.393  -1.350  0.00  0.00    -0.227 NA
ATOM     14  C   UNL d   1       0.281   4.869  -2.630  0.00  0.00     0.113 C 
ATOM     15  C   UNL d   1       1.206   5.945  -3.209  0.00  0.00     0.016 C 
ATOM     16  C   UNL d   1       1.439   7.082  -2.218  0.00  0.00     0.002 C 
ATOM     17  C   UNL d   1       1.880   6.541  -0.862  0.00  0.00     0.016 C 
ATOM     18  C   UNL d   1       0.921   5.465  -0.356  0.00  0.00     0.113 C 
ENDBRANCH   9  13
ENDBRANCH   2   7
BRANCH   1  19
ATOM     19  C   UNL d   1      -2.469  -0.718   1.444  0.00  0.00     0.299 C 
ATOM     20  O   UNL d   1      -2.592  -1.655   2.219  0.00  0.00    -0.259 OA
BRANCH  19  21
ATOM     21  O   UNL d   1      -3.483   0.114   1.063  0.00  0.00    -0.322 OA
ATOM     22  C   UNL d   1      -4.784  -0.270   1.514  0.00  0.00     0.213 C 
ENDBRANCH  19  21
ENDBRANCH   1  19
BRANCH   3  23
ATOM     23  C   UNL d   1       0.058  -2.709   0.381  0.00  0.00     0.037 A 
ATOM     24  C   UNL d   1      -0.901  -3.580  -0.178  0.00  0.00     0.048 A 
ATOM     25 CL   UNL d   1      -2.497  -3.094  -0.647  0.00  0.00    -0.083 Cl
ATOM     26  C   UNL d   1      -0.574  -4.909  -0.493  0.00  0.00     0.025 A 
ATOM     27  C   UNL d   1       0.716  -5.388  -0.299  0.00  0.00     0.003 A 
ATOM     28  C   UNL d   1       1.664  -4.567   0.297  0.00  0.00     0.025 A 
ATOM     29  C   UNL d   1       1.333  -3.256   0.670  0.00  0.00     0.048 A 
ATOM     30 CL   UNL d   1       2.582  -2.372   1.492  0.00  0.00    -0.083 Cl
ENDBRANCH   3  23
TORSDOF 5
