REMARK  4 active torsions:
REMARK  status: ('A' for Active; 'I' for Inactive)
REMARK    1  A    between atoms: C_13  and  C_6 
REMARK    2  A    between atoms: O_16  and  C_7 
REMARK    3  A    between atoms: C_23  and  O_16 
REMARK    4  A    between atoms: O_21  and  C_17 
ROOT
ATOM      1  C   UNL d   1      -0.825  -0.396  -0.013  0.00  0.00     0.052 A 
ATOM      2  C   UNL d   1      -1.237   0.947   0.011  0.00  0.00    -0.013 A 
ATOM      3  N   UNL d   1      -1.644  -1.447  -0.088  0.00  0.00    -0.335 N 
ATOM      4  HN  UNL d   1      -1.303  -2.408  -0.093  1.00  0.00     0.168 HD
ATOM      5  C   UNL d   1      -3.486   0.172  -0.143  0.00  0.00     0.107 A 
ATOM      6  C   UNL d   1      -2.600   1.279  -0.034  0.00  0.00     0.008 A 
ATOM      7  C   UNL d   1      -2.961  -1.140  -0.158  0.00  0.00     0.165 A 
ATOM      8  C   UNL d   1       0.616  -0.481   0.040  0.00  0.00    -0.002 A 
ATOM      9  C   UNL d   1       0.001   1.829   0.101  0.00  0.00     0.081 A 
ATOM     10  C   UNL d   1       1.133   0.827   0.098  0.00  0.00    -0.041 A 
ATOM     11  C   UNL d   1      -4.908   0.333  -0.279  0.00  0.00     0.104 C 
ATOM     12  N   UNL d   1      -6.056   0.479  -0.382  0.00  0.00    -0.191 NA
ATOM     13  C   UNL d   1       1.468  -1.571   0.013  0.00  0.00     0.014 A 
ATOM     14  C   UNL d   1       2.495   1.074   0.100  0.00  0.00     0.008 A 
ATOM     15  C   UNL d   1       2.847  -1.334   0.021  0.00  0.00     0.001 A 
ATOM     16  C   UNL d   1       3.356  -0.024   0.057  0.00  0.00     0.001 A 
ENDROOT
BRANCH   7  17
ATOM     17  O   UNL d   1      -3.858  -2.196  -0.189  0.00  0.00    -0.335 OA
BRANCH  17  18
ATOM     18  C   UNL d   1      -3.272  -3.416  -0.657  0.00  0.00     0.173 C 
ATOM     19  C   UNL d   1      -4.312  -4.519  -0.575  0.00  0.00     0.034 C 
ENDBRANCH  17  18
ENDBRANCH   7  17
BRANCH   6  20
ATOM     20  C   UNL d   1      -3.040   2.699   0.073  0.00  0.00    -0.024 A 
ATOM     21  C   UNL d   1      -2.370   3.732  -0.605  0.00  0.00     0.015 A 
ATOM     22  C   UNL d   1      -2.666   5.081  -0.376  0.00  0.00     0.037 A 
ATOM     23  C   UNL d   1      -3.702   5.445   0.476  0.00  0.00     0.068 A 
ATOM     24  C   UNL d   1      -4.444   4.442   1.090  0.00  0.00     0.037 A 
ATOM     25  C   UNL d   1      -4.097   3.092   0.913  0.00  0.00     0.015 A 
BRANCH  23  26
ATOM     26  O   UNL d   1      -3.876   6.791   0.626  0.00  0.00    -0.356 OA
ATOM     27  C   UNL d   1      -4.949   7.211   1.458  0.00  0.00     0.210 C 
ENDBRANCH  23  26
ENDBRANCH   6  20
TORSDOF 4
