REMARK  4 active torsions:
REMARK  status: ('A' for Active; 'I' for Inactive)
REMARK    1  A    between atoms: C_4  and  C_1 
REMARK    2  A    between atoms: O_7  and  N_2 
REMARK    3  A    between atoms: C_12  and  C_10 
REMARK    4  A    between atoms: C_13  and  C_12 
ROOT
ATOM      1  C   UNL d   1       0.136  -0.500   1.043  0.00  0.00    -0.012 A 
ATOM      2  C   UNL d   1       0.608  -0.216   2.332  0.00  0.00     0.014 A 
ATOM      3  C   UNL d   1      -1.064  -1.206   0.906  0.00  0.00     0.014 A 
ATOM      4  C   UNL d   1      -1.783  -1.611   2.035  0.00  0.00     0.008 A 
ATOM      5  C   UNL d   1      -0.108  -0.628   3.461  0.00  0.00     0.008 A 
ATOM      6  C   UNL d   1      -1.310  -1.334   3.323  0.00  0.00    -0.058 A 
ENDROOT
BRANCH   1   7
ATOM      7  C   UNL d   1       0.923  -0.038  -0.153  0.00  0.00     0.038 C 
ATOM      8  N   UNL d   1       2.031   0.621   0.045  0.00  0.00    -0.273 N 
ATOM      9  HN  UNL d   1       2.401   0.845   0.970  1.00  0.00     0.193 HD
ATOM     10  C   UNL d   1       0.376  -0.374  -1.529  0.00  0.00     0.071 C 
BRANCH   8  11
ATOM     11  O   UNL d   1       2.656   0.985  -1.149  0.00  0.00    -0.290 OA
ATOM     12  H   UNL d   1       3.447   1.461  -0.836  0.00  0.00     0.244 HD
ENDBRANCH   8  11
ENDBRANCH   1   7
BRANCH   6  13
ATOM     13  C   UNL d   1      -2.088  -1.766   4.543  0.00  0.00     0.038 C 
BRANCH  13  14
ATOM     14  C   UNL d   1      -2.329  -3.277   4.640  0.00  0.00     0.000 C 
ATOM     15  C   UNL d   1      -1.044  -4.080   4.779  0.00  0.00     0.005 C 
ENDBRANCH  13  14
ENDBRANCH   6  13
TORSDOF 4
