REMARK  5 active torsions:
REMARK  status: ('A' for Active; 'I' for Inactive)
REMARK    1  A    between atoms: C_7  and  C_1 
REMARK    2  A    between atoms: N_12  and  C_7 
REMARK       I    between atoms: C_8  and  N_12 
REMARK    3  A    between atoms: C_9  and  C_8 
REMARK    4  A    between atoms: C_10  and  C_11 
REMARK    5  A    between atoms: O_15  and  C_10 
ROOT
ATOM      1  C   UNL d   1      -1.122   1.088  -0.015  0.00  0.00    -0.028 C 
ATOM      2  C   UNL d   1       0.143   1.728   0.119  0.00  0.00    -0.047 C 
ATOM      3  C   UNL d   1      -1.159  -0.344  -0.047  0.00  0.00    -0.047 C 
ATOM      4  C   UNL d   1       1.343   0.973   0.004  0.00  0.00    -0.049 C 
ATOM      5  C   UNL d   1       0.047  -1.104  -0.030  0.00  0.00    -0.049 C 
ATOM      6  C   UNL d   1       1.297  -0.443  -0.034  0.00  0.00    -0.049 C 
ATOM      7  C   UNL d   1       2.699   1.651  -0.054  0.00  0.00     0.049 C 
ATOM      8  C   UNL d   1       0.025  -2.620   0.002  0.00  0.00     0.049 C 
ATOM      9  C   UNL d   1       0.253   3.208   0.407  0.00  0.00     0.049 C 
ATOM     10  C   UNL d   1       2.600  -1.218  -0.045  0.00  0.00     0.049 C 
ATOM     11  C   UNL d   1      -2.470  -1.109  -0.060  0.00  0.00     0.049 C 
ENDROOT
BRANCH   1  12
ATOM     12  C   UNL d   1      -2.445   1.859  -0.002  0.00  0.00     0.162 C 
BRANCH  12  13
ATOM     13  N   UNL d   1      -2.452   3.186  -0.592  0.00  0.00    -0.353 N 
ATOM     14  C   UNL d   1      -3.032   4.249   0.062  0.00  0.00     0.241 C 
ATOM     15  O   UNL d   1      -3.463   4.213   1.207  0.00  0.00    -0.269 OA
ATOM     16  H   UNL d   1      -2.183   3.262  -1.562  0.00  0.00     0.163 HD
BRANCH  14  17
ATOM     17  C   UNL d   1      -3.092   5.485  -0.750  0.00  0.00     0.080 C 
ATOM     18  C   UNL d   1      -3.570   6.605  -0.184  0.00  0.00     0.086 C 
BRANCH  18  19
ATOM     19  C   UNL d   1      -3.656   7.837  -0.987  0.00  0.00     0.165 C 
ATOM     20  O   UNL d   1      -3.326   7.913  -2.156  0.00  0.00    -0.647 OA
BRANCH  19  21
ATOM     21  O   UNL d   1      -4.148   8.873  -0.284  0.00  0.00    -0.773 OA
ATOM     22  H   UNL d   1      -4.378   8.688   0.645  0.00  0.00     0.167 HD
ENDBRANCH  19  21
ENDBRANCH  18  19
ENDBRANCH  14  17
ENDBRANCH  12  13
ENDBRANCH   1  12
TORSDOF 5
