REMARK  3 active torsions:
REMARK  status: ('A' for Active; 'I' for Inactive)
REMARK    1  A    between atoms: C_7  and  N_1 
REMARK    2  A    between atoms: S_11  and  C_2 
REMARK    3  A    between atoms: S_13  and  C_12 
ROOT
ATOM      1  N   UNL d   1       2.410  -0.667   0.017  0.00  0.00    -0.258 N 
ATOM      2  C   UNL d   1       2.328   0.723  -0.015  0.00  0.00     0.154 A 
ATOM      3  C   UNL d   1       1.257  -1.455   0.029  0.00  0.00     0.266 A 
ATOM      4  N   UNL d   1       1.210   1.374  -0.041  0.00  0.00    -0.335 N 
ATOM      5  HN  UNL d   1       1.203   2.394  -0.067  1.00  0.00     0.168 HD
ATOM      6  C   UNL d   1      -0.024  -0.734   0.004  0.00  0.00     0.059 A 
ATOM      7  C   UNL d   1       0.009   0.655  -0.033  0.00  0.00     0.049 A 
ATOM      8  O   UNL d   1       1.236  -2.685   0.053  0.00  0.00    -0.267 OA
ATOM      9  C   UNL d   1      -1.240  -1.431   0.012  0.00  0.00     0.019 A 
ATOM     10  C   UNL d   1      -1.200   1.353  -0.062  0.00  0.00     0.030 A 
ATOM     11  C   UNL d   1      -2.438  -0.722  -0.021  0.00  0.00     0.001 A 
ATOM     12  C   UNL d   1      -2.417   0.670  -0.057  0.00  0.00     0.002 A 
ENDROOT
BRANCH   1  13
ATOM     13  C   UNL d   1       3.638  -1.381   0.002  0.00  0.00     0.046 A 
ATOM     14  C   UNL d   1       4.148  -1.846  -1.219  0.00  0.00     0.048 A 
ATOM     15  C   UNL d   1       5.230  -2.731  -1.240  0.00  0.00     0.002 A 
ATOM     16  C   UNL d   1       5.815  -3.115  -0.026  0.00  0.00     0.018 A 
ATOM     17  C   UNL d   1       5.319  -2.639   1.191  0.00  0.00     0.004 A 
ATOM     18  C   UNL d   1       4.224  -1.778   1.207  0.00  0.00     0.030 A 
BRANCH  15  19
ATOM     19  S   UNL d   1       5.911  -3.409  -2.747  0.00  0.00    -0.134 SA
ATOM     20  C   UNL d   1       4.426  -3.597  -3.773  0.00  0.00     0.095 C 
ENDBRANCH  15  19
ENDBRANCH   1  13
BRANCH   2  21
ATOM     21  S   UNL d   1       3.824   1.652  -0.008  0.00  0.00    -0.098 SA
ATOM     22  C   UNL d   1       3.190   3.343  -0.117  0.00  0.00     0.099 C 
ENDBRANCH   2  21
TORSDOF 3
