REMARK  4 active torsions:
REMARK  status: ('A' for Active; 'I' for Inactive)
REMARK    1  A    between atoms: C_5  and  C_1 
REMARK    2  A    between atoms: C_12  and  C_2 
REMARK    3  A    between atoms: C_14  and  C_6 
REMARK    4  A    between atoms: C_16  and  C_9 
ROOT
ATOM      1  C   UNL d   1       1.180   0.661  -0.036  0.00  0.00     0.059 A 
ATOM      2  C   UNL d   1      -0.129   1.102  -0.006  0.00  0.00     0.174 A 
ATOM      3  O   UNL d   1      -0.963   0.010   0.002  0.00  0.00    -0.304 OA
ATOM      4  C   UNL d   1       1.137  -0.758  -0.092  0.00  0.00     0.056 A 
ATOM      5  C   UNL d   1      -0.193  -1.119  -0.029  0.00  0.00     0.087 A 
ENDROOT
BRANCH   1   6
ATOM      6  C   UNL d   1       2.409   1.493   0.006  0.00  0.00     0.185 A 
ATOM      7  N   UNL d   1       3.624   0.997  -0.080  0.00  0.00    -0.318 N 
ATOM      8  C   UNL d   1       4.421   2.114   0.037  0.00  0.00     0.145 A 
ATOM      9  HN  UNL d   1       3.907   0.025  -0.203  1.00  0.00     0.169 HD
ATOM     10  N   UNL d   1       3.741   3.256   0.198  0.00  0.00    -0.241 N 
ATOM     11  O   UNL d   1       2.415   2.851   0.170  0.00  0.00    -0.217 OA
ATOM     12  HN  UNL d   1       4.110   4.200   0.313  1.00  0.00     0.196 HD
BRANCH   8  13
ATOM     13  C   UNL d   1       5.912   2.076  -0.010  0.00  0.00     0.050 A 
ATOM     14  S   UNL d   1       6.827   0.660  -0.274  0.00  0.00    -0.098 SA
ATOM     15  C   UNL d   1       8.302   1.527  -0.193  0.00  0.00     0.050 A 
ATOM     16  C   UNL d   1       8.100   2.869   0.046  0.00  0.00     0.009 A 
ATOM     17  C   UNL d   1       6.715   3.187   0.150  0.00  0.00     0.023 A 
ENDBRANCH   8  13
ENDBRANCH   1   6
BRANCH   2  18
ATOM     18  C   UNL d   1      -0.801   2.423   0.029  0.00  0.00     0.440 C 
ATOM     19  F   UNL d   1       0.057   3.466  -0.092  0.00  0.00    -0.164 F 
ATOM     20  F   UNL d   1      -1.702   2.557  -0.977  0.00  0.00    -0.164 F 
ATOM     21  F   UNL d   1      -1.476   2.614   1.192  0.00  0.00    -0.164 F 
ENDBRANCH   2  18
BRANCH   5  22
ATOM     22  C   UNL d   1      -0.904  -2.394   0.051  0.00  0.00    -0.002 A 
ATOM     23  C   UNL d   1      -0.196  -3.606   0.014  0.00  0.00     0.016 A 
ATOM     24  C   UNL d   1      -0.856  -4.831   0.167  0.00  0.00     0.024 A 
ATOM     25  C   UNL d   1      -2.235  -4.856   0.354  0.00  0.00     0.034 A 
ATOM     26  C   UNL d   1      -2.961  -3.669   0.370  0.00  0.00     0.024 A 
ATOM     27 CL   UNL d   1      -3.040  -6.358   0.581  0.00  0.00    -0.084 Cl
ATOM     28  C   UNL d   1      -2.298  -2.446   0.217  0.00  0.00     0.016 A 
ENDBRANCH   5  22
TORSDOF 4
