REMARK  5 active torsions:
REMARK  status: ('A' for Active; 'I' for Inactive)
REMARK    1  A    between atoms: C_8  and  N_1 
REMARK    2  A    between atoms: S_17  and  C_2 
REMARK    3  A    between atoms: O_22  and  C_3 
REMARK    4  A    between atoms: C_11  and  C_21 
REMARK    5  A    between atoms: C_21  and  S_17 
ROOT
ATOM      1  N   UNL d   1      -0.008  -1.241   0.163  0.00  0.00    -0.254 N 
ATOM      2  C   UNL d   1       1.191  -0.570  -0.025  0.00  0.00     0.169 A 
ATOM      3  C   UNL d   1      -0.884  -0.215   0.500  0.00  0.00     0.245 A 
ATOM      4  N   UNL d   1       1.034   0.723   0.156  0.00  0.00    -0.276 N 
ATOM      5  HN  UNL d   1       1.762   1.433   0.077  1.00  0.00     0.189 HD
ATOM      6  N   UNL d   1      -0.278   0.946   0.469  0.00  0.00    -0.263 N 
ATOM      7  HN  UNL d   1      -0.708   1.854   0.647  1.00  0.00     0.190 HD
ENDROOT
BRANCH   2   8
ATOM      8  S   UNL d   1       2.688  -1.261  -0.542  0.00  0.00    -0.085 SA
BRANCH   8   9
ATOM      9  C   UNL d   1       3.836  -0.294   0.526  0.00  0.00     0.147 C 
BRANCH   9  10
ATOM     10  C   UNL d   1       5.181  -0.953   0.530  0.00  0.00     0.061 C 
ATOM     11  N   UNL d   1       5.607  -1.762   1.479  0.00  0.00    -0.352 N 
ATOM     12  C   UNL d   1       6.720  -2.454   1.030  0.00  0.00     0.050 A 
ATOM     13  HN  UNL d   1       5.184  -1.864   2.401  1.00  0.00     0.166 HD
ATOM     14  C   UNL d   1       7.358  -3.517   1.700  0.00  0.00     0.031 A 
ATOM     15  C   UNL d   1       7.185  -2.081  -0.233  0.00  0.00     0.033 A 
ATOM     16  C   UNL d   1       8.376  -4.228   1.056  0.00  0.00     0.002 A 
ATOM     17  C   UNL d   1       8.799  -3.859  -0.218  0.00  0.00     0.002 A 
ATOM     18  C   UNL d   1       8.237  -2.757  -0.869  0.00  0.00     0.021 A 
ATOM     19  S   UNL d   1       6.249  -0.754  -0.803  0.00  0.00    -0.074 SA
ENDBRANCH   9  10
ENDBRANCH   8   9
ENDBRANCH   2   8
BRANCH   1  20
ATOM     20  C   UNL d   1      -0.312  -2.636   0.085  0.00  0.00     0.057 A 
ATOM     21  C   UNL d   1       0.454  -3.582   0.811  0.00  0.00    -0.034 A 
ATOM     22  C   UNL d   1       0.172  -4.953   0.665  0.00  0.00     0.015 A 
ATOM     23  C   UNL d   1       1.534  -3.257   1.812  0.00  0.00     0.050 C 
ATOM     24  C   UNL d   1      -0.902  -5.407  -0.105  0.00  0.00    -0.061 A 
ATOM     25  C   UNL d   1      -1.689  -4.467  -0.767  0.00  0.00     0.015 A 
ATOM     26  C   UNL d   1      -1.169  -6.877  -0.232  0.00  0.00     0.048 C 
ATOM     27  C   UNL d   1      -1.406  -3.086  -0.705  0.00  0.00    -0.034 A 
ATOM     28  C   UNL d   1      -2.321  -2.207  -1.524  0.00  0.00     0.050 C 
ENDBRANCH   1  20
BRANCH   3  29
ATOM     29  O   UNL d   1      -2.144  -0.347   0.899  0.00  0.00    -0.331 OA
ATOM     30  H   UNL d   1      -2.318  -1.286   1.060  0.00  0.00     0.221 HD
ENDBRANCH   3  29
TORSDOF 5
