REMARK  2 active torsions:
REMARK  status: ('A' for Active; 'I' for Inactive)
REMARK    1  A    between atoms: C_3  and  C_1 
REMARK       I    between atoms: N_8  and  C_3 
REMARK    2  A    between atoms: C_13  and  N_8 
ROOT
ATOM      1  C   UNL d   1      -1.429  -2.835   0.042  0.00  0.00     0.259 C 
ATOM      2  N   UNL d   1      -2.603  -3.547  -0.156  0.00  0.00    -0.323 N 
ATOM      3  O   UNL d   1      -0.318  -3.339   0.182  0.00  0.00    -0.267 OA
ATOM      4  H   UNL d   1      -3.425  -3.007  -0.389  0.00  0.00     0.169 HD
ENDROOT
BRANCH   2   5
ATOM      5  C   UNL d   1      -2.763  -4.942   0.003  0.00  0.00     0.035 A 
ATOM      6  C   UNL d   1      -1.802  -5.776   0.581  0.00  0.00     0.043 A 
ATOM      7  C   UNL d   1      -2.064  -7.136   0.848  0.00  0.00    -0.007 A 
ATOM      8  C   UNL d   1      -1.122  -7.950   1.483  0.00  0.00     0.015 A 
ATOM      9  C   UNL d   1      -3.304  -7.700   0.511  0.00  0.00     0.042 A 
ATOM     10  C   UNL d   1      -1.438  -9.270   1.788  0.00  0.00     0.025 A 
ATOM     11  C   UNL d   1      -2.694  -9.745   1.438  0.00  0.00     0.005 A 
ATOM     12  N   UNL d   1      -3.612  -8.983   0.793  0.00  0.00    -0.359 N 
ATOM     13  C   UNL d   1      -3.078 -11.158   1.768  0.00  0.00     0.068 C 
ATOM     14  HN  UNL d   1      -4.517  -9.371   0.527  1.00  0.00     0.166 HD
ATOM     15  C   UNL d   1      -4.234  -6.885  -0.123  0.00  0.00     0.033 A 
ATOM     16  C   UNL d   1      -3.984  -5.521  -0.370  0.00  0.00     0.032 A 
ENDBRANCH   2   5
BRANCH   1  17
ATOM     17  C   UNL d   1      -1.509  -1.341   0.098  0.00  0.00     0.066 A 
ATOM     18  C   UNL d   1      -2.676  -0.600   0.026  0.00  0.00     0.092 A 
ATOM     19  O   UNL d   1      -3.933  -1.103  -0.205  0.00  0.00    -0.339 OA
ATOM     20  C   UNL d   1      -2.663   0.786   0.164  0.00  0.00    -0.021 A 
ATOM     21  C   UNL d   1      -4.826   0.050  -0.240  0.00  0.00     0.064 A 
ATOM     22  C   UNL d   1      -5.834  -0.105   0.900  0.00  0.00     0.046 C 
ATOM     23  C   UNL d   1      -5.538   0.021  -1.594  0.00  0.00     0.046 C 
ATOM     24  C   UNL d   1      -4.010   1.348  -0.076  0.00  0.00     0.079 A 
ATOM     25  C   UNL d   1      -1.495   1.486   0.415  0.00  0.00     0.010 A 
ATOM     26  C   UNL d   1      -0.302   0.773   0.451  0.00  0.00     0.002 A 
ATOM     27  C   UNL d   1      -0.308  -0.623   0.276  0.00  0.00     0.020 A 
ENDBRANCH   1  17
TORSDOF 2
