REMARK  3 active torsions:
REMARK  status: ('A' for Active; 'I' for Inactive)
REMARK    1  A    between atoms: C_7  and  N_1 
REMARK    2  A    between atoms: C_13  and  C_2 
REMARK    3  A    between atoms: N_6  and  C_10 
ROOT
ATOM      1  N   UNL d   1      -0.192  -1.353  -0.217  0.00  0.00    -0.239 N 
ATOM      2  C   UNL d   1       0.980  -0.715   0.006  0.00  0.00     0.147 A 
ATOM      3  N   UNL d   1       0.844   0.557   0.209  0.00  0.00    -0.238 N 
ATOM      4  HN  UNL d   1       1.584   1.238   0.378  1.00  0.00     0.196 HD
ATOM      5  C   UNL d   1      -1.159  -0.412  -0.051  0.00  0.00     0.395 A 
ATOM      6  O   UNL d   1      -0.555   0.806   0.146  0.00  0.00    -0.179 OA
ATOM      7  O   UNL d   1      -2.371  -0.580  -0.033  0.00  0.00    -0.235 OA
ENDROOT
BRANCH   1   8
ATOM      8  C   UNL d   1      -0.474  -2.723  -0.113  0.00  0.00     0.048 A 
ATOM      9  C   UNL d   1      -0.541  -3.352   1.135  0.00  0.00     0.066 A 
ATOM     10  C   UNL d   1      -0.849  -4.719   1.191  0.00  0.00     0.105 A 
ATOM     11  C   UNL d   1      -1.059  -5.458   0.018  0.00  0.00     0.036 A 
ATOM     12  C   UNL d   1      -0.999  -4.817  -1.220  0.00  0.00     0.005 A 
ATOM     13  C   UNL d   1      -0.735  -3.449  -1.283  0.00  0.00     0.030 A 
BRANCH  10  14
ATOM     14  N   UNL d   1      -0.971  -5.387   2.494  0.00  0.00    -0.116 N 
ATOM     15  O   UNL d   1      -0.849  -4.690   3.511  0.00  0.00    -0.532 OA
ATOM     16  O   UNL d   1      -1.186  -6.606   2.499  0.00  0.00    -0.532 OA
ENDBRANCH  10  14
ENDBRANCH   1   8
BRANCH   2  17
ATOM     17  C   UNL d   1       2.311  -1.369  -0.009  0.00  0.00     0.010 A 
ATOM     18  C   UNL d   1       2.604  -2.470  -0.821  0.00  0.00     0.015 A 
ATOM     19  C   UNL d   1       3.888  -3.022  -0.828  0.00  0.00     0.001 A 
ATOM     20  C   UNL d   1       4.895  -2.460  -0.047  0.00  0.00     0.000 A 
ATOM     21  C   UNL d   1       4.622  -1.343   0.740  0.00  0.00     0.001 A 
ATOM     22  C   UNL d   1       3.336  -0.798   0.759  0.00  0.00     0.015 A 
ENDBRANCH   2  17
TORSDOF 3
