REMARK  2 active torsions:
REMARK  status: ('A' for Active; 'I' for Inactive)
REMARK    1  A    between atoms: O_11  and  N_3 
REMARK    2  A    between atoms: C_8  and  C_7 
ROOT
ATOM      1  C   UNL d   1       0.255   0.423  -0.006  0.00  0.00     0.073 A 
ATOM      2  C   UNL d   1      -0.294  -0.860  -0.002  0.00  0.00     0.138 A 
ATOM      3  C   UNL d   1      -0.579   1.542  -0.003  0.00  0.00     0.040 A 
ATOM      4  C   UNL d   1      -1.674  -1.041   0.005  0.00  0.00     0.045 A 
ATOM      5  C   UNL d   1      -1.966   1.361   0.005  0.00  0.00    -0.017 A 
ATOM      6 CL   UNL d   1       1.963   0.644  -0.014  0.00  0.00    -0.081 Cl
ATOM      7  F   UNL d   1       0.496  -1.944  -0.004  0.00  0.00    -0.204 F 
ATOM      8  C   UNL d   1      -2.515   0.073   0.008  0.00  0.00     0.016 A 
ENDROOT
BRANCH   5   9
ATOM      9  C   UNL d   1      -2.840   2.550   0.010  0.00  0.00     0.125 C 
ATOM     10  N   UNL d   1      -4.131   2.446   0.019  0.00  0.00    -0.280 N 
ATOM     11  HN  UNL d   1      -4.656   1.571   0.023  1.00  0.00     0.193 HD
BRANCH  10  12
ATOM     12  O   UNL d   1      -4.690   3.729   0.023  0.00  0.00    -0.290 OA
ATOM     13  H   UNL d   1      -5.647   3.540   0.031  0.00  0.00     0.244 HD
ENDBRANCH  10  12
ENDBRANCH   5   9
TORSDOF 2
