REMARK  5 active torsions:
REMARK  status: ('A' for Active; 'I' for Inactive)
REMARK    1  A    between atoms: C_4  and  C_1 
REMARK    2  A    between atoms: N_2  and  C_4 
REMARK    3  A    between atoms: C_8  and  C_4 
REMARK    4  A    between atoms: O_13  and  C_6 
REMARK    5  A    between atoms: C_12  and  C_7 
ROOT
ATOM      1  C   UNL d   1       1.293  -2.585  -0.100  0.00  0.00     0.151 C 
ENDROOT
BRANCH   1   2
ATOM      2  N   UNL d   1       0.775  -3.098  -1.405  0.00  0.00    -0.385 N 
ATOM      3  C   UNL d   1      -0.038  -4.095  -1.272  0.00  0.00     0.095 C 
ATOM      4  HN  UNL d   1       1.037  -2.701  -2.308  1.00  0.00     0.160 HD
BRANCH   3   5
ATOM      5  C   UNL d   1      -0.542  -4.873  -2.419  0.00  0.00    -0.021 A 
ATOM      6  C   UNL d   1      -0.098  -4.616  -3.717  0.00  0.00     0.013 A 
ATOM      7  C   UNL d   1      -0.530  -5.429  -4.767  0.00  0.00     0.001 A 
ATOM      8  C   UNL d   1      -1.402  -6.490  -4.519  0.00  0.00     0.000 A 
ATOM      9  C   UNL d   1      -1.850  -6.741  -3.222  0.00  0.00     0.001 A 
ATOM     10  C   UNL d   1      -1.419  -5.935  -2.168  0.00  0.00     0.013 A 
ENDBRANCH   3   5
ENDBRANCH   1   2
BRANCH   1  11
ATOM     11  C   UNL d   1       0.996  -1.086   0.022  0.00  0.00     0.013 A 
ATOM     12  C   UNL d   1       0.164  -0.570   1.080  0.00  0.00    -0.015 A 
ATOM     13  C   UNL d   1      -0.197   0.806   1.055  0.00  0.00    -0.025 A 
ATOM     14  C   UNL d   1      -0.350  -1.333   2.161  0.00  0.00     0.013 A 
ATOM     15  C   UNL d   1      -1.094   1.327   2.004  0.00  0.00     0.012 A 
ATOM     16  C   UNL d   1       0.333   1.655   0.076  0.00  0.00     0.015 A 
ATOM     17  C   UNL d   1      -1.622   0.528   3.013  0.00  0.00     0.001 A 
ATOM     18  C   UNL d   1      -1.230  -0.798   3.108  0.00  0.00     0.001 A 
ATOM     19  C   UNL d   1       1.177   1.164  -0.911  0.00  0.00     0.038 A 
ATOM     20  C   UNL d   1       1.467  -0.193  -0.956  0.00  0.00     0.075 A 
BRANCH  20  21
ATOM     21  O   UNL d   1       2.194  -0.610  -2.037  0.00  0.00    -0.360 OA
ATOM     22  H   UNL d   1       2.009  -1.564  -2.145  0.00  0.00     0.217 HD
ENDBRANCH  20  21
ENDBRANCH   1  11
BRANCH   1  23
ATOM     23  C   UNL d   1       2.760  -2.992   0.102  0.00  0.00    -0.031 A 
ATOM     24  C   UNL d   1       3.388  -3.905  -0.770  0.00  0.00     0.009 A 
ATOM     25  C   UNL d   1       4.671  -4.389  -0.511  0.00  0.00     0.001 A 
ATOM     26  C   UNL d   1       5.354  -3.968   0.623  0.00  0.00     0.000 A 
ATOM     27  C   UNL d   1       4.759  -3.054   1.491  0.00  0.00     0.001 A 
ATOM     28  C   UNL d   1       3.472  -2.571   1.236  0.00  0.00     0.009 A 
ENDBRANCH   1  23
TORSDOF 5
