REMARK  8 active torsions:
REMARK  status: ('A' for Active; 'I' for Inactive)
REMARK    1  A    between atoms: S_10  and  C_2 
REMARK    2  A    between atoms: N_3  and  C_11 
REMARK    3  A    between atoms: S_20  and  C_6 
REMARK    4  A    between atoms: C_16  and  S_10 
REMARK    5  A    between atoms: C_13  and  C_16 
REMARK    6  A    between atoms: C_15  and  C_13 
REMARK    7  A    between atoms: C_25  and  S_20 
REMARK    8  A    between atoms: C_23  and  C_25 
ROOT
ATOM      1  C   UNL d   1      -0.158  -0.835   0.453  0.00  0.00     0.103 A 
ATOM      2  C   UNL d   1       0.845  -0.941  -0.497  0.00  0.00     0.082 A 
ATOM      3  N   UNL d   1      -1.322  -0.122  -1.457  0.00  0.00    -0.319 N 
ATOM      4  HN  UNL d   1      -2.100   0.210  -2.027  1.00  0.00     0.175 HD
ATOM      5  C   UNL d   1      -1.373  -0.384  -0.154  0.00  0.00     0.099 A 
ATOM      6  S   UNL d   1       0.209  -0.421  -2.002  0.00  0.00    -0.005 SA
ATOM      7  C   UNL d   1       0.022  -1.149   1.833  0.00  0.00     0.104 C 
ATOM      8  N   UNL d   1       0.222  -1.442   2.939  0.00  0.00    -0.191 NA
ENDROOT
BRANCH   2   9
ATOM      9  S   UNL d   1       2.523  -1.431  -0.335  0.00  0.00    -0.112 SA
BRANCH   9  10
ATOM     10  C   UNL d   1       2.352  -3.192   0.072  0.00  0.00     0.164 C 
BRANCH  10  11
ATOM     11  C   UNL d   1       3.695  -3.892  -0.003  0.00  0.00     0.169 C 
ATOM     12  O   UNL d   1       4.074  -4.447  -1.035  0.00  0.00    -0.291 OA
BRANCH  11  13
ATOM     13  C   UNL d   1       4.565  -3.963   1.210  0.00  0.00     0.011 A 
ATOM     14  C   UNL d   1       5.441  -5.054   1.334  0.00  0.00     0.017 A 
ATOM     15  C   UNL d   1       6.304  -5.156   2.431  0.00  0.00     0.037 A 
ATOM     16  C   UNL d   1       6.303  -4.147   3.402  0.00  0.00     0.102 A 
ATOM     17  C   UNL d   1       5.432  -3.056   3.290  0.00  0.00     0.037 A 
ATOM     18  C   UNL d   1       4.559  -2.971   2.198  0.00  0.00     0.017 A 
BRANCH  16  19
ATOM     19  N   UNL d   1       7.229  -4.226   4.540  0.00  0.00    -0.116 N 
ATOM     20  O   UNL d   1       7.960  -5.223   4.620  0.00  0.00    -0.532 OA
ATOM     21  O   UNL d   1       7.226  -3.288   5.350  0.00  0.00    -0.532 OA
ENDBRANCH  16  19
ENDBRANCH  11  13
ENDBRANCH  10  11
ENDBRANCH   9  10
ENDBRANCH   2   9
BRANCH   5  22
ATOM     22  S   UNL d   1      -2.891  -0.146   0.715  0.00  0.00    -0.106 SA
BRANCH  22  23
ATOM     23  C   UNL d   1      -4.096  -0.351  -0.631  0.00  0.00     0.107 C 
BRANCH  23  24
ATOM     24  C   UNL d   1      -5.489  -0.188  -0.097  0.00  0.00    -0.026 C 
ATOM     25  C   UNL d   1      -6.430  -1.142  -0.122  0.00  0.00     0.007 C 
ENDBRANCH  23  24
ENDBRANCH  22  23
ENDBRANCH   5  22
TORSDOF 8
