REMARK  2 active torsions:
REMARK  status: ('A' for Active; 'I' for Inactive)
REMARK       I    between atoms: N_2  and  C_1 
REMARK    1  A    between atoms: C_3  and  C_1 
REMARK    2  A    between atoms: C_5  and  N_2 
ROOT
ATOM      1  C   UNL d   1       1.046   2.582  -0.244  0.00  0.00     0.034 A 
ATOM      2  C   UNL d   1       2.446   4.973  -0.680  0.00  0.00     0.011 A 
ATOM      3 BR   UNL d   1       3.373   6.590  -0.988  0.00  0.00    -0.051 Br
ATOM      4  C   UNL d   1       0.627   3.771   0.358  0.00  0.00     0.031 A 
ATOM      5  C   UNL d   1       2.192   2.600  -1.050  0.00  0.00     0.031 A 
ATOM      6  C   UNL d   1       1.323   4.965   0.142  0.00  0.00     0.021 A 
ATOM      7  C   UNL d   1       2.886   3.795  -1.276  0.00  0.00     0.021 A 
ENDROOT
BRANCH   1   8
ATOM      8  N   UNL d   1       0.389   1.346  -0.079  0.00  0.00    -0.325 N 
ATOM      9  C   UNL d   1      -0.847   1.121   0.520  0.00  0.00     0.255 C 
ATOM     10  O   UNL d   1      -1.590   1.994   0.970  0.00  0.00    -0.270 OA
ATOM     11  H   UNL d   1       0.834   0.538  -0.505  0.00  0.00     0.169 HD
BRANCH   9  12
ATOM     12  C   UNL d   1      -1.255  -0.349   0.604  0.00  0.00     0.270 C 
ATOM     13 CL   UNL d   1      -1.160  -1.099  -1.007  0.00  0.00    -0.098 Cl
ATOM     14 CL   UNL d   1      -0.179  -1.187   1.741  0.00  0.00    -0.098 Cl
ENDBRANCH   9  12
ENDBRANCH   1   8
TORSDOF 2
