REMARK  1 active torsions:
REMARK  status: ('A' for Active; 'I' for Inactive)
REMARK    1  A    between atoms: N_10  and  C_2 
ROOT
ATOM      1  C   UNL d   1       1.233   1.415   0.085  0.00  0.00     0.079 C 
ATOM      2  C   UNL d   1       2.467   0.860   0.141  0.00  0.00     0.070 C 
ATOM      3  S   UNL d   1       2.691  -0.864   0.084  0.00  0.00    -0.065 SA
ATOM      4  C   UNL d   1      -0.029   0.647   0.009  0.00  0.00    -0.027 C 
ATOM      5  C   UNL d   1       1.114  -1.593  -0.117  0.00  0.00     0.080 C 
ATOM      6  C   UNL d   1      -0.102  -0.705  -0.044  0.00  0.00    -0.022 C 
ATOM      7  C   UNL d   1       1.154   2.854   0.147  0.00  0.00     0.102 C 
ATOM      8  N   UNL d   1       1.103   4.013   0.174  0.00  0.00    -0.191 NA
ATOM      9  S   UNL d   1       1.093  -3.266  -0.384  0.00  0.00    -0.072 SA
ATOM     10  C   UNL d   1      -1.306   1.489   0.008  0.00  0.00     0.041 C 
ATOM     11  C   UNL d   1      -1.438  -1.440  -0.025  0.00  0.00     0.041 C 
ATOM     12  C   UNL d   1      -2.582   0.737  -0.363  0.00  0.00     0.005 C 
ATOM     13  C   UNL d   1      -2.637  -0.587   0.366  0.00  0.00     0.005 C 
ENDROOT
BRANCH   2  14
ATOM     14  N   UNL d   1       3.640   1.595   0.249  0.00  0.00    -0.296 NA
ATOM     15  H   UNL d   1       3.620   2.545  -0.113  0.00  0.00     0.124 HD
ATOM     16  H   UNL d   1       4.445   1.060  -0.072  0.00  0.00     0.124 HD
ENDBRANCH   2  14
TORSDOF 1
