REMARK  3 active torsions:
REMARK  status: ('A' for Active; 'I' for Inactive)
REMARK    1  A    between atoms: C_5  and  C_1 
REMARK    2  A    between atoms: C_8  and  C_4 
REMARK       I    between atoms: N_9  and  C_5 
REMARK    3  A    between atoms: C_17  and  N_9 
ROOT
ATOM      1  C   UNL d   1       1.249   0.753  -0.068  0.00  0.00     0.108 A 
ATOM      2  N   UNL d   1       1.425  -0.629   0.084  0.00  0.00    -0.345 N 
ATOM      3  HN  UNL d   1       2.302  -1.083   0.341  1.00  0.00     0.167 HD
ATOM      4  C   UNL d   1       0.284  -1.259  -0.156  0.00  0.00     0.085 A 
ATOM      5  S   UNL d   1      -1.051  -0.222  -0.527  0.00  0.00    -0.081 SA
ATOM      6  C   UNL d   1      -0.033   1.133  -0.422  0.00  0.00     0.087 A 
ENDROOT
BRANCH   1   7
ATOM      7  C   UNL d   1       2.315   1.747   0.118  0.00  0.00     0.273 C 
ATOM      8  N   UNL d   1       3.567   1.202   0.320  0.00  0.00    -0.322 N 
ATOM      9  H   UNL d   1       3.620   0.192   0.233  0.00  0.00     0.169 HD
ATOM     10  O   UNL d   1       2.055   2.946   0.049  0.00  0.00    -0.266 OA
BRANCH   8  11
ATOM     11  C   UNL d   1       4.769   1.929   0.486  0.00  0.00     0.035 A 
ATOM     12  C   UNL d   1       4.803   3.301   0.760  0.00  0.00     0.029 A 
ATOM     13  C   UNL d   1       6.018   3.984   0.863  0.00  0.00     0.002 A 
ATOM     14  C   UNL d   1       7.217   3.300   0.696  0.00  0.00     0.000 A 
ATOM     15  C   UNL d   1       7.199   1.928   0.451  0.00  0.00     0.002 A 
ATOM     16  C   UNL d   1       5.981   1.243   0.359  0.00  0.00     0.029 A 
ENDBRANCH   8  11
ENDBRANCH   1   7
BRANCH   4  17
ATOM     17  C   UNL d   1       0.070  -2.721  -0.097  0.00  0.00    -0.002 A 
ATOM     18  C   UNL d   1      -0.912  -3.353  -0.888  0.00  0.00     0.024 A 
ATOM     19  C   UNL d   1      -1.099  -4.721  -0.777  0.00  0.00    -0.022 A 
ATOM     20  C   UNL d   1      -2.016  -5.606  -1.526  0.00  0.00     0.068 C 
ATOM     21  C   UNL d   1      -0.322  -5.476   0.080  0.00  0.00     0.075 A 
ATOM     22  C   UNL d   1      -1.864  -6.875  -0.687  0.00  0.00     0.180 C 
ATOM     23  O   UNL d   1      -0.620  -6.812   0.054  0.00  0.00    -0.350 OA
ATOM     24  C   UNL d   1       0.667  -4.904   0.854  0.00  0.00     0.038 A 
ATOM     25  C   UNL d   1       0.859  -3.517   0.763  0.00  0.00     0.017 A 
ENDBRANCH   4  17
TORSDOF 3
