REMARK  2 active torsions:
REMARK  status: ('A' for Active; 'I' for Inactive)
REMARK    1  A    between atoms: N_10  and  C_1 
REMARK    2  A    between atoms: C_2  and  C_9 
REMARK       I    between atoms: C_9  and  N_10 
ROOT
ATOM      1  C   UNL d   1      -1.795   3.107  -0.667  0.00  0.00     0.258 C 
ATOM      2  N   UNL d   1      -0.826   2.389  -0.009  0.00  0.00    -0.319 N 
ATOM      3  O   UNL d   1      -2.525   2.698  -1.561  0.00  0.00    -0.267 OA
ATOM      4  H   UNL d   1      -0.197   2.911   0.593  0.00  0.00     0.169 HD
ENDROOT
BRANCH   1   5
ATOM      5  C   UNL d   1      -1.855   4.549  -0.316  0.00  0.00     0.061 A 
ATOM      6  C   UNL d   1      -1.292   5.096   0.870  0.00  0.00     0.082 A 
ATOM      7  N   UNL d   1      -0.629   4.440   1.843  0.00  0.00    -0.310 N 
ATOM      8  C   UNL d   1      -1.380   6.581   1.140  0.00  0.00     0.068 A 
ATOM      9  S   UNL d   1      -0.229   5.561   2.999  0.00  0.00     0.068 SA
ATOM     10  HN  UNL d   1      -0.414   3.443   1.864  1.00  0.00     0.176 HD
ATOM     11  N   UNL d   1      -0.816   6.944   2.301  0.00  0.00    -0.310 N 
ATOM     12  HN  UNL d   1      -0.758   7.889   2.680  1.00  0.00     0.176 HD
ATOM     13  C   UNL d   1      -2.003   7.457   0.221  0.00  0.00     0.032 A 
ATOM     14  C   UNL d   1      -2.530   6.867  -0.939  0.00  0.00     0.003 A 
ATOM     15  C   UNL d   1      -2.465   5.476  -1.194  0.00  0.00     0.019 A 
ENDBRANCH   1   5
BRANCH   2  16
ATOM     16  C   UNL d   1      -0.472   1.070  -0.214  0.00  0.00     0.083 A 
ATOM     17  C   UNL d   1       0.836   0.650  -0.028  0.00  0.00     0.053 A 
ATOM     18  N   UNL d   1       0.818  -0.701  -0.231  0.00  0.00    -0.299 N 
ATOM     19  C   UNL d   1       2.078   1.417   0.246  0.00  0.00     0.072 C 
ATOM     20  C   UNL d   1       1.908  -1.639  -0.076  0.00  0.00     0.177 C 
ATOM     21  N   UNL d   1      -0.387  -1.177  -0.583  0.00  0.00    -0.301 N 
ATOM     22  C   UNL d   1      -1.186  -0.099  -0.592  0.00  0.00     0.051 A 
ATOM     23  HN  UNL d   1      -0.638  -2.142  -0.797  1.00  0.00     0.187 HD
ATOM     24  C   UNL d   1      -2.634  -0.315  -0.845  0.00  0.00     0.072 C 
ENDBRANCH   2  16
TORSDOF 2
