REMARK  2 active torsions:
REMARK  status: ('A' for Active; 'I' for Inactive)
REMARK    1  A    between atoms: N_17  and  N_8 
REMARK       I    between atoms: C_11  and  N_17 
REMARK       I    between atoms: N_21  and  C_11 
REMARK    2  A    between atoms: O_26  and  C_23 
ROOT
ATOM      1  C   UNL d   1      -4.979  -0.574   1.760  0.00  0.00    -0.017 C 
ATOM      2  C   UNL d   1      -7.073   0.027  -2.097  0.00  0.00     0.000 C 
ATOM      3  C   UNL d   1      -3.464  -0.699   1.613  0.00  0.00    -0.072 C 
ATOM      4  C   UNL d   1      -5.688  -0.410   0.366  0.00  0.00     0.003 C 
ATOM      5  C   UNL d   1      -5.555  -0.365  -2.152  0.00  0.00     0.004 C 
ATOM      6  C   UNL d   1      -5.056  -1.101  -0.862  0.00  0.00    -0.001 C 
ATOM      7  C   UNL d   1      -6.937   1.544  -1.923  0.00  0.00     0.012 C 
ATOM      8  N   UNL d   1      -7.612   2.180  -1.017  0.00  0.00    -0.304 N 
ATOM      9  HN  UNL d   1      -8.367   1.722  -0.508  1.00  0.00     0.186 HD
ATOM     10  C   UNL d   1      -2.856  -1.007   0.458  0.00  0.00    -0.023 C 
ATOM     11  C   UNL d   1      -7.883  -0.645  -0.981  0.00  0.00     0.016 C 
ATOM     12  C   UNL d   1      -3.527  -1.252  -0.847  0.00  0.00     0.033 C 
ATOM     13  C   UNL d   1      -7.187  -0.775   0.378  0.00  0.00     0.007 C 
ATOM     14  C   UNL d   1      -5.324   0.720   2.576  0.00  0.00     0.016 C 
ATOM     15  C   UNL d   1      -4.784   0.974  -2.410  0.00  0.00     0.012 C 
ATOM     16  C   UNL d   1      -2.624  -0.450   2.854  0.00  0.00     0.066 C 
ATOM     17  C   UNL d   1      -5.801   2.048  -2.763  0.00  0.00     0.055 C 
ATOM     18  C   UNL d   1      -4.466   0.965   3.817  0.00  0.00     0.033 C 
ATOM     19  C   UNL d   1      -2.975   0.888   3.504  0.00  0.00     0.122 C 
ATOM     20  C   UNL d   1      -5.484  -1.811   2.534  0.00  0.00     0.020 C 
ATOM     21  C   UNL d   1      -7.752  -0.262  -3.448  0.00  0.00     0.022 C 
ENDROOT
BRANCH   8  22
ATOM     22  N   UNL d   1      -7.285   3.482  -0.764  0.00  0.00    -0.252 N 
ATOM     23  C   UNL d   1      -7.610   4.082   0.428  0.00  0.00     0.332 C 
ATOM     24  O   UNL d   1      -7.229   5.203   0.737  0.00  0.00    -0.246 OA
ATOM     25  N   UNL d   1      -8.362   3.313   1.254  0.00  0.00    -0.351 N 
ATOM     26  H   UNL d   1      -8.819   2.525   0.817  0.00  0.00     0.160 HD
ATOM     27  H   UNL d   1      -8.750   3.741   2.080  0.00  0.00     0.160 HD
ATOM     28  H   UNL d   1      -6.633   3.999  -1.341  0.00  0.00     0.191 HD
ENDBRANCH   8  22
BRANCH  19  29
ATOM     29  O   UNL d   1      -2.587   1.971   2.654  0.00  0.00    -0.395 OA
ATOM     30  H   UNL d   1      -2.947   1.799   1.772  0.00  0.00     0.210 HD
ENDBRANCH  19  29
TORSDOF 2
