REMARK  4 active torsions:
REMARK  status: ('A' for Active; 'I' for Inactive)
REMARK    1  A    between atoms: C_2  and  C_1 
REMARK    2  A    between atoms: C_7  and  C_3 
REMARK    3  A    between atoms: C_11  and  C_5 
REMARK    4  A    between atoms: O_15  and  C_7 
ROOT
ATOM      1  C   UNL d   1       1.414   0.750  -0.017  0.00  0.00     0.021 A 
ATOM      2  C   UNL d   1       0.145   1.314   0.028  0.00  0.00     0.093 A 
ATOM      3  S   UNL d   1      -1.069   0.084  -0.012  0.00  0.00    -0.095 SA
ATOM      4  C   UNL d   1       1.364  -0.679  -0.120  0.00  0.00     0.023 A 
ATOM      5  C   UNL d   1       0.079  -1.166  -0.105  0.00  0.00     0.051 A 
ENDROOT
BRANCH   1   6
ATOM      6  C   UNL d   1       2.700   1.515   0.087  0.00  0.00     0.088 A 
ATOM      7  O   UNL d   1       2.796   2.855   0.318  0.00  0.00    -0.306 OA
ATOM      8  C   UNL d   1       4.118   3.183   0.411  0.00  0.00     0.121 A 
ATOM      9  C   UNL d   1       4.882   2.048   0.239  0.00  0.00     0.044 A 
ATOM     10  C   UNL d   1       3.975   0.981   0.024  0.00  0.00     0.041 A 
BRANCH   8  11
ATOM     11  C   UNL d   1       4.509   4.551   0.675  0.00  0.00     0.179 C 
ATOM     12  O   UNL d   1       5.686   4.880   0.842  0.00  0.00    -0.291 OA
ATOM     13  C   UNL d   1       3.426   5.598   0.765  0.00  0.00     0.099 C 
ENDBRANCH   8  11
ENDBRANCH   1   6
BRANCH   2  14
ATOM     14  C   UNL d   1      -0.271   2.710   0.058  0.00  0.00     0.300 C 
ATOM     15  O   UNL d   1       0.313   3.653  -0.459  0.00  0.00    -0.259 OA
BRANCH  14  16
ATOM     16  O   UNL d   1      -1.445   2.840   0.750  0.00  0.00    -0.322 OA
ATOM     17  C   UNL d   1      -1.971   4.165   0.805  0.00  0.00     0.213 C 
ENDBRANCH  14  16
ENDBRANCH   2  14
TORSDOF 4
