REMARK  6 active torsions:
REMARK  status: ('A' for Active; 'I' for Inactive)
REMARK    1  A    between atoms: N_9  and  S_1 
REMARK    2  A    between atoms: C_13  and  S_1 
REMARK    3  A    between atoms: C_6  and  C_2 
REMARK    4  A    between atoms: C_3  and  N_17 
REMARK       I    between atoms: C_14  and  N_9 
REMARK    5  A    between atoms: C_16  and  C_12 
REMARK       I    between atoms: N_17  and  C_14 
REMARK    6  A    between atoms: O_33  and  C_15 
ROOT
ATOM      1  C   UNL d   1       3.375   0.923  -1.085  0.00  0.00     0.109 A 
ATOM      2  C   UNL d   1       2.212  -0.671  -2.185  0.00  0.00     0.690 A 
ATOM      3  N   UNL d   1       2.695  -0.238  -1.020  0.00  0.00    -0.179 N 
ATOM      4  HN  UNL d   1       2.560  -0.746  -0.146  1.00  0.00     0.185 HD
ATOM      5  N   UNL d   1       3.539   1.632  -2.207  0.00  0.00    -0.310 N 
ATOM      6  HN  UNL d   1       4.061   2.508  -2.229  1.00  0.00     0.170 HD
ATOM      7  N   UNL d   1       2.342  -0.044  -3.344  0.00  0.00    -0.154 N 
ATOM      8  HN  UNL d   1       1.981  -0.428  -4.216  1.00  0.00     0.188 HD
ATOM      9  C   UNL d   1       2.975   1.115  -3.290  0.00  0.00     0.238 A 
ENDROOT
BRANCH   2  10
ATOM     10  N   UNL d   1       1.526  -1.862  -2.306  0.00  0.00    -0.140 N 
ATOM     11  C   UNL d   1       0.993  -2.729  -1.411  0.00  0.00     0.348 C 
ATOM     12  N   UNL d   1       1.027  -2.461  -0.052  0.00  0.00    -0.231 N 
ATOM     13  O   UNL d   1       0.474  -3.751  -1.847  0.00  0.00    -0.245 OA
ATOM     14  H   UNL d   1       1.461  -1.607   0.286  0.00  0.00     0.183 HD
ATOM     15  H   UNL d   1       1.320  -2.099  -3.265  0.00  0.00     0.189 HD
BRANCH  12  16
ATOM     16  S   UNL d   1      -0.126  -3.093   0.997  0.00  0.00     0.267 S 
ATOM     17  O   UNL d   1      -1.403  -3.029   0.322  0.00  0.00    -0.200 OA
ATOM     18  O   UNL d   1       0.107  -2.423   2.258  0.00  0.00    -0.200 OA
BRANCH  16  19
ATOM     19  C   UNL d   1       0.260  -4.812   1.297  0.00  0.00     0.095 A 
ATOM     20  C   UNL d   1      -0.598  -5.620   2.076  0.00  0.00     0.071 A 
ATOM     21  C   UNL d   1      -0.179  -6.935   2.390  0.00  0.00     0.018 A 
ATOM     22  C   UNL d   1       1.041  -7.435   1.942  0.00  0.00     0.001 A 
ATOM     23  C   UNL d   1       1.856  -6.644   1.143  0.00  0.00     0.002 A 
ATOM     24  C   UNL d   1       1.472  -5.339   0.821  0.00  0.00     0.026 A 
BRANCH  20  25
ATOM     25  C   UNL d   1      -1.954  -5.223   2.618  0.00  0.00     0.419 C 
ATOM     26  F   UNL d   1      -2.319  -3.928   2.486  0.00  0.00    -0.166 F 
ATOM     27  F   UNL d   1      -2.954  -5.959   2.051  0.00  0.00    -0.166 F 
ATOM     28  F   UNL d   1      -2.045  -5.481   3.958  0.00  0.00    -0.166 F 
ENDBRANCH  20  25
ENDBRANCH  16  19
ENDBRANCH  12  16
ENDBRANCH   2  10
BRANCH   1  29
ATOM     29  C   UNL d   1       4.001   1.502   0.186  0.00  0.00     0.020 C 
ATOM     30  C   UNL d   1       5.532   1.241   0.234  0.00  0.00     0.022 C 
ATOM     31  C   UNL d   1       6.148   1.849   1.513  0.00  0.00    -0.013 C 
ATOM     32  C   UNL d   1       5.900   3.366   1.532  0.00  0.00     0.009 C 
ATOM     33  C   UNL d   1       5.486   1.224   2.753  0.00  0.00     0.009 C 
ATOM     34  C   UNL d   1       4.389   3.651   1.508  0.00  0.00    -0.013 C 
ATOM     35  C   UNL d   1       3.780   3.043   0.235  0.00  0.00     0.022 C 
ATOM     36  C   UNL d   1       3.726   3.010   2.734  0.00  0.00     0.009 C 
ATOM     37  C   UNL d   1       3.973   1.494   2.732  0.00  0.00    -0.013 C 
ATOM     38  C   UNL d   1       3.370   0.879   1.459  0.00  0.00     0.022 C 
ENDBRANCH   1  29
BRANCH   9  39
ATOM     39  O   UNL d   1       3.012   1.798  -4.487  0.00  0.00    -0.327 OA
ATOM     40  C   UNL d   1       3.382   3.164  -4.352  0.00  0.00     0.213 C 
ENDBRANCH   9  39
TORSDOF 6
