REMARK  7 active torsions:
REMARK  status: ('A' for Active; 'I' for Inactive)
REMARK    1  A    between atoms: N_2  and  S_1 
REMARK    2  A    between atoms: C_10  and  S_1 
REMARK    3  A    between atoms: C_7  and  C_3 
REMARK    4  A    between atoms: C_14  and  C_7 
REMARK    5  A    between atoms: C_11  and  C_15 
REMARK    6  A    between atoms: O_16  and  C_11 
REMARK    7  A    between atoms: C_15  and  C_14 
ROOT
ATOM      1  N   UNL d   1       0.331  -0.725  -1.486  0.00  0.00    -0.257 N 
ATOM      2  C   UNL d   1      -0.234  -2.241  -3.019  0.00  0.00     0.028 A 
ATOM      3  C   UNL d   1       0.478  -2.042  -1.845  0.00  0.00     0.123 A 
ATOM      4  C   UNL d   1      -0.522  -0.084  -2.344  0.00  0.00     0.110 A 
ATOM      5  C   UNL d   1      -0.857  -0.989  -3.328  0.00  0.00     0.035 A 
ENDROOT
BRANCH   1   6
ATOM      6  S   UNL d   1       1.000  -0.016  -0.091  0.00  0.00     0.268 S 
ATOM      7  O   UNL d   1       1.231   1.374  -0.435  0.00  0.00    -0.200 OA
ATOM      8  O   UNL d   1       2.071  -0.899   0.329  0.00  0.00    -0.200 OA
BRANCH   6   9
ATOM      9  C   UNL d   1      -0.302  -0.099   1.107  0.00  0.00     0.080 A 
ATOM     10  C   UNL d   1      -0.437  -1.242   1.903  0.00  0.00     0.025 A 
ATOM     11  C   UNL d   1      -1.418  -1.273   2.897  0.00  0.00     0.002 A 
ATOM     12  C   UNL d   1      -2.249  -0.169   3.095  0.00  0.00     0.000 A 
ATOM     13  C   UNL d   1      -2.107   0.970   2.301  0.00  0.00     0.002 A 
ATOM     14  C   UNL d   1      -1.130   1.011   1.306  0.00  0.00     0.025 A 
ENDBRANCH   6   9
ENDBRANCH   1   6
BRANCH   2  15
ATOM     15  C   UNL d   1      -0.326  -3.470  -3.814  0.00  0.00     0.161 C 
ATOM     16  O   UNL d   1      -0.707  -3.425  -4.985  0.00  0.00    -0.292 OA
BRANCH  15  17
ATOM     17  C   UNL d   1      -0.043  -4.808  -3.148  0.00  0.00     0.093 C 
BRANCH  17  18
ATOM     18  C   UNL d   1       0.474  -5.836  -4.148  0.00  0.00     0.118 C 
BRANCH  18  19
ATOM     19  C   UNL d   1       1.827  -5.427  -4.674  0.00  0.00     0.258 C 
ATOM     20  O   UNL d   1       2.610  -4.703  -4.073  0.00  0.00    -0.265 OA
BRANCH  19  21
ATOM     21  O   UNL d   1       2.059  -6.008  -5.881  0.00  0.00    -0.326 OA
ATOM     22  C   UNL d   1       3.304  -5.635  -6.474  0.00  0.00     0.213 C 
ENDBRANCH  19  21
ENDBRANCH  18  19
ENDBRANCH  17  18
ENDBRANCH  15  17
ENDBRANCH   2  15
TORSDOF 7
