REMARK  7 active torsions:
REMARK  status: ('A' for Active; 'I' for Inactive)
REMARK       I    between atoms: N_4  and  C_1 
REMARK    1  A    between atoms: C_5  and  C_1 
REMARK    2  A    between atoms: C_2  and  C_5 
REMARK    3  A    between atoms: C_7  and  C_2 
REMARK    4  A    between atoms: C_3  and  C_7 
REMARK    5  A    between atoms: O_12  and  C_3 
REMARK    6  A    between atoms: C_9  and  N_4 
REMARK    7  A    between atoms: C_11  and  C_9 
ROOT
ATOM      1  C   UNL d   1       1.053   1.384   1.379  0.00  0.00     0.218 C 
ATOM      2  N   UNL d   1       2.374   1.001   1.280  0.00  0.00    -0.357 N 
ATOM      3  O   UNL d   1       0.627   2.113   2.269  0.00  0.00    -0.274 OA
ATOM      4  H   UNL d   1       2.679   0.475   0.471  0.00  0.00     0.162 HD
ENDROOT
BRANCH   1   5
ATOM      5  C   UNL d   1       0.201   0.933   0.195  0.00  0.00     0.112 C 
BRANCH   5   6
ATOM      6  C   UNL d   1      -1.355   1.003   0.332  0.00  0.00    -0.023 C 
ATOM      7  C   UNL d   1      -1.869  -0.022   1.384  0.00  0.00     0.010 C 
ATOM      8  C   UNL d   1      -1.813  -1.483   0.939  0.00  0.00     0.001 C 
ATOM      9  C   UNL d   1      -2.516  -1.690  -0.396  0.00  0.00     0.000 C 
ATOM     10  C   UNL d   1      -1.921  -0.792  -1.468  0.00  0.00     0.001 C 
ATOM     11  C   UNL d   1      -1.983   0.677  -1.060  0.00  0.00     0.010 C 
BRANCH   6  12
ATOM     12  C   UNL d   1      -1.879   2.403   0.767  0.00  0.00     0.119 C 
BRANCH  12  13
ATOM     13  C   UNL d   1      -1.486   3.529  -0.151  0.00  0.00     0.140 C 
ATOM     14  O   UNL d   1      -2.075   3.812  -1.189  0.00  0.00    -0.650 OA
BRANCH  13  15
ATOM     15  O   UNL d   1      -0.382   4.194   0.256  0.00  0.00    -0.776 OA
ATOM     16  H   UNL d   1      -0.032   3.861   1.111  0.00  0.00     0.167 HD
ENDBRANCH  13  15
ENDBRANCH  12  13
ENDBRANCH   6  12
ENDBRANCH   5   6
ENDBRANCH   1   5
BRANCH   2  17
ATOM     17  C   UNL d   1       3.403   1.462   2.193  0.00  0.00     0.161 C 
BRANCH  17  18
ATOM     18  C   UNL d   1       4.051   0.331   2.954  0.00  0.00    -0.040 A 
ATOM     19  C   UNL d   1       5.409   0.017   2.770  0.00  0.00     0.012 A 
ATOM     20  C   UNL d   1       6.018  -0.979   3.539  0.00  0.00     0.043 A 
ATOM     21  C   UNL d   1       5.272  -1.664   4.490  0.00  0.00     0.116 A 
ATOM     22  C   UNL d   1       3.926  -1.380   4.681  0.00  0.00     0.043 A 
ATOM     23  F   UNL d   1       5.863  -2.604   5.240  0.00  0.00    -0.206 F 
ATOM     24  C   UNL d   1       3.316  -0.384   3.914  0.00  0.00     0.012 A 
ENDBRANCH  17  18
ENDBRANCH   2  17
TORSDOF 7
