REMARK  3 active torsions:
REMARK  status: ('A' for Active; 'I' for Inactive)
REMARK    1  A    between atoms: C_12  and  C_1 
REMARK    2  A    between atoms: C_6  and  C_2 
REMARK    3  A    between atoms: N_7  and  C_3 
REMARK       I    between atoms: C_4  and  N_7 
REMARK       I    between atoms: N_9  and  C_4 
ROOT
ATOM      1  C   UNL d   1       1.292   0.931   0.481  0.00  0.00     0.024 A 
ATOM      2  C   UNL d   1       0.192   1.578  -0.090  0.00  0.00     0.102 A 
ATOM      3  C   UNL d   1       1.324  -0.463   0.086  0.00  0.00     0.068 A 
ATOM      4  S   UNL d   1      -0.784   0.492  -1.004  0.00  0.00    -0.094 SA
ATOM      5  C   UNL d   1       0.237  -0.824  -0.676  0.00  0.00     0.081 A 
ENDROOT
BRANCH   3   6
ATOM      6  N   UNL d   1       2.247  -1.387   0.472  0.00  0.00    -0.191 N 
ATOM      7  C   UNL d   1       3.468  -1.485  -0.160  0.00  0.00     0.674 C 
ATOM      8  N   UNL d   1       4.418  -2.245   0.523  0.00  0.00    -0.218 N 
ATOM      9  N   UNL d   1       3.766  -0.909  -1.287  0.00  0.00    -0.235 N 
ATOM     10  C   UNL d   1       5.813  -2.060   0.059  0.00  0.00     0.141 C 
ATOM     11  C   UNL d   1       4.164  -2.631   1.924  0.00  0.00     0.141 C 
ATOM     12  C   UNL d   1       6.901  -2.702   0.908  0.00  0.00     0.020 C 
ATOM     13  C   UNL d   1       6.619  -2.541   2.386  0.00  0.00     0.003 C 
ATOM     14  C   UNL d   1       5.323  -3.271   2.667  0.00  0.00     0.020 C 
ATOM     15  H   UNL d   1       2.957  -0.394  -1.631  0.00  0.00     0.174 HD
ATOM     16  HN  UNL d   1       4.671  -0.964  -1.755  1.00  0.00     0.174 HD
ATOM     17  H   UNL d   1       1.901  -2.327   0.640  0.00  0.00     0.184 HD
ENDBRANCH   3   6
BRANCH   1  18
ATOM     18  C   UNL d   1       2.213   1.630   1.395  0.00  0.00    -0.022 A 
ATOM     19  C   UNL d   1       1.728   2.364   2.491  0.00  0.00     0.012 A 
ATOM     20  C   UNL d   1       2.601   3.045   3.348  0.00  0.00     0.001 A 
ATOM     21  C   UNL d   1       3.975   2.973   3.144  0.00  0.00     0.000 A 
ATOM     22  C   UNL d   1       4.475   2.232   2.078  0.00  0.00     0.001 A 
ATOM     23  C   UNL d   1       3.599   1.582   1.202  0.00  0.00     0.012 A 
ENDBRANCH   1  18
BRANCH   2  24
ATOM     24  C   UNL d   1      -0.263   3.002   0.011  0.00  0.00     0.424 C 
ATOM     25  F   UNL d   1       0.767   3.889   0.025  0.00  0.00    -0.166 F 
ATOM     26  F   UNL d   1      -1.065   3.381  -1.023  0.00  0.00    -0.166 F 
ATOM     27  F   UNL d   1      -0.982   3.215   1.143  0.00  0.00    -0.166 F 
ENDBRANCH   2  24
TORSDOF 3
