REMARK  6 active torsions:
REMARK  status: ('A' for Active; 'I' for Inactive)
REMARK    1  A    between atoms: C_12  and  C_5 
REMARK    2  A    between atoms: N_13  and  C_7 
REMARK    3  A    between atoms: O_16  and  C_12 
REMARK    4  A    between atoms: C_18  and  N_13 
REMARK    5  A    between atoms: C_19  and  N_13 
REMARK    6  A    between atoms: C_20  and  O_16 
ROOT
ATOM      1  C   UNL d   1       1.556  -0.880  -0.007  0.00  0.00     0.162 A 
ATOM      2  N   UNL d   1       0.891   0.324  -0.037  0.00  0.00    -0.221 N 
ATOM      3  N   UNL d   1       0.901  -2.074   0.019  0.00  0.00    -0.325 N 
ATOM      4  HN  UNL d   1       1.423  -2.950   0.063  1.00  0.00     0.169 HD
ATOM      5  C   UNL d   1       2.889  -0.503  -0.004  0.00  0.00     0.167 A 
ATOM      6  N   UNL d   1       1.740   1.369  -0.033  0.00  0.00    -0.013 NA
ATOM      7  C   UNL d   1      -0.411  -2.081  -0.014  0.00  0.00     0.117 A 
ATOM      8  N   UNL d   1       2.972   0.876  -0.014  0.00  0.00    -0.275 N 
ATOM      9  HN  UNL d   1       3.833   1.422  -0.008  1.00  0.00     0.184 HD
ATOM     10  C   UNL d   1      -1.202  -0.791  -0.038  0.00  0.00     0.036 A 
ATOM     11  C   UNL d   1      -0.501   0.422  -0.052  0.00  0.00     0.070 A 
ATOM     12  C   UNL d   1      -2.598  -0.750   0.013  0.00  0.00     0.017 A 
ATOM     13  C   UNL d   1      -1.155   1.656  -0.049  0.00  0.00     0.032 A 
ATOM     14  C   UNL d   1      -3.266   0.479   0.006  0.00  0.00     0.001 A 
ATOM     15  C   UNL d   1      -2.548   1.677  -0.027  0.00  0.00     0.002 A 
ENDROOT
BRANCH   5  16
ATOM     16  C   UNL d   1       4.053  -1.371   0.005  0.00  0.00     0.315 C 
ATOM     17  O   UNL d   1       4.006  -2.595  -0.035  0.00  0.00    -0.257 OA
BRANCH  16  18
ATOM     18  O   UNL d   1       5.226  -0.665   0.060  0.00  0.00    -0.317 OA
BRANCH  18  19
ATOM     19  C   UNL d   1       6.425  -1.452   0.034  0.00  0.00     0.175 C 
ATOM     20  C   UNL d   1       6.766  -1.950   1.427  0.00  0.00     0.034 C 
ENDBRANCH  18  19
ENDBRANCH  16  18
ENDBRANCH   5  16
BRANCH   7  21
ATOM     21  N   UNL d   1      -1.068  -3.306   0.038  0.00  0.00    -0.367 N 
BRANCH  21  22
ATOM     22  C   UNL d   1      -1.909  -3.848  -1.035  0.00  0.00     0.120 C 
ATOM     23  C   UNL d   1      -1.596  -3.303  -2.419  0.00  0.00     0.026 C 
ENDBRANCH  21  22
BRANCH  21  24
ATOM     24  C   UNL d   1      -0.749  -4.235   1.130  0.00  0.00     0.120 C 
ATOM     25  C   UNL d   1       0.433  -5.140   0.822  0.00  0.00     0.026 C 
ENDBRANCH  21  24
ENDBRANCH   7  21
TORSDOF 6
