REMARK  2 active torsions:
REMARK  status: ('A' for Active; 'I' for Inactive)
REMARK    1  A    between atoms: C_5  and  C_1 
REMARK    2  A    between atoms: C_12  and  C_2 
ROOT
ATOM      1  C   UNL d   1      -1.901  -2.649   0.030  0.00  0.00     0.048 C 
ATOM      2  C   UNL d   1      -2.140  -3.442  -1.032  0.00  0.00     0.125 C 
ATOM      3  N   UNL d   1      -1.874  -2.634  -3.471  0.00  0.00    -0.191 NA
ATOM      4  N   UNL d   1      -2.916  -5.864  -0.584  0.00  0.00    -0.191 NA
ATOM      5  C   UNL d   1      -1.995  -2.985  -2.370  0.00  0.00     0.111 C 
ATOM      6  C   UNL d   1      -2.563  -4.781  -0.807  0.00  0.00     0.111 C 
ENDROOT
BRANCH   1   7
ATOM      7  C   UNL d   1      -1.519  -1.274  -0.011  0.00  0.00     0.006 A 
ATOM      8  C   UNL d   1      -2.396  -0.197  -0.055  0.00  0.00     0.054 A 
ATOM      9  N   UNL d   1      -1.596   0.931  -0.044  0.00  0.00    -0.354 N 
ATOM     10  C   UNL d   1      -0.260   0.603  -0.035  0.00  0.00     0.043 A 
ATOM     11  H   UNL d   1      -1.942   1.880  -0.045  0.00  0.00     0.166 HD
ATOM     12  C   UNL d   1      -0.180  -0.787  -0.022  0.00  0.00     0.003 A 
ATOM     13  C   UNL d   1       0.873   1.426  -0.039  0.00  0.00     0.030 A 
ATOM     14  C   UNL d   1       1.095  -1.391  -0.029  0.00  0.00     0.014 A 
ATOM     15  C   UNL d   1       2.238  -0.584  -0.045  0.00  0.00     0.001 A 
ATOM     16  C   UNL d   1       2.126   0.804  -0.045  0.00  0.00     0.002 A 
BRANCH   8  17
ATOM     17  C   UNL d   1      -3.863  -0.116  -0.125  0.00  0.00    -0.009 A 
ATOM     18  C   UNL d   1      -4.673  -1.051   0.535  0.00  0.00     0.015 A 
ATOM     19  C   UNL d   1      -6.066  -1.017   0.407  0.00  0.00     0.024 A 
ATOM     20  C   UNL d   1      -6.665  -0.028  -0.364  0.00  0.00     0.034 A 
ATOM     21  C   UNL d   1      -5.884   0.930  -1.004  0.00  0.00     0.024 A 
ATOM     22 CL   UNL d   1      -8.376   0.009  -0.531  0.00  0.00    -0.084 Cl
ATOM     23  C   UNL d   1      -4.490   0.882  -0.889  0.00  0.00     0.015 A 
ENDBRANCH   8  17
ENDBRANCH   1   7
TORSDOF 2
