REMARK  4 active torsions:
REMARK  status: ('A' for Active; 'I' for Inactive)
REMARK    1  A    between atoms: C_8  and  C_2 
REMARK    2  A    between atoms: S_9  and  C_3 
REMARK    3  A    between atoms: C_10  and  N_6 
REMARK    4  A    between atoms: C_19  and  C_11 
ROOT
ATOM      1  C   UNL d   1       1.124  -0.284   0.122  0.00  0.00     0.094 C 
ATOM      2  C   UNL d   1       0.149   0.861   0.095  0.00  0.00     0.033 C 
ATOM      3  C   UNL d   1      -1.152   0.493   0.135  0.00  0.00     0.061 C 
ATOM      4  S   UNL d   1       0.360  -1.706   0.817  0.00  0.00    -0.033 SA
ATOM      5  S   UNL d   1      -1.491  -1.227   0.133  0.00  0.00    -0.043 SA
ATOM      6  N   UNL d   1       2.355  -0.167  -0.271  0.00  0.00    -0.349 N 
ATOM      7  HN  UNL d   1       2.663   0.737  -0.630  1.00  0.00     0.166 HD
ENDROOT
BRANCH   2   8
ATOM      8  C   UNL d   1       0.679   2.231   0.112  0.00  0.00    -0.021 A 
ATOM      9  C   UNL d   1       0.735   2.949   1.314  0.00  0.00     0.012 A 
ATOM     10  C   UNL d   1       1.288   4.230   1.340  0.00  0.00     0.001 A 
ATOM     11  C   UNL d   1       1.782   4.802   0.169  0.00  0.00     0.000 A 
ATOM     12  C   UNL d   1       1.724   4.096  -1.032  0.00  0.00     0.001 A 
ATOM     13  C   UNL d   1       1.179   2.812  -1.061  0.00  0.00     0.012 A 
ENDBRANCH   2   8
BRANCH   6  14
ATOM     14  C   UNL d   1       3.285  -1.214  -0.229  0.00  0.00     0.033 A 
ATOM     15  C   UNL d   1       3.077  -2.437  -0.872  0.00  0.00     0.030 A 
ATOM     16  C   UNL d   1       4.051  -3.438  -0.845  0.00  0.00     0.009 A 
ATOM     17  C   UNL d   1       5.284  -3.211  -0.226  0.00  0.00    -0.058 A 
ATOM     18  C   UNL d   1       5.513  -1.973   0.386  0.00  0.00     0.009 A 
ATOM     19  C   UNL d   1       4.521  -0.985   0.382  0.00  0.00     0.030 A 
BRANCH  17  20
ATOM     20  C   UNL d   1       6.340  -4.285  -0.224  0.00  0.00     0.034 C 
ATOM     21  C   UNL d   1       6.297  -5.128   1.041  0.00  0.00     0.010 C 
ENDBRANCH  17  20
ENDBRANCH   6  14
BRANCH   3  22
ATOM     22  S   UNL d   1      -2.537   1.544   0.265  0.00  0.00    -0.126 SA
ATOM     23  C   UNL d   1      -2.278   2.795  -1.005  0.00  0.00     0.096 C 
ENDBRANCH   3  22
TORSDOF 4
