REMARK  1 active torsions:
REMARK  status: ('A' for Active; 'I' for Inactive)
REMARK    1  A    between atoms: C_8  and  C_3 
ROOT
ATOM      1  N   UNL d   1       1.121  -0.273  -0.954  0.00  0.00    -0.330 N 
ATOM      2  HN  UNL d   1       1.720  -0.470  -1.755  1.00  0.00     0.168 HD
ATOM      3  C   UNL d   1       1.277   0.709   0.002  0.00  0.00     0.131 A 
ATOM      4  N   UNL d   1       0.306   0.715   0.930  0.00  0.00    -0.283 N 
ATOM      5  HN  UNL d   1       0.189   1.334   1.732  1.00  0.00     0.188 HD
ATOM      6  N   UNL d   1      -0.470  -0.302   0.531  0.00  0.00    -0.288 N 
ATOM      7  C   UNL d   1       0.021  -0.896  -0.593  0.00  0.00     0.093 A 
ATOM      8  C   UNL d   1      -0.616  -2.058  -1.244  0.00  0.00     0.090 C 
ATOM      9  H   UNL d   1      -1.298  -0.533   1.067  0.00  0.00     0.188 HD
ENDROOT
BRANCH   3  10
ATOM     10  C   UNL d   1       2.407   1.634  -0.005  0.00  0.00     0.011 A 
ATOM     11  C   UNL d   1       2.564   2.582   1.017  0.00  0.00     0.039 A 
ATOM     12  C   UNL d   1       3.655   3.450   1.004  0.00  0.00     0.035 A 
ATOM     13 CL   UNL d   1       3.842   4.604   2.268  0.00  0.00    -0.084 Cl
ATOM     14  C   UNL d   1       4.598   3.392  -0.020  0.00  0.00     0.024 A 
ATOM     15  C   UNL d   1       4.450   2.456  -1.042  0.00  0.00     0.003 A 
ATOM     16  C   UNL d   1       3.360   1.581  -1.034  0.00  0.00     0.015 A 
ENDBRANCH   3  10
TORSDOF 1
