REMARK  4 active torsions:
REMARK  status: ('A' for Active; 'I' for Inactive)
REMARK       I    between atoms: N_2  and  C_1 
REMARK    1  A    between atoms: C_3  and  C_1 
REMARK    2  A    between atoms: C_7  and  N_2 
REMARK    3  A    between atoms: C_10  and  C_6 
REMARK    4  A    between atoms: O_16  and  C_10 
ROOT
ATOM      1  C   UNL d   1       1.008   0.537  -0.118  0.00  0.00     0.228 C 
ATOM      2  N   UNL d   1       2.159   1.302  -0.063  0.00  0.00    -0.325 N 
ATOM      3  O   UNL d   1       0.821  -0.386  -0.908  0.00  0.00    -0.273 OA
ATOM      4  H   UNL d   1       2.480   1.520   0.875  0.00  0.00     0.169 HD
ENDROOT
BRANCH   1   5
ATOM      5  C   UNL d   1       0.009   0.830   1.004  0.00  0.00     0.100 C 
ATOM      6  C   UNL d   1      -0.231   2.345   1.274  0.00  0.00     0.022 C 
ATOM      7  C   UNL d   1      -0.522   3.024  -0.038  0.00  0.00    -0.025 C 
ATOM      8  C   UNL d   1      -1.654   2.355   1.836  0.00  0.00     0.018 C 
ATOM      9  C   UNL d   1      -1.709   2.561  -0.460  0.00  0.00    -0.025 C 
ATOM     10  C   UNL d   1      -2.247   1.637   0.617  0.00  0.00     0.023 C 
ATOM     11  C   UNL d   1      -1.428   0.325   0.611  0.00  0.00     0.105 C 
BRANCH  11  12
ATOM     12  C   UNL d   1      -1.970  -0.668   1.628  0.00  0.00     0.145 C 
ATOM     13  O   UNL d   1      -2.950  -0.493   2.333  0.00  0.00    -0.650 OA
BRANCH  12  14
ATOM     14  O   UNL d   1      -1.251  -1.815   1.675  0.00  0.00    -0.776 OA
ATOM     15  H   UNL d   1      -0.549  -1.880   0.996  0.00  0.00     0.167 HD
ENDBRANCH  12  14
ENDBRANCH  11  12
ENDBRANCH   1   5
BRANCH   2  16
ATOM     16  C   UNL d   1       3.188   1.266  -1.042  0.00  0.00     0.062 A 
ATOM     17  C   UNL d   1       4.519   1.167  -0.583  0.00  0.00     0.061 A 
ATOM     18 CL   UNL d   1       4.867   1.071   1.112  0.00  0.00    -0.082 Cl
ATOM     19  C   UNL d   1       5.592   1.107  -1.474  0.00  0.00     0.026 A 
ATOM     20  C   UNL d   1       5.356   1.175  -2.842  0.00  0.00     0.002 A 
ATOM     21  C   UNL d   1       4.053   1.328  -3.312  0.00  0.00     0.009 A 
ATOM     22  C   UNL d   1       2.956   1.399  -2.426  0.00  0.00    -0.034 A 
ATOM     23  C   UNL d   1       1.618   1.693  -3.048  0.00  0.00     0.050 C 
ENDBRANCH   2  16
TORSDOF 4
