REMARK  1 active torsions:
REMARK  status: ('A' for Active; 'I' for Inactive)
REMARK    1  A    between atoms: C_8  and  C_7 
ROOT
ATOM      1  C   UNL d   1       0.384  -1.376  -0.037  0.00  0.00     0.101 C 
ATOM      2  N   UNL d   1      -1.259   0.394   0.024  0.00  0.00    -0.270 N 
ATOM      3  N   UNL d   1       1.041   0.943  -0.011  0.00  0.00    -0.270 N 
ATOM      4  C   UNL d   1      -0.272   1.371   0.076  0.00  0.00     0.333 C 
ATOM      5  C   UNL d   1       1.426  -0.354  -0.275  0.00  0.00     0.267 C 
ATOM      6  C   UNL d   1      -1.041  -0.971  -0.033  0.00  0.00     0.267 C 
ATOM      7  C   UNL d   1       0.670  -2.666   0.243  0.00  0.00     0.035 C 
ATOM      8  O   UNL d   1      -0.553   2.569   0.167  0.00  0.00    -0.246 OA
ATOM      9  O   UNL d   1      -1.940  -1.810  -0.060  0.00  0.00    -0.267 OA
ATOM     10  O   UNL d   1       2.541  -0.640  -0.704  0.00  0.00    -0.267 OA
ATOM     11  C   UNL d   1      -2.631   0.873   0.079  0.00  0.00     0.164 C 
ATOM     12  C   UNL d   1       2.069   1.970  -0.040  0.00  0.00     0.164 C 
ENDROOT
BRANCH   7  13
ATOM     13  C   UNL d   1       2.034  -3.182   0.450  0.00  0.00    -0.013 A 
ATOM     14  C   UNL d   1       2.644  -3.173   1.718  0.00  0.00     0.045 A 
ATOM     15  C   UNL d   1       3.993  -3.504   1.860  0.00  0.00     0.048 A 
ATOM     16 CL   UNL d   1       1.768  -2.722   3.141  0.00  0.00    -0.083 Cl
ATOM     17  C   UNL d   1       4.736  -3.849   0.734  0.00  0.00     0.035 A 
ATOM     18  C   UNL d   1       4.137  -3.903  -0.523  0.00  0.00     0.024 A 
ATOM     19 CL   UNL d   1       6.415  -4.191   0.894  0.00  0.00    -0.084 Cl
ATOM     20  C   UNL d   1       2.785  -3.581  -0.665  0.00  0.00     0.015 A 
ENDBRANCH   7  13
TORSDOF 1
