REMARK  6 active torsions:
REMARK  status: ('A' for Active; 'I' for Inactive)
REMARK    1  A    between atoms: C_11  and  C_1 
REMARK       I    between atoms: C_2  and  N_7 
REMARK    2  A    between atoms: O_17  and  C_2 
REMARK    3  A    between atoms: N_7  and  C_15 
REMARK    4  A    between atoms: C_8  and  O_10 
REMARK    5  A    between atoms: O_10  and  C_11 
REMARK    6  A    between atoms: C_20  and  O_17 
ROOT
ATOM      1  C   UNL d   1      -2.265  -4.280  -9.664  0.00  0.00    -0.091 C 
ATOM      2  C   UNL d   1      -1.949  -5.426  -9.473  0.00  0.00     0.014 C 
ATOM      3  C   UNL d   1      -2.614  -2.869  -9.860  0.00  0.00     0.273 C 
ENDROOT
BRANCH   3   4
ATOM      4  O   UNL d   1      -1.562  -2.050  -9.331  0.00  0.00    -0.292 OA
BRANCH   4   5
ATOM      5  C   UNL d   1      -1.712  -1.707  -8.026  0.00  0.00     0.366 C 
ATOM      6  N   UNL d   1      -0.526  -1.188  -7.583  0.00  0.00    -0.301 N 
ATOM      7  H   UNL d   1       0.198  -1.163  -8.287  0.00  0.00     0.171 HD
ATOM      8  O   UNL d   1      -2.733  -1.885  -7.382  0.00  0.00    -0.238 OA
BRANCH   6   9
ATOM      9  C   UNL d   1      -0.194  -0.835  -6.264  0.00  0.00     0.052 A 
ATOM     10  C   UNL d   1      -1.093  -0.853  -5.205  0.00  0.00     0.035 A 
ATOM     11  C   UNL d   1      -0.662  -0.525  -3.918  0.00  0.00     0.058 A 
ATOM     12  C   UNL d   1       0.668  -0.189  -3.715  0.00  0.00     0.142 A 
ATOM     13  N   UNL d   1       1.558  -0.139  -4.725  0.00  0.00    -0.345 N 
ATOM     14  C   UNL d   1       1.112  -0.461  -5.965  0.00  0.00     0.119 A 
ATOM     15  HN  UNL d   1       2.528   0.129  -4.564  1.00  0.00     0.167 HD
BRANCH  12  16
ATOM     16  O   UNL d   1       1.205   0.160  -2.509  0.00  0.00    -0.327 OA
BRANCH  16  17
ATOM     17  C   UNL d   1       0.560  -0.385  -1.354  0.00  0.00     0.294 C 
BRANCH  17  18
ATOM     18  C   UNL d   1       1.260   0.035  -0.066  0.00  0.00     0.408 C 
ATOM     19  F   UNL d   1       2.143   1.039  -0.243  0.00  0.00    -0.169 F 
ATOM     20  F   UNL d   1       1.919  -1.004   0.495  0.00  0.00    -0.169 F 
ATOM     21  F   UNL d   1       0.346   0.462   0.841  0.00  0.00    -0.169 F 
ENDBRANCH  17  18
ENDBRANCH  16  17
ENDBRANCH  12  16
ENDBRANCH   6   9
ENDBRANCH   4   5
ENDBRANCH   3   4
TORSDOF 6
