REMARK  3 active torsions:
REMARK  status: ('A' for Active; 'I' for Inactive)
REMARK    1  A    between atoms: N_2  and  C_1 
REMARK    2  A    between atoms: N_4  and  C_1 
REMARK    3  A    between atoms: C_5  and  N_2 
ROOT
ATOM      1  N   UNL d   1       0.624  -0.547  -1.342  0.00  0.00    -0.333 N 
ATOM      2  H   UNL d   1      -0.367  -0.358  -1.443  0.00  0.00     0.168 HD
ENDROOT
BRANCH   1   3
ATOM      3  C   UNL d   1       1.166   0.061  -0.245  0.00  0.00     0.173 C 
ATOM      4  S   UNL d   1       0.053   0.587   0.904  0.00  0.00    -0.041 SA
BRANCH   3   5
ATOM      5  N   UNL d   1       2.534   0.294  -0.188  0.00  0.00    -0.367 N 
ATOM      6  C   UNL d   1       3.342   0.486  -1.390  0.00  0.00     0.151 C 
ATOM      7  C   UNL d   1       3.191   0.750   1.036  0.00  0.00     0.151 C 
ENDBRANCH   3   5
ENDBRANCH   1   3
BRANCH   1   8
ATOM      8  C   UNL d   1       1.120  -1.562  -2.183  0.00  0.00     0.034 A 
ATOM      9  C   UNL d   1       2.196  -2.384  -1.850  0.00  0.00     0.029 A 
ATOM     10  C   UNL d   1       2.646  -3.355  -2.749  0.00  0.00     0.002 A 
ATOM     11  C   UNL d   1       2.014  -3.514  -3.981  0.00  0.00     0.000 A 
ATOM     12  C   UNL d   1       0.914  -2.723  -4.304  0.00  0.00     0.002 A 
ATOM     13  C   UNL d   1       0.458  -1.761  -3.401  0.00  0.00     0.029 A 
ENDBRANCH   1   8
TORSDOF 3
