REMARK  5 active torsions:
REMARK  status: ('A' for Active; 'I' for Inactive)
REMARK    1  A    between atoms: C_2  and  C_1 
REMARK    2  A    between atoms: C_7  and  C_5 
REMARK    3  A    between atoms: C_15  and  C_8 
REMARK    4  A    between atoms: O_16  and  C_13 
REMARK    5  A    between atoms: C_25  and  O_16 
ROOT
ATOM      1  C   UNL d   1      -0.136   2.466   0.027  0.00  0.00     0.046 A 
ATOM      2  C   UNL d   1      -0.707   3.188   1.087  0.00  0.00     0.067 A 
ATOM      3  C   UNL d   1       0.489   3.198  -0.981  0.00  0.00     0.106 A 
ATOM      4  N   UNL d   1       0.561   4.547  -1.027  0.00  0.00    -0.346 N 
ATOM      5  HN  UNL d   1       1.019   5.031  -1.799  1.00  0.00     0.167 HD
ATOM      6  C   UNL d   1       0.000   5.220  -0.004  0.00  0.00     0.148 A 
ATOM      7  C   UNL d   1      -0.655   4.597   1.042  0.00  0.00     0.073 A 
ENDROOT
BRANCH   1   8
ATOM      8  C   UNL d   1      -0.130   1.020  -0.105  0.00  0.00     0.160 A 
ATOM      9  N   UNL d   1       0.838   0.246  -0.552  0.00  0.00    -0.343 N 
ATOM     10  C   UNL d   1       0.274  -1.004  -0.567  0.00  0.00     0.128 A 
ATOM     11  HN  UNL d   1       1.784   0.513  -0.823  1.00  0.00     0.167 HD
ATOM     12  C   UNL d   1      -1.037  -0.944  -0.148  0.00  0.00     0.103 A 
ATOM     13  O   UNL d   1      -1.307   0.372   0.139  0.00  0.00    -0.291 OA
BRANCH  12  14
ATOM     14  C   UNL d   1      -2.119  -1.905   0.016  0.00  0.00    -0.001 A 
ATOM     15  C   UNL d   1      -3.343  -1.536   0.594  0.00  0.00     0.016 A 
ATOM     16  C   UNL d   1      -4.379  -2.466   0.736  0.00  0.00     0.024 A 
ATOM     17  C   UNL d   1      -4.199  -3.775   0.299  0.00  0.00     0.034 A 
ATOM     18  C   UNL d   1      -2.991  -4.164  -0.272  0.00  0.00     0.024 A 
ATOM     19 CL   UNL d   1      -5.474  -4.918   0.462  0.00  0.00    -0.084 Cl
ATOM     20  C   UNL d   1      -1.956  -3.233  -0.410  0.00  0.00     0.016 A 
ENDBRANCH  12  14
ENDBRANCH   1   8
BRANCH   2  21
ATOM     21  C   UNL d   1      -1.354   2.555   2.291  0.00  0.00     0.418 C 
ATOM     22  F   UNL d   1      -1.038   1.253   2.511  0.00  0.00    -0.166 F 
ATOM     23  F   UNL d   1      -1.005   3.199   3.444  0.00  0.00    -0.166 F 
ATOM     24  F   UNL d   1      -2.713   2.617   2.236  0.00  0.00    -0.166 F 
ENDBRANCH   2  21
BRANCH   6  25
ATOM     25  O   UNL d   1       0.054   6.606   0.020  0.00  0.00    -0.294 OA
BRANCH  25  26
ATOM     26  C   UNL d   1       1.162   7.207  -0.540  0.00  0.00     0.077 A 
ATOM     27  C   UNL d   1       0.946   8.374  -1.270  0.00  0.00     0.037 A 
ATOM     28  C   UNL d   1       2.028   9.049  -1.840  0.00  0.00     0.003 A 
ATOM     29  C   UNL d   1       3.324   8.563  -1.668  0.00  0.00     0.000 A 
ATOM     30  C   UNL d   1       3.543   7.410  -0.914  0.00  0.00     0.003 A 
ATOM     31  C   UNL d   1       2.465   6.741  -0.336  0.00  0.00     0.037 A 
ENDBRANCH  25  26
ENDBRANCH   6  25
TORSDOF 5
