REMARK  2 active torsions:
REMARK  status: ('A' for Active; 'I' for Inactive)
REMARK    1  A    between atoms: N_7  and  C_1 
REMARK       I    between atoms: C_8  and  N_7 
REMARK    2  A    between atoms: C_12  and  C_8 
ROOT
ATOM      1  C   UNL d   1      -3.025  -1.119   0.237  0.00  0.00     0.152 A 
ATOM      2  C   UNL d   1      -0.939  -0.617   0.081  0.00  0.00     0.058 A 
ATOM      3  C   UNL d   1      -1.444   0.646   0.241  0.00  0.00     0.018 A 
ATOM      4  N   UNL d   1      -1.826  -1.643   0.039  0.00  0.00    -0.335 N 
ATOM      5  HN  UNL d   1      -1.611  -2.627  -0.117  1.00  0.00     0.168 HD
ATOM      6  S   UNL d   1      -3.102   0.598   0.436  0.00  0.00    -0.056 SA
ATOM      7  C   UNL d   1       0.487  -0.517  -0.007  0.00  0.00    -0.002 A 
ATOM      8  C   UNL d   1       0.836   0.860   0.082  0.00  0.00    -0.041 A 
ATOM      9  C   UNL d   1      -0.416   1.721   0.232  0.00  0.00     0.088 A 
ATOM     10  C   UNL d   1       1.435  -1.510  -0.115  0.00  0.00     0.014 A 
ATOM     11  C   UNL d   1       2.161   1.251   0.051  0.00  0.00     0.008 A 
ATOM     12  C   UNL d   1       2.775  -1.114  -0.137  0.00  0.00     0.001 A 
ATOM     13  C   UNL d   1       3.133   0.248  -0.058  0.00  0.00     0.001 A 
ENDROOT
BRANCH   1  14
ATOM     14  N   UNL d   1      -4.143  -1.909   0.188  0.00  0.00    -0.303 N 
ATOM     15  C   UNL d   1      -5.428  -1.549   0.524  0.00  0.00     0.257 C 
ATOM     16  O   UNL d   1      -5.776  -0.503   1.058  0.00  0.00    -0.267 OA
ATOM     17  H   UNL d   1      -3.923  -2.834  -0.146  0.00  0.00     0.171 HD
BRANCH  15  18
ATOM     18  C   UNL d   1      -6.486  -2.542   0.163  0.00  0.00     0.035 A 
ATOM     19  C   UNL d   1      -6.227  -3.903  -0.032  0.00  0.00     0.059 A 
ATOM     20  C   UNL d   1      -7.255  -4.742  -0.454  0.00  0.00     0.117 A 
ATOM     21  F   UNL d   1      -6.992  -6.038  -0.667  0.00  0.00    -0.206 F 
ATOM     22  C   UNL d   1      -8.541  -4.262  -0.669  0.00  0.00     0.042 A 
ATOM     23  C   UNL d   1      -8.818  -2.918  -0.437  0.00  0.00     0.004 A 
ATOM     24  C   UNL d   1      -7.795  -2.062  -0.019  0.00  0.00     0.017 A 
ENDBRANCH  15  18
ENDBRANCH   1  14
TORSDOF 2
