REMARK  5 active torsions:
REMARK  status: ('A' for Active; 'I' for Inactive)
REMARK    1  A    between atoms: C_2  and  C_6 
REMARK    2  A    between atoms: C_12  and  C_3 
REMARK    3  A    between atoms: C_7  and  C_8 
REMARK       I    between atoms: C_8  and  N_11 
REMARK    4  A    between atoms: N_11  and  N_13 
REMARK    5  A    between atoms: N_13  and  C_20 
ROOT
ATOM      1  C   UNL d   1       7.088  -5.937  -0.954  0.00  0.00     0.267 C 
ATOM      2  N   UNL d   1       6.108  -5.003  -1.252  0.00  0.00    -0.283 N 
ATOM      3  O   UNL d   1       7.919  -5.810  -0.059  0.00  0.00    -0.266 OA
ATOM      4  H   UNL d   1       5.623  -5.011  -2.143  0.00  0.00     0.184 HD
ENDROOT
BRANCH   2   5
ATOM      5  N   UNL d   1       6.140  -3.779  -0.564  0.00  0.00    -0.203 NA
ATOM      6  H   UNL d   1       6.802  -3.829   0.221  0.00  0.00     0.153 HD
BRANCH   5   7
ATOM      7  C   UNL d   1       4.871  -3.284  -0.162  0.00  0.00     0.027 A 
ATOM      8  C   UNL d   1       4.795  -2.457   0.969  0.00  0.00     0.026 A 
ATOM      9  C   UNL d   1       3.598  -1.821   1.333  0.00  0.00     0.015 A 
ATOM     10  C   UNL d   1       2.444  -1.970   0.554  0.00  0.00    -0.008 A 
ATOM     11  C   UNL d   1       2.512  -2.797  -0.574  0.00  0.00     0.015 A 
ATOM     12  C   UNL d   1       3.711  -3.431  -0.934  0.00  0.00     0.026 A 
BRANCH  10  13
ATOM     13  C   UNL d   1       1.201  -1.270   0.865  0.00  0.00     0.063 A 
ATOM     14  N   UNL d   1      -0.032  -1.761   0.441  0.00  0.00    -0.292 N 
ATOM     15  N   UNL d   1      -1.030  -0.969   0.793  0.00  0.00    -0.061 NA
ATOM     16  HN  UNL d   1      -0.151  -2.630  -0.079  1.00  0.00     0.183 HD
ATOM     17  S   UNL d   1      -0.521   0.390   1.622  0.00  0.00    -0.010 SA
ATOM     18  C   UNL d   1       1.133  -0.062   1.541  0.00  0.00     0.096 A 
ENDBRANCH  10  13
ENDBRANCH   5   7
ENDBRANCH   2   5
BRANCH   1  19
ATOM     19  C   UNL d   1       7.028  -7.181  -1.768  0.00  0.00     0.048 A 
ATOM     20  C   UNL d   1       8.156  -7.817  -2.313  0.00  0.00     0.063 A 
ATOM     21  C   UNL d   1       7.961  -9.032  -3.010  0.00  0.00     0.017 A 
ATOM     22  C   UNL d   1       6.693  -9.594  -3.162  0.00  0.00     0.001 A 
ATOM     23  C   UNL d   1       5.587  -8.958  -2.615  0.00  0.00     0.001 A 
ATOM     24  C   UNL d   1       5.752  -7.764  -1.918  0.00  0.00     0.018 A 
BRANCH  20  25
ATOM     25  C   UNL d   1       9.575  -7.311  -2.220  0.00  0.00     0.418 C 
ATOM     26  F   UNL d   1       9.745  -6.039  -1.789  0.00  0.00    -0.166 F 
ATOM     27  F   UNL d   1      10.351  -8.104  -1.428  0.00  0.00    -0.166 F 
ATOM     28  F   UNL d   1      10.181  -7.341  -3.448  0.00  0.00    -0.166 F 
ENDBRANCH  20  25
ENDBRANCH   1  19
TORSDOF 5
