REMARK  5 active torsions:
REMARK  status: ('A' for Active; 'I' for Inactive)
REMARK       I    between atoms: N_3  and  C_1 
REMARK       I    between atoms: N_4  and  C_1 
REMARK    1  A    between atoms: C_2  and  O_5 
REMARK    2  A    between atoms: C_15  and  N_3 
REMARK    3  A    between atoms: C_14  and  N_4 
REMARK    4  A    between atoms: O_5  and  C_16 
REMARK    5  A    between atoms: N_8  and  C_6 
ROOT
ATOM      1  C   UNL d   1       1.043   0.097   0.047  0.00  0.00     0.325 C 
ATOM      2  N   UNL d   1       2.394   0.311  -0.173  0.00  0.00    -0.309 N 
ATOM      3  N   UNL d   1       0.254   0.835  -0.821  0.00  0.00    -0.309 N 
ATOM      4  O   UNL d   1       0.598  -0.639   0.914  0.00  0.00    -0.247 OA
ATOM      5  H   UNL d   1       2.629   1.118  -0.727  0.00  0.00     0.170 HD
ATOM      6  H   UNL d   1       0.675   1.101  -1.696  0.00  0.00     0.170 HD
ENDROOT
BRANCH   2   7
ATOM      7  C   UNL d   1       3.449  -0.290   0.555  0.00  0.00     0.036 A 
ATOM      8  C   UNL d   1       3.281  -1.410   1.374  0.00  0.00     0.032 A 
ATOM      9  C   UNL d   1       4.343  -1.928   2.125  0.00  0.00     0.039 A 
ATOM     10  C   UNL d   1       5.587  -1.313   2.088  0.00  0.00     0.078 A 
ATOM     11  C   UNL d   1       5.783  -0.239   1.214  0.00  0.00     0.039 A 
ATOM     12  C   UNL d   1       4.724   0.270   0.450  0.00  0.00     0.032 A 
BRANCH  10  13
ATOM     13  O   UNL d   1       6.686  -1.696   2.791  0.00  0.00    -0.255 OA
BRANCH  13  14
ATOM     14  C   UNL d   1       6.528  -2.259   4.088  0.00  0.00     0.530 C 
ATOM     15  F   UNL d   1       5.265  -2.241   4.561  0.00  0.00    -0.144 F 
ATOM     16  F   UNL d   1       6.969  -3.537   4.073  0.00  0.00    -0.144 F 
ATOM     17  F   UNL d   1       7.300  -1.562   4.952  0.00  0.00    -0.144 F 
ENDBRANCH  13  14
ENDBRANCH  10  13
ENDBRANCH   2   7
BRANCH   3  18
ATOM     18  C   UNL d   1      -1.149   0.982  -0.713  0.00  0.00     0.036 A 
ATOM     19  C   UNL d   1      -1.849   0.738   0.465  0.00  0.00     0.032 A 
ATOM     20  C   UNL d   1      -3.238   0.926   0.534  0.00  0.00     0.031 A 
ATOM     21  C   UNL d   1      -3.987   1.380  -0.558  0.00  0.00     0.029 A 
ATOM     22  C   UNL d   1      -3.259   1.617  -1.737  0.00  0.00     0.031 A 
ATOM     23  C   UNL d   1      -1.866   1.432  -1.818  0.00  0.00     0.032 A 
BRANCH  21  24
ATOM     24  N   UNL d   1      -5.344   1.657  -0.470  0.00  0.00    -0.390 N 
ATOM     25  C   UNL d   1      -6.235   1.408  -1.601  0.00  0.00     0.149 C 
ATOM     26  C   UNL d   1      -6.018   1.765   0.822  0.00  0.00     0.149 C 
ENDBRANCH  21  24
ENDBRANCH   3  18
TORSDOF 5
