REMARK  3 active torsions:
REMARK  status: ('A' for Active; 'I' for Inactive)
REMARK    1  A    between atoms: C_4  and  C_1 
REMARK    2  A    between atoms: C_3  and  C_8 
REMARK       I    between atoms: N_5  and  C_3 
REMARK    3  A    between atoms: C_10  and  C_6 
ROOT
ATOM      1  C   UNL d   1       0.203   1.246   0.080  0.00  0.00     0.022 A 
ATOM      2  S   UNL d   1      -0.920  -0.042   0.244  0.00  0.00    -0.089 SA
ATOM      3  C   UNL d   1       0.278  -1.261  -0.002  0.00  0.00     0.005 A 
ATOM      4  C   UNL d   1       1.474   0.753  -0.139  0.00  0.00     0.021 A 
ATOM      5  C   UNL d   1       1.514  -0.670  -0.194  0.00  0.00     0.020 A 
ENDROOT
BRANCH   3   6
ATOM      6  C   UNL d   1      -0.105  -2.638   0.055  0.00  0.00     0.024 C 
ATOM      7  C   UNL d   1       0.774  -3.632  -0.173  0.00  0.00     0.075 C 
BRANCH   7   8
ATOM      8  C   UNL d   1       0.349  -5.030   0.070  0.00  0.00     0.243 C 
ATOM      9  N   UNL d   1       0.651  -5.973  -0.891  0.00  0.00    -0.345 N 
ATOM     10  C   UNL d   1       1.230  -5.747  -2.221  0.00  0.00     0.152 C 
ATOM     11  C   UNL d   1       0.213  -7.357  -0.686  0.00  0.00     0.152 C 
ATOM     12  C   UNL d   1       0.273  -6.248  -3.315  0.00  0.00     0.187 C 
ATOM     13  O   UNL d   1      -0.110  -7.616  -3.095  0.00  0.00    -0.388 OA
ATOM     14  C   UNL d   1      -0.741  -7.773  -1.812  0.00  0.00     0.187 C 
ATOM     15  O   UNL d   1      -0.236  -5.302   1.119  0.00  0.00    -0.268 OA
ENDBRANCH   7   8
ENDBRANCH   3   6
BRANCH   1  16
ATOM     16  C   UNL d   1      -0.205   2.632   0.154  0.00  0.00     0.021 A 
ATOM     17  S   UNL d   1       0.660   3.865  -0.681  0.00  0.00    -0.101 SA
ATOM     18  C   UNL d   1      -0.427   5.080  -0.175  0.00  0.00     0.050 A 
ATOM     19  C   UNL d   1      -1.414   4.579   0.642  0.00  0.00     0.008 A 
ATOM     20  C   UNL d   1      -1.280   3.172   0.838  0.00  0.00     0.021 A 
ENDBRANCH   1  16
TORSDOF 3
