REMARK  5 active torsions:
REMARK  status: ('A' for Active; 'I' for Inactive)
REMARK    1  A    between atoms: C_2  and  C_1 
REMARK    2  A    between atoms: C_10  and  C_2 
REMARK    3  A    between atoms: N_4  and  C_3 
REMARK       I    between atoms: C_5  and  N_4 
REMARK    4  A    between atoms: C_9  and  C_5 
REMARK    5  A    between atoms: N_6  and  C_9 
ROOT
ATOM      1  C   UNL d   1       1.547   1.254  -0.157  0.00  0.00     0.043 A 
ATOM      2  C   UNL d   1       2.414   0.162  -0.322  0.00  0.00     0.049 A 
ATOM      3  C   UNL d   1       0.153   1.047  -0.212  0.00  0.00     0.041 A 
ATOM      4  C   UNL d   1       1.859  -1.110  -0.572  0.00  0.00     0.032 A 
ATOM      5  C   UNL d   1      -0.371  -0.222  -0.434  0.00  0.00     0.035 A 
ATOM      6  C   UNL d   1       0.479  -1.303  -0.619  0.00  0.00     0.026 A 
ATOM      7 CL   UNL d   1      -2.073  -0.460  -0.472  0.00  0.00    -0.084 Cl
ENDROOT
BRANCH   2   8
ATOM      8  N   UNL d   1       3.819   0.253  -0.160  0.00  0.00    -0.325 N 
ATOM      9  C   UNL d   1       4.694  -0.438  -0.990  0.00  0.00     0.250 C 
ATOM     10  O   UNL d   1       4.338  -0.960  -2.049  0.00  0.00    -0.271 OA
ATOM     11  H   UNL d   1       4.197   1.059   0.330  0.00  0.00     0.169 HD
BRANCH   9  12
ATOM     12  C   UNL d   1       6.152  -0.438  -0.539  0.00  0.00     0.375 C 
BRANCH  12  13
ATOM     13  N   UNL d   1       6.752  -1.769  -0.386  0.00  0.00     0.101 N 
ATOM     14  C   UNL d   1       6.750  -2.630  -1.584  0.00  0.00     0.299 C 
ATOM     15  C   UNL d   1       5.625  -3.684  -1.665  0.00  0.00     0.198 C 
ATOM     16  O   UNL d   1       5.498  -4.418  -0.441  0.00  0.00    -0.388 OA
ATOM     17  C   UNL d   1       5.229  -3.521   0.640  0.00  0.00     0.198 C 
ATOM     18  C   UNL d   1       6.374  -2.515   0.820  0.00  0.00     0.299 C 
ENDBRANCH  12  13
ENDBRANCH   9  12
ENDBRANCH   2   8
BRANCH   1  19
ATOM     19  C   UNL d   1       1.958   2.653   0.102  0.00  0.00     0.194 C 
ATOM     20  O   UNL d   1       1.349   3.248   0.993  0.00  0.00    -0.287 OA
BRANCH  19  21
ATOM     21  C   UNL d   1       3.020   3.386  -0.648  0.00  0.00     0.015 A 
ATOM     22  C   UNL d   1       3.376   4.661  -0.176  0.00  0.00     0.015 A 
ATOM     23  C   UNL d   1       4.386   5.400  -0.795  0.00  0.00     0.001 A 
ATOM     24  C   UNL d   1       5.060   4.868  -1.890  0.00  0.00     0.000 A 
ATOM     25  C   UNL d   1       4.694   3.619  -2.390  0.00  0.00     0.001 A 
ATOM     26  C   UNL d   1       3.659   2.891  -1.791  0.00  0.00     0.015 A 
ENDBRANCH  19  21
ENDBRANCH   1  19
TORSDOF 5
