REMARK  2 active torsions:
REMARK  status: ('A' for Active; 'I' for Inactive)
REMARK    1  A    between atoms: C_13  and  C_6 
REMARK    2  A    between atoms: O_14  and  C_7 
ROOT
ATOM      1  C   UNL d   1      -0.808  -0.375   0.020  0.00  0.00     0.052 A 
ATOM      2  C   UNL d   1      -1.220   0.967   0.027  0.00  0.00    -0.013 A 
ATOM      3  N   UNL d   1      -1.619  -1.434  -0.032  0.00  0.00    -0.335 N 
ATOM      4  HN  UNL d   1      -1.273  -2.394  -0.015  1.00  0.00     0.168 HD
ATOM      5  C   UNL d   1      -3.460   0.178  -0.130  0.00  0.00     0.107 A 
ATOM      6  C   UNL d   1      -2.584   1.293  -0.024  0.00  0.00     0.008 A 
ATOM      7  C   UNL d   1      -2.935  -1.133  -0.108  0.00  0.00     0.164 A 
ATOM      8  C   UNL d   1       0.634  -0.457   0.059  0.00  0.00    -0.002 A 
ATOM      9  C   UNL d   1       0.015   1.852   0.101  0.00  0.00     0.081 A 
ATOM     10  C   UNL d   1       1.150   0.851   0.104  0.00  0.00    -0.041 A 
ATOM     11  C   UNL d   1      -4.878   0.333  -0.292  0.00  0.00     0.104 C 
ATOM     12  N   UNL d   1      -6.030   0.468  -0.408  0.00  0.00    -0.191 NA
ATOM     13  C   UNL d   1       1.486  -1.548   0.025  0.00  0.00     0.014 A 
ATOM     14  C   UNL d   1       2.511   1.099   0.097  0.00  0.00     0.008 A 
ATOM     15  C   UNL d   1       2.864  -1.311   0.024  0.00  0.00     0.001 A 
ATOM     16  C   UNL d   1       3.372  -0.001   0.055  0.00  0.00     0.001 A 
ENDROOT
BRANCH   7  17
ATOM     17  O   UNL d   1      -3.835  -2.185  -0.162  0.00  0.00    -0.340 OA
ATOM     18  C   UNL d   1      -3.220  -3.469  -0.074  0.00  0.00     0.211 C 
ENDBRANCH   7  17
BRANCH   6  19
ATOM     19  C   UNL d   1      -3.040   2.712   0.073  0.00  0.00    -0.024 A 
ATOM     20  C   UNL d   1      -2.376   3.752  -0.604  0.00  0.00     0.012 A 
ATOM     21  C   UNL d   1      -2.706   5.098  -0.409  0.00  0.00     0.001 A 
ATOM     22  C   UNL d   1      -3.772   5.440   0.411  0.00  0.00     0.000 A 
ATOM     23  C   UNL d   1      -4.496   4.436   1.042  0.00  0.00     0.001 A 
ATOM     24  C   UNL d   1      -4.118   3.094   0.895  0.00  0.00     0.012 A 
ENDBRANCH   6  19
TORSDOF 2
