REMARK  10 active torsions:
REMARK  status: ('A' for Active; 'I' for Inactive)
REMARK    1  A    between atoms: O_5  and  C_1 
REMARK    2  A    between atoms: O_6  and  C_2 
REMARK    3  A    between atoms: C_3  and  O_7 
REMARK    4  A    between atoms: O_8  and  C_4 
REMARK    5  A    between atoms: O_7  and  C_14 
REMARK    6  A    between atoms: C_13  and  O_8 
REMARK    7  A    between atoms: C_16  and  C_13 
REMARK    8  A    between atoms: C_14  and  C_15 
REMARK    9  A    between atoms: C_15  and  C_17 
REMARK   10  A    between atoms: C_17  and  C_16 
ROOT
ATOM      1  C   UNL d   1       4.466   3.884   0.084  0.00  0.00     0.004 C 
ENDROOT
BRANCH   1   2
ATOM      2  C   UNL d   1       5.084   5.277   0.248  0.00  0.00     0.027 C 
BRANCH   2   3
ATOM      3  C   UNL d   1       4.497   6.061   1.420  0.00  0.00     0.176 C 
BRANCH   3   4
ATOM      4  O   UNL d   1       5.191   7.304   1.548  0.00  0.00    -0.348 OA
BRANCH   4   5
ATOM      5  C   UNL d   1       4.733   8.132   2.545  0.00  0.00     0.101 A 
ATOM      6  C   UNL d   1       5.628   9.123   2.962  0.00  0.00     0.099 A 
ATOM      7  C   UNL d   1       5.296  10.027   3.964  0.00  0.00     0.039 A 
ATOM      8  C   UNL d   1       4.039   9.958   4.559  0.00  0.00     0.003 A 
ATOM      9  C   UNL d   1       3.126   8.989   4.143  0.00  0.00     0.003 A 
ATOM     10  C   UNL d   1       3.470   8.077   3.139  0.00  0.00     0.039 A 
BRANCH   6  11
ATOM     11  O   UNL d   1       6.868   9.221   2.387  0.00  0.00    -0.358 OA
ATOM     12  H   UNL d   1       6.882   8.523   1.704  0.00  0.00     0.217 HD
ENDBRANCH   6  11
ENDBRANCH   4   5
ENDBRANCH   3   4
ENDBRANCH   2   3
ENDBRANCH   1   2
BRANCH   1  13
ATOM     13  C   UNL d   1       2.933   3.844   0.021  0.00  0.00     0.027 C 
BRANCH  13  14
ATOM     14  C   UNL d   1       2.326   4.590  -1.170  0.00  0.00     0.176 C 
BRANCH  14  15
ATOM     15  O   UNL d   1       2.555   3.813  -2.350  0.00  0.00    -0.348 OA
BRANCH  15  16
ATOM     16  C   UNL d   1       2.497   4.518  -3.522  0.00  0.00     0.101 A 
ATOM     17  C   UNL d   1       1.424   5.320  -3.920  0.00  0.00     0.099 A 
ATOM     18  C   UNL d   1       1.437   5.974  -5.149  0.00  0.00     0.039 A 
ATOM     19  C   UNL d   1       2.506   5.782  -6.023  0.00  0.00     0.003 A 
ATOM     20  C   UNL d   1       3.563   4.949  -5.656  0.00  0.00     0.003 A 
ATOM     21  C   UNL d   1       3.558   4.321  -4.407  0.00  0.00     0.039 A 
BRANCH  17  22
ATOM     22  O   UNL d   1       0.283   5.441  -3.176  0.00  0.00    -0.358 OA
ATOM     23  H   UNL d   1       0.173   4.586  -2.732  0.00  0.00     0.217 HD
ENDBRANCH  17  22
ENDBRANCH  15  16
ENDBRANCH  14  15
ENDBRANCH  13  14
ENDBRANCH   1  13
TORSDOF 10
