REMARK  4 active torsions:
REMARK  status: ('A' for Active; 'I' for Inactive)
REMARK    1  A    between atoms: N_2  and  C_1 
REMARK    2  A    between atoms: N_3  and  C_1 
REMARK    3  A    between atoms: C_5  and  N_2 
REMARK    4  A    between atoms: C_9  and  N_3 
ROOT
ATOM      1  N   UNL d   1       0.246   0.474  -1.673  0.00  0.00    -0.362 N 
ATOM      2  H   UNL d   1       0.933   0.034  -1.085  0.00  0.00     0.162 HD
ENDROOT
BRANCH   1   3
ATOM      3  C   UNL d   1       0.817   0.909  -2.832  0.00  0.00     0.172 C 
ATOM      4  S   UNL d   1       2.379   0.362  -3.078  0.00  0.00    -0.041 SA
BRANCH   3   5
ATOM      5  N   UNL d   1       0.048   1.728  -3.608  0.00  0.00    -0.333 N 
ATOM      6  H   UNL d   1      -0.908   1.810  -3.299  0.00  0.00     0.168 HD
BRANCH   5   7
ATOM      7  C   UNL d   1       0.345   2.486  -4.768  0.00  0.00     0.037 A 
ATOM      8  C   UNL d   1      -0.740   3.096  -5.405  0.00  0.00     0.071 A 
ATOM      9  C   UNL d   1      -0.542   3.862  -6.552  0.00  0.00     0.118 A 
ATOM     10  F   UNL d   1      -1.598   4.425  -7.152  0.00  0.00    -0.206 F 
ATOM     11  C   UNL d   1       0.724   4.045  -7.088  0.00  0.00     0.042 A 
ATOM     12  C   UNL d   1       1.812   3.463  -6.453  0.00  0.00     0.005 A 
ATOM     13  C   UNL d   1       1.622   2.696  -5.298  0.00  0.00     0.029 A 
ENDBRANCH   5   7
ENDBRANCH   3   5
ENDBRANCH   1   3
BRANCH   1  14
ATOM     14  C   UNL d   1      -1.115   0.408  -1.166  0.00  0.00     0.083 C 
ATOM     15  C   UNL d   1      -1.410   1.377   0.005  0.00  0.00     0.025 C 
ATOM     16  C   UNL d   1      -0.647   2.709   0.066  0.00  0.00     0.002 C 
ATOM     17  C   UNL d   1       0.854   2.646   0.401  0.00  0.00     0.000 C 
ATOM     18  C   UNL d   1       1.205   1.910   1.702  0.00  0.00     0.000 C 
ATOM     19  C   UNL d   1       2.641   1.357   1.720  0.00  0.00     0.000 C 
ATOM     20  C   UNL d   1       2.807  -0.019   1.048  0.00  0.00     0.000 C 
ATOM     21  C   UNL d   1       2.139  -1.169   1.812  0.00  0.00     0.000 C 
ATOM     22  C   UNL d   1       1.820  -2.425   0.982  0.00  0.00     0.000 C 
ATOM     23  C   UNL d   1       0.739  -2.318  -0.110  0.00  0.00     0.000 C 
ATOM     24  C   UNL d   1      -0.600  -1.707   0.337  0.00  0.00     0.002 C 
ATOM     25  C   UNL d   1      -1.449  -1.067  -0.789  0.00  0.00     0.025 C 
ENDBRANCH   1  14
TORSDOF 4
