REMARK  7 active torsions:
REMARK  status: ('A' for Active; 'I' for Inactive)
REMARK    1  A    between atoms: N_3  and  C_1 
REMARK    2  A    between atoms: N_9  and  C_1 
REMARK    3  A    between atoms: C_2  and  N_10 
REMARK    4  A    between atoms: N_4  and  C_2 
REMARK    5  A    between atoms: C_5  and  N_3 
REMARK    6  A    between atoms: C_6  and  N_4 
REMARK    7  A    between atoms: N_10  and  N_9 
ROOT
ATOM      1  N   UNL d   1       0.340  -0.577   0.864  0.00  0.00    -0.274 N 
ATOM      2  H   UNL d   1       0.858  -0.947   1.655  0.00  0.00     0.189 HD
ENDROOT
BRANCH   1   3
ATOM      3  C   UNL d   1       0.836   0.495   0.142  0.00  0.00     0.186 C 
ATOM      4  S   UNL d   1      -0.103   1.499  -0.810  0.00  0.00    -0.040 SA
BRANCH   3   5
ATOM      5  N   UNL d   1       2.206   0.576   0.297  0.00  0.00    -0.361 N 
ATOM      6  H   UNL d   1       2.643  -0.192   0.786  0.00  0.00     0.162 HD
BRANCH   5   7
ATOM      7  C   UNL d   1       3.071   1.684  -0.075  0.00  0.00     0.088 C 
ATOM      8  C   UNL d   1       3.008   2.863   0.928  0.00  0.00     0.009 C 
ATOM      9  C   UNL d   1       4.312   3.593   0.610  0.00  0.00     0.011 C 
ATOM     10  C   UNL d   1       3.279   2.369   2.364  0.00  0.00     0.007 C 
ATOM     11  C   UNL d   1       5.179   2.366   0.894  0.00  0.00    -0.012 C 
ATOM     12  C   UNL d   1       4.572   1.314  -0.054  0.00  0.00     0.030 C 
ATOM     13  C   UNL d   1       4.775   2.026   2.337  0.00  0.00     0.005 C 
ENDBRANCH   5   7
ENDBRANCH   3   5
ENDBRANCH   1   3
BRANCH   1  14
ATOM     14  N   UNL d   1      -0.961  -1.072   0.714  0.00  0.00    -0.274 N 
ATOM     15  H   UNL d   1      -1.542  -0.591   0.029  0.00  0.00     0.189 HD
BRANCH  14  16
ATOM     16  C   UNL d   1      -1.583  -1.694   1.764  0.00  0.00     0.186 C 
ATOM     17  S   UNL d   1      -1.153  -1.547   3.375  0.00  0.00    -0.040 SA
BRANCH  16  18
ATOM     18  N   UNL d   1      -2.574  -2.575   1.439  0.00  0.00    -0.361 N 
ATOM     19  H   UNL d   1      -2.942  -3.063   2.247  0.00  0.00     0.162 HD
BRANCH  18  20
ATOM     20  C   UNL d   1      -2.739  -3.233   0.149  0.00  0.00     0.088 C 
ATOM     21  C   UNL d   1      -1.543  -4.126  -0.287  0.00  0.00     0.009 C 
ATOM     22  C   UNL d   1      -2.211  -5.022  -1.335  0.00  0.00     0.011 C 
ATOM     23  C   UNL d   1      -1.190  -5.159   0.800  0.00  0.00     0.007 C 
ATOM     24  C   UNL d   1      -3.261  -5.542  -0.356  0.00  0.00    -0.012 C 
ATOM     25  C   UNL d   1      -3.913  -4.236   0.141  0.00  0.00     0.030 C 
ATOM     26  C   UNL d   1      -2.382  -6.124   0.764  0.00  0.00     0.005 C 
ENDBRANCH  18  20
ENDBRANCH  16  18
ENDBRANCH  14  16
ENDBRANCH   1  14
TORSDOF 7
