REMARK  11 active torsions:
REMARK  status: ('A' for Active; 'I' for Inactive)
REMARK    1  A    between atoms: N_2  and  C_1 
REMARK    2  A    between atoms: O_25  and  C_4 
REMARK    3  A    between atoms: O_24  and  C_5 
REMARK    4  A    between atoms: C_6  and  C_7 
REMARK       I    between atoms: C_7  and  N_16 
REMARK    5  A    between atoms: O_26  and  C_9 
REMARK    6  A    between atoms: O_27  and  C_10 
REMARK    7  A    between atoms: S_18  and  C_11 
REMARK    8  A    between atoms: C_12  and  C_23 
REMARK       I    between atoms: N_19  and  C_12 
REMARK    9  A    between atoms: O_28  and  C_13 
REMARK   10  A    between atoms: N_16  and  N_19 
REMARK   11  A    between atoms: C_23  and  S_18 
ROOT
ATOM      1  C   UNL d   1      -5.399  -0.707  -0.679  0.00  0.00     0.245 C 
ATOM      2  N   UNL d   1      -6.048   0.501  -0.786  0.00  0.00    -0.267 N 
ATOM      3  O   UNL d   1      -4.237  -0.768  -0.268  0.00  0.00    -0.271 OA
ATOM      4  H   UNL d   1      -7.000   0.619  -1.131  0.00  0.00     0.190 HD
ENDROOT
BRANCH   2   5
ATOM      5  N   UNL d   1      -5.332   1.643  -0.417  0.00  0.00    -0.263 N 
ATOM      6  C   UNL d   1      -5.907   2.886  -0.552  0.00  0.00     0.270 C 
ATOM      7  O   UNL d   1      -7.044   3.064  -0.980  0.00  0.00    -0.266 OA
ATOM      8  H   UNL d   1      -4.343   1.499  -0.213  0.00  0.00     0.190 HD
BRANCH   6   9
ATOM      9  C   UNL d   1      -5.046   4.040  -0.180  0.00  0.00     0.039 A 
ATOM     10  C   UNL d   1      -5.209   5.240  -0.864  0.00  0.00     0.057 A 
ATOM     11  C   UNL d   1      -4.418   6.360  -0.556  0.00  0.00     0.105 A 
ATOM     12  C   UNL d   1      -3.438   6.284   0.468  0.00  0.00     0.135 A 
ATOM     13  C   UNL d   1      -3.265   5.049   1.137  0.00  0.00     0.105 A 
ATOM     14  C   UNL d   1      -4.080   3.952   0.817  0.00  0.00     0.057 A 
BRANCH  11  15
ATOM     15  O   UNL d   1      -4.521   7.501  -1.318  0.00  0.00    -0.353 OA
ATOM     16  C   UNL d   1      -5.834   7.808  -1.792  0.00  0.00     0.210 C 
ENDBRANCH  11  15
BRANCH  12  17
ATOM     17  O   UNL d   1      -2.615   7.299   0.866  0.00  0.00    -0.351 OA
ATOM     18  C   UNL d   1      -2.855   8.650   0.503  0.00  0.00     0.210 C 
ENDBRANCH  12  17
BRANCH  13  19
ATOM     19  O   UNL d   1      -2.352   4.692   2.097  0.00  0.00    -0.353 OA
ATOM     20  C   UNL d   1      -1.524   5.648   2.735  0.00  0.00     0.210 C 
ENDBRANCH  13  19
ENDBRANCH   6   9
ENDBRANCH   2   5
BRANCH   1  21
ATOM     21  C   UNL d   1      -6.194  -1.970  -0.955  0.00  0.00     0.184 C 
BRANCH  21  22
ATOM     22  S   UNL d   1      -7.420  -1.814  -2.287  0.00  0.00    -0.118 SA
BRANCH  22  23
ATOM     23  C   UNL d   1      -8.033  -3.499  -2.560  0.00  0.00     0.037 A 
ATOM     24  C   UNL d   1      -8.943  -3.601  -3.639  0.00  0.00     0.060 A 
ATOM     25  C   UNL d   1      -9.534  -4.813  -4.026  0.00  0.00     0.102 A 
ATOM     26  C   UNL d   1      -9.173  -5.955  -3.319  0.00  0.00     0.138 A 
ATOM     27  C   UNL d   1      -8.278  -5.891  -2.228  0.00  0.00     0.077 A 
ATOM     28  C   UNL d   1      -7.709  -4.674  -1.846  0.00  0.00     0.087 A 
BRANCH  25  29
ATOM     29  O   UNL d   1     -10.353  -4.694  -5.110  0.00  0.00    -0.353 OA
ATOM     30  C   UNL d   1     -11.521  -5.505  -5.183  0.00  0.00     0.210 C 
ENDBRANCH  25  29
BRANCH  26  31
ATOM     31  N   UNL d   1      -9.620  -7.279  -3.695  0.00  0.00    -0.113 N 
ATOM     32  O   UNL d   1     -10.226  -7.929  -2.829  0.00  0.00    -0.532 OA
ATOM     33  O   UNL d   1      -9.328  -7.677  -4.823  0.00  0.00    -0.532 OA
ENDBRANCH  26  31
BRANCH  28  34
ATOM     34  O   UNL d   1      -6.844  -4.570  -0.793  0.00  0.00    -0.355 OA
ATOM     35  C   UNL d   1      -6.419  -5.749  -0.120  0.00  0.00     0.210 C 
ENDBRANCH  28  34
ENDBRANCH  22  23
ENDBRANCH  21  22
ENDBRANCH   1  21
TORSDOF 11
