REMARK  6 active torsions:
REMARK  status: ('A' for Active; 'I' for Inactive)
REMARK    1  A    between atoms: C_2  and  S_1 
REMARK    2  A    between atoms: N_4  and  S_1 
REMARK    3  A    between atoms: C_5  and  C_3 
REMARK    4  A    between atoms: C_14  and  N_4 
REMARK    5  A    between atoms: O_17  and  C_5 
REMARK    6  A    between atoms: N_8  and  C_12 
ROOT
ATOM      1  N   UNL d   1       0.538  -1.457   0.084  0.00  0.00    -0.181 NA
ATOM      2  H   UNL d   1      -0.327  -1.057  -0.274  0.00  0.00     0.146 HD
ENDROOT
BRANCH   1   3
ATOM      3  S   UNL d   1       0.570  -1.335   1.762  0.00  0.00     0.247 S 
ATOM      4  O   UNL d   1       0.157   0.004   2.118  0.00  0.00    -0.205 OA
ATOM      5  O   UNL d   1      -0.100  -2.488   2.326  0.00  0.00    -0.205 OA
BRANCH   3   6
ATOM      6  C   UNL d   1       2.199  -1.432   2.353  0.00  0.00     0.098 A 
ATOM      7  C   UNL d   1       3.212  -0.547   2.019  0.00  0.00     0.102 A 
ATOM      8  S   UNL d   1       4.670  -0.958   2.841  0.00  0.00    -0.094 SA
ATOM      9  C   UNL d   1       3.939  -2.260   3.663  0.00  0.00     0.052 A 
ATOM     10  C   UNL d   1       2.616  -2.407   3.315  0.00  0.00     0.033 A 
BRANCH   7  11
ATOM     11  C   UNL d   1       3.179   0.574   1.095  0.00  0.00     0.301 C 
ATOM     12  O   UNL d   1       2.415   0.694   0.146  0.00  0.00    -0.259 OA
BRANCH  11  13
ATOM     13  O   UNL d   1       4.138   1.493   1.413  0.00  0.00    -0.322 OA
ATOM     14  C   UNL d   1       4.195   2.620   0.539  0.00  0.00     0.213 C 
ENDBRANCH  11  13
ENDBRANCH   7  11
ENDBRANCH   3   6
ENDBRANCH   1   3
BRANCH   1  15
ATOM     15  C   UNL d   1       0.914  -2.694  -0.507  0.00  0.00     0.023 A 
ATOM     16  C   UNL d   1      -0.008  -3.717  -0.684  0.00  0.00     0.026 A 
ATOM     17  C   UNL d   1       0.387  -4.907  -1.312  0.00  0.00     0.031 A 
ATOM     18  C   UNL d   1       1.702  -5.110  -1.762  0.00  0.00     0.030 A 
ATOM     19  C   UNL d   1       2.611  -4.064  -1.539  0.00  0.00     0.031 A 
ATOM     20  C   UNL d   1       2.229  -2.870  -0.916  0.00  0.00     0.026 A 
BRANCH  18  21
ATOM     21  N   UNL d   1       2.086  -6.281  -2.386  0.00  0.00    -0.381 N 
ATOM     22  C   UNL d   1       3.436  -6.829  -2.250  0.00  0.00     0.123 C 
ATOM     23  C   UNL d   1       3.339  -8.256  -1.707  0.00  0.00     0.020 C 
ATOM     24  C   UNL d   1       2.412  -9.123  -2.559  0.00  0.00     0.003 C 
ATOM     25  C   UNL d   1       1.045  -8.461  -2.741  0.00  0.00     0.020 C 
ATOM     26  C   UNL d   1       1.187  -7.033  -3.263  0.00  0.00     0.123 C 
ENDBRANCH  18  21
ENDBRANCH   1  15
TORSDOF 6
