REMARK  4 active torsions:
REMARK  status: ('A' for Active; 'I' for Inactive)
REMARK    1  A    between atoms: N_2  and  S_1 
REMARK    2  A    between atoms: C_4  and  S_1 
REMARK       I    between atoms: C_3  and  N_2 
REMARK       I    between atoms: N_7  and  C_3 
REMARK    3  A    between atoms: N_9  and  N_7 
REMARK    4  A    between atoms: C_8  and  N_9 
ROOT
ATOM      1  N   UNL d   1       0.638   0.589  -1.377  0.00  0.00    -0.231 N 
ATOM      2  C   UNL d   1       0.709   1.863  -1.913  0.00  0.00     0.344 C 
ATOM      3  N   UNL d   1       1.530   2.721  -1.204  0.00  0.00    -0.268 N 
ATOM      4  O   UNL d   1       0.138   2.194  -2.944  0.00  0.00    -0.245 OA
ATOM      5  H   UNL d   1       1.143   0.329  -0.538  0.00  0.00     0.183 HD
ATOM      6  H   UNL d   1       2.183   2.333  -0.538  0.00  0.00     0.186 HD
ENDROOT
BRANCH   1   7
ATOM      7  S   UNL d   1      -0.404  -0.599  -1.886  0.00  0.00     0.266 S 
ATOM      8  O   UNL d   1      -1.744  -0.061  -1.951  0.00  0.00    -0.200 OA
ATOM      9  O   UNL d   1      -0.110  -1.739  -1.043  0.00  0.00    -0.200 OA
BRANCH   7  10
ATOM     10  C   UNL d   1       0.136  -1.015  -3.529  0.00  0.00     0.080 A 
ATOM     11  C   UNL d   1       1.162  -1.952  -3.705  0.00  0.00     0.027 A 
ATOM     12  C   UNL d   1       1.498  -2.374  -4.994  0.00  0.00     0.025 A 
ATOM     13  C   UNL d   1       0.803  -1.871  -6.095  0.00  0.00     0.034 A 
ATOM     14  C   UNL d   1      -0.221  -0.941  -5.921  0.00  0.00     0.025 A 
ATOM     15 CL   UNL d   1       1.198  -2.421  -7.677  0.00  0.00    -0.084 Cl
ATOM     16  C   UNL d   1      -0.560  -0.512  -4.634  0.00  0.00     0.027 A 
ENDBRANCH   7  10
ENDBRANCH   1   7
BRANCH   3  17
ATOM     17  N   UNL d   1       1.959   3.880  -1.887  0.00  0.00    -0.202 NA
ATOM     18  H   UNL d   1       1.338   4.077  -2.685  0.00  0.00     0.153 HD
BRANCH  17  19
ATOM     19  C   UNL d   1       2.165   5.031  -1.086  0.00  0.00     0.031 A 
ATOM     20  C   UNL d   1       2.661   4.979   0.224  0.00  0.00     0.049 A 
ATOM     21  C   UNL d   1       2.980   6.156   0.911  0.00  0.00     0.037 A 
ATOM     22 CL   UNL d   1       3.599   6.060   2.516  0.00  0.00    -0.084 Cl
ATOM     23  C   UNL d   1       2.830   7.401   0.310  0.00  0.00     0.047 A 
ATOM     24  C   UNL d   1       2.362   7.460  -0.996  0.00  0.00     0.037 A 
ATOM     25  C   UNL d   1       2.045   6.292  -1.694  0.00  0.00     0.049 A 
ATOM     26 CL   UNL d   1       2.195   8.987  -1.773  0.00  0.00    -0.084 Cl
ENDBRANCH  17  19
ENDBRANCH   3  17
TORSDOF 4
