REMARK  2 active torsions:
REMARK  status: ('A' for Active; 'I' for Inactive)
REMARK    1  A    between atoms: C_11  and  C_4 
REMARK    2  A    between atoms: O_14  and  C_12 
ROOT
ATOM      1  C   UNL d   1      -1.101  -0.802   0.025  0.00  0.00     0.189 C 
ATOM      2  C   UNL d   1      -2.078   0.330   0.049  0.00  0.00    -0.006 C 
ATOM      3  C   UNL d   1       0.343  -0.425   0.022  0.00  0.00     0.023 A 
ATOM      4  C   UNL d   1      -3.285   0.122  -0.505  0.00  0.00     0.022 C 
ATOM      5  C   UNL d   1       0.735   0.925  -0.028  0.00  0.00    -0.043 A 
ATOM      6  C   UNL d   1       1.306  -1.445   0.034  0.00  0.00     0.052 A 
ATOM      7  C   UNL d   1      -1.567   1.605   0.654  0.00  0.00     0.047 C 
ATOM      8  O   UNL d   1      -1.454  -1.975  -0.012  0.00  0.00    -0.287 OA
ATOM      9  C   UNL d   1      -0.289   2.030  -0.057  0.00  0.00     0.044 C 
ATOM     10  C   UNL d   1       2.096   1.236  -0.100  0.00  0.00     0.011 A 
ATOM     11  C   UNL d   1       2.663  -1.125  -0.019  0.00  0.00     0.069 A 
ATOM     12  C   UNL d   1       3.049   0.216  -0.090  0.00  0.00     0.037 A 
ENDROOT
BRANCH   4  13
ATOM     13  C   UNL d   1      -4.288   1.177  -0.650  0.00  0.00    -0.036 A 
ATOM     14  C   UNL d   1      -4.279   1.987  -1.792  0.00  0.00     0.011 A 
ATOM     15  C   UNL d   1      -5.196   3.030  -1.920  0.00  0.00     0.001 A 
ATOM     16  C   UNL d   1      -6.126   3.267  -0.908  0.00  0.00     0.000 A 
ATOM     17  C   UNL d   1      -6.141   2.460   0.230  0.00  0.00     0.001 A 
ATOM     18  C   UNL d   1      -5.223   1.416   0.360  0.00  0.00     0.011 A 
ENDBRANCH   4  13
BRANCH  11  19
ATOM     19  O   UNL d   1       3.700  -2.016  -0.014  0.00  0.00    -0.356 OA
ATOM     20  C   UNL d   1       3.361  -3.395   0.062  0.00  0.00     0.210 C 
ENDBRANCH  11  19
TORSDOF 2
