REMARK  4 active torsions:
REMARK  status: ('A' for Active; 'I' for Inactive)
REMARK    1  A    between atoms: N_2  and  S_1 
REMARK    2  A    between atoms: C_7  and  S_1 
REMARK       I    between atoms: C_3  and  N_2 
REMARK       I    between atoms: N_5  and  C_3 
REMARK       I    between atoms: C_4  and  N_6 
REMARK    3  A    between atoms: O_8  and  C_4 
REMARK    4  A    between atoms: C_15  and  O_8 
ROOT
ATOM      1  N   UNL d   1       1.112   0.373  -1.907  0.00  0.00    -0.232 N 
ATOM      2  C   UNL d   1       0.684   1.689  -1.737  0.00  0.00     0.332 C 
ATOM      3  C   UNL d   1       4.213   5.593  -0.488  0.00  0.00     0.363 C 
ATOM      4  N   UNL d   1       1.633   2.605  -1.299  0.00  0.00    -0.332 N 
ATOM      5  N   UNL d   1       3.607   4.865  -1.508  0.00  0.00    -0.326 N 
ATOM      6  O   UNL d   1      -0.466   2.023  -1.993  0.00  0.00    -0.246 OA
ATOM      7  O   UNL d   1       5.396   5.483  -0.193  0.00  0.00    -0.238 OA
ATOM      8  C   UNL d   1       1.251   4.021  -1.171  0.00  0.00     0.147 C 
ATOM      9  C   UNL d   1       2.195   5.008  -1.879  0.00  0.00     0.148 C 
ATOM     10  C   UNL d   1       4.043   2.400  -1.815  0.00  0.00     0.040 C 
ATOM     11  C   UNL d   1       4.368   3.844  -2.215  0.00  0.00     0.129 C 
ATOM     12  C   UNL d   1       2.945   2.238  -0.772  0.00  0.00     0.129 C 
ATOM     13  H   UNL d   1       2.091   0.129  -1.896  0.00  0.00     0.183 HD
ENDROOT
BRANCH   1  14
ATOM     14  S   UNL d   1       0.180  -0.861  -2.531  0.00  0.00     0.266 S 
ATOM     15  O   UNL d   1      -0.962  -1.082  -1.666  0.00  0.00    -0.200 OA
ATOM     16  O   UNL d   1       1.102  -1.932  -2.836  0.00  0.00    -0.200 OA
BRANCH  14  17
ATOM     17  C   UNL d   1      -0.358  -0.176  -4.073  0.00  0.00     0.080 A 
ATOM     18  C   UNL d   1       0.597   0.065  -5.064  0.00  0.00     0.026 A 
ATOM     19  C   UNL d   1       0.237   0.798  -6.192  0.00  0.00     0.008 A 
ATOM     20  C   UNL d   1      -1.074   1.275  -6.334  0.00  0.00    -0.062 A 
ATOM     21  C   UNL d   1      -2.037   0.954  -5.367  0.00  0.00     0.008 A 
ATOM     22  C   UNL d   1      -1.423   2.160  -7.494  0.00  0.00     0.048 C 
ATOM     23  C   UNL d   1      -1.684   0.223  -4.235  0.00  0.00     0.026 A 
ENDBRANCH  14  17
ENDBRANCH   1  14
BRANCH   3  24
ATOM     24  O   UNL d   1       3.350   6.439   0.133  0.00  0.00    -0.294 OA
BRANCH  24  25
ATOM     25  C   UNL d   1       3.817   7.428   1.097  0.00  0.00     0.061 C 
ATOM     26  C   UNL d   1       4.805   8.409   0.449  0.00  0.00     0.046 C 
ATOM     27  C   UNL d   1       2.546   8.189   1.514  0.00  0.00     0.046 C 
ATOM     28  C   UNL d   1       4.426   6.789   2.352  0.00  0.00     0.046 C 
ENDBRANCH  24  25
ENDBRANCH   3  24
TORSDOF 4
