REMARK  6 active torsions:
REMARK  status: ('A' for Active; 'I' for Inactive)
REMARK    1  A    between atoms: C_4  and  S_1 
REMARK    2  A    between atoms: N_9  and  S_1 
REMARK       I    between atoms: C_2  and  N_3 
REMARK    3  A    between atoms: C_7  and  C_2 
REMARK    4  A    between atoms: N_3  and  C_13 
REMARK    5  A    between atoms: O_8  and  C_7 
REMARK    6  A    between atoms: C_14  and  O_8 
ROOT
ATOM      1  C   UNL d   1      -1.567   2.987  -5.561  0.00  0.00     0.251 C 
ATOM      2  N   UNL d   1      -0.966   3.124  -4.314  0.00  0.00    -0.325 N 
ATOM      3  O   UNL d   1      -1.860   3.905  -6.321  0.00  0.00    -0.270 OA
ATOM      4  H   UNL d   1      -0.828   2.270  -3.786  0.00  0.00     0.169 HD
ENDROOT
BRANCH   2   5
ATOM      5  C   UNL d   1      -0.456   4.304  -3.733  0.00  0.00     0.034 A 
ATOM      6  C   UNL d   1      -0.623   5.581  -4.276  0.00  0.00     0.031 A 
ATOM      7  C   UNL d   1      -0.041   6.699  -3.666  0.00  0.00     0.027 A 
ATOM      8  C   UNL d   1       0.727   6.537  -2.513  0.00  0.00     0.074 A 
ATOM      9  C   UNL d   1       0.881   5.272  -1.942  0.00  0.00     0.027 A 
ATOM     10  C   UNL d   1       0.288   4.163  -2.552  0.00  0.00     0.031 A 
BRANCH   8  11
ATOM     11  S   UNL d   1       1.466   7.942  -1.735  0.00  0.00     0.239 S 
ATOM     12  O   UNL d   1       1.691   7.645  -0.338  0.00  0.00    -0.206 OA
ATOM     13  O   UNL d   1       0.795   9.142  -2.173  0.00  0.00    -0.206 OA
BRANCH  11  14
ATOM     14  N   UNL d   1       2.986   7.974  -2.446  0.00  0.00    -0.225 NA
ATOM     15  H   UNL d   1       3.704   7.808  -1.741  0.00  0.00     0.136 HD
ATOM     16  H   UNL d   1       3.108   8.849  -2.957  0.00  0.00     0.136 HD
ENDBRANCH  11  14
ENDBRANCH   8  11
ENDBRANCH   2   5
BRANCH   1  17
ATOM     17  C   UNL d   1      -1.764   1.505  -5.943  0.00  0.00     0.217 C 
ATOM     18  C   UNL d   1      -2.045   1.353  -7.433  0.00  0.00     0.050 C 
BRANCH  17  19
ATOM     19  O   UNL d   1      -2.885   0.985  -5.230  0.00  0.00    -0.337 OA
BRANCH  19  20
ATOM     20  C   UNL d   1      -2.701   0.029  -4.276  0.00  0.00     0.070 A 
ATOM     21  C   UNL d   1      -3.752  -0.080  -3.360  0.00  0.00     0.038 A 
ATOM     22  C   UNL d   1      -3.691  -0.994  -2.305  0.00  0.00     0.021 A 
ATOM     23  C   UNL d   1      -2.573  -1.812  -2.171  0.00  0.00     0.006 A 
ATOM     24  C   UNL d   1      -1.539  -1.743  -3.104  0.00  0.00     0.021 A 
ATOM     25  I   UNL d   1      -2.443  -3.139  -0.579  0.00  0.00    -0.045 I 
ATOM     26  C   UNL d   1      -1.611  -0.832  -4.165  0.00  0.00     0.038 A 
ENDBRANCH  19  20
ENDBRANCH  17  19
ENDBRANCH   1  17
TORSDOF 6
