REMARK  3 active torsions:
REMARK  status: ('A' for Active; 'I' for Inactive)
REMARK    1  A    between atoms: C_3  and  C_1 
REMARK       I    between atoms: N_5  and  C_3 
REMARK    2  A    between atoms: C_18  and  N_5 
REMARK    3  A    between atoms: C_8  and  C_18 
ROOT
ATOM      1  C   UNL d   1       0.455   1.661   0.046  0.00  0.00     0.069 A 
ATOM      2  C   UNL d   1      -0.572   0.703  -0.016  0.00  0.00     0.096 A 
ATOM      3  C   UNL d   1      -0.249  -0.669  -0.045  0.00  0.00     0.003 A 
ATOM      4  C   UNL d   1       1.794   1.221   0.055  0.00  0.00     0.062 A 
ATOM      5  O   UNL d   1      -1.881   1.114  -0.028  0.00  0.00    -0.325 OA
ATOM      6  C   UNL d   1       1.090  -1.079  -0.053  0.00  0.00     0.054 A 
ATOM      7  C   UNL d   1       2.097  -0.130   0.001  0.00  0.00     0.118 A 
ATOM      8  O   UNL d   1      -2.566  -1.144   0.325  0.00  0.00    -0.362 OA
ATOM      9  C   UNL d   1      -2.804   0.074  -0.366  0.00  0.00     0.345 C 
ATOM     10  C   UNL d   1      -1.335  -1.702  -0.105  0.00  0.00     0.212 C 
ATOM     11  F   UNL d   1       3.377  -0.523  -0.004  0.00  0.00    -0.206 F 
ENDROOT
BRANCH   1  12
ATOM     12  C   UNL d   1       0.277   3.143   0.077  0.00  0.00     0.254 C 
ATOM     13  N   UNL d   1      -0.984   3.698   0.148  0.00  0.00    -0.352 N 
ATOM     14  H   UNL d   1      -1.803   3.111   0.260  0.00  0.00     0.163 HD
ATOM     15  O   UNL d   1       1.278   3.857   0.053  0.00  0.00    -0.268 OA
BRANCH  13  16
ATOM     16  C   UNL d   1      -1.068   5.135   0.265  0.00  0.00     0.169 C 
BRANCH  16  17
ATOM     17  C   UNL d   1      -2.445   5.721   0.289  0.00  0.00     0.000 A 
ATOM     18  S   UNL d   1      -3.886   4.801   0.317  0.00  0.00    -0.105 SA
ATOM     19  C   UNL d   1      -4.865   6.208   0.357  0.00  0.00     0.050 A 
ATOM     20  C   UNL d   1      -4.115   7.361   0.350  0.00  0.00     0.008 A 
ATOM     21  C   UNL d   1      -2.722   7.079   0.309  0.00  0.00     0.017 A 
ENDBRANCH  16  17
ENDBRANCH  13  16
ENDBRANCH   1  12
TORSDOF 3
