REMARK  5 active torsions:
REMARK  status: ('A' for Active; 'I' for Inactive)
REMARK    1  A    between atoms: C_2  and  S_1 
REMARK    2  A    between atoms: N_3  and  S_1 
REMARK       I    between atoms: C_5  and  N_4 
REMARK    3  A    between atoms: O_17  and  C_5 
REMARK    4  A    between atoms: O_20  and  C_11 
REMARK    5  A    between atoms: C_21  and  O_17 
ROOT
ATOM      1  S   UNL d   1       1.286   0.137  -0.123  0.00  0.00     0.263 S 
ATOM      2  O   UNL d   1       0.713   1.122   0.772  0.00  0.00    -0.200 OA
ATOM      3  O   UNL d   1       1.591  -1.211   0.301  0.00  0.00    -0.200 OA
ENDROOT
BRANCH   1   4
ATOM      4  C   UNL d   1       2.788   0.826  -0.790  0.00  0.00     0.114 A 
ATOM      5  C   UNL d   1       2.793   1.085  -2.182  0.00  0.00     0.052 A 
ATOM      6  C   UNL d   1       3.895   1.651  -2.813  0.00  0.00     0.035 A 
ATOM      7 CL   UNL d   1       3.837   1.985  -4.497  0.00  0.00    -0.084 Cl
ATOM      8  C   UNL d   1       5.029   1.952  -2.082  0.00  0.00     0.026 A 
ATOM      9  C   UNL d   1       5.041   1.681  -0.714  0.00  0.00     0.040 A 
ATOM     10  C   UNL d   1       3.934   1.120  -0.037  0.00  0.00     0.091 A 
BRANCH  10  11
ATOM     11  O   UNL d   1       4.252   0.993   1.280  0.00  0.00    -0.354 OA
ATOM     12  C   UNL d   1       3.415   0.393   2.245  0.00  0.00     0.210 C 
ENDBRANCH  10  11
ENDBRANCH   1   4
BRANCH   1  13
ATOM     13  N   UNL d   1       0.250   0.032  -1.458  0.00  0.00    -0.304 N 
ATOM     14  C   UNL d   1      -0.639   1.188  -1.757  0.00  0.00     0.155 C 
ATOM     15  C   UNL d   1      -1.995   1.018  -1.061  0.00  0.00     0.148 C 
ATOM     16  N   UNL d   1      -2.589  -0.291  -1.362  0.00  0.00    -0.325 N 
ATOM     17  C   UNL d   1      -1.726  -1.457  -1.163  0.00  0.00     0.148 C 
ATOM     18  C   UNL d   1      -3.908  -0.468  -1.723  0.00  0.00     0.362 C 
ATOM     19  C   UNL d   1      -0.353  -1.275  -1.823  0.00  0.00     0.155 C 
ATOM     20  O   UNL d   1      -4.416  -1.561  -1.935  0.00  0.00    -0.238 OA
BRANCH  18  21
ATOM     21  O   UNL d   1      -4.553   0.715  -1.901  0.00  0.00    -0.304 OA
BRANCH  21  22
ATOM     22  C   UNL d   1      -5.740   0.651  -2.702  0.00  0.00     0.176 C 
ATOM     23  C   UNL d   1      -5.324   0.725  -4.161  0.00  0.00     0.034 C 
ENDBRANCH  21  22
ENDBRANCH  18  21
ENDBRANCH   1  13
TORSDOF 5
