REMARK  3 active torsions:
REMARK  status: ('A' for Active; 'I' for Inactive)
REMARK    1  A    between atoms: N_4  and  C_15 
REMARK    2  A    between atoms: C_10  and  C_7 
REMARK    3  A    between atoms: C_17  and  C_8 
ROOT
ATOM      1  N   UNL d   1       1.417  -0.626  -0.043  0.00  0.00    -0.348 N 
ATOM      2  HN  UNL d   1       2.307  -1.125  -0.032  1.00  0.00     0.166 HD
ATOM      3  C   UNL d   1       0.230  -1.204  -0.056  0.00  0.00     0.091 A 
ATOM      4  S   UNL d   1      -1.433  -3.441  -0.116  0.00  0.00    -0.086 SA
ATOM      5  C   UNL d   1       0.084  -2.643  -0.042  0.00  0.00     0.039 A 
ATOM      6  C   UNL d   1      -0.738  -5.000   0.033  0.00  0.00     0.022 A 
ATOM      7  C   UNL d   1       1.285   0.756  -0.046  0.00  0.00     0.050 A 
ATOM      8  S   UNL d   1      -1.103  -0.112  -0.056  0.00  0.00    -0.081 SA
ATOM      9  C   UNL d   1      -0.019   1.208  -0.021  0.00  0.00     0.082 A 
ATOM     10  C   UNL d   1       1.110  -3.567   0.037  0.00  0.00     0.023 A 
ATOM     11  C   UNL d   1       0.640  -4.914   0.089  0.00  0.00     0.021 A 
ENDROOT
BRANCH   7  12
ATOM     12  C   UNL d   1       2.450   1.635  -0.066  0.00  0.00    -0.009 A 
ATOM     13  C   UNL d   1       2.378   2.928  -0.611  0.00  0.00     0.016 A 
ATOM     14  C   UNL d   1       3.504   3.755  -0.650  0.00  0.00     0.037 A 
ATOM     15  C   UNL d   1       4.722   3.287  -0.144  0.00  0.00     0.102 A 
ATOM     16  C   UNL d   1       4.814   2.003   0.408  0.00  0.00     0.037 A 
ATOM     17  C   UNL d   1       3.679   1.183   0.440  0.00  0.00     0.016 A 
BRANCH  15  18
ATOM     18  N   UNL d   1       5.909   4.149  -0.204  0.00  0.00    -0.116 N 
ATOM     19  O   UNL d   1       5.780   5.274  -0.706  0.00  0.00    -0.532 OA
ATOM     20  O   UNL d   1       6.971   3.698   0.250  0.00  0.00    -0.532 OA
ENDBRANCH  15  18
ENDBRANCH   7  12
BRANCH   6  21
ATOM     21  C   UNL d   1      -1.564  -6.185   0.108  0.00  0.00     0.021 A 
ATOM     22  S   UNL d   1      -1.038  -7.594   0.941  0.00  0.00    -0.101 SA
ATOM     23  C   UNL d   1      -2.505  -8.414   0.640  0.00  0.00     0.050 A 
ATOM     24  C   UNL d   1      -3.379  -7.652  -0.101  0.00  0.00     0.008 A 
ATOM     25  C   UNL d   1      -2.835  -6.371  -0.410  0.00  0.00     0.021 A 
ENDBRANCH   6  21
TORSDOF 3
