REMARK  2 active torsions:
REMARK  status: ('A' for Active; 'I' for Inactive)
REMARK    1  A    between atoms: C_7  and  C_3 
REMARK    2  A    between atoms: C_11  and  C_5 
ROOT
ATOM      1  N   UNL d   1      -0.449   1.635  -0.764  0.00  0.00    -0.358 N 
ATOM      2  HN  UNL d   1      -0.267   2.229  -1.573  1.00  0.00     0.166 HD
ATOM      3  C   UNL d   1      -2.367  -0.581   0.608  0.00  0.00     0.092 C 
ATOM      4  S   UNL d   1      -1.185  -1.485  -0.495  0.00  0.00    -0.118 SA
ATOM      5  C   UNL d   1      -1.595   1.718  -0.153  0.00  0.00     0.021 C 
ATOM      6  C   UNL d   1      -1.961   0.839   1.035  0.00  0.00     0.078 C 
ATOM      7  C   UNL d   1       0.545   0.739  -0.325  0.00  0.00     0.049 A 
ATOM      8  C   UNL d   1       0.360  -0.650  -0.161  0.00  0.00     0.028 A 
ATOM      9  C   UNL d   1       1.821   1.278  -0.104  0.00  0.00     0.031 A 
ATOM     10  C   UNL d   1       1.444  -1.456   0.217  0.00  0.00     0.021 A 
ATOM     11  C   UNL d   1       2.891   0.470   0.283  0.00  0.00     0.002 A 
ATOM     12  C   UNL d   1       2.703  -0.898   0.444  0.00  0.00     0.002 A 
ENDROOT
BRANCH   3  13
ATOM     13  C   UNL d   1      -3.799  -0.609   0.051  0.00  0.00    -0.033 A 
ATOM     14  C   UNL d   1      -4.941  -0.862   0.879  0.00  0.00    -0.018 A 
ATOM     15  C   UNL d   1      -6.237  -0.777   0.295  0.00  0.00    -0.025 A 
ATOM     16  C   UNL d   1      -4.889  -1.201   2.254  0.00  0.00     0.013 A 
ATOM     17  C   UNL d   1      -7.386  -1.022   1.064  0.00  0.00     0.012 A 
ATOM     18  C   UNL d   1      -6.385  -0.451  -1.058  0.00  0.00     0.012 A 
ATOM     19  C   UNL d   1      -7.292  -1.367   2.408  0.00  0.00     0.001 A 
ATOM     20  C   UNL d   1      -6.043  -1.459   3.003  0.00  0.00     0.001 A 
ATOM     21  C   UNL d   1      -5.277  -0.225  -1.861  0.00  0.00     0.002 A 
ATOM     22  C   UNL d   1      -4.003  -0.304  -1.313  0.00  0.00     0.009 A 
ENDBRANCH   3  13
BRANCH   5  23
ATOM     23  C   UNL d   1      -2.614   2.680  -0.688  0.00  0.00    -0.013 A 
ATOM     24  C   UNL d   1      -2.616   2.955  -2.064  0.00  0.00     0.015 A 
ATOM     25  C   UNL d   1      -3.611   3.761  -2.625  0.00  0.00     0.024 A 
ATOM     26  C   UNL d   1      -4.597   4.308  -1.809  0.00  0.00     0.034 A 
ATOM     27  C   UNL d   1      -4.579   4.081  -0.435  0.00  0.00     0.024 A 
ATOM     28 CL   UNL d   1      -5.848   5.265  -2.500  0.00  0.00    -0.084 Cl
ATOM     29  C   UNL d   1      -3.585   3.272   0.128  0.00  0.00     0.015 A 
ENDBRANCH   5  23
TORSDOF 2
