REMARK  3 active torsions:
REMARK  status: ('A' for Active; 'I' for Inactive)
REMARK    1  A    between atoms: C_5  and  C_1 
REMARK       I    between atoms: N_9  and  C_5 
REMARK       I    between atoms: C_8  and  N_10 
REMARK    2  A    between atoms: C_11  and  C_8 
REMARK    3  A    between atoms: N_10  and  N_9 
ROOT
ATOM      1  C   UNL d   1      -0.136  -2.662   1.140  0.00  0.00     0.249 C 
ATOM      2  N   UNL d   1       0.310  -2.239   2.378  0.00  0.00    -0.266 N 
ATOM      3  O   UNL d   1      -0.671  -3.766   0.995  0.00  0.00    -0.271 OA
ATOM      4  H   UNL d   1       0.959  -1.459   2.487  0.00  0.00     0.190 HD
ENDROOT
BRANCH   1   5
ATOM      5  C   UNL d   1      -0.029  -1.650  -0.015  0.00  0.00     0.151 A 
ATOM      6  C   UNL d   1       1.237  -0.820   0.019  0.00  0.00    -0.006 A 
ATOM      7  C   UNL d   1       1.164   0.574   0.073  0.00  0.00     0.083 A 
ATOM      8  C   UNL d   1       2.502  -1.431  -0.014  0.00  0.00     0.011 A 
ATOM      9  C   UNL d   1       2.328   1.346   0.092  0.00  0.00     0.038 A 
ATOM     10  O   UNL d   1      -0.014   1.275   0.119  0.00  0.00    -0.310 OA
ATOM     11  C   UNL d   1       3.578   0.731   0.067  0.00  0.00     0.003 A 
ATOM     12  C   UNL d   1       3.664  -0.658   0.018  0.00  0.00     0.001 A 
ATOM     13  C   UNL d   1      -1.196   0.590  -0.009  0.00  0.00     0.083 A 
ATOM     14  C   UNL d   1      -1.280  -0.800  -0.098  0.00  0.00    -0.006 A 
ATOM     15  C   UNL d   1      -2.350   1.376  -0.053  0.00  0.00     0.038 A 
ATOM     16  C   UNL d   1      -2.545  -1.390  -0.269  0.00  0.00     0.011 A 
ATOM     17  C   UNL d   1      -3.697  -0.604  -0.316  0.00  0.00     0.001 A 
ATOM     18  C   UNL d   1      -3.601   0.780  -0.201  0.00  0.00     0.003 A 
ENDBRANCH   1   5
BRANCH   2  19
ATOM     19  N   UNL d   1       0.251  -3.150   3.443  0.00  0.00    -0.263 N 
ATOM     20  C   UNL d   1       1.279  -3.151   4.364  0.00  0.00     0.270 C 
ATOM     21  O   UNL d   1       2.235  -2.383   4.309  0.00  0.00    -0.266 OA
ATOM     22  H   UNL d   1      -0.360  -3.955   3.307  0.00  0.00     0.190 HD
BRANCH  20  23
ATOM     23  C   UNL d   1       1.175  -4.154   5.457  0.00  0.00     0.036 A 
ATOM     24  C   UNL d   1       2.351  -4.658   6.022  0.00  0.00     0.059 A 
ATOM     25  C   UNL d   1       2.267  -5.557   7.079  0.00  0.00     0.117 A 
ATOM     26  F   UNL d   1       3.390  -6.046   7.620  0.00  0.00    -0.206 F 
ATOM     27  C   UNL d   1       1.036  -5.954   7.592  0.00  0.00     0.042 A 
ATOM     28  C   UNL d   1      -0.139  -5.445   7.038  0.00  0.00     0.004 A 
ATOM     29  C   UNL d   1      -0.071  -4.546   5.970  0.00  0.00     0.017 A 
ENDBRANCH  20  23
ENDBRANCH   2  19
TORSDOF 3
