REMARK  5 active torsions:
REMARK  status: ('A' for Active; 'I' for Inactive)
REMARK    1  A    between atoms: N_8  and  S_1 
REMARK    2  A    between atoms: C_13  and  S_1 
REMARK    3  A    between atoms: C_2  and  C_7 
REMARK       I    between atoms: C_7  and  N_10 
REMARK    4  A    between atoms: N_10  and  N_8 
REMARK    5  A    between atoms: C_14  and  C_9 
ROOT
ATOM      1  C   UNL d   1       0.537  -0.539  -3.960  0.00  0.00     0.288 C 
ATOM      2  N   UNL d   1       0.209   0.468  -3.075  0.00  0.00    -0.255 N 
ATOM      3  O   UNL d   1       1.574  -0.509  -4.625  0.00  0.00    -0.264 OA
ATOM      4  H   UNL d   1      -0.651   0.468  -2.534  0.00  0.00     0.191 HD
ENDROOT
BRANCH   1   5
ATOM      5  C   UNL d   1      -0.406  -1.624  -4.045  0.00  0.00     0.119 A 
ATOM      6  C   UNL d   1      -1.576  -1.927  -3.373  0.00  0.00     0.064 A 
ATOM      7  C   UNL d   1      -2.011  -3.179  -3.889  0.00  0.00     0.035 A 
ATOM      8  N   UNL d   1      -1.189  -3.600  -4.859  0.00  0.00    -0.303 N 
ATOM      9  N   UNL d   1      -0.234  -2.660  -4.921  0.00  0.00    -0.295 N 
ATOM     10  HN  UNL d   1      -1.271  -4.445  -5.424  1.00  0.00     0.186 HD
ATOM     11  H   UNL d   1       0.526  -2.777  -5.586  0.00  0.00     0.187 HD
BRANCH   7  12
ATOM     12  C   UNL d   1      -3.233  -3.999  -3.492  0.00  0.00    -0.007 C 
ATOM     13  C   UNL d   1      -4.431  -3.614  -4.381  0.00  0.00     0.021 C 
ATOM     14  C   UNL d   1      -2.972  -5.514  -3.649  0.00  0.00     0.021 C 
ATOM     15  C   UNL d   1      -3.615  -3.751  -2.017  0.00  0.00     0.021 C 
ENDBRANCH   7  12
ENDBRANCH   1   5
BRANCH   2  16
ATOM     16  N   UNL d   1       1.125   1.576  -2.876  0.00  0.00    -0.220 N 
ATOM     17  H   UNL d   1       2.018   1.590  -3.378  0.00  0.00     0.200 HD
BRANCH  16  18
ATOM     18  S   UNL d   1       0.724   2.775  -1.764  0.00  0.00     0.276 S 
ATOM     19  O   UNL d   1       0.604   2.137  -0.470  0.00  0.00    -0.199 OA
ATOM     20  O   UNL d   1      -0.383   3.525  -2.320  0.00  0.00    -0.199 OA
BRANCH  18  21
ATOM     21  C   UNL d   1       2.159   3.814  -1.755  0.00  0.00     0.081 A 
ATOM     22  C   UNL d   1       2.242   4.884  -2.652  0.00  0.00     0.025 A 
ATOM     23  C   UNL d   1       3.330   5.756  -2.585  0.00  0.00     0.002 A 
ATOM     24  C   UNL d   1       4.322   5.564  -1.621  0.00  0.00     0.000 A 
ATOM     25  C   UNL d   1       4.232   4.499  -0.724  0.00  0.00     0.002 A 
ATOM     26  C   UNL d   1       3.148   3.622  -0.785  0.00  0.00     0.025 A 
ENDBRANCH  18  21
ENDBRANCH  16  18
ENDBRANCH   2  16
TORSDOF 5
