REMARK  2 active torsions:
REMARK  status: ('A' for Active; 'I' for Inactive)
REMARK    1  A    between atoms: S_9  and  C_4 
REMARK    2  A    between atoms: C_12  and  S_9 
ROOT
ATOM      1  N   UNL d   1      -0.559   1.218  -0.006  0.00  0.00    -0.303 N 
ATOM      2  C   UNL d   1      -1.352   0.115  -0.009  0.00  0.00     0.255 A 
ATOM      3  C   UNL d   1      -0.637  -1.186  -0.013  0.00  0.00     0.028 A 
ATOM      4  C   UNL d   1       0.792   1.128  -0.039  0.00  0.00     0.147 A 
ATOM      5  N   UNL d   1       1.448   0.019  -0.055  0.00  0.00    -0.340 N 
ATOM      6  HN  UNL d   1       2.467   0.003  -0.085  1.00  0.00     0.167 HD
ATOM      7  C   UNL d   1       0.711  -1.145  -0.029  0.00  0.00     0.018 A 
ATOM      8  O   UNL d   1      -2.575   0.200  -0.007  0.00  0.00    -0.268 OA
ATOM      9  C   UNL d   1      -1.456  -2.439   0.005  0.00  0.00     0.056 C 
ATOM     10  C   UNL d   1       1.535  -2.406  -0.011  0.00  0.00     0.069 C 
ATOM     11  H   UNL d   1      -0.999   2.124   0.002  0.00  0.00     0.171 HD
ENDROOT
BRANCH   4  12
ATOM     12  S   UNL d   1       1.555   2.687  -0.042  0.00  0.00    -0.094 SA
BRANCH  12  13
ATOM     13  C   UNL d   1       3.137   2.276  -0.830  0.00  0.00     0.078 C 
ATOM     14  C   UNL d   1       4.021   3.512  -0.888  0.00  0.00     0.016 C 
ENDBRANCH  12  13
ENDBRANCH   4  12
TORSDOF 2
