REMARK  4 active torsions:
REMARK  status: ('A' for Active; 'I' for Inactive)
REMARK    1  A    between atoms: S_10  and  C_1 
REMARK    2  A    between atoms: C_5  and  C_4 
REMARK    3  A    between atoms: C_9  and  C_5 
REMARK    4  A    between atoms: C_8  and  S_10 
ROOT
ATOM      1  C   UNL d   1       4.293   3.601  -0.206  0.00  0.00     0.063 C 
ATOM      2  C   UNL d   1       3.447   2.567  -0.083  0.00  0.00     0.057 C 
ENDROOT
BRANCH   2   3
ATOM      3  S   UNL d   1       1.737   2.852  -0.064  0.00  0.00    -0.066 SA
BRANCH   3   4
ATOM      4  C   UNL d   1       1.053   1.346  -0.728  0.00  0.00     0.148 A 
ATOM      5  N   UNL d   1      -0.289   1.327  -0.849  0.00  0.00    -0.341 N 
ATOM      6  C   UNL d   1      -0.852   0.217  -1.367  0.00  0.00     0.008 A 
ATOM      7  HN  UNL d   1      -0.857   2.122  -0.560  1.00  0.00     0.167 HD
ATOM      8  C   UNL d   1      -2.344   0.203  -1.507  0.00  0.00     0.068 C 
ATOM      9  C   UNL d   1      -0.102  -0.869  -1.766  0.00  0.00     0.041 A 
ATOM     10  C   UNL d   1       1.260  -0.752  -1.604  0.00  0.00     0.092 A 
ATOM     11  N   UNL d   1       1.863   0.338  -1.093  0.00  0.00    -0.346 N 
ATOM     12  HN  UNL d   1       2.876   0.395  -0.990  1.00  0.00     0.167 HD
ENDBRANCH   3   4
ENDBRANCH   2   3
BRANCH   1  13
ATOM     13  C   UNL d   1       5.764   3.387  -0.193  0.00  0.00     0.182 C 
ATOM     14  O   UNL d   1       6.273   2.396   0.314  0.00  0.00    -0.288 OA
BRANCH  13  15
ATOM     15  C   UNL d   1       6.615   4.455  -0.790  0.00  0.00     0.014 A 
ATOM     16  C   UNL d   1       7.909   4.645  -0.288  0.00  0.00     0.017 A 
ATOM     17  C   UNL d   1       8.750   5.611  -0.852  0.00  0.00     0.019 A 
ATOM     18  C   UNL d   1       8.301   6.378  -1.927  0.00  0.00     0.006 A 
ATOM     19  C   UNL d   1       7.017   6.193  -2.438  0.00  0.00     0.019 A 
ATOM     20  I   UNL d   1       9.559   7.791  -2.789  0.00  0.00    -0.045 I 
ATOM     21  C   UNL d   1       6.174   5.231  -1.872  0.00  0.00     0.017 A 
ENDBRANCH  13  15
ENDBRANCH   1  13
TORSDOF 4
