REMARK  9 active torsions:
REMARK  status: ('A' for Active; 'I' for Inactive)
REMARK    1  A    between atoms: C_2  and  S_1 
REMARK    2  A    between atoms: C_6  and  S_1 
REMARK    3  A    between atoms: C_3  and  C_2 
REMARK    4  A    between atoms: C_5  and  C_2 
REMARK    5  A    between atoms: C_4  and  C_3 
REMARK    6  A    between atoms: C_13  and  C_4 
REMARK    7  A    between atoms: O_16  and  C_8 
REMARK    8  A    between atoms: O_17  and  C_9 
REMARK    9  A    between atoms: N_15  and  C_10 
ROOT
ATOM      1  C   UNL d   1       0.467   1.630  -0.057  0.00  0.00     0.092 C 
ENDROOT
BRANCH   1   2
ATOM      2  S   UNL d   1       1.217  -0.022   0.354  0.00  0.00    -0.118 SA
BRANCH   2   3
ATOM      3  C   UNL d   1       2.930   0.346   0.695  0.00  0.00     0.022 A 
ATOM      4  C   UNL d   1       3.926   0.070  -0.264  0.00  0.00     0.022 A 
ATOM      5  C   UNL d   1       5.272   0.204   0.101  0.00  0.00     0.024 A 
ATOM      6  C   UNL d   1       5.628   0.508   1.416  0.00  0.00     0.002 A 
ATOM      7  C   UNL d   1       4.639   0.736   2.371  0.00  0.00     0.001 A 
ATOM      8  C   UNL d   1       3.294   0.661   2.011  0.00  0.00     0.020 A 
BRANCH   4   9
ATOM      9  N   UNL d   1       3.601  -0.149  -1.618  0.00  0.00    -0.302 NA
ATOM     10  H   UNL d   1       2.639  -0.486  -1.724  0.00  0.00     0.124 HD
ATOM     11  H   UNL d   1       4.261  -0.754  -2.096  0.00  0.00     0.124 HD
ENDBRANCH   4   9
ENDBRANCH   2   3
ENDBRANCH   1   2
BRANCH   1  12
ATOM     12  C   UNL d   1       0.938   2.281  -1.373  0.00  0.00     0.104 C 
BRANCH  12  13
ATOM     13  C   UNL d   1       0.644   1.498  -2.645  0.00  0.00     0.161 C 
ATOM     14  O   UNL d   1       0.434   0.284  -2.643  0.00  0.00    -0.292 OA
BRANCH  13  15
ATOM     15  C   UNL d   1       0.660   2.208  -3.967  0.00  0.00     0.010 A 
ATOM     16  C   UNL d   1       1.030   3.551  -4.117  0.00  0.00     0.015 A 
ATOM     17  C   UNL d   1       1.016   4.148  -5.383  0.00  0.00     0.001 A 
ATOM     18  C   UNL d   1       0.644   3.411  -6.507  0.00  0.00     0.000 A 
ATOM     19  C   UNL d   1       0.284   2.074  -6.370  0.00  0.00     0.001 A 
ATOM     20  C   UNL d   1       0.291   1.476  -5.106  0.00  0.00     0.015 A 
ENDBRANCH  13  15
ENDBRANCH  12  13
ENDBRANCH   1  12
BRANCH   1  21
ATOM     21  C   UNL d   1      -1.068   1.592   0.045  0.00  0.00    -0.041 A 
ATOM     22  C   UNL d   1      -1.812   0.417  -0.185  0.00  0.00     0.048 A 
ATOM     23  C   UNL d   1      -3.204   0.354  -0.003  0.00  0.00     0.102 A 
ATOM     24  C   UNL d   1      -3.893   1.529   0.325  0.00  0.00     0.101 A 
ATOM     25  C   UNL d   1      -3.171   2.716   0.516  0.00  0.00     0.040 A 
ATOM     26  C   UNL d   1      -1.779   2.750   0.384  0.00  0.00     0.011 A 
BRANCH  23  27
ATOM     27  O   UNL d   1      -3.914  -0.814  -0.107  0.00  0.00    -0.353 OA
ATOM     28  C   UNL d   1      -3.180  -2.028  -0.227  0.00  0.00     0.210 C 
ENDBRANCH  23  27
BRANCH  24  29
ATOM     29  O   UNL d   1      -5.240   1.677   0.538  0.00  0.00    -0.353 OA
ATOM     30  C   UNL d   1      -6.105   0.768  -0.133  0.00  0.00     0.210 C 
ENDBRANCH  24  29
ENDBRANCH   1  21
TORSDOF 9
