REMARK  3 active torsions:
REMARK  status: ('A' for Active; 'I' for Inactive)
REMARK    1  A    between atoms: N_10  and  C_3 
REMARK       I    between atoms: C_4  and  N_9 
REMARK    2  A    between atoms: C_15  and  C_4 
REMARK    3  A    between atoms: N_9  and  N_10 
ROOT
ATOM      1  N   UNL d   1       4.141   2.129  -0.584  0.00  0.00    -0.187 NA
ATOM      2  H   UNL d   1       4.663   2.637  -1.303  0.00  0.00     0.154 HD
ENDROOT
BRANCH   1   3
ATOM      3  N   UNL d   1       3.434   3.000   0.261  0.00  0.00    -0.281 N 
ATOM      4  C   UNL d   1       3.671   4.351   0.084  0.00  0.00     0.266 C 
ATOM      5  O   UNL d   1       4.438   4.763  -0.788  0.00  0.00    -0.266 OA
ATOM      6  H   UNL d   1       2.690   2.583   0.813  0.00  0.00     0.184 HD
BRANCH   4   7
ATOM      7  C   UNL d   1       2.961   5.308   0.980  0.00  0.00     0.033 A 
ATOM      8  C   UNL d   1       2.333   4.919   2.169  0.00  0.00     0.017 A 
ATOM      9  C   UNL d   1       1.721   5.878   2.986  0.00  0.00     0.007 A 
ATOM     10  C   UNL d   1       1.735   7.234   2.634  0.00  0.00    -0.062 A 
ATOM     11  C   UNL d   1       2.365   7.620   1.448  0.00  0.00     0.007 A 
ATOM     12  C   UNL d   1       1.087   8.251   3.527  0.00  0.00     0.048 C 
ATOM     13  C   UNL d   1       2.975   6.666   0.630  0.00  0.00     0.017 A 
ENDBRANCH   4   7
ENDBRANCH   1   3
BRANCH   1  14
ATOM     14  C   UNL d   1       3.366   1.075  -1.099  0.00  0.00     0.112 A 
ATOM     15  C   UNL d   1       3.701   0.436  -2.311  0.00  0.00     0.038 A 
ATOM     16  C   UNL d   1       2.897  -0.629  -2.685  0.00  0.00     0.088 A 
ATOM     17  C   UNL d   1       4.742   0.650  -3.281  0.00  0.00     0.025 A 
ATOM     18  N   UNL d   1       1.837  -1.104  -2.012  0.00  0.00    -0.346 N 
ATOM     19  S   UNL d   1       3.391  -1.347  -4.151  0.00  0.00    -0.083 SA
ATOM     20  C   UNL d   1       1.605  -0.424  -0.887  0.00  0.00     0.182 A 
ATOM     21  HN  UNL d   1       1.272  -1.893  -2.326  1.00  0.00     0.167 HD
ATOM     22  N   UNL d   1       2.292   0.622  -0.399  0.00  0.00    -0.341 N 
ATOM     23  HN  UNL d   1       2.015   1.066   0.477  1.00  0.00     0.167 HD
ATOM     24  C   UNL d   1       4.687  -0.246  -4.326  0.00  0.00     0.053 A 
ENDBRANCH   1  14
TORSDOF 3
