REMARK  3 active torsions:
REMARK  status: ('A' for Active; 'I' for Inactive)
REMARK    1  A    between atoms: C_7  and  N_1 
REMARK    2  A    between atoms: C_2  and  C_7 
REMARK    3  A    between atoms: C_15  and  N_3 
ROOT
ATOM      1  N   UNL d   1       0.028  -1.402   0.654  0.00  0.00    -0.338 N 
ATOM      2  S   UNL d   1       0.016   1.698   0.322  0.00  0.00    -0.086 SA
ATOM      3  C   UNL d   1       1.257  -0.803   0.262  0.00  0.00     0.052 A 
ATOM      4  C   UNL d   1      -1.225  -0.807   0.333  0.00  0.00     0.052 A 
ATOM      5  C   UNL d   1       1.380   0.582   0.040  0.00  0.00     0.032 A 
ATOM      6  C   UNL d   1      -1.355   0.576   0.097  0.00  0.00     0.032 A 
ATOM      7  C   UNL d   1      -2.349  -1.625   0.130  0.00  0.00     0.031 A 
ATOM      8  C   UNL d   1       2.365  -1.628   0.000  0.00  0.00     0.031 A 
ATOM      9  C   UNL d   1       2.594   1.119  -0.407  0.00  0.00     0.021 A 
ATOM     10  C   UNL d   1      -2.582   1.111  -0.321  0.00  0.00     0.021 A 
ATOM     11  C   UNL d   1      -3.563  -1.090  -0.306  0.00  0.00     0.002 A 
ATOM     12  C   UNL d   1       3.564  -1.089  -0.470  0.00  0.00     0.002 A 
ATOM     13  C   UNL d   1       3.680   0.284  -0.669  0.00  0.00     0.002 A 
ATOM     14  C   UNL d   1      -3.679   0.278  -0.532  0.00  0.00     0.002 A 
ENDROOT
BRANCH   1  15
ATOM     15  C   UNL d   1       0.083  -1.920   2.047  0.00  0.00     0.207 C 
BRANCH  15  16
ATOM     16  C   UNL d   1      -0.183  -3.414   2.143  0.00  0.00     0.119 A 
ATOM     17  N   UNL d   1      -0.210  -4.064   3.342  0.00  0.00    -0.310 N 
ATOM     18  C   UNL d   1      -0.508  -5.370   3.035  0.00  0.00     0.194 A 
ATOM     19  S   UNL d   1      -0.712  -6.683   4.024  0.00  0.00    -0.039 SA
ATOM     20  N   UNL d   1      -0.616  -5.423   1.658  0.00  0.00    -0.275 N 
ATOM     21  N   UNL d   1      -0.404  -4.194   1.117  0.00  0.00    -0.285 N 
ATOM     22  H   UNL d   1      -0.828  -6.238   1.091  0.00  0.00     0.189 HD
ATOM     23  HN  UNL d   1      -0.414  -3.937   0.130  1.00  0.00     0.188 HD
BRANCH  17  24
ATOM     24  C   UNL d   1       0.065  -3.526   4.674  0.00  0.00     0.128 C 
ATOM     25  C   UNL d   1      -1.201  -3.153   5.429  0.00  0.00     0.027 C 
ENDBRANCH  17  24
ENDBRANCH  15  16
ENDBRANCH   1  15
TORSDOF 3
