REMARK  5 active torsions:
REMARK  status: ('A' for Active; 'I' for Inactive)
REMARK    1  A    between atoms: C_3  and  C_1 
REMARK    2  A    between atoms: C_2  and  C_11 
REMARK    3  A    between atoms: O_16  and  C_3 
REMARK    4  A    between atoms: O_10  and  C_6 
REMARK    5  A    between atoms: C_11  and  O_10 
ROOT
ATOM      1  C   UNL d   1       0.741   1.261   0.034  0.00  0.00     0.055 A 
ATOM      2  N   UNL d   1      -1.277  -0.079   0.027  0.00  0.00    -0.346 N 
ATOM      3  HN  UNL d   1      -2.295  -0.135   0.027  1.00  0.00     0.167 HD
ATOM      4  C   UNL d   1      -0.517  -1.194   0.020  0.00  0.00     0.142 A 
ATOM      5  C   UNL d   1      -0.638   1.119   0.035  0.00  0.00     0.107 A 
ATOM      6  C   UNL d   1       1.507   0.095   0.024  0.00  0.00     0.023 A 
ATOM      7  C   UNL d   1       0.871  -1.149   0.014  0.00  0.00     0.057 A 
ENDROOT
BRANCH   4   8
ATOM      8  O   UNL d   1      -1.249  -2.344  -0.051  0.00  0.00    -0.327 OA
BRANCH   8   9
ATOM      9  C   UNL d   1      -0.700  -3.473   0.634  0.00  0.00     0.294 C 
BRANCH   9  10
ATOM     10  C   UNL d   1      -1.663  -4.658   0.621  0.00  0.00     0.408 C 
ATOM     11  F   UNL d   1      -2.819  -4.403  -0.025  0.00  0.00    -0.169 F 
ATOM     12  F   UNL d   1      -1.087  -5.724   0.013  0.00  0.00    -0.169 F 
ATOM     13  F   UNL d   1      -1.973  -5.042   1.882  0.00  0.00    -0.169 F 
ENDBRANCH   9  10
ENDBRANCH   8   9
ENDBRANCH   4   8
BRANCH   1  14
ATOM     14  C   UNL d   1       1.318   2.622   0.033  0.00  0.00     0.294 C 
ATOM     15  O   UNL d   1       0.642   3.638   0.041  0.00  0.00    -0.259 OA
BRANCH  14  16
ATOM     16  O   UNL d   1       2.672   2.564   0.029  0.00  0.00    -0.322 OA
ATOM     17  C   UNL d   1       3.310   3.842   0.033  0.00  0.00     0.213 C 
ENDBRANCH  14  16
ENDBRANCH   1  14
TORSDOF 5
