REMARK  3 active torsions:
REMARK  status: ('A' for Active; 'I' for Inactive)
REMARK    1  A    between atoms: N_8  and  C_1 
REMARK       I    between atoms: C_5  and  N_8 
REMARK       I    between atoms: N_9  and  C_5 
REMARK    2  A    between atoms: C_11  and  N_9 
REMARK    3  A    between atoms: N_10  and  C_12 
ROOT
ATOM      1  C   UNL d   1       3.042   3.814   0.562  0.00  0.00     0.325 C 
ATOM      2  N   UNL d   1       4.209   4.130  -0.074  0.00  0.00    -0.305 N 
ATOM      3  N   UNL d   1       2.429   2.666   0.149  0.00  0.00    -0.307 N 
ATOM      4  O   UNL d   1       2.427   4.532   1.345  0.00  0.00    -0.247 OA
ATOM      5  H   UNL d   1       4.594   3.415  -0.669  0.00  0.00     0.171 HD
ATOM      6  H   UNL d   1       1.419   2.699   0.248  0.00  0.00     0.170 HD
ENDROOT
BRANCH   3   7
ATOM      7  C   UNL d   1       2.919   1.508  -0.473  0.00  0.00     0.063 A 
ATOM      8  C   UNL d   1       2.100   0.866  -1.442  0.00  0.00     0.057 A 
ATOM      9  C   UNL d   1       2.457  -0.450  -1.779  0.00  0.00     0.031 A 
ATOM     10  C   UNL d   1       3.569  -1.088  -1.215  0.00  0.00     0.002 A 
ATOM     11  C   UNL d   1       4.384  -0.408  -0.315  0.00  0.00     0.002 A 
ATOM     12  C   UNL d   1       4.066   0.897   0.051  0.00  0.00     0.032 A 
BRANCH   8  13
ATOM     13  N   UNL d   1       1.033   1.504  -2.060  0.00  0.00    -0.375 N 
ATOM     14  C   UNL d   1      -0.158   0.798  -2.563  0.00  0.00     0.149 C 
ATOM     15  C   UNL d   1      -0.399   1.148  -4.039  0.00  0.00     0.187 C 
ATOM     16  O   UNL d   1      -0.534   2.567  -4.218  0.00  0.00    -0.388 OA
ATOM     17  C   UNL d   1       0.675   3.227  -3.822  0.00  0.00     0.187 C 
ATOM     18  C   UNL d   1       1.036   2.953  -2.354  0.00  0.00     0.149 C 
ENDBRANCH   8  13
ENDBRANCH   3   7
BRANCH   2  19
ATOM     19  C   UNL d   1       4.829   5.381  -0.137  0.00  0.00     0.092 A 
ATOM     20  C   UNL d   1       4.532   6.611   0.429  0.00  0.00     0.101 A 
ATOM     21  O   UNL d   1       5.462   7.522   0.015  0.00  0.00    -0.240 OA
ATOM     22  C   UNL d   1       3.532   7.225   1.326  0.00  0.00     0.081 C 
ATOM     23  N   UNL d   1       6.363   6.938  -0.836  0.00  0.00    -0.263 N 
ATOM     24  C   UNL d   1       5.989   5.659  -0.931  0.00  0.00     0.058 A 
ATOM     25  HN  UNL d   1       7.154   7.386  -1.299  1.00  0.00     0.194 HD
ATOM     26  C   UNL d   1       6.757   4.756  -1.818  0.00  0.00     0.072 C 
ENDBRANCH   2  19
TORSDOF 3
