REMARK  7 active torsions:
REMARK  status: ('A' for Active; 'I' for Inactive)
REMARK    1  A    between atoms: C_2  and  C_1 
REMARK    2  A    between atoms: C_4  and  C_1 
REMARK    3  A    between atoms: C_3  and  C_2 
REMARK    4  A    between atoms: S_5  and  C_2 
REMARK    5  A    between atoms: O_9  and  C_3 
REMARK    6  A    between atoms: O_11  and  C_4 
REMARK    7  A    between atoms: C_8  and  S_5 
ROOT
ATOM      1  C   UNL d   1       0.480  -0.718   1.229  0.00  0.00     0.160 C 
ENDROOT
BRANCH   1   2
ATOM      2  C   UNL d   1       0.982   0.160   0.077  0.00  0.00     0.136 C 
BRANCH   2   3
ATOM      3  C   UNL d   1       2.475   0.072  -0.050  0.00  0.00     0.141 C 
ATOM      4  O   UNL d   1       3.182  -0.614   0.680  0.00  0.00    -0.650 OA
BRANCH   3   5
ATOM      5  O   UNL d   1       2.975   0.830  -1.044  0.00  0.00    -0.776 OA
ATOM      6  H   UNL d   1       2.309   1.338  -1.550  0.00  0.00     0.167 HD
ENDBRANCH   3   5
ENDBRANCH   2   3
ENDBRANCH   1   2
BRANCH   1   7
ATOM      7  C   UNL d   1       0.824  -0.083   2.589  0.00  0.00     0.154 C 
ATOM      8  O   UNL d   1       0.034   0.501   3.319  0.00  0.00    -0.649 OA
BRANCH   7   9
ATOM      9  O   UNL d   1       2.127  -0.192   2.945  0.00  0.00    -0.775 OA
ATOM     10  H   UNL d   1       2.730  -0.605   2.279  0.00  0.00     0.167 HD
ENDBRANCH   7   9
ENDBRANCH   1   7
BRANCH   1  11
ATOM     11  S   UNL d   1      -1.370  -0.891   1.115  0.00  0.00    -0.114 SA
BRANCH  11  12
ATOM     12  C   UNL d   1      -1.563  -1.732  -0.440  0.00  0.00     0.001 A 
ATOM     13  C   UNL d   1      -1.079  -3.029  -0.633  0.00  0.00     0.020 A 
ATOM     14  C   UNL d   1      -1.255  -3.667  -1.864  0.00  0.00     0.025 A 
ATOM     15  C   UNL d   1      -1.917  -3.010  -2.898  0.00  0.00     0.034 A 
ATOM     16  C   UNL d   1      -2.413  -1.722  -2.714  0.00  0.00     0.025 A 
ATOM     17 CL   UNL d   1      -2.130  -3.797  -4.414  0.00  0.00    -0.084 Cl
ATOM     18  C   UNL d   1      -2.242  -1.087  -1.482  0.00  0.00     0.020 A 
ENDBRANCH  11  12
ENDBRANCH   1  11
TORSDOF 7
