REMARK  9 active torsions:
REMARK  status: ('A' for Active; 'I' for Inactive)
REMARK    1  A    between atoms: N_2  and  C_1 
REMARK    2  A    between atoms: N_3  and  C_9 
REMARK    3  A    between atoms: O_24  and  C_5 
REMARK       I    between atoms: C_6  and  N_12 
REMARK    4  A    between atoms: C_13  and  C_6 
REMARK    5  A    between atoms: S_16  and  C_8 
REMARK    6  A    between atoms: C_10  and  C_23 
REMARK       I    between atoms: N_17  and  C_10 
REMARK    7  A    between atoms: O_25  and  C_11 
REMARK    8  A    between atoms: N_12  and  N_17 
REMARK    9  A    between atoms: C_23  and  S_16 
ROOT
ATOM      1  C   UNL d   1      -5.463  -0.617  -0.542  0.00  0.00     0.245 C 
ATOM      2  N   UNL d   1      -5.857   0.553  -1.153  0.00  0.00    -0.267 N 
ATOM      3  O   UNL d   1      -6.301  -1.475  -0.235  0.00  0.00    -0.271 OA
ATOM      4  H   UNL d   1      -5.226   1.306  -1.427  0.00  0.00     0.190 HD
ENDROOT
BRANCH   1   5
ATOM      5  C   UNL d   1      -3.978  -0.884  -0.367  0.00  0.00     0.184 C 
BRANCH   5   6
ATOM      6  S   UNL d   1      -2.978   0.603  -0.067  0.00  0.00    -0.118 SA
BRANCH   6   7
ATOM      7  C   UNL d   1      -1.313  -0.009   0.318  0.00  0.00     0.037 A 
ATOM      8  C   UNL d   1      -0.405   1.018   0.669  0.00  0.00     0.060 A 
ATOM      9  C   UNL d   1       0.936   0.774   1.010  0.00  0.00     0.102 A 
ATOM     10  C   UNL d   1       1.359  -0.551   1.020  0.00  0.00     0.138 A 
ATOM     11  C   UNL d   1       0.490  -1.600   0.663  0.00  0.00     0.077 A 
ATOM     12  C   UNL d   1      -0.844  -1.340   0.313  0.00  0.00     0.087 A 
BRANCH   9  13
ATOM     13  O   UNL d   1       1.617   1.906   1.350  0.00  0.00    -0.353 OA
ATOM     14  C   UNL d   1       2.996   2.012   1.010  0.00  0.00     0.210 C 
ENDBRANCH   9  13
BRANCH  10  15
ATOM     15  N   UNL d   1       2.679  -0.943   1.466  0.00  0.00    -0.113 N 
ATOM     16  O   UNL d   1       3.362  -1.607   0.673  0.00  0.00    -0.532 OA
ATOM     17  O   UNL d   1       3.015  -0.629   2.614  0.00  0.00    -0.532 OA
ENDBRANCH  10  15
BRANCH  12  18
ATOM     18  O   UNL d   1      -1.718  -2.332  -0.034  0.00  0.00    -0.355 OA
ATOM     19  C   UNL d   1      -1.295  -3.688   0.043  0.00  0.00     0.210 C 
ENDBRANCH  12  18
ENDBRANCH   6   7
ENDBRANCH   5   6
ENDBRANCH   1   5
BRANCH   2  20
ATOM     20  N   UNL d   1      -7.231   0.714  -1.381  0.00  0.00    -0.263 N 
ATOM     21  C   UNL d   1      -7.723   1.855  -1.977  0.00  0.00     0.270 C 
ATOM     22  O   UNL d   1      -7.029   2.808  -2.313  0.00  0.00    -0.266 OA
ATOM     23  H   UNL d   1      -7.823  -0.008  -0.974  0.00  0.00     0.190 HD
BRANCH  21  24
ATOM     24  C   UNL d   1      -9.204   1.874  -2.173  0.00  0.00     0.036 A 
ATOM     25  C   UNL d   1      -9.894   3.091  -2.082  0.00  0.00     0.053 A 
ATOM     26  C   UNL d   1     -11.288   3.099  -2.228  0.00  0.00     0.103 A 
ATOM     27  C   UNL d   1     -11.993   1.914  -2.489  0.00  0.00     0.036 A 
ATOM     28  C   UNL d   1     -11.296   0.713  -2.610  0.00  0.00     0.003 A 
ATOM     29  C   UNL d   1      -9.908   0.693  -2.455  0.00  0.00     0.017 A 
BRANCH  26  30
ATOM     30  N   UNL d   1     -12.035   4.359  -2.092  0.00  0.00    -0.116 N 
ATOM     31  O   UNL d   1     -11.389   5.383  -1.828  0.00  0.00    -0.532 OA
ATOM     32  O   UNL d   1     -13.263   4.321  -2.242  0.00  0.00    -0.532 OA
ENDBRANCH  26  30
ENDBRANCH  21  24
ENDBRANCH   2  20
TORSDOF 9
