REMARK  1 active torsions:
REMARK  status: ('A' for Active; 'I' for Inactive)
REMARK    1  A    between atoms: O_10  and  C_7 
ROOT
ATOM      1  C   UNL d   1      -0.634   1.246   0.014  0.00  0.00     0.682 A 
ATOM      2  N   UNL d   1       0.234   0.963  -0.968  0.00  0.00    -0.171 N 
ATOM      3  HN  UNL d   1       0.329   1.557  -1.792  1.00  0.00     0.186 HD
ATOM      4  N   UNL d   1      -0.764   0.487   1.119  0.00  0.00    -0.196 N 
ATOM      5  HN  UNL d   1      -1.434   0.734   1.847  1.00  0.00     0.184 HD
ATOM      6  N   UNL d   1      -1.454   2.324  -0.146  0.00  0.00    -0.218 N 
ATOM      7  C   UNL d   1       0.967  -0.138  -0.805  0.00  0.00     0.157 A 
ATOM      8  C   UNL d   1       0.916  -0.979   0.270  0.00  0.00     0.081 A 
ATOM      9  C   UNL d   1       0.015  -0.612   1.238  0.00  0.00     0.026 A 
ATOM     10  C   UNL d   1      -2.359   2.778   0.884  0.00  0.00     0.141 C 
ATOM     11  C   UNL d   1      -1.145   3.367  -1.104  0.00  0.00     0.141 C 
ATOM     12  C   UNL d   1      -0.161  -1.433   2.478  0.00  0.00     0.069 C 
ATOM     13  C   UNL d   1      -2.182   4.459  -0.817  0.00  0.00     0.022 C 
ATOM     14  C   UNL d   1      -3.189   3.811   0.129  0.00  0.00     0.022 C 
ENDROOT
BRANCH   7  15
ATOM     15  O   UNL d   1       1.811  -0.399  -1.838  0.00  0.00    -0.346 OA
ATOM     16  H   UNL d   1       1.581   0.344  -2.427  0.00  0.00     0.219 HD
ENDBRANCH   7  15
TORSDOF 1
