REMARK  7 active torsions:
REMARK  status: ('A' for Active; 'I' for Inactive)
REMARK    1  A    between atoms: C_13  and  C_1 
REMARK    2  A    between atoms: C_5  and  C_2 
REMARK    3  A    between atoms: N_9  and  C_3 
REMARK    4  A    between atoms: C_6  and  C_10 
REMARK    5  A    between atoms: C_7  and  N_9 
REMARK    6  A    between atoms: N_11  and  C_7 
REMARK    7  A    between atoms: C_15  and  N_11 
ROOT
ATOM      1  N   UNL d   1       2.683  -1.398  -0.347  0.00  0.00    -0.332 N 
ATOM      2  H   UNL d   1       3.505  -0.850  -0.574  0.00  0.00     0.168 HD
ENDROOT
BRANCH   1   3
ATOM      3  C   UNL d   1       2.935  -2.529   0.381  0.00  0.00     0.176 C 
ATOM      4  S   UNL d   1       2.027  -3.125   1.666  0.00  0.00    -0.041 SA
BRANCH   3   5
ATOM      5  N   UNL d   1       4.085  -3.218   0.137  0.00  0.00    -0.333 N 
ATOM      6  H   UNL d   1       4.220  -3.936   0.843  0.00  0.00     0.168 HD
BRANCH   5   7
ATOM      7  C   UNL d   1       5.042  -3.222  -0.896  0.00  0.00     0.035 A 
ATOM      8  C   UNL d   1       6.141  -4.073  -0.696  0.00  0.00     0.045 A 
ATOM      9  C   UNL d   1       7.161  -4.198  -1.654  0.00  0.00     0.050 A 
ATOM     10  C   UNL d   1       7.070  -3.452  -2.833  0.00  0.00     0.016 A 
ATOM     11  C   UNL d   1       5.972  -2.616  -3.047  0.00  0.00     0.003 A 
ATOM     12  C   UNL d   1       4.957  -2.507  -2.087  0.00  0.00     0.029 A 
BRANCH   9  13
ATOM     13  C   UNL d   1       8.332  -5.123  -1.420  0.00  0.00     0.417 C 
ATOM     14  F   UNL d   1       8.258  -5.807  -0.244  0.00  0.00    -0.166 F 
ATOM     15  F   UNL d   1       8.453  -6.069  -2.392  0.00  0.00    -0.166 F 
ATOM     16  F   UNL d   1       9.521  -4.460  -1.391  0.00  0.00    -0.166 F 
ENDBRANCH   9  13
ENDBRANCH   5   7
ENDBRANCH   3   5
ENDBRANCH   1   3
BRANCH   1  17
ATOM     17  C   UNL d   1       1.459  -0.726  -0.476  0.00  0.00     0.053 A 
ATOM     18  C   UNL d   1       1.328   0.692  -0.746  0.00  0.00     0.023 A 
ATOM     19  C   UNL d   1      -0.006   1.089  -0.814  0.00  0.00     0.102 A 
ATOM     20  S   UNL d   1      -1.066  -0.254  -0.653  0.00  0.00    -0.094 SA
ATOM     21  C   UNL d   1       0.225  -1.338  -0.447  0.00  0.00     0.081 A 
BRANCH  18  22
ATOM     22  C   UNL d   1       2.430   1.647  -0.869  0.00  0.00    -0.022 A 
ATOM     23  C   UNL d   1       3.372   1.767   0.163  0.00  0.00     0.012 A 
ATOM     24  C   UNL d   1       4.457   2.637   0.032  0.00  0.00     0.001 A 
ATOM     25  C   UNL d   1       4.598   3.407  -1.121  0.00  0.00     0.000 A 
ATOM     26  C   UNL d   1       3.657   3.306  -2.145  0.00  0.00     0.001 A 
ATOM     27  C   UNL d   1       2.582   2.423  -2.026  0.00  0.00     0.012 A 
ENDBRANCH  18  22
BRANCH  19  28
ATOM     28  C   UNL d   1      -0.628   2.435  -1.027  0.00  0.00     0.424 C 
ATOM     29  F   UNL d   1       0.172   3.466  -0.652  0.00  0.00    -0.166 F 
ATOM     30  F   UNL d   1      -0.926   2.633  -2.340  0.00  0.00    -0.166 F 
ATOM     31  F   UNL d   1      -1.790   2.595  -0.339  0.00  0.00    -0.166 F 
ENDBRANCH  19  28
ENDBRANCH   1  17
TORSDOF 7
