REMARK  8 active torsions:
REMARK  status: ('A' for Active; 'I' for Inactive)
REMARK    1  A    between atoms: C_16  and  C_4 
REMARK    2  A    between atoms: N_5  and  C_14 
REMARK    3  A    between atoms: C_11  and  N_5 
REMARK    4  A    between atoms: O_10  and  C_6 
REMARK    5  A    between atoms: C_17  and  O_10 
REMARK    6  A    between atoms: C_12  and  C_17 
REMARK    7  A    between atoms: C_14  and  C_12 
REMARK    8  A    between atoms: O_21  and  C_12 
ROOT
ATOM      1  C   UNL d   1      -5.419   3.257  -0.328  0.00  0.00     0.155 C 
ENDROOT
BRANCH   1   2
ATOM      2  C   UNL d   1      -5.310   4.792  -0.303  0.00  0.00     0.208 C 
BRANCH   2   3
ATOM      3  O   UNL d   1      -4.714   5.233  -1.525  0.00  0.00    -0.349 OA
BRANCH   3   4
ATOM      4  C   UNL d   1      -4.596   6.579  -1.724  0.00  0.00     0.070 A 
ATOM      5  C   UNL d   1      -4.900   7.578  -0.799  0.00  0.00     0.062 A 
ATOM      6  C   UNL d   1      -4.705   8.925  -1.133  0.00  0.00     0.058 A 
ATOM      7  C   UNL d   1      -4.209   9.274  -2.395  0.00  0.00     0.056 A 
ATOM      8 CL   UNL d   1      -5.090  10.109   0.067  0.00  0.00    -0.082 Cl
ATOM      9  C   UNL d   1      -3.914   8.274  -3.321  0.00  0.00     0.028 A 
ATOM     10 CL   UNL d   1      -3.939  10.914  -2.866  0.00  0.00    -0.083 Cl
ATOM     11  C   UNL d   1      -4.108   6.934  -2.983  0.00  0.00     0.038 A 
ENDBRANCH   3   4
ENDBRANCH   2   3
ENDBRANCH   1   2
BRANCH   1  12
ATOM     12  C   UNL d   1      -5.994   2.766   1.013  0.00  0.00     0.126 C 
BRANCH  12  13
ATOM     13  N   UNL d   1      -6.116   1.304   1.056  0.00  0.00    -0.290 NA
ATOM     14  H   UNL d   1      -5.285   0.826   0.710  0.00  0.00     0.127 HD
BRANCH  13  15
ATOM     15  C   UNL d   1      -6.598   0.739   2.248  0.00  0.00     0.008 A 
ATOM     16  C   UNL d   1      -7.567   1.366   3.036  0.00  0.00     0.024 A 
ATOM     17  C   UNL d   1      -8.060   0.768   4.198  0.00  0.00     0.009 A 
ATOM     18  C   UNL d   1      -7.613  -0.493   4.604  0.00  0.00    -0.055 A 
ATOM     19  C   UNL d   1      -6.688  -1.157   3.790  0.00  0.00     0.009 A 
ATOM     20  C   UNL d   1      -6.203  -0.554   2.619  0.00  0.00     0.024 A 
BRANCH  18  21
ATOM     21  C   UNL d   1      -8.119  -1.121   5.889  0.00  0.00     0.010 C 
ATOM     22  C   UNL d   1      -7.777  -0.246   7.100  0.00  0.00     0.015 C 
ATOM     23  C   UNL d   1      -9.626  -1.391   5.830  0.00  0.00     0.015 C 
ENDBRANCH  18  21
ENDBRANCH  13  15
ENDBRANCH  12  13
ENDBRANCH   1  12
BRANCH   1  24
ATOM     24  O   UNL d   1      -6.254   2.852  -1.425  0.00  0.00    -0.392 OA
ATOM     25  H   UNL d   1      -7.180   3.023  -1.182  0.00  0.00     0.210 HD
ENDBRANCH   1  24
TORSDOF 8
