REMARK  5 active torsions:
REMARK  status: ('A' for Active; 'I' for Inactive)
REMARK    1  A    between atoms: C_6  and  N_1 
REMARK    2  A    between atoms: N_9  and  C_6 
REMARK    3  A    between atoms: C_10  and  N_9 
REMARK    4  A    between atoms: O_18  and  C_11 
REMARK    5  A    between atoms: C_19  and  O_18 
ROOT
ATOM      1  C   UNL d   1       3.356   0.039  -0.145  0.00  0.00     0.230 C 
ENDROOT
BRANCH   1   2
ATOM      2  N   UNL d   1       1.928   0.174  -0.288  0.00  0.00    -0.267 N 
ATOM      3  C   UNL d   1       1.290   1.220  -0.890  0.00  0.00     0.262 C 
ATOM      4  C   UNL d   1      -0.099   0.817  -1.086  0.00  0.00     0.048 A 
ATOM      5  O   UNL d   1       1.742   2.293  -1.254  0.00  0.00    -0.267 OA
ATOM      6  C   UNL d   1      -1.172   1.518  -1.600  0.00  0.00     0.018 A 
ATOM      7  C   UNL d   1      -0.205  -0.503  -0.690  0.00  0.00     0.048 A 
ATOM      8  C   UNL d   1      -2.388   0.837  -1.702  0.00  0.00     0.001 A 
ATOM      9  C   UNL d   1      -2.495  -0.513  -1.308  0.00  0.00     0.001 A 
ATOM     10  C   UNL d   1      -1.390  -1.203  -0.799  0.00  0.00     0.018 A 
ATOM     11  C   UNL d   1       1.117  -0.928  -0.234  0.00  0.00     0.262 C 
ATOM     12  O   UNL d   1       1.399  -2.075   0.051  0.00  0.00    -0.267 OA
ENDBRANCH   1   2
BRANCH   1  13
ATOM     13  N   UNL d   1       3.973   1.320   0.165  0.00  0.00    -0.276 NA
ATOM     14  H   UNL d   1       3.409   2.085  -0.217  0.00  0.00     0.129 HD
BRANCH  13  15
ATOM     15  C   UNL d   1       5.312   1.478  -0.236  0.00  0.00     0.009 A 
ATOM     16  C   UNL d   1       5.780   2.764  -0.539  0.00  0.00     0.026 A 
ATOM     17  C   UNL d   1       7.107   2.986  -0.935  0.00  0.00     0.038 A 
ATOM     18  C   UNL d   1       8.001   1.922  -1.003  0.00  0.00     0.068 A 
ATOM     19  C   UNL d   1       7.564   0.649  -0.638  0.00  0.00     0.038 A 
ATOM     20  C   UNL d   1       6.241   0.432  -0.237  0.00  0.00     0.026 A 
BRANCH  18  21
ATOM     21  O   UNL d   1       9.310   1.987  -1.393  0.00  0.00    -0.352 OA
BRANCH  21  22
ATOM     22  C   UNL d   1       9.803   3.261  -1.802  0.00  0.00     0.171 C 
ATOM     23  C   UNL d   1      11.251   3.087  -2.228  0.00  0.00     0.034 C 
ENDBRANCH  21  22
ENDBRANCH  18  21
ENDBRANCH  13  15
ENDBRANCH   1  13
TORSDOF 5
