REMARK  5 active torsions:
REMARK  status: ('A' for Active; 'I' for Inactive)
REMARK    1  A    between atoms: C_14  and  C_4 
REMARK    2  A    between atoms: S_12  and  C_5 
REMARK       I    between atoms: C_8  and  N_9 
REMARK       I    between atoms: N_11  and  C_8 
REMARK       I    between atoms: N_9  and  C_10 
REMARK    3  A    between atoms: C_10  and  C_18 
REMARK    4  A    between atoms: C_19  and  N_11 
REMARK    5  A    between atoms: C_18  and  S_12 
ROOT
ATOM      1  S   UNL d   1       0.128   3.465   1.268  0.00  0.00    -0.075 SA
ENDROOT
BRANCH   1   2
ATOM      2  C   UNL d   1       1.170   4.510   2.190  0.00  0.00     0.204 A 
ATOM      3  O   UNL d   1       0.974   5.858   2.340  0.00  0.00    -0.267 OA
ATOM      4  C   UNL d   1       2.190   6.266   2.846  0.00  0.00     0.175 A 
ATOM      5  N   UNL d   1       3.010   5.258   3.056  0.00  0.00    -0.277 N 
ATOM      6  N   UNL d   1       2.349   4.124   2.630  0.00  0.00    -0.272 N 
ATOM      7  HN  UNL d   1       3.948   5.306   3.454  1.00  0.00     0.189 HD
ATOM      8  HN  UNL d   1       2.706   3.169   2.651  1.00  0.00     0.189 HD
BRANCH   4   9
ATOM      9  C   UNL d   1       2.429   7.702   2.955  0.00  0.00     0.019 A 
ATOM     10  C   UNL d   1       1.398   8.629   2.791  0.00  0.00     0.033 A 
ATOM     11  C   UNL d   1       1.704   9.980   2.837  0.00  0.00     0.088 A 
ATOM     12  N   UNL d   1       2.947  10.461   3.037  0.00  0.00    -0.375 N 
ATOM     13  C   UNL d   1       3.932   9.554   3.202  0.00  0.00     0.088 A 
ATOM     14  HN  UNL d   1       3.134  11.463   3.062  1.00  0.00     0.164 HD
ATOM     15  C   UNL d   1       3.725   8.184   3.177  0.00  0.00     0.033 A 
ENDBRANCH   4   9
ENDBRANCH   1   2
BRANCH   1  16
ATOM     16  C   UNL d   1      -1.513   3.721   1.973  0.00  0.00     0.186 C 
BRANCH  16  17
ATOM     17  C   UNL d   1      -2.330   4.846   1.349  0.00  0.00     0.235 C 
ATOM     18  N   UNL d   1      -1.933   5.271   0.096  0.00  0.00    -0.278 N 
ATOM     19  C   UNL d   1      -2.576   6.092  -0.806  0.00  0.00     0.327 C 
ATOM     20  H   UNL d   1      -1.061   4.918  -0.271  0.00  0.00     0.173 HD
ATOM     21  N   UNL d   1      -3.831   6.514  -0.454  0.00  0.00    -0.309 N 
ATOM     22  O   UNL d   1      -1.979   6.345  -1.853  0.00  0.00    -0.247 OA
ATOM     23  H   UNL d   1      -4.108   6.309   0.507  0.00  0.00     0.170 HD
ATOM     24  O   UNL d   1      -3.332   5.289   1.912  0.00  0.00    -0.272 OA
BRANCH  21  25
ATOM     25  C   UNL d   1      -4.774   7.181  -1.265  0.00  0.00     0.036 A 
ATOM     26  C   UNL d   1      -4.576   7.447  -2.622  0.00  0.00     0.029 A 
ATOM     27  C   UNL d   1      -5.575   8.062  -3.386  0.00  0.00     0.002 A 
ATOM     28  C   UNL d   1      -6.782   8.425  -2.797  0.00  0.00     0.000 A 
ATOM     29  C   UNL d   1      -6.989   8.178  -1.442  0.00  0.00     0.002 A 
ATOM     30  C   UNL d   1      -5.990   7.557  -0.681  0.00  0.00     0.029 A 
ENDBRANCH  21  25
ENDBRANCH  16  17
ENDBRANCH   1  16
TORSDOF 5
