REMARK  2 active torsions:
REMARK  status: ('A' for Active; 'I' for Inactive)
REMARK    1  A    between atoms: C_2  and  C_1 
REMARK    2  A    between atoms: N_18  and  C_4 
ROOT
ATOM      1  C   UNL d   1       2.469   0.015   0.079  0.00  0.00     0.079 C 
ATOM      2  C   UNL d   1       1.621   1.116   0.032  0.00  0.00     0.060 C 
ATOM      3  S   UNL d   1       1.585  -1.408   0.394  0.00  0.00    -0.065 SA
ATOM      4  C   UNL d   1       0.213   0.768   0.077  0.00  0.00     0.031 A 
ATOM      5  C   UNL d   1       0.100  -0.616   0.197  0.00  0.00     0.088 A 
ATOM      6  N   UNL d   1      -1.024  -1.358   0.199  0.00  0.00    -0.354 N 
ATOM      7  HN  UNL d   1      -1.011  -2.374   0.289  1.00  0.00     0.166 HD
ATOM      8  C   UNL d   1      -1.019   1.487   0.015  0.00  0.00    -0.045 A 
ATOM      9  C   UNL d   1      -2.206   0.724   0.004  0.00  0.00     0.032 A 
ATOM     10  C   UNL d   1      -2.162  -0.661   0.073  0.00  0.00     0.006 A 
ATOM     11  C   UNL d   1      -1.197   2.981  -0.041  0.00  0.00     0.049 C 
ATOM     12  C   UNL d   1      -3.434  -1.455   0.027  0.00  0.00     0.068 C 
ENDROOT
BRANCH   1  13
ATOM     13  C   UNL d   1       3.915  -0.006   0.009  0.00  0.00     0.143 A 
ATOM     14  N   UNL d   1       4.675  -0.994  -0.556  0.00  0.00    -0.311 N 
ATOM     15  C   UNL d   1       5.978  -0.589  -0.380  0.00  0.00     0.194 A 
ATOM     16  C   UNL d   1       4.279  -2.178  -1.305  0.00  0.00     0.160 C 
ATOM     17  S   UNL d   1       7.395  -1.328  -0.818  0.00  0.00    -0.039 SA
ATOM     18  N   UNL d   1       5.917   0.632   0.266  0.00  0.00    -0.274 N 
ATOM     19  N   UNL d   1       4.625   0.986   0.496  0.00  0.00    -0.282 N 
ATOM     20  H   UNL d   1       6.704   1.212   0.541  0.00  0.00     0.189 HD
ATOM     21  HN  UNL d   1       4.282   1.834   0.948  1.00  0.00     0.188 HD
ENDBRANCH   1  13
BRANCH   2  22
ATOM     22  N   UNL d   1       2.114   2.376  -0.096  0.00  0.00    -0.397 N 
ATOM     23  H   UNL d   1       3.112   2.522   0.080  0.00  0.00     0.156 HD
ATOM     24  H   UNL d   1       1.578   3.187   0.184  0.00  0.00     0.156 HD
ENDBRANCH   2  22
TORSDOF 2
