REMARK  3 active torsions:
REMARK  status: ('A' for Active; 'I' for Inactive)
REMARK    1  A    between atoms: C_14  and  N_1 
REMARK    2  A    between atoms: C_8  and  C_2 
REMARK    3  A    between atoms: N_6  and  C_9 
ROOT
ATOM      1  N   UNL d   1       0.883  -0.744  -0.024  0.00  0.00    -0.307 N 
ATOM      2  C   UNL d   1       0.908   0.632  -0.041  0.00  0.00     0.135 A 
ATOM      3  N   UNL d   1      -0.272   1.188  -0.019  0.00  0.00    -0.282 N 
ATOM      4  HN  UNL d   1      -0.492   2.184   0.007  1.00  0.00     0.188 HD
ATOM      5  C   UNL d   1      -0.458  -1.056  -0.106  0.00  0.00     0.194 A 
ATOM      6  N   UNL d   1      -1.139   0.147  -0.038  0.00  0.00    -0.274 N 
ATOM      7  S   UNL d   1      -1.253  -2.500  -0.276  0.00  0.00    -0.039 SA
ATOM      8  H   UNL d   1      -2.142   0.277  -0.095  0.00  0.00     0.189 HD
ENDROOT
BRANCH   2   9
ATOM      9  C   UNL d   1       2.132   1.464  -0.091  0.00  0.00     0.012 A 
ATOM     10  C   UNL d   1       3.240   1.129  -0.875  0.00  0.00     0.051 A 
ATOM     11  C   UNL d   1       4.356   1.980  -0.894  0.00  0.00     0.103 A 
ATOM     12  C   UNL d   1       4.352   3.190  -0.188  0.00  0.00     0.036 A 
ATOM     13  C   UNL d   1       3.223   3.547   0.547  0.00  0.00     0.003 A 
ATOM     14  C   UNL d   1       2.122   2.687   0.597  0.00  0.00     0.015 A 
BRANCH  11  15
ATOM     15  N   UNL d   1       5.547   1.590  -1.657  0.00  0.00    -0.116 N 
ATOM     16  O   UNL d   1       5.577   0.440  -2.120  0.00  0.00    -0.532 OA
ATOM     17  O   UNL d   1       6.455   2.423  -1.779  0.00  0.00    -0.532 OA
ENDBRANCH  11  15
ENDBRANCH   2   9
BRANCH   1  18
ATOM     18  C   UNL d   1       2.030  -1.665  -0.033  0.00  0.00     0.128 C 
ATOM     19  C   UNL d   1       1.919  -2.911   0.833  0.00  0.00     0.027 C 
ENDBRANCH   1  18
TORSDOF 3
