REMARK  5 active torsions:
REMARK  status: ('A' for Active; 'I' for Inactive)
REMARK    1  A    between atoms: C_2  and  C_1 
REMARK       I    between atoms: N_3  and  C_1 
REMARK    2  A    between atoms: C_4  and  N_3 
REMARK    3  A    between atoms: N_6  and  C_4 
REMARK    4  A    between atoms: C_5  and  N_6 
REMARK    5  A    between atoms: O_20  and  C_17 
ROOT
ATOM      1  C   UNL d   1       0.830  -1.576   1.290  0.00  0.00     0.259 C 
ATOM      2  N   UNL d   1      -0.124  -1.054   0.423  0.00  0.00    -0.299 N 
ATOM      3  O   UNL d   1       0.969  -1.320   2.478  0.00  0.00    -0.267 OA
ATOM      4  H   UNL d   1      -0.043  -1.320  -0.550  0.00  0.00     0.171 HD
ENDROOT
BRANCH   2   5
ATOM      5  C   UNL d   1      -1.311  -0.402   0.666  0.00  0.00     0.179 C 
ATOM      6  S   UNL d   1      -2.026  -0.153   2.154  0.00  0.00    -0.040 SA
BRANCH   5   7
ATOM      7  N   UNL d   1      -2.046  -0.088  -0.444  0.00  0.00    -0.332 N 
ATOM      8  H   UNL d   1      -3.027  -0.008  -0.197  0.00  0.00     0.168 HD
BRANCH   7   9
ATOM      9  C   UNL d   1      -1.750   0.522  -1.696  0.00  0.00     0.046 C 
ATOM     10  C   UNL d   1      -2.836   0.535  -2.615  0.00  0.00    -0.034 C 
ATOM     11  C   UNL d   1      -2.830   1.407  -3.716  0.00  0.00     0.015 C 
ATOM     12  C   UNL d   1      -4.057  -0.337  -2.434  0.00  0.00     0.050 C 
ATOM     13  C   UNL d   1      -1.750   2.246  -3.952  0.00  0.00    -0.061 C 
ATOM     14  C   UNL d   1      -0.626   2.127  -3.134  0.00  0.00     0.015 C 
ATOM     15  C   UNL d   1      -1.829   3.298  -5.018  0.00  0.00     0.048 C 
ATOM     16  C   UNL d   1      -0.589   1.263  -2.010  0.00  0.00    -0.034 C 
ATOM     17  C   UNL d   1       0.668   1.362  -1.192  0.00  0.00     0.050 C 
ENDBRANCH   7   9
ENDBRANCH   5   7
ENDBRANCH   2   5
BRANCH   1  18
ATOM     18  C   UNL d   1       1.883  -2.360   0.595  0.00  0.00     0.052 A 
ATOM     19  C   UNL d   1       1.592  -3.365  -0.335  0.00  0.00     0.026 A 
ATOM     20  C   UNL d   1       2.626  -3.903  -1.113  0.00  0.00     0.023 A 
ATOM     21 BR   UNL d   1      -0.147  -4.077  -0.603  0.00  0.00    -0.050 Br
ATOM     22  C   UNL d   1       3.932  -3.448  -0.935  0.00  0.00     0.038 A 
ATOM     23  C   UNL d   1       4.239  -2.493   0.036  0.00  0.00     0.069 A 
ATOM     24  C   UNL d   1       3.213  -1.965   0.821  0.00  0.00     0.055 A 
BRANCH  23  25
ATOM     25  O   UNL d   1       5.558  -2.144   0.087  0.00  0.00    -0.356 OA
ATOM     26  C   UNL d   1       5.955  -1.203   1.077  0.00  0.00     0.210 C 
ENDBRANCH  23  25
ENDBRANCH   1  18
TORSDOF 5
