REMARK  9 active torsions:
REMARK  status: ('A' for Active; 'I' for Inactive)
REMARK    1  A    between atoms: C_3  and  S_1 
REMARK    2  A    between atoms: C_4  and  S_1 
REMARK    3  A    between atoms: S_2  and  C_5 
REMARK    4  A    between atoms: C_13  and  S_2 
REMARK    5  A    between atoms: C_7  and  C_4 
REMARK    6  A    between atoms: C_5  and  C_7 
REMARK    7  A    between atoms: O_17  and  C_7 
REMARK    8  A    between atoms: O_18  and  C_10 
REMARK    9  A    between atoms: O_19  and  C_15 
ROOT
ATOM      1  C   UNL d   1       0.166  -1.717   0.002  0.00  0.00     0.178 C 
ENDROOT
BRANCH   1   2
ATOM      2  S   UNL d   1       0.095   0.057   0.079  0.00  0.00     0.180 S 
ATOM      3  O   UNL d   1      -0.431   0.491  -1.209  0.00  0.00    -0.222 OA
ATOM      4  O   UNL d   1      -0.618   0.415   1.287  0.00  0.00    -0.222 OA
BRANCH   2   5
ATOM      5  C   UNL d   1       1.769   0.641   0.190  0.00  0.00     0.095 A 
ATOM      6  C   UNL d   1       2.415   0.950  -1.023  0.00  0.00     0.063 A 
ATOM      7  C   UNL d   1       3.680   1.542  -1.026  0.00  0.00     0.069 A 
ATOM      8  C   UNL d   1       4.323   1.791   0.188  0.00  0.00     0.039 A 
ATOM      9  C   UNL d   1       3.680   1.498   1.396  0.00  0.00     0.041 A 
ATOM     10  C   UNL d   1       2.404   0.927   1.403  0.00  0.00     0.089 A 
BRANCH   7  11
ATOM     11  O   UNL d   1       4.380   1.928  -2.140  0.00  0.00    -0.356 OA
ATOM     12  C   UNL d   1       3.661   1.955  -3.366  0.00  0.00     0.210 C 
ENDBRANCH   7  11
BRANCH  10  13
ATOM     13  O   UNL d   1       1.804   0.845   2.626  0.00  0.00    -0.354 OA
ATOM     14  C   UNL d   1       1.729  -0.477   3.149  0.00  0.00     0.210 C 
ENDBRANCH  10  13
ENDBRANCH   2   5
ENDBRANCH   1   2
BRANCH   1  15
ATOM     15  C   UNL d   1       0.876  -2.265  -1.238  0.00  0.00     0.146 C 
BRANCH  15  16
ATOM     16  C   UNL d   1       0.890  -3.795  -1.317  0.00  0.00     0.178 C 
BRANCH  16  17
ATOM     17  S   UNL d   1       1.625  -4.575   0.085  0.00  0.00     0.177 S 
ATOM     18  O   UNL d   1       2.911  -3.951   0.296  0.00  0.00    -0.223 OA
ATOM     19  O   UNL d   1       0.633  -4.593   1.143  0.00  0.00    -0.223 OA
BRANCH  17  20
ATOM     20  C   UNL d   1       1.936  -6.272  -0.346  0.00  0.00     0.059 A 
ATOM     21  C   UNL d   1       1.275  -6.904  -1.403  0.00  0.00     0.023 A 
ATOM     22  C   UNL d   1       1.566  -8.238  -1.693  0.00  0.00     0.002 A 
ATOM     23  C   UNL d   1       2.503  -8.935  -0.928  0.00  0.00     0.000 A 
ATOM     24  C   UNL d   1       3.159  -8.303   0.126  0.00  0.00     0.002 A 
ATOM     25  C   UNL d   1       2.881  -6.967   0.420  0.00  0.00     0.023 A 
ENDBRANCH  17  20
ENDBRANCH  16  17
ENDBRANCH  15  16
BRANCH  15  26
ATOM     26  O   UNL d   1       0.226  -1.864  -2.456  0.00  0.00    -0.394 OA
ATOM     27  H   UNL d   1      -0.307  -1.051  -2.317  0.00  0.00     0.210 HD
ENDBRANCH  15  26
ENDBRANCH   1  15
TORSDOF 9
