REMARK  5 active torsions:
REMARK  status: ('A' for Active; 'I' for Inactive)
REMARK    1  A    between atoms: C_6  and  N_1 
REMARK    2  A    between atoms: C_3  and  C_2 
REMARK       I    between atoms: N_5  and  C_3 
REMARK    3  A    between atoms: C_4  and  N_8 
REMARK    4  A    between atoms: N_13  and  C_4 
REMARK    5  A    between atoms: N_8  and  N_5 
ROOT
ATOM      1  N   UNL d   1      -0.274  -1.150  -0.030  0.00  0.00    -0.318 N 
ATOM      2  C   UNL d   1       1.019  -0.623   0.070  0.00  0.00     0.109 A 
ATOM      3  C   UNL d   1      -1.159  -0.086  -0.112  0.00  0.00     0.098 A 
ATOM      4  C   UNL d   1       0.888   0.762   0.162  0.00  0.00     0.037 A 
ATOM      5  C   UNL d   1      -0.474   1.095   0.034  0.00  0.00     0.020 A 
ENDROOT
BRANCH   2   6
ATOM      6  C   UNL d   1       2.257  -1.367  -0.038  0.00  0.00     0.287 C 
ATOM      7  N   UNL d   1       3.320  -0.848   0.677  0.00  0.00    -0.262 N 
ATOM      8  H   UNL d   1       3.218  -0.085   1.342  0.00  0.00     0.190 HD
ATOM      9  O   UNL d   1       2.398  -2.389  -0.712  0.00  0.00    -0.264 OA
BRANCH   7  10
ATOM     10  N   UNL d   1       4.543  -1.545   0.680  0.00  0.00    -0.274 N 
ATOM     11  H   UNL d   1       4.545  -2.382   0.096  0.00  0.00     0.189 HD
BRANCH  10  12
ATOM     12  C   UNL d   1       5.415  -1.461   1.758  0.00  0.00     0.186 C 
ATOM     13  S   UNL d   1       5.133  -0.502   3.100  0.00  0.00    -0.040 SA
BRANCH  12  14
ATOM     14  N   UNL d   1       6.540  -2.235   1.545  0.00  0.00    -0.370 N 
ATOM     15  C   UNL d   1       7.706  -2.353   2.405  0.00  0.00     0.148 C 
ATOM     16  H   UNL d   1       6.651  -2.612   0.614  0.00  0.00     0.161 HD
ENDBRANCH  12  14
ENDBRANCH  10  12
ENDBRANCH   7  10
ENDBRANCH   2   6
BRANCH   1  17
ATOM     17  C   UNL d   1      -0.690  -2.518   0.004  0.00  0.00     0.039 A 
ATOM     18  C   UNL d   1       0.049  -3.478   0.712  0.00  0.00     0.033 A 
ATOM     19  C   UNL d   1      -0.383  -4.807   0.751  0.00  0.00     0.044 A 
ATOM     20  C   UNL d   1      -1.551  -5.173   0.096  0.00  0.00     0.116 A 
ATOM     21  C   UNL d   1      -2.304  -4.234  -0.595  0.00  0.00     0.044 A 
ATOM     22  F   UNL d   1      -1.960  -6.448   0.136  0.00  0.00    -0.206 F 
ATOM     23  C   UNL d   1      -1.879  -2.904  -0.638  0.00  0.00     0.033 A 
ENDBRANCH   1  17
TORSDOF 5
