REMARK  4 active torsions:
REMARK  status: ('A' for Active; 'I' for Inactive)
REMARK    1  A    between atoms: C_2  and  C_1 
REMARK    2  A    between atoms: C_15  and  N_3 
REMARK    3  A    between atoms: C_11  and  C_4 
REMARK    4  A    between atoms: C_12  and  C_16 
ROOT
ATOM      1  C   UNL d   1      -0.231  -1.405  -0.279  0.00  0.00     0.153 C 
ATOM      2  N   UNL d   1      -1.091  -0.474  -0.838  0.00  0.00    -0.224 N 
ATOM      3  N   UNL d   1       0.898  -0.792   0.006  0.00  0.00    -0.269 N 
ATOM      4  HN  UNL d   1       1.678  -1.162   0.549  1.00  0.00     0.185 HD
ATOM      5  N   UNL d   1      -0.368   0.621  -1.159  0.00  0.00     0.001 NA
ATOM      6  N   UNL d   1       0.810   0.450  -0.577  0.00  0.00    -0.007 NA
ENDROOT
BRANCH   1   7
ATOM      7  C   UNL d   1      -0.471  -2.860  -0.093  0.00  0.00     0.071 A 
ATOM      8  C   UNL d   1      -0.024  -3.726   0.949  0.00  0.00     0.083 A 
ATOM      9  N   UNL d   1      -0.524  -4.958   0.748  0.00  0.00    -0.259 N 
ATOM     10  O   UNL d   1      -1.196  -4.930  -0.447  0.00  0.00    -0.241 OA
ATOM     11  HN  UNL d   1      -0.422  -5.762   1.368  1.00  0.00     0.195 HD
ATOM     12  C   UNL d   1      -1.163  -3.676  -0.963  0.00  0.00     0.089 A 
ATOM     13  C   UNL d   1      -1.798  -3.534  -2.290  0.00  0.00     0.080 C 
BRANCH   8  14
ATOM     14  C   UNL d   1       0.713  -3.422   2.180  0.00  0.00     0.015 A 
ATOM     15  C   UNL d   1       1.711  -4.267   2.700  0.00  0.00     0.046 A 
ATOM     16 CL   UNL d   1       2.287  -5.679   1.878  0.00  0.00    -0.083 Cl
ATOM     17  C   UNL d   1       2.320  -3.973   3.928  0.00  0.00     0.025 A 
ATOM     18  C   UNL d   1       1.961  -2.830   4.640  0.00  0.00     0.002 A 
ATOM     19  C   UNL d   1       0.993  -1.974   4.128  0.00  0.00     0.001 A 
ATOM     20  C   UNL d   1       0.368  -2.272   2.915  0.00  0.00     0.015 A 
ENDBRANCH   8  14
ENDBRANCH   1   7
BRANCH   2  21
ATOM     21  C   UNL d   1      -2.500  -0.497  -0.951  0.00  0.00     0.057 A 
ATOM     22  C   UNL d   1      -3.127   0.211  -1.987  0.00  0.00     0.047 A 
ATOM     23  C   UNL d   1      -4.520   0.130  -2.152  0.00  0.00     0.050 A 
ATOM     24  C   UNL d   1      -5.277  -0.601  -1.219  0.00  0.00     0.016 A 
ATOM     25  C   UNL d   1      -4.659  -1.260  -0.161  0.00  0.00     0.003 A 
ATOM     26  C   UNL d   1      -3.273  -1.222  -0.032  0.00  0.00     0.031 A 
BRANCH  23  27
ATOM     27  C   UNL d   1      -5.214   0.787  -3.320  0.00  0.00     0.417 C 
ATOM     28  F   UNL d   1      -4.356   1.354  -4.212  0.00  0.00    -0.166 F 
ATOM     29  F   UNL d   1      -5.961  -0.100  -4.037  0.00  0.00    -0.166 F 
ATOM     30  F   UNL d   1      -6.068   1.773  -2.936  0.00  0.00    -0.166 F 
ENDBRANCH  23  27
ENDBRANCH   2  21
TORSDOF 4
