REMARK  2 active torsions:
REMARK  status: ('A' for Active; 'I' for Inactive)
REMARK    1  A    between atoms: C_4  and  C_1 
REMARK    2  A    between atoms: C_8  and  C_5 
ROOT
ATOM      1  N   UNL d   1       2.034  -3.338  -1.057  0.00  0.00    -0.347 N 
ATOM      2  HN  UNL d   1       1.415  -3.301  -1.867  1.00  0.00     0.167 HD
ATOM      3  C   UNL d   1       2.068  -2.445  -0.085  0.00  0.00     0.102 A 
ATOM      4  C   UNL d   1       2.966  -4.336  -0.811  0.00  0.00     0.057 A 
ATOM      5  S   UNL d   1       3.234  -2.735   1.143  0.00  0.00    -0.080 SA
ATOM      6  C   UNL d   1       3.691  -4.183   0.351  0.00  0.00     0.082 A 
ENDROOT
BRANCH   3   7
ATOM      7  C   UNL d   1       1.149  -1.257  -0.053  0.00  0.00     0.073 A 
ATOM      8  N   UNL d   1       1.216  -0.291   0.940  0.00  0.00    -0.352 N 
ATOM      9  C   UNL d   1       0.314   0.640   0.718  0.00  0.00     0.047 A 
ATOM     10  HN  UNL d   1       1.867  -0.301   1.725  1.00  0.00     0.166 HD
ATOM     11  C   UNL d   1       0.135   1.851   1.563  0.00  0.00     0.076 C 
ATOM     12  S   UNL d   1      -0.686   0.392  -0.658  0.00  0.00    -0.087 SA
ATOM     13  C   UNL d   1       0.173  -1.049  -1.007  0.00  0.00     0.083 A 
ENDBRANCH   3   7
BRANCH   4  14
ATOM     14  C   UNL d   1       3.136  -5.484  -1.760  0.00  0.00     0.033 A 
ATOM     15  S   UNL d   1       4.203  -6.800  -1.521  0.00  0.00    -0.076 SA
ATOM     16  C   UNL d   1       3.705  -7.529  -2.961  0.00  0.00     0.075 A 
ATOM     17 CL   UNL d   1       4.364  -9.047  -3.417  0.00  0.00    -0.076 Cl
ATOM     18  C   UNL d   1       2.776  -6.796  -3.653  0.00  0.00     0.033 A 
ATOM     19  C   UNL d   1       2.437  -5.602  -2.946  0.00  0.00     0.023 A 
ENDBRANCH   4  14
TORSDOF 2
