REMARK  3 active torsions:
REMARK  status: ('A' for Active; 'I' for Inactive)
REMARK    1  A    between atoms: C_3  and  S_1 
REMARK    2  A    between atoms: N_9  and  S_1 
REMARK    3  A    between atoms: N_2  and  C_4 
ROOT
ATOM      1  C   UNL d   1       0.372   0.658  -1.598  0.00  0.00     0.079 A 
ATOM      2  C   UNL d   1      -0.507   1.672  -4.036  0.00  0.00     0.102 A 
ATOM      3  C   UNL d   1      -0.260  -0.192  -2.512  0.00  0.00     0.028 A 
ATOM      4  C   UNL d   1       0.559   2.014  -1.890  0.00  0.00     0.028 A 
ATOM      5  C   UNL d   1      -0.702   0.315  -3.737  0.00  0.00     0.037 A 
ATOM      6  C   UNL d   1       0.121   2.525  -3.115  0.00  0.00     0.037 A 
ENDROOT
BRANCH   1   7
ATOM      7  S   UNL d   1       0.890   0.028  -0.020  0.00  0.00     0.258 S 
ATOM      8  O   UNL d   1       0.661  -1.399   0.010  0.00  0.00    -0.201 OA
ATOM      9  O   UNL d   1       0.348   0.913   0.987  0.00  0.00    -0.201 OA
BRANCH   7  10
ATOM     10  N   UNL d   1       2.551   0.293  -0.037  0.00  0.00    -0.320 N 
ATOM     11  C   UNL d   1       3.407  -0.732  -0.628  0.00  0.00     0.159 C 
ATOM     12  H   UNL d   1       2.864   0.720   0.835  0.00  0.00     0.171 HD
ENDBRANCH   7  10
ENDBRANCH   1   7
BRANCH   2  13
ATOM     13  N   UNL d   1      -0.969   2.204  -5.325  0.00  0.00    -0.116 N 
ATOM     14  O   UNL d   1      -1.516   1.417  -6.110  0.00  0.00    -0.532 OA
ATOM     15  O   UNL d   1      -0.779   3.407  -5.554  0.00  0.00    -0.532 OA
ENDBRANCH   2  13
TORSDOF 3
