REMARK  5 active torsions:
REMARK  status: ('A' for Active; 'I' for Inactive)
REMARK    1  A    between atoms: C_2  and  S_1 
REMARK    2  A    between atoms: N_8  and  S_1 
REMARK    3  A    between atoms: C_15  and  N_4 
REMARK       I    between atoms: C_9  and  N_10 
REMARK    4  A    between atoms: O_13  and  C_9 
REMARK    5  A    between atoms: C_18  and  O_13 
ROOT
ATOM      1  S   UNL d   1       0.885   0.084  -0.009  0.00  0.00     0.247 S 
ATOM      2  O   UNL d   1       2.278  -0.234  -0.240  0.00  0.00    -0.206 OA
ATOM      3  O   UNL d   1      -0.112  -0.095  -1.043  0.00  0.00    -0.206 OA
ENDROOT
BRANCH   1   4
ATOM      4  C   UNL d   1       0.896   1.772   0.288  0.00  0.00     0.115 C 
ATOM      5  C   UNL d   1       1.622   2.516   1.206  0.00  0.00     0.055 C 
ATOM      6  N   UNL d   1       1.373   3.851   0.879  0.00  0.00    -0.260 N 
ATOM      7  C   UNL d   1       2.482   2.051   2.321  0.00  0.00     0.072 C 
ATOM      8  N   UNL d   1       0.323   3.945   0.013  0.00  0.00    -0.303 N 
ATOM      9  C   UNL d   1       0.126   2.701  -0.416  0.00  0.00     0.134 C 
ATOM     10  HN  UNL d   1      -0.196   4.784  -0.247  1.00  0.00     0.186 HD
BRANCH   6  11
ATOM     11  C   UNL d   1       2.043   5.046   1.283  0.00  0.00     0.056 A 
ATOM     12  C   UNL d   1       3.351   5.031   1.783  0.00  0.00     0.031 A 
ATOM     13  C   UNL d   1       3.987   6.227   2.134  0.00  0.00     0.002 A 
ATOM     14  C   UNL d   1       3.328   7.445   1.986  0.00  0.00     0.000 A 
ATOM     15  C   UNL d   1       2.035   7.474   1.471  0.00  0.00     0.002 A 
ATOM     16  C   UNL d   1       1.398   6.283   1.111  0.00  0.00     0.031 A 
ENDBRANCH   6  11
ENDBRANCH   1   4
BRANCH   1  17
ATOM     17  N   UNL d   1       0.362  -0.810   1.361  0.00  0.00    -0.205 NA
ATOM     18  C   UNL d   1      -0.970  -0.381   1.900  0.00  0.00     0.127 C 
ATOM     19  C   UNL d   1      -1.208  -0.947   3.309  0.00  0.00     0.143 C 
ATOM     20  N   UNL d   1      -1.332  -2.404   3.354  0.00  0.00    -0.327 N 
ATOM     21  C   UNL d   1      -2.591  -2.965   3.171  0.00  0.00     0.363 C 
ATOM     22  C   UNL d   1      -0.102  -3.174   3.477  0.00  0.00     0.129 C 
ATOM     23  O   UNL d   1      -3.579  -2.288   2.897  0.00  0.00    -0.238 OA
ATOM     24  C   UNL d   1       0.861  -3.070   2.288  0.00  0.00     0.035 C 
ATOM     25  C   UNL d   1       0.378  -2.286   1.075  0.00  0.00     0.109 C 
BRANCH  21  26
ATOM     26  O   UNL d   1      -2.612  -4.316   3.329  0.00  0.00    -0.294 OA
BRANCH  26  27
ATOM     27  C   UNL d   1      -3.851  -5.063   3.147  0.00  0.00     0.061 C 
ATOM     28  C   UNL d   1      -4.383  -4.898   1.716  0.00  0.00     0.046 C 
ATOM     29  C   UNL d   1      -3.479  -6.539   3.372  0.00  0.00     0.046 C 
ATOM     30  C   UNL d   1      -4.913  -4.678   4.186  0.00  0.00     0.046 C 
ENDBRANCH  26  27
ENDBRANCH  21  26
ENDBRANCH   1  17
TORSDOF 5
