REMARK  2 active torsions:
REMARK  status: ('A' for Active; 'I' for Inactive)
REMARK    1  A    between atoms: C_8  and  C_3 
REMARK    2  A    between atoms: C_9  and  C_4 
ROOT
ATOM      1  N   UNL d   1       1.166   0.361  -0.003  0.00  0.00    -0.325 N 
ATOM      2  HN  UNL d   1       2.131   0.691   0.020  1.00  0.00     0.169 HD
ATOM      3  C   UNL d   1       0.013   1.119  -0.013  0.00  0.00     0.132 A 
ATOM      4  C   UNL d   1       0.738  -0.886  -0.028  0.00  0.00     0.132 A 
ATOM      5  N   UNL d   1      -1.111   0.388  -0.028  0.00  0.00    -0.283 N 
ATOM      6  HN  UNL d   1      -2.081   0.702  -0.036  1.00  0.00     0.188 HD
ATOM      7  N   UNL d   1      -0.628  -0.861  -0.030  0.00  0.00    -0.283 N 
ATOM      8  H   UNL d   1      -1.273  -1.641   0.002  0.00  0.00     0.188 HD
ENDROOT
BRANCH   3   9
ATOM      9  C   UNL d   1       0.030   2.577   0.008  0.00  0.00     0.011 A 
ATOM     10  C   UNL d   1      -1.170   3.302   0.074  0.00  0.00     0.039 A 
ATOM     11  C   UNL d   1      -1.146   4.696   0.098  0.00  0.00     0.035 A 
ATOM     12 CL   UNL d   1      -2.625   5.572   0.183  0.00  0.00    -0.084 Cl
ATOM     13  C   UNL d   1       0.063   5.384   0.053  0.00  0.00     0.024 A 
ATOM     14  C   UNL d   1       1.262   4.675  -0.014  0.00  0.00     0.003 A 
ATOM     15  C   UNL d   1       1.245   3.277  -0.036  0.00  0.00     0.015 A 
ENDBRANCH   3   9
BRANCH   4  16
ATOM     16  C   UNL d   1       1.532  -2.110   0.021  0.00  0.00     0.009 A 
ATOM     17  C   UNL d   1       2.774  -2.103   0.668  0.00  0.00     0.015 A 
ATOM     18  C   UNL d   1       3.522  -3.277   0.785  0.00  0.00     0.001 A 
ATOM     19  C   UNL d   1       3.042  -4.467   0.243  0.00  0.00     0.000 A 
ATOM     20  C   UNL d   1       1.822  -4.482  -0.429  0.00  0.00     0.001 A 
ATOM     21  C   UNL d   1       1.071  -3.309  -0.543  0.00  0.00     0.015 A 
ENDBRANCH   4  16
TORSDOF 2
