REMARK  8 active torsions:
REMARK  status: ('A' for Active; 'I' for Inactive)
REMARK    1  A    between atoms: N_7  and  C_1 
REMARK    2  A    between atoms: C_11  and  N_2 
REMARK    3  A    between atoms: C_9  and  C_5 
REMARK    4  A    between atoms: S_15  and  C_6 
REMARK       I    between atoms: C_8  and  N_7 
REMARK    5  A    between atoms: C_10  and  C_8 
REMARK    6  A    between atoms: O_24  and  C_9 
REMARK    7  A    between atoms: C_13  and  C_11 
REMARK    8  A    between atoms: C_26  and  O_24 
ROOT
ATOM      1  C   UNL d   1      -0.242  -1.105   0.036  0.00  0.00     0.143 A 
ATOM      2  N   UNL d   1      -0.338   1.079   0.140  0.00  0.00    -0.315 N 
ATOM      3  N   UNL d   1       1.028  -0.657   0.175  0.00  0.00    -0.321 N 
ATOM      4  HN  UNL d   1       1.875  -1.225   0.207  1.00  0.00     0.169 HD
ATOM      5  C   UNL d   1      -1.148  -0.055   0.066  0.00  0.00     0.157 A 
ATOM      6  C   UNL d   1       0.956   0.640   0.260  0.00  0.00     0.148 A 
ENDROOT
BRANCH   1   7
ATOM      7  N   UNL d   1      -0.522  -2.451  -0.063  0.00  0.00    -0.306 N 
ATOM      8  C   UNL d   1       0.459  -3.433  -0.055  0.00  0.00     0.264 C 
ATOM      9  O   UNL d   1       1.666  -3.219  -0.024  0.00  0.00    -0.267 OA
ATOM     10  H   UNL d   1      -1.495  -2.725  -0.137  0.00  0.00     0.170 HD
BRANCH   8  11
ATOM     11  C   UNL d   1      -0.025  -4.811  -0.078  0.00  0.00     0.072 A 
ATOM     12  S   UNL d   1      -1.683  -5.229  -0.117  0.00  0.00    -0.097 SA
ATOM     13  C   UNL d   1      -1.331  -6.904  -0.101  0.00  0.00     0.050 A 
ATOM     14  C   UNL d   1       0.022  -7.150  -0.064  0.00  0.00     0.009 A 
ATOM     15  C   UNL d   1       0.774  -5.943  -0.054  0.00  0.00     0.025 A 
ENDBRANCH   8  11
ENDBRANCH   1   7
BRANCH   5  16
ATOM     16  C   UNL d   1      -2.584  -0.147   0.037  0.00  0.00     0.314 C 
ATOM     17  O   UNL d   1      -3.210  -1.147  -0.288  0.00  0.00    -0.257 OA
BRANCH  16  18
ATOM     18  O   UNL d   1      -3.143   1.009   0.482  0.00  0.00    -0.317 OA
BRANCH  18  19
ATOM     19  C   UNL d   1      -4.574   1.052   0.570  0.00  0.00     0.175 C 
ATOM     20  C   UNL d   1      -5.145   1.600  -0.723  0.00  0.00     0.034 C 
ENDBRANCH  18  19
ENDBRANCH  16  18
ENDBRANCH   5  16
BRANCH   6  21
ATOM     21  S   UNL d   1       2.337   1.656   0.503  0.00  0.00    -0.098 SA
ATOM     22  C   UNL d   1       3.560   0.402   0.989  0.00  0.00     0.099 C 
ENDBRANCH   6  21
BRANCH   2  23
ATOM     23  C   UNL d   1      -0.752   2.473   0.030  0.00  0.00     0.177 C 
BRANCH  23  24
ATOM     24  C   UNL d   1      -0.969   3.129   1.363  0.00  0.00     0.001 A 
ATOM     25  S   UNL d   1      -1.424   4.786   1.391  0.00  0.00    -0.105 SA
ATOM     26  C   UNL d   1      -1.395   4.836   3.098  0.00  0.00     0.050 A 
ATOM     27  C   UNL d   1      -1.081   3.613   3.645  0.00  0.00     0.008 A 
ATOM     28  C   UNL d   1      -0.851   2.625   2.645  0.00  0.00     0.017 A 
ENDBRANCH  23  24
ENDBRANCH   2  23
TORSDOF 8
