REMARK  6 active torsions:
REMARK  status: ('A' for Active; 'I' for Inactive)
REMARK    1  A    between atoms: C_2  and  C_1 
REMARK    2  A    between atoms: C_3  and  N_5 
REMARK    3  A    between atoms: N_6  and  C_3 
REMARK    4  A    between atoms: N_5  and  C_4 
REMARK    5  A    between atoms: N_8  and  N_6 
REMARK    6  A    between atoms: C_12  and  N_8 
ROOT
ATOM      1  C   UNL d   1       0.805  -2.248   0.173  0.00  0.00     0.191 C 
ATOM      2  S   UNL d   1       0.329  -3.764  -0.386  0.00  0.00    -0.039 SA
ENDROOT
BRANCH   1   3
ATOM      3  N   UNL d   1       0.728  -2.079   1.524  0.00  0.00    -0.331 N 
ATOM      4  H   UNL d   1       0.582  -2.986   1.966  0.00  0.00     0.168 HD
BRANCH   3   5
ATOM      5  C   UNL d   1       0.534  -0.957   2.366  0.00  0.00     0.049 A 
ATOM      6  C   UNL d   1       0.322  -1.175   3.750  0.00  0.00     0.074 A 
ATOM      7  C   UNL d   1       0.012  -0.084   4.591  0.00  0.00     0.018 A 
ATOM      8  C   UNL d   1      -0.068   1.208   4.088  0.00  0.00     0.001 A 
ATOM      9  C   UNL d   1       0.159   1.426   2.735  0.00  0.00     0.002 A 
ATOM     10  C   UNL d   1       0.446   0.354   1.881  0.00  0.00     0.030 A 
BRANCH   6  11
ATOM     11  C   UNL d   1       0.362  -2.534   4.410  0.00  0.00     0.419 C 
ATOM     12  F   UNL d   1       0.751  -3.550   3.587  0.00  0.00    -0.166 F 
ATOM     13  F   UNL d   1      -0.854  -2.908   4.899  0.00  0.00    -0.166 F 
ATOM     14  F   UNL d   1       1.216  -2.574   5.471  0.00  0.00    -0.166 F 
ENDBRANCH   6  11
ENDBRANCH   3   5
ENDBRANCH   1   3
BRANCH   1  15
ATOM     15  N   UNL d   1       1.223  -1.209  -0.619  0.00  0.00    -0.276 N 
ATOM     16  H   UNL d   1       1.953  -0.599  -0.274  0.00  0.00     0.189 HD
BRANCH  15  17
ATOM     17  N   UNL d   1       1.122  -1.376  -2.008  0.00  0.00    -0.299 N 
ATOM     18  H   UNL d   1       0.155  -1.432  -2.322  0.00  0.00     0.187 HD
BRANCH  17  19
ATOM     19  C   UNL d   1       1.968  -0.668  -2.885  0.00  0.00     0.048 A 
ATOM     20  C   UNL d   1       3.261  -0.243  -2.567  0.00  0.00     0.031 A 
ATOM     21  C   UNL d   1       4.089   0.330  -3.546  0.00  0.00     0.002 A 
ATOM     22  C   UNL d   1       3.642   0.464  -4.859  0.00  0.00     0.000 A 
ATOM     23  C   UNL d   1       2.371   0.022  -5.199  0.00  0.00     0.002 A 
ATOM     24  C   UNL d   1       1.550  -0.546  -4.223  0.00  0.00     0.031 A 
ENDBRANCH  17  19
ENDBRANCH  15  17
ENDBRANCH   1  15
TORSDOF 6
