REMARK  4 active torsions:
REMARK  status: ('A' for Active; 'I' for Inactive)
REMARK    1  A    between atoms: C_10  and  C_2 
REMARK    2  A    between atoms: C_13  and  C_12 
REMARK    3  A    between atoms: C_15  and  C_13 
REMARK    4  A    between atoms: O_21  and  C_15 
ROOT
ATOM      1  N   UNL d   1      -0.533  -0.809   0.044  0.00  0.00    -0.213 N 
ATOM      2  C   UNL d   1      -1.893  -1.059  -0.039  0.00  0.00     0.161 A 
ATOM      3  C   UNL d   1      -0.439   0.560  -0.039  0.00  0.00     0.182 A 
ATOM      4  N   UNL d   1      -2.538   0.086  -0.198  0.00  0.00    -0.281 N 
ATOM      5  HN  UNL d   1      -3.545   0.191  -0.316  1.00  0.00     0.188 HD
ATOM      6  N   UNL d   1       0.473  -1.730   0.245  0.00  0.00    -0.297 N 
ATOM      7  HN  UNL d   1       0.274  -2.682   0.554  1.00  0.00     0.187 HD
ATOM      8  N   UNL d   1      -1.618   1.111  -0.176  0.00  0.00    -0.277 N 
ATOM      9  HN  UNL d   1      -1.817   2.108  -0.252  1.00  0.00     0.189 HD
ATOM     10  S   UNL d   1       1.085   1.353   0.088  0.00  0.00    -0.085 SA
ATOM     11  C   UNL d   1       1.691  -1.323   0.019  0.00  0.00     0.024 C 
ATOM     12  C   UNL d   1       2.087   0.015  -0.592  0.00  0.00     0.137 C 
ENDROOT
BRANCH   2  13
ATOM     13  C   UNL d   1      -2.515  -2.352   0.012  0.00  0.00     0.052 A 
ATOM     14  S   UNL d   1      -3.981  -2.653  -0.830  0.00  0.00    -0.098 SA
ATOM     15  C   UNL d   1      -4.028  -4.282  -0.314  0.00  0.00     0.050 A 
ATOM     16  C   UNL d   1      -2.964  -4.595   0.500  0.00  0.00     0.009 A 
ATOM     17  C   UNL d   1      -2.092  -3.482   0.687  0.00  0.00     0.023 A 
ENDBRANCH   2  13
BRANCH  11  18
ATOM     18  C   UNL d   1       2.807  -2.291   0.361  0.00  0.00     0.164 C 
BRANCH  18  19
ATOM     19  C   UNL d   1       3.657  -2.680  -0.812  0.00  0.00     0.144 C 
ATOM     20  O   UNL d   1       3.583  -2.173  -1.919  0.00  0.00    -0.650 OA
BRANCH  19  21
ATOM     21  O   UNL d   1       4.566  -3.635  -0.511  0.00  0.00    -0.776 OA
ATOM     22  H   UNL d   1       4.532  -3.967   0.406  0.00  0.00     0.167 HD
ENDBRANCH  19  21
ENDBRANCH  18  19
ENDBRANCH  11  18
TORSDOF 4
