REMARK  7 active torsions:
REMARK  status: ('A' for Active; 'I' for Inactive)
REMARK    1  A    between atoms: N_2  and  S_1 
REMARK    2  A    between atoms: C_3  and  S_1 
REMARK    3  A    between atoms: C_8  and  N_2 
REMARK    4  A    between atoms: C_9  and  N_2 
REMARK    5  A    between atoms: N_7  and  C_4 
REMARK    6  A    between atoms: C_20  and  C_8 
REMARK    7  A    between atoms: C_19  and  C_9 
ROOT
ATOM      1  N   UNL d   1       0.411  -0.161  -1.482  0.00  0.00    -0.195 NA
ENDROOT
BRANCH   1   2
ATOM      2  S   UNL d   1       1.023   0.138   0.076  0.00  0.00     0.245 S 
ATOM      3  O   UNL d   1       0.005   0.794   0.869  0.00  0.00    -0.206 OA
ATOM      4  O   UNL d   1       2.340   0.721  -0.075  0.00  0.00    -0.206 OA
BRANCH   2   5
ATOM      5  C   UNL d   1       1.292  -1.448   0.813  0.00  0.00     0.090 A 
ATOM      6  C   UNL d   1       0.244  -2.291   1.101  0.00  0.00     0.114 A 
ATOM      7  N   UNL d   1       0.393  -3.479   1.748  0.00  0.00    -0.351 N 
ATOM      8  C   UNL d   1       1.616  -3.828   2.211  0.00  0.00     0.103 A 
ATOM      9  HN  UNL d   1      -0.406  -4.098   1.882  1.00  0.00     0.166 HD
ATOM     10  C   UNL d   1       2.711  -2.998   1.987  0.00  0.00     0.050 A 
ATOM     11  C   UNL d   1       2.556  -1.808   1.269  0.00  0.00     0.030 A 
BRANCH   8  12
ATOM     12  N   UNL d   1       1.709  -4.983   2.946  0.00  0.00    -0.363 N 
ATOM     13  C   UNL d   1       2.732  -5.241   3.958  0.00  0.00     0.150 C 
ATOM     14  C   UNL d   1       2.088  -6.013   5.125  0.00  0.00     0.187 C 
ATOM     15  O   UNL d   1       1.448  -7.220   4.675  0.00  0.00    -0.388 OA
ATOM     16  C   UNL d   1       0.411  -6.909   3.724  0.00  0.00     0.187 C 
ATOM     17  C   UNL d   1       0.970  -6.168   2.501  0.00  0.00     0.150 C 
ENDBRANCH   8  12
ENDBRANCH   2   5
ENDBRANCH   1   2
BRANCH   1  18
ATOM     18  C   UNL d   1      -1.085  -0.305  -1.567  0.00  0.00     0.164 C 
BRANCH  18  19
ATOM     19  C   UNL d   1      -1.623  -0.599  -2.961  0.00  0.00     0.023 A 
ATOM     20  N   UNL d   1      -1.271  -1.783  -3.525  0.00  0.00    -0.368 N 
ATOM     21  C   UNL d   1      -1.627  -1.987  -4.812  0.00  0.00     0.088 A 
ATOM     22  HN  UNL d   1      -0.759  -2.490  -2.997  1.00  0.00     0.165 HD
ATOM     23  C   UNL d   1      -2.311  -1.062  -5.581  0.00  0.00     0.017 A 
ATOM     24  C   UNL d   1      -2.686   0.135  -4.988  0.00  0.00     0.003 A 
ATOM     25  C   UNL d   1      -2.352   0.366  -3.657  0.00  0.00     0.026 A 
ENDBRANCH  18  19
ENDBRANCH   1  18
BRANCH   1  26
ATOM     26  C   UNL d   1       0.969   0.761  -2.527  0.00  0.00     0.164 C 
BRANCH  26  27
ATOM     27  C   UNL d   1       0.684   2.242  -2.325  0.00  0.00     0.023 A 
ATOM     28  N   UNL d   1      -0.617   2.633  -2.273  0.00  0.00    -0.368 N 
ATOM     29  C   UNL d   1      -0.874   3.938  -2.045  0.00  0.00     0.088 A 
ATOM     30  HN  UNL d   1      -1.374   1.962  -2.402  1.00  0.00     0.165 HD
ATOM     31  C   UNL d   1       0.109   4.896  -1.888  0.00  0.00     0.017 A 
ATOM     32  C   UNL d   1       1.435   4.490  -1.966  0.00  0.00     0.003 A 
ATOM     33  C   UNL d   1       1.730   3.147  -2.185  0.00  0.00     0.026 A 
ENDBRANCH  26  27
ENDBRANCH   1  26
TORSDOF 7
