REMARK  3 active torsions:
REMARK  status: ('A' for Active; 'I' for Inactive)
REMARK    1  A    between atoms: C_2  and  C_1 
REMARK    2  A    between atoms: C_13  and  C_5 
REMARK    3  A    between atoms: O_19  and  C_13 
ROOT
ATOM      1  C   UNL d   1      -2.051  -2.642   0.133  0.00  0.00     0.046 A 
ATOM      2  N   UNL d   1      -2.739  -3.167  -0.901  0.00  0.00    -0.355 N 
ATOM      3  HN  UNL d   1      -3.027  -2.575  -1.681  1.00  0.00     0.166 HD
ATOM      4  C   UNL d   1      -2.065  -4.737   1.278  0.00  0.00     0.052 A 
ATOM      5  C   UNL d   1      -2.732  -5.329   0.179  0.00  0.00     0.008 A 
ATOM      6  C   UNL d   1      -3.043  -4.475  -0.896  0.00  0.00     0.044 A 
ATOM      7  C   UNL d   1      -1.702  -3.390   1.241  0.00  0.00     0.049 A 
ATOM      8  C   UNL d   1      -3.061  -6.704   0.068  0.00  0.00     0.027 A 
ATOM      9  C   UNL d   1      -3.634  -5.005  -2.035  0.00  0.00     0.042 A 
ATOM     10  C   UNL d   1      -3.582  -7.243  -1.116  0.00  0.00    -0.025 A 
ATOM     11  C   UNL d   1      -3.872  -6.381  -2.188  0.00  0.00    -0.024 A 
ATOM     12  C   UNL d   1      -3.773  -8.626  -1.269  0.00  0.00     0.012 A 
ATOM     13  C   UNL d   1      -4.348  -6.922  -3.395  0.00  0.00     0.012 A 
ATOM     14  C   UNL d   1      -4.501  -8.301  -3.546  0.00  0.00     0.001 A 
ATOM     15  C   UNL d   1      -4.214  -9.153  -2.483  0.00  0.00     0.001 A 
ENDROOT
BRANCH   1  16
ATOM     16  C   UNL d   1      -1.587  -1.267  -0.019  0.00  0.00     0.018 A 
ATOM     17  C   UNL d   1      -1.369  -0.401   1.038  0.00  0.00     0.103 A 
ATOM     18  N   UNL d   1      -0.845   0.763   0.539  0.00  0.00    -0.364 N 
ATOM     19  C   UNL d   1      -0.713   0.680  -0.827  0.00  0.00     0.043 A 
ATOM     20  H   UNL d   1      -0.574   1.566   1.090  0.00  0.00     0.165 HD
ATOM     21  C   UNL d   1      -1.199  -0.569  -1.212  0.00  0.00     0.004 A 
ATOM     22  C   UNL d   1      -0.196   1.609  -1.737  0.00  0.00     0.030 A 
ATOM     23  C   UNL d   1      -1.179  -0.896  -2.586  0.00  0.00     0.014 A 
ATOM     24  C   UNL d   1      -0.672   0.024  -3.511  0.00  0.00     0.001 A 
ATOM     25  C   UNL d   1      -0.181   1.254  -3.089  0.00  0.00     0.002 A 
ENDBRANCH   1  16
BRANCH   4  26
ATOM     26  C   UNL d   1      -1.599  -5.540   2.440  0.00  0.00     0.177 C 
ATOM     27  O   UNL d   1      -1.111  -6.649   2.348  0.00  0.00    -0.646 OA
BRANCH  26  28
ATOM     28  O   UNL d   1      -1.752  -4.904   3.620  0.00  0.00    -0.773 OA
ATOM     29  H   UNL d   1      -2.262  -4.073   3.596  0.00  0.00     0.167 HD
ENDBRANCH  26  28
ENDBRANCH   4  26
TORSDOF 3
