REMARK  8 active torsions:
REMARK  status: ('A' for Active; 'I' for Inactive)
REMARK    1  A    between atoms: C_8  and  C_1 
REMARK    2  A    between atoms: N_18  and  C_3 
REMARK    3  A    between atoms: C_4  and  C_7 
REMARK    4  A    between atoms: N_19  and  C_7 
REMARK    5  A    between atoms: O_23  and  C_8 
REMARK    6  A    between atoms: C_20  and  C_10 
REMARK    7  A    between atoms: N_14  and  O_17 
REMARK    8  A    between atoms: O_17  and  C_20 
ROOT
ATOM      1  C   UNL d   1       0.833  -5.577  -0.125  0.00  0.00     0.108 C 
ATOM      2  N   UNL d   1      -0.141  -4.724   0.013  0.00  0.00    -0.255 N 
ATOM      3  HN  UNL d   1      -0.027  -3.718   0.137  1.00  0.00     0.195 HD
ENDROOT
BRANCH   1   4
ATOM      4  C   UNL d   1       2.237  -5.078  -0.089  0.00  0.00     0.007 A 
ATOM      5  C   UNL d   1       2.574  -3.969   0.688  0.00  0.00     0.040 A 
ATOM      6  C   UNL d   1       3.899  -3.522   0.717  0.00  0.00     0.057 A 
ATOM      7 CL   UNL d   1       4.276  -2.152   1.707  0.00  0.00    -0.082 Cl
ATOM      8  C   UNL d   1       4.914  -4.180  -0.008  0.00  0.00     0.050 A 
ATOM      9  C   UNL d   1       4.533  -5.261  -0.823  0.00  0.00     0.057 A 
ATOM     10  C   UNL d   1       3.215  -5.724  -0.850  0.00  0.00     0.040 A 
ATOM     11 CL   UNL d   1       5.700  -6.083  -1.803  0.00  0.00    -0.082 Cl
BRANCH   8  12
ATOM     12  N   UNL d   1       6.215  -3.636  -0.092  0.00  0.00    -0.300 NA
ATOM     13  H   UNL d   1       6.921  -4.310  -0.379  0.00  0.00     0.124 HD
ATOM     14  H   UNL d   1       6.480  -3.083   0.720  0.00  0.00     0.124 HD
ENDBRANCH   8  12
ENDBRANCH   1   4
BRANCH   1  15
ATOM     15  N   UNL d   1       0.620  -6.923  -0.310  0.00  0.00    -0.286 NA
ATOM     16  H   UNL d   1       1.271  -7.546   0.153  0.00  0.00     0.125 HD
ATOM     17  H   UNL d   1      -0.349  -7.161  -0.112  0.00  0.00     0.125 HD
ENDBRANCH   1  15
BRANCH   2  18
ATOM     18  O   UNL d   1      -1.380  -5.400  -0.033  0.00  0.00    -0.273 OA
BRANCH  18  19
ATOM     19  C   UNL d   1      -2.395  -4.504  -0.491  0.00  0.00     0.266 C 
BRANCH  19  20
ATOM     20  C   UNL d   1      -3.663  -5.277  -0.478  0.00  0.00     0.080 A 
ATOM     21  O   UNL d   1      -4.297  -5.452  -1.674  0.00  0.00    -0.307 OA
ATOM     22  C   UNL d   1      -5.420  -6.204  -1.441  0.00  0.00     0.150 A 
ATOM     23  C   UNL d   1      -5.500  -6.496  -0.092  0.00  0.00     0.046 A 
ATOM     24  C   UNL d   1      -4.377  -5.898   0.526  0.00  0.00     0.038 A 
BRANCH  22  25
ATOM     25  C   UNL d   1      -6.299  -6.571  -2.530  0.00  0.00     0.316 C 
ATOM     26  O   UNL d   1      -7.316  -7.245  -2.416  0.00  0.00    -0.257 OA
BRANCH  25  27
ATOM     27  O   UNL d   1      -5.840  -6.061  -3.710  0.00  0.00    -0.321 OA
ATOM     28  C   UNL d   1      -6.652  -6.380  -4.839  0.00  0.00     0.213 C 
ENDBRANCH  25  27
ENDBRANCH  22  25
ENDBRANCH  19  20
ENDBRANCH  18  19
ENDBRANCH   2  18
TORSDOF 8
