REMARK  3 active torsions:
REMARK  status: ('A' for Active; 'I' for Inactive)
REMARK    1  A    between atoms: N_14  and  C_6 
REMARK    2  A    between atoms: C_19  and  N_14 
REMARK    3  A    between atoms: C_20  and  N_14 
ROOT
ATOM      1  C   UNL d   1       1.081   0.936  -0.172  0.00  0.00     0.078 A 
ATOM      2  S   UNL d   1      -0.311   1.939  -0.305  0.00  0.00    -0.065 SA
ATOM      3  C   UNL d   1      -1.381   0.636  -0.205  0.00  0.00     0.088 A 
ATOM      4  C   UNL d   1      -0.751  -0.595  -0.112  0.00  0.00     0.032 A 
ATOM      5  C   UNL d   1       0.685  -0.405  -0.089  0.00  0.00     0.067 A 
ATOM      6  C   UNL d   1       2.455   1.270  -0.090  0.00  0.00     0.123 A 
ATOM      7  N   UNL d   1      -2.707   0.878  -0.206  0.00  0.00    -0.354 N 
ATOM      8  HN  UNL d   1      -3.093   1.818  -0.292  1.00  0.00     0.166 HD
ATOM      9  C   UNL d   1      -1.597  -1.738  -0.029  0.00  0.00    -0.045 A 
ATOM     10  N   UNL d   1       3.311   0.227   0.078  0.00  0.00    -0.338 N 
ATOM     11  HN  UNL d   1       4.312   0.402   0.175  1.00  0.00     0.168 HD
ATOM     12  N   UNL d   1       1.584  -1.416   0.039  0.00  0.00    -0.350 N 
ATOM     13  HN  UNL d   1       1.308  -2.398   0.073  1.00  0.00     0.166 HD
ATOM     14  C   UNL d   1       2.848  -1.025   0.117  0.00  0.00     0.182 A 
ATOM     15  C   UNL d   1      -2.985  -1.507  -0.012  0.00  0.00     0.032 A 
ATOM     16  C   UNL d   1      -3.483  -0.213  -0.087  0.00  0.00     0.006 A 
ATOM     17  C   UNL d   1      -1.130  -3.167   0.059  0.00  0.00     0.049 C 
ATOM     18  C   UNL d   1      -4.964   0.020  -0.027  0.00  0.00     0.068 C 
ENDROOT
BRANCH   6  19
ATOM     19  N   UNL d   1       3.035   2.542  -0.146  0.00  0.00    -0.367 N 
BRANCH  19  20
ATOM     20  C   UNL d   1       2.357   3.653  -0.813  0.00  0.00     0.120 C 
ATOM     21  C   UNL d   1       3.326   4.735  -1.276  0.00  0.00     0.026 C 
ENDBRANCH  19  20
BRANCH  19  22
ATOM     22  C   UNL d   1       3.981   2.821   0.943  0.00  0.00     0.120 C 
ATOM     23  C   UNL d   1       3.276   3.366   2.179  0.00  0.00     0.026 C 
ENDBRANCH  19  22
ENDBRANCH   6  19
TORSDOF 3
