REMARK  3 active torsions:
REMARK  status: ('A' for Active; 'I' for Inactive)
REMARK    1  A    between atoms: C_9  and  N_1 
REMARK    2  A    between atoms: N_7  and  C_15 
REMARK    3  A    between atoms: C_15  and  C_9 
ROOT
ATOM      1  N   UNL d   1       3.622  -0.557  -0.365  0.00  0.00    -0.264 N 
ATOM      2  C   UNL d   1       3.244  -0.549   0.978  0.00  0.00     0.264 A 
ATOM      3  C   UNL d   1       2.833  -0.063  -1.386  0.00  0.00     0.330 A 
ATOM      4  C   UNL d   1       1.878  -0.064   1.295  0.00  0.00     0.059 A 
ATOM      5  N   UNL d   1       1.594   0.399  -1.044  0.00  0.00    -0.307 N 
ATOM      6  C   UNL d   1       1.086   0.387   0.251  0.00  0.00     0.052 A 
ATOM      7  C   UNL d   1       1.373  -0.087   2.605  0.00  0.00     0.026 A 
ATOM      8  O   UNL d   1       3.177  -0.044  -2.568  0.00  0.00    -0.246 OA
ATOM      9  O   UNL d   1       3.956  -0.948   1.895  0.00  0.00    -0.267 OA
ATOM     10  C   UNL d   1      -0.220   0.816   0.495  0.00  0.00     0.031 A 
ATOM     11  C   UNL d   1       0.061   0.351   2.863  0.00  0.00    -0.061 A 
ATOM     12  C   UNL d   1      -0.727   0.795   1.798  0.00  0.00     0.009 A 
ATOM     13  C   UNL d   1      -0.506   0.329   4.255  0.00  0.00     0.048 C 
ATOM     14  H   UNL d   1       1.024   0.721  -1.815  0.00  0.00     0.170 HD
ENDROOT
BRANCH   1  15
ATOM     15  C   UNL d   1       4.857  -1.267  -0.733  0.00  0.00     0.157 C 
BRANCH  15  16
ATOM     16  C   UNL d   1       6.111  -0.394  -0.995  0.00  0.00     0.143 C 
BRANCH  16  17
ATOM     17  N   UNL d   1       7.383  -1.153  -1.214  0.00  0.00    -0.379 N 
ATOM     18  C   UNL d   1       8.137  -0.812  -2.352  0.00  0.00     0.036 A 
ATOM     19  C   UNL d   1       8.404  -1.754  -3.366  0.00  0.00    -0.031 A 
ATOM     20  C   UNL d   1       8.707   0.462  -2.479  0.00  0.00     0.030 A 
ATOM     21  C   UNL d   1       9.094  -1.373  -4.532  0.00  0.00     0.016 A 
ATOM     22  C   UNL d   1       8.062  -3.212  -3.186  0.00  0.00     0.042 C 
ATOM     23  C   UNL d   1       9.605  -0.081  -4.673  0.00  0.00    -0.061 A 
ATOM     24  C   UNL d   1       9.461   0.813  -3.608  0.00  0.00     0.009 A 
ATOM     25  C   UNL d   1      10.362   0.303  -5.910  0.00  0.00     0.048 C 
ATOM     26  C   UNL d   1       7.123  -3.459  -2.014  0.00  0.00     0.024 C 
ATOM     27  C   UNL d   1       7.508  -2.563  -0.844  0.00  0.00     0.123 C 
ENDBRANCH  16  17
ENDBRANCH  15  16
ENDBRANCH   1  15
TORSDOF 3
