REMARK  7 active torsions:
REMARK  status: ('A' for Active; 'I' for Inactive)
REMARK    1  A    between atoms: N_6  and  C_1 
REMARK    2  A    between atoms: C_8  and  C_2 
REMARK    3  A    between atoms: C_7  and  N_6 
REMARK    4  A    between atoms: N_10  and  C_7 
REMARK    5  A    between atoms: O_14  and  C_8 
REMARK    6  A    between atoms: C_16  and  N_10 
REMARK    7  A    between atoms: C_18  and  O_14 
ROOT
ATOM      1  C   UNL d   1       2.342  -0.437   0.462  0.00  0.00     0.093 C 
ATOM      2  C   UNL d   1       1.923   0.872   0.234  0.00  0.00     0.080 C 
ATOM      3  C   UNL d   1       0.469   0.936   0.337  0.00  0.00    -0.026 C 
ATOM      4  C   UNL d   1      -0.068  -0.300   0.636  0.00  0.00    -0.008 C 
ATOM      5  S   UNL d   1       1.107  -1.385   1.169  0.00  0.00    -0.075 SA
ATOM      6  C   UNL d   1      -0.417   2.107   0.006  0.00  0.00     0.041 C 
ATOM      7  C   UNL d   1      -1.504  -0.692   0.549  0.00  0.00     0.051 C 
ATOM      8  C   UNL d   1      -1.903   1.792   0.268  0.00  0.00     0.009 C 
ATOM      9  C   UNL d   1      -2.318   0.381  -0.202  0.00  0.00    -0.014 C 
ATOM     10  C   UNL d   1      -2.195   0.234  -1.725  0.00  0.00     0.010 C 
ENDROOT
BRANCH   1  11
ATOM     11  N   UNL d   1       3.586  -1.038   0.330  0.00  0.00    -0.327 N 
ATOM     12  H   UNL d   1       4.364  -0.415   0.142  0.00  0.00     0.169 HD
BRANCH  11  13
ATOM     13  C   UNL d   1       3.777  -2.325  -0.123  0.00  0.00     0.177 C 
ATOM     14  S   UNL d   1       2.791  -3.197  -1.177  0.00  0.00    -0.040 SA
BRANCH  13  15
ATOM     15  N   UNL d   1       4.954  -2.945   0.197  0.00  0.00    -0.333 N 
ATOM     16  H   UNL d   1       5.058  -3.817  -0.309  0.00  0.00     0.168 HD
BRANCH  15  17
ATOM     17  C   UNL d   1       5.961  -2.662   1.131  0.00  0.00     0.034 A 
ATOM     18  C   UNL d   1       5.871  -1.696   2.132  0.00  0.00     0.029 A 
ATOM     19  C   UNL d   1       6.941  -1.493   3.009  0.00  0.00     0.002 A 
ATOM     20  C   UNL d   1       8.099  -2.260   2.900  0.00  0.00     0.000 A 
ATOM     21  C   UNL d   1       8.184  -3.250   1.926  0.00  0.00     0.002 A 
ATOM     22  C   UNL d   1       7.115  -3.456   1.052  0.00  0.00     0.029 A 
ENDBRANCH  15  17
ENDBRANCH  13  15
ENDBRANCH  11  13
ENDBRANCH   1  11
BRANCH   2  23
ATOM     23  C   UNL d   1       2.756   1.992  -0.212  0.00  0.00     0.296 C 
ATOM     24  O   UNL d   1       2.303   3.093  -0.497  0.00  0.00    -0.259 OA
BRANCH  23  25
ATOM     25  O   UNL d   1       4.084   1.667  -0.332  0.00  0.00    -0.318 OA
BRANCH  25  26
ATOM     26  C   UNL d   1       4.878   2.630  -1.046  0.00  0.00     0.174 C 
ATOM     27  C   UNL d   1       4.816   2.300  -2.527  0.00  0.00     0.034 C 
ENDBRANCH  25  26
ENDBRANCH  23  25
ENDBRANCH   2  23
TORSDOF 7
