REMARK  7 active torsions:
REMARK  status: ('A' for Active; 'I' for Inactive)
REMARK    1  A    between atoms: C_5  and  N_1 
REMARK    2  A    between atoms: C_6  and  N_2 
REMARK    3  A    between atoms: N_4  and  C_3 
REMARK    4  A    between atoms: C_17  and  N_4 
REMARK    5  A    between atoms: C_18  and  N_4 
REMARK    6  A    between atoms: C_13  and  C_5 
REMARK    7  A    between atoms: C_16  and  C_6 
ROOT
ATOM      1  N   UNL d   1      -1.419   0.081   0.259  0.00  0.00     0.096 N 
ATOM      2  N   UNL d   1       1.539  -0.042  -0.420  0.00  0.00     0.096 N 
ATOM      3  C   UNL d   1      -0.743  -1.133  -0.246  0.00  0.00     0.303 C 
ATOM      4  C   UNL d   1       0.879   1.206   0.024  0.00  0.00     0.303 C 
ATOM      5  C   UNL d   1      -0.659   1.267  -0.205  0.00  0.00     0.303 C 
ATOM      6  C   UNL d   1       0.763  -1.196   0.084  0.00  0.00     0.303 C 
ENDROOT
BRANCH   1   7
ATOM      7  C   UNL d   1      -1.538   0.104   1.729  0.00  0.00     0.311 C 
BRANCH   7   8
ATOM      8  C   UNL d   1      -2.198  -1.114   2.337  0.00  0.00    -0.030 A 
ATOM      9  C   UNL d   1      -1.461  -1.986   3.144  0.00  0.00     0.011 A 
ATOM     10  C   UNL d   1      -2.071  -3.095   3.741  0.00  0.00     0.030 A 
ATOM     11  C   UNL d   1      -3.437  -3.364   3.583  0.00  0.00     0.030 A 
ATOM     12  C   UNL d   1      -4.150  -2.499   2.738  0.00  0.00     0.030 A 
ATOM     13  C   UNL d   1      -3.546  -1.397   2.116  0.00  0.00     0.011 A 
BRANCH  11  14
ATOM     14  N   UNL d   1      -4.053  -4.410   4.258  0.00  0.00    -0.382 N 
BRANCH  14  15
ATOM     15  C   UNL d   1      -3.355  -5.681   4.467  0.00  0.00     0.118 C 
ATOM     16  C   UNL d   1      -2.833  -5.812   5.890  0.00  0.00     0.026 C 
ENDBRANCH  14  15
BRANCH  14  17
ATOM     17  C   UNL d   1      -5.444  -4.303   4.712  0.00  0.00     0.118 C 
ATOM     18  C   UNL d   1      -5.604  -3.208   5.760  0.00  0.00     0.026 C 
ENDBRANCH  14  17
ENDBRANCH  11  14
ENDBRANCH   7   8
ENDBRANCH   1   7
BRANCH   2  19
ATOM     19  C   UNL d   1       1.689  -0.055  -1.888  0.00  0.00     0.311 C 
BRANCH  19  20
ATOM     20  C   UNL d   1       2.362  -1.304  -2.420  0.00  0.00    -0.030 A 
ATOM     21  C   UNL d   1       1.656  -2.195  -3.244  0.00  0.00     0.009 A 
ATOM     22  C   UNL d   1       2.259  -3.368  -3.699  0.00  0.00     0.001 A 
ATOM     23  C   UNL d   1       3.574  -3.661  -3.341  0.00  0.00     0.000 A 
ATOM     24  C   UNL d   1       4.287  -2.781  -2.527  0.00  0.00     0.001 A 
ATOM     25  C   UNL d   1       3.684  -1.609  -2.068  0.00  0.00     0.009 A 
ENDBRANCH  19  20
ENDBRANCH   2  19
TORSDOF 7
