REMARK  2 active torsions:
REMARK  status: ('A' for Active; 'I' for Inactive)
REMARK       I    between atoms: N_2  and  C_1 
REMARK    1  A    between atoms: C_11  and  C_1 
REMARK    2  A    between atoms: C_7  and  N_2 
ROOT
ATOM      1  C   UNL d   1       2.623  -3.945   1.235  0.00  0.00    -0.006 A 
ATOM      2  N   UNL d   1       2.341  -6.111   1.666  0.00  0.00    -0.365 N 
ATOM      3  C   UNL d   1       1.745  -5.015   1.082  0.00  0.00     0.042 A 
ATOM      4  C   UNL d   1       3.566  -5.769   2.177  0.00  0.00     0.089 A 
ATOM      5  C   UNL d   1       0.981  -2.494   0.165  0.00  0.00     0.035 A 
ATOM      6  C   UNL d   1       2.239  -2.675   0.760  0.00  0.00     0.043 A 
ATOM      7  C   UNL d   1       3.776  -4.436   1.908  0.00  0.00     0.030 A 
ATOM      8  C   UNL d   1       0.506  -4.880   0.447  0.00  0.00     0.033 A 
ATOM      9  C   UNL d   1       0.138  -3.599   0.004  0.00  0.00     0.032 A 
ATOM     10  H   UNL d   1       1.922  -7.028   1.730  0.00  0.00     0.165 HD
ENDROOT
BRANCH   5  11
ATOM     11  N   UNL d   1       0.492  -1.220  -0.215  0.00  0.00    -0.323 N 
ATOM     12  C   UNL d   1       1.231  -0.051  -0.265  0.00  0.00     0.256 C 
ATOM     13  O   UNL d   1       2.457   0.023  -0.251  0.00  0.00    -0.267 OA
ATOM     14  H   UNL d   1      -0.478  -1.172  -0.494  0.00  0.00     0.169 HD
BRANCH  12  15
ATOM     15  C   UNL d   1       0.469   1.225  -0.366  0.00  0.00     0.032 A 
ATOM     16  C   UNL d   1      -0.782   1.401   0.239  0.00  0.00     0.017 A 
ATOM     17  C   UNL d   1      -1.383   2.665   0.239  0.00  0.00     0.001 A 
ATOM     18  C   UNL d   1      -0.741   3.751  -0.360  0.00  0.00     0.000 A 
ATOM     19  C   UNL d   1       0.497   3.578  -0.974  0.00  0.00     0.001 A 
ATOM     20  C   UNL d   1       1.100   2.320  -0.976  0.00  0.00     0.017 A 
ENDBRANCH  12  15
ENDBRANCH   5  11
TORSDOF 2
