REMARK  2 active torsions:
REMARK  status: ('A' for Active; 'I' for Inactive)
REMARK    1  A    between atoms: N_11  and  N_4 
REMARK    2  A    between atoms: C_27  and  C_21 
ROOT
ATOM      1  C   UNL d   1       1.194   0.820   0.074  0.00  0.00     0.104 A 
ATOM      2  C   UNL d   1       0.709  -0.457   0.061  0.00  0.00     0.070 A 
ATOM      3  C   UNL d   1       2.590   1.118   0.088  0.00  0.00     0.287 C 
ATOM      4  N   UNL d   1       3.394  -0.047  -0.031  0.00  0.00    -0.207 N 
ATOM      5  N   UNL d   1       1.554  -1.575   0.081  0.00  0.00    -0.343 N 
ATOM      6  HN  UNL d   1       1.194  -2.528   0.125  1.00  0.00     0.167 HD
ATOM      7  S   UNL d   1      -0.032   1.982   0.061  0.00  0.00    -0.064 SA
ATOM      8  C   UNL d   1      -0.718  -0.527   0.030  0.00  0.00     0.032 A 
ATOM      9  C   UNL d   1      -1.237   0.770   0.029  0.00  0.00     0.088 A 
ATOM     10  C   UNL d   1       2.832  -1.316   0.041  0.00  0.00     0.103 C 
ATOM     11  N   UNL d   1      -2.537   1.126   0.007  0.00  0.00    -0.354 N 
ATOM     12  HN  UNL d   1      -2.842   2.099   0.005  1.00  0.00     0.166 HD
ATOM     13  C   UNL d   1      -1.650  -1.591   0.003  0.00  0.00    -0.045 A 
ATOM     14  O   UNL d   1       3.035   2.264   0.195  0.00  0.00    -0.265 OA
ATOM     15  C   UNL d   1      -3.011  -1.243  -0.017  0.00  0.00     0.032 A 
ATOM     16  C   UNL d   1      -3.399   0.093  -0.013  0.00  0.00     0.006 A 
ATOM     17  C   UNL d   1       3.756  -2.514   0.033  0.00  0.00     0.091 C 
ATOM     18  C   UNL d   1      -1.291  -3.052  -0.002  0.00  0.00     0.049 C 
ATOM     19  C   UNL d   1      -4.862   0.430  -0.029  0.00  0.00     0.068 C 
ENDROOT
BRANCH   4  20
ATOM     20  N   UNL d   1       4.787   0.086  -0.011  0.00  0.00    -0.300 N 
ATOM     21  C   UNL d   1       5.210   1.030  -0.790  0.00  0.00     0.119 C 
ATOM     22  HN  UNL d   1       5.402  -0.497   0.557  1.00  0.00     0.186 HD
BRANCH  21  23
ATOM     23  C   UNL d   1       6.516   1.667  -0.663  0.00  0.00    -0.017 A 
ATOM     24  C   UNL d   1       6.459   3.064  -0.699  0.00  0.00     0.052 A 
ATOM     25  C   UNL d   1       7.643   3.741  -0.606  0.00  0.00     0.105 A 
ATOM     26  O   UNL d   1       7.774   5.091  -0.636  0.00  0.00    -0.323 OA
ATOM     27  C   UNL d   1       8.845   3.085  -0.482  0.00  0.00     0.105 A 
ATOM     28  C   UNL d   1       9.207   5.206  -0.703  0.00  0.00     0.352 C 
ATOM     29  O   UNL d   1       9.890   3.957  -0.447  0.00  0.00    -0.323 OA
ATOM     30  C   UNL d   1       8.921   1.705  -0.413  0.00  0.00     0.040 A 
ATOM     31  C   UNL d   1       7.726   0.976  -0.499  0.00  0.00     0.016 A 
ENDBRANCH  21  23
ENDBRANCH   4  20
TORSDOF 2
