REMARK  1 active torsions:
REMARK  status: ('A' for Active; 'I' for Inactive)
REMARK    1  A    between atoms: O_12  and  C_9 
ROOT
ATOM      1  C   UNL d   1       0.025   0.692   0.015  0.00  0.00    -0.045 A 
ATOM      2  C   UNL d   1      -0.004  -0.713  -0.014  0.00  0.00    -0.048 A 
ATOM      3  C   UNL d   1      -1.243   1.513   0.010  0.00  0.00     0.117 C 
ATOM      4  C   UNL d   1      -2.475   0.686  -0.267  0.00  0.00     0.131 C 
ATOM      5  C   UNL d   1       1.207  -1.432  -0.036  0.00  0.00     0.044 A 
ATOM      6  C   UNL d   1      -1.304  -1.475  -0.108  0.00  0.00     0.046 C 
ATOM      7  C   UNL d   1       1.260   1.353   0.066  0.00  0.00     0.011 A 
ATOM      8  O   UNL d   1      -3.442   1.137  -0.880  0.00  0.00    -0.298 OA
ATOM      9  C   UNL d   1       2.433  -0.767  -0.004  0.00  0.00     0.068 A 
ATOM     10  C   UNL d   1      -2.508  -0.678   0.368  0.00  0.00     0.083 C 
ATOM     11  C   UNL d   1       2.450   0.626   0.054  0.00  0.00     0.037 A 
ENDROOT
BRANCH   9  12
ATOM     12  O   UNL d   1       3.668  -1.355  -0.028  0.00  0.00    -0.356 OA
ATOM     13  C   UNL d   1       3.703  -2.774  -0.113  0.00  0.00     0.210 C 
ENDBRANCH   9  12
TORSDOF 1
