REMARK  5 active torsions:
REMARK  status: ('A' for Active; 'I' for Inactive)
REMARK    1  A    between atoms: N_7  and  C_1 
REMARK    2  A    between atoms: C_9  and  N_2 
REMARK    3  A    between atoms: N_5  and  N_7 
REMARK    4  A    between atoms: C_10  and  C_8 
REMARK    5  A    between atoms: C_13  and  C_9 
ROOT
ATOM      1  C   UNL d   1       2.106  -1.591  -0.076  0.00  0.00     0.691 A 
ATOM      2  N   UNL d   1       1.174  -0.602  -0.199  0.00  0.00    -0.211 N 
ATOM      3  N   UNL d   1       3.354  -1.216  -0.174  0.00  0.00    -0.223 N 
ATOM      4  HN  UNL d   1       4.183  -1.810  -0.151  1.00  0.00     0.177 HD
ATOM      5  C   UNL d   1       3.307   0.261  -0.326  0.00  0.00     0.158 A 
ATOM      6  C   UNL d   1       1.832   0.664  -0.407  0.00  0.00     0.161 A 
ENDROOT
BRANCH   1   7
ATOM      7  N   UNL d   1       1.646  -2.853   0.210  0.00  0.00    -0.132 N 
ATOM      8  H   UNL d   1       0.844  -3.094  -0.372  0.00  0.00     0.205 HD
BRANCH   7   9
ATOM      9  N   UNL d   1       2.385  -3.939   0.579  0.00  0.00    -0.290 N 
ATOM     10  C   UNL d   1       3.180  -3.849   1.615  0.00  0.00     0.032 C 
ATOM     11  C   UNL d   1       3.339  -2.618   2.493  0.00  0.00     0.070 C 
ATOM     12  HN  UNL d   1       2.318  -4.810   0.053  1.00  0.00     0.187 HD
BRANCH  10  13
ATOM     13  C   UNL d   1       3.965  -5.069   2.018  0.00  0.00    -0.013 A 
ATOM     14  C   UNL d   1       3.716  -6.294   1.381  0.00  0.00     0.013 A 
ATOM     15  C   UNL d   1       4.391  -7.451   1.780  0.00  0.00     0.001 A 
ATOM     16  C   UNL d   1       5.320  -7.397   2.817  0.00  0.00     0.000 A 
ATOM     17  C   UNL d   1       5.588  -6.184   3.446  0.00  0.00     0.001 A 
ATOM     18  C   UNL d   1       4.920  -5.024   3.044  0.00  0.00     0.013 A 
ENDBRANCH  10  13
ENDBRANCH   7   9
ENDBRANCH   1   7
BRANCH   2  19
ATOM     19  C   UNL d   1      -0.238  -0.656   0.104  0.00  0.00     0.179 C 
BRANCH  19  20
ATOM     20  C   UNL d   1      -1.095  -0.943  -1.111  0.00  0.00    -0.040 A 
ATOM     21  C   UNL d   1      -0.573  -1.046  -2.411  0.00  0.00     0.009 A 
ATOM     22  C   UNL d   1      -1.410  -1.278  -3.504  0.00  0.00     0.001 A 
ATOM     23  C   UNL d   1      -2.781  -1.415  -3.315  0.00  0.00     0.000 A 
ATOM     24  C   UNL d   1      -3.318  -1.325  -2.033  0.00  0.00     0.001 A 
ATOM     25  C   UNL d   1      -2.482  -1.090  -0.939  0.00  0.00     0.009 A 
ENDBRANCH  19  20
ENDBRANCH   2  19
TORSDOF 5
