REMARK  3 active torsions:
REMARK  status: ('A' for Active; 'I' for Inactive)
REMARK    1  A    between atoms: N_2  and  C_1 
REMARK    2  A    between atoms: N_3  and  C_7 
REMARK    3  A    between atoms: N_6  and  C_4 
ROOT
ATOM      1  C   UNL d   1       1.443  -0.143   0.087  0.00  0.00     0.131 A 
ATOM      2  C   UNL d   1       0.657  -1.313  -0.020  0.00  0.00     0.063 A 
ATOM      3  C   UNL d   1       0.900   1.150   0.154  0.00  0.00     0.074 A 
ATOM      4  C   UNL d   1      -0.485   1.291   0.097  0.00  0.00     0.105 A 
ATOM      5  C   UNL d   1      -0.733  -1.113  -0.108  0.00  0.00     0.034 A 
ATOM      6  C   UNL d   1      -1.304   0.167  -0.048  0.00  0.00     0.038 A 
ENDROOT
BRANCH   2   7
ATOM      7  N   UNL d   1       1.206  -2.592  -0.036  0.00  0.00    -0.379 N 
ATOM      8  C   UNL d   1       0.539  -3.682  -0.759  0.00  0.00     0.123 C 
ATOM      9  C   UNL d   1       1.604  -4.690  -1.198  0.00  0.00     0.024 C 
ATOM     10  C   UNL d   1       2.463  -5.181  -0.019  0.00  0.00    -0.015 C 
ATOM     11  C   UNL d   1       2.987  -4.005   0.820  0.00  0.00     0.024 C 
ATOM     12  C   UNL d   1       3.631  -6.029  -0.524  0.00  0.00     0.010 C 
ATOM     13  C   UNL d   1       1.865  -3.042   1.201  0.00  0.00     0.123 C 
ENDBRANCH   2   7
BRANCH   1  14
ATOM     14  N   UNL d   1       2.894  -0.224   0.088  0.00  0.00    -0.113 N 
ATOM     15  O   UNL d   1       3.453  -0.640  -0.934  0.00  0.00    -0.532 OA
ATOM     16  O   UNL d   1       3.471   0.195   1.106  0.00  0.00    -0.532 OA
ENDBRANCH   1  14
BRANCH   4  17
ATOM     17  N   UNL d   1      -1.084   2.628   0.197  0.00  0.00    -0.116 N 
ATOM     18  O   UNL d   1      -0.320   3.591   0.334  0.00  0.00    -0.532 OA
ATOM     19  O   UNL d   1      -2.320   2.709   0.143  0.00  0.00    -0.532 OA
ENDBRANCH   4  17
TORSDOF 3
