REMARK  8 active torsions:
REMARK  status: ('A' for Active; 'I' for Inactive)
REMARK    1  A    between atoms: C_9  and  C_1 
REMARK    2  A    between atoms: N_18  and  C_3 
REMARK    3  A    between atoms: C_12  and  C_6 
REMARK       I    between atoms: N_14  and  C_9 
REMARK    4  A    between atoms: C_22  and  C_10 
REMARK    5  A    between atoms: C_13  and  N_15 
REMARK    6  A    between atoms: N_24  and  C_13 
REMARK    7  A    between atoms: N_15  and  N_14 
REMARK    8  A    between atoms: C_27  and  N_24 
ROOT
ATOM      1  C   UNL d   1       2.408   0.056   0.057  0.00  0.00     0.174 A 
ATOM      2  C   UNL d   1       0.286   0.859   0.071  0.00  0.00     0.058 A 
ATOM      3  C   UNL d   1       1.663   1.216   0.123  0.00  0.00     0.081 A 
ATOM      4  C   UNL d   1       0.280  -0.537   0.017  0.00  0.00     0.162 A 
ATOM      5  O   UNL d   1       1.560  -1.019   0.009  0.00  0.00    -0.285 OA
ATOM      6  C   UNL d   1      -0.972   1.496   0.075  0.00  0.00     0.017 A 
ATOM      7  N   UNL d   1      -0.792  -1.350  -0.034  0.00  0.00    -0.335 N 
ATOM      8  HN  UNL d   1      -0.711  -2.367  -0.064  1.00  0.00     0.168 HD
ATOM      9  C   UNL d   1      -1.986  -0.712  -0.041  0.00  0.00     0.045 A 
ATOM     10  C   UNL d   1      -2.108   0.677   0.029  0.00  0.00     0.045 A 
ENDROOT
BRANCH   1  11
ATOM     11  C   UNL d   1       3.838  -0.132  -0.009  0.00  0.00     0.296 C 
ATOM     12  N   UNL d   1       4.263  -1.450  -0.011  0.00  0.00    -0.262 N 
ATOM     13  H   UNL d   1       3.605  -2.226  -0.009  0.00  0.00     0.190 HD
ATOM     14  O   UNL d   1       4.654   0.792  -0.092  0.00  0.00    -0.264 OA
BRANCH  12  15
ATOM     15  N   UNL d   1       5.607  -1.716  -0.324  0.00  0.00    -0.274 N 
ATOM     16  H   UNL d   1       6.209  -0.892  -0.298  0.00  0.00     0.189 HD
BRANCH  15  17
ATOM     17  C   UNL d   1       6.180  -2.950  -0.065  0.00  0.00     0.186 C 
ATOM     18  S   UNL d   1       5.357  -4.253   0.586  0.00  0.00    -0.040 SA
BRANCH  17  19
ATOM     19  N   UNL d   1       7.511  -2.952  -0.449  0.00  0.00    -0.366 N 
ATOM     20  H   UNL d   1       7.726  -2.294  -1.188  0.00  0.00     0.161 HD
BRANCH  19  21
ATOM     21  C   UNL d   1       8.419  -4.086  -0.330  0.00  0.00     0.117 C 
ATOM     22  C   UNL d   1       9.846  -3.687  -0.655  0.00  0.00     0.026 C 
ENDBRANCH  19  21
ENDBRANCH  17  19
ENDBRANCH  15  17
ENDBRANCH  12  15
ENDBRANCH   1  11
BRANCH   3  23
ATOM     23  N   UNL d   1       2.182   2.458   0.204  0.00  0.00    -0.396 N 
ATOM     24  H   UNL d   1       1.598   3.264  -0.016  0.00  0.00     0.156 HD
ATOM     25  H   UNL d   1       3.175   2.619   0.034  0.00  0.00     0.156 HD
ENDBRANCH   3  23
BRANCH   6  26
ATOM     26  C   UNL d   1      -1.108   2.944   0.150  0.00  0.00     0.086 A 
ATOM     27  O   UNL d   1      -0.147   3.699  -0.460  0.00  0.00    -0.322 OA
ATOM     28  C   UNL d   1      -0.467   5.004  -0.266  0.00  0.00     0.142 A 
ATOM     29  C   UNL d   1      -1.641   5.109   0.435  0.00  0.00     0.027 A 
ATOM     30  C   UNL d   1      -2.068   3.781   0.687  0.00  0.00     0.040 A 
ENDBRANCH   6  26
BRANCH   9  31
ATOM     31  C   UNL d   1      -3.186  -1.579  -0.135  0.00  0.00    -0.009 A 
ATOM     32  C   UNL d   1      -3.240  -2.822   0.518  0.00  0.00     0.013 A 
ATOM     33  C   UNL d   1      -4.376  -3.639   0.440  0.00  0.00     0.001 A 
ATOM     34  C   UNL d   1      -5.483  -3.230  -0.299  0.00  0.00     0.000 A 
ATOM     35  C   UNL d   1      -5.455  -2.005  -0.961  0.00  0.00     0.001 A 
ATOM     36  C   UNL d   1      -4.319  -1.193  -0.880  0.00  0.00     0.013 A 
ENDBRANCH   9  31
TORSDOF 8
