REMARK  4 active torsions:
REMARK  status: ('A' for Active; 'I' for Inactive)
REMARK    1  A    between atoms: C_10  and  N_1 
REMARK    2  A    between atoms: C_7  and  C_2 
REMARK    3  A    between atoms: N_9  and  C_8 
REMARK    4  A    between atoms: O_16  and  C_13 
ROOT
ATOM      1  N   UNL d   1      -0.098  -1.354  -0.097  0.00  0.00    -0.225 N 
ATOM      2  C   UNL d   1       1.105  -0.696   0.158  0.00  0.00     0.139 C 
ATOM      3  N   UNL d   1      -0.436   0.750  -0.266  0.00  0.00    -0.007 NA
ATOM      4  N   UNL d   1      -1.005  -0.425  -0.483  0.00  0.00     0.001 NA
ATOM      5  N   UNL d   1       0.862   0.603   0.140  0.00  0.00    -0.270 N 
ATOM      6  HN  UNL d   1       1.515   1.349   0.381  1.00  0.00     0.185 HD
ENDROOT
BRANCH   1   7
ATOM      7  C   UNL d   1      -0.448  -2.725   0.004  0.00  0.00     0.056 A 
ATOM      8  C   UNL d   1       0.201  -3.574   0.911  0.00  0.00     0.034 A 
ATOM      9  C   UNL d   1      -0.117  -4.936   0.956  0.00  0.00     0.039 A 
ATOM     10  C   UNL d   1      -1.075  -5.462   0.091  0.00  0.00     0.068 A 
ATOM     11  C   UNL d   1      -1.757  -4.604  -0.776  0.00  0.00     0.039 A 
ATOM     12  C   UNL d   1      -1.466  -3.237  -0.810  0.00  0.00     0.034 A 
BRANCH  10  13
ATOM     13  O   UNL d   1      -1.434  -6.778  -0.001  0.00  0.00    -0.356 OA
ATOM     14  C   UNL d   1      -0.708  -7.701   0.802  0.00  0.00     0.210 C 
ENDBRANCH  10  13
ENDBRANCH   1   7
BRANCH   2  15
ATOM     15  C   UNL d   1       2.329  -1.399   0.262  0.00  0.00     0.068 C 
ATOM     16  C   UNL d   1       3.368  -0.904   0.950  0.00  0.00     0.089 C 
BRANCH  16  17
ATOM     17  N   UNL d   1       4.598  -1.487   1.173  0.00  0.00    -0.390 N 
ATOM     18  C   UNL d   1       5.071  -2.761   0.638  0.00  0.00     0.122 C 
ATOM     19  C   UNL d   1       5.969  -3.290   1.745  0.00  0.00     0.021 C 
ATOM     20  C   UNL d   1       6.641  -2.032   2.270  0.00  0.00     0.021 C 
ATOM     21  C   UNL d   1       5.583  -0.939   2.113  0.00  0.00     0.122 C 
ENDBRANCH  16  17
ENDBRANCH   2  15
TORSDOF 4
