REMARK  8 active torsions:
REMARK  status: ('A' for Active; 'I' for Inactive)
REMARK    1  A    between atoms: C_7  and  C_1 
REMARK    2  A    between atoms: C_8  and  C_1 
REMARK    3  A    between atoms: N_12  and  C_3 
REMARK    4  A    between atoms: O_18  and  C_7 
REMARK    5  A    between atoms: O_17  and  C_8 
REMARK    6  A    between atoms: C_16  and  N_12 
REMARK    7  A    between atoms: C_21  and  O_17 
REMARK    8  A    between atoms: C_20  and  O_18 
ROOT
ATOM      1  N   UNL d   1       0.941   1.508   1.869  0.00  0.00    -0.365 N 
ATOM      2  H   UNL d   1       1.928   1.761   1.759  0.00  0.00     0.165 HD
ENDROOT
BRANCH   1   3
ATOM      3  C   UNL d   1       0.444   0.671   0.894  0.00  0.00     0.112 C 
ATOM      4  C   UNL d   1       1.109   0.003  -0.070  0.00  0.00     0.129 C 
BRANCH   4   5
ATOM      5  C   UNL d   1       0.357  -0.694  -1.145  0.00  0.00     0.300 C 
ATOM      6  O   UNL d   1       0.815  -0.930  -2.254  0.00  0.00    -0.259 OA
BRANCH   5   7
ATOM      7  O   UNL d   1      -0.936  -0.914  -0.782  0.00  0.00    -0.318 OA
BRANCH   7   8
ATOM      8  C   UNL d   1      -1.843  -1.169  -1.865  0.00  0.00     0.174 C 
ATOM      9  C   UNL d   1      -2.308   0.162  -2.433  0.00  0.00     0.034 C 
ENDBRANCH   7   8
ENDBRANCH   5   7
ENDBRANCH   4   5
BRANCH   4  10
ATOM     10  C   UNL d   1       2.579   0.141  -0.146  0.00  0.00     0.300 C 
ATOM     11  O   UNL d   1       3.203   1.075   0.343  0.00  0.00    -0.259 OA
BRANCH  10  12
ATOM     12  O   UNL d   1       3.121  -0.888  -0.842  0.00  0.00    -0.318 OA
BRANCH  12  13
ATOM     13  C   UNL d   1       4.449  -0.672  -1.336  0.00  0.00     0.174 C 
ATOM     14  C   UNL d   1       4.357   0.054  -2.667  0.00  0.00     0.034 C 
ENDBRANCH  12  13
ENDBRANCH  10  12
ENDBRANCH   4  10
ENDBRANCH   1   3
BRANCH   1  15
ATOM     15  C   UNL d   1       0.202   2.288   2.780  0.00  0.00     0.034 A 
ATOM     16  C   UNL d   1       0.739   3.522   3.193  0.00  0.00     0.062 A 
ATOM     17  C   UNL d   1      -0.038   4.308   4.050  0.00  0.00     0.076 A 
ATOM     18  N   UNL d   1       0.143   5.532   4.625  0.00  0.00    -0.282 N 
ATOM     19  C   UNL d   1      -1.291   3.934   4.505  0.00  0.00     0.074 A 
ATOM     20  N   UNL d   1      -0.903   5.891   5.386  0.00  0.00    -0.022 NA
ATOM     21  H   UNL d   1       0.931   6.167   4.548  0.00  0.00     0.184 HD
ATOM     22  N   UNL d   1      -1.795   4.910   5.321  0.00  0.00    -0.282 N 
ATOM     23  HN  UNL d   1      -2.698   4.889   5.796  1.00  0.00     0.184 HD
ATOM     24  C   UNL d   1      -1.829   2.707   4.101  0.00  0.00     0.035 A 
ATOM     25  C   UNL d   1      -1.071   1.903   3.231  0.00  0.00     0.032 A 
ENDBRANCH   1  15
TORSDOF 8
