REMARK  2 active torsions:
REMARK  status: ('A' for Active; 'I' for Inactive)
REMARK    1  A    between atoms: C_8  and  C_3 
REMARK    2  A    between atoms: C_17  and  C_7 
ROOT
ATOM      1  C   UNL d   1      -1.108   1.732  -0.379  0.00  0.00     0.042 C 
ATOM      2  C   UNL d   1      -1.070   2.367  -1.567  0.00  0.00     0.125 C 
ATOM      3  N   UNL d   1      -1.346   1.186  -3.848  0.00  0.00    -0.191 NA
ATOM      4  N   UNL d   1      -0.774   4.942  -1.556  0.00  0.00    -0.191 NA
ATOM      5  C   UNL d   1      -1.215   1.696  -2.812  0.00  0.00     0.110 C 
ATOM      6  C   UNL d   1      -0.904   3.786  -1.581  0.00  0.00     0.110 C 
ENDROOT
BRANCH   1   7
ATOM      7  C   UNL d   1      -1.263   0.301  -0.077  0.00  0.00    -0.043 C 
ATOM      8  C   UNL d   1      -0.453  -0.652  -0.643  0.00  0.00     0.077 C 
ATOM      9  C   UNL d   1       0.424  -1.001   0.506  0.00  0.00    -0.057 C 
ATOM     10  C   UNL d   1      -1.119  -1.877  -1.237  0.00  0.00    -0.071 C 
ATOM     11  C   UNL d   1       1.621  -1.579   0.325  0.00  0.00     0.070 C 
ATOM     12  C   UNL d   1      -0.437  -0.986   1.664  0.00  0.00    -0.058 C 
ATOM     13  C   UNL d   1       1.754  -2.943  -0.212  0.00  0.00    -0.072 C 
ATOM     14  C   UNL d   1       0.800  -3.545  -0.954  0.00  0.00     0.004 C 
ATOM     15  C   UNL d   1      -0.524  -3.089  -1.329  0.00  0.00     0.004 C 
ATOM     16  C   UNL d   1      -1.418  -0.125   1.348  0.00  0.00     0.015 C 
ATOM     17  C   UNL d   1      -0.413  -1.948   2.791  0.00  0.00     0.048 C 
ATOM     18  C   UNL d   1      -2.595  -1.787  -1.553  0.00  0.00     0.044 C 
BRANCH  13  19
ATOM     19  C   UNL d   1       3.101  -3.635   0.020  0.00  0.00     0.007 C 
ATOM     20  C   UNL d   1       4.238  -2.983  -0.779  0.00  0.00     0.014 C 
ATOM     21  C   UNL d   1       3.480  -3.736   1.501  0.00  0.00     0.014 C 
ENDBRANCH  13  19
ENDBRANCH   1   7
TORSDOF 2
