REMARK  3 active torsions:
REMARK  status: ('A' for Active; 'I' for Inactive)
REMARK    1  A    between atoms: C_10  and  N_1 
REMARK    2  A    between atoms: C_3  and  C_2 
REMARK    3  A    between atoms: C_11  and  C_12 
ROOT
ATOM      1  N   UNL d   1      -0.167  -1.315   0.117  0.00  0.00    -0.221 N 
ATOM      2  C   UNL d   1       1.056  -0.661  -0.078  0.00  0.00     0.157 A 
ATOM      3  N   UNL d   1      -1.135  -0.364   0.168  0.00  0.00    -0.219 N 
ATOM      4  HN  UNL d   1      -2.135  -0.519   0.295  1.00  0.00     0.210 HD
ATOM      5  N   UNL d   1      -0.531   0.798   0.022  0.00  0.00    -0.226 N 
ATOM      6  HN  UNL d   1      -1.006   1.700   0.030  1.00  0.00     0.210 HD
ATOM      7  N   UNL d   1       0.810   0.636  -0.141  0.00  0.00    -0.268 N 
ATOM      8  HN  UNL d   1       1.497   1.377  -0.284  1.00  0.00     0.190 HD
ENDROOT
BRANCH   2   9
ATOM      9  C   UNL d   1       2.379  -1.242  -0.275  0.00  0.00     0.042 A 
ATOM     10  C   UNL d   1       3.522  -0.786   0.409  0.00  0.00     0.064 A 
ATOM     11  C   UNL d   1       4.755  -1.416   0.163  0.00  0.00     0.034 A 
ATOM     12  C   UNL d   1       4.813  -2.468  -0.733  0.00  0.00     0.088 A 
ATOM     13  N   UNL d   1       3.739  -2.915  -1.412  0.00  0.00    -0.374 N 
ATOM     14  C   UNL d   1       2.562  -2.289  -1.184  0.00  0.00     0.103 A 
ATOM     15  HN  UNL d   1       3.810  -3.691  -2.070  1.00  0.00     0.164 HD
BRANCH  10  16
ATOM     16  C   UNL d   1       3.519   0.360   1.397  0.00  0.00     0.418 C 
ATOM     17  F   UNL d   1       2.328   0.608   1.999  0.00  0.00    -0.166 F 
ATOM     18  F   UNL d   1       4.383   0.124   2.434  0.00  0.00    -0.166 F 
ATOM     19  F   UNL d   1       3.937   1.529   0.840  0.00  0.00    -0.166 F 
ENDBRANCH  10  16
ENDBRANCH   2   9
BRANCH   1  20
ATOM     20  C   UNL d   1      -0.504  -2.699   0.226  0.00  0.00     0.071 A 
ATOM     21  C   UNL d   1       0.266  -3.594   1.012  0.00  0.00    -0.033 A 
ATOM     22  C   UNL d   1      -0.071  -4.964   1.017  0.00  0.00     0.009 A 
ATOM     23  C   UNL d   1       1.390  -3.215   1.941  0.00  0.00     0.050 C 
ATOM     24  C   UNL d   1      -1.184  -5.438   0.337  0.00  0.00     0.001 A 
ATOM     25  C   UNL d   1      -1.980  -4.554  -0.376  0.00  0.00     0.009 A 
ATOM     26  C   UNL d   1      -1.651  -3.188  -0.464  0.00  0.00    -0.033 A 
ATOM     27  C   UNL d   1      -2.579  -2.348  -1.308  0.00  0.00     0.050 C 
ENDBRANCH   1  20
TORSDOF 3
