REMARK  5 active torsions:
REMARK  status: ('A' for Active; 'I' for Inactive)
REMARK    1  A    between atoms: C_9  and  C_1 
REMARK    2  A    between atoms: N_17  and  C_3 
REMARK    3  A    between atoms: C_12  and  C_6 
REMARK    4  A    between atoms: C_15  and  C_9 
REMARK    5  A    between atoms: C_13  and  C_10 
ROOT
ATOM      1  C   UNL d   1       2.367   0.050   0.087  0.00  0.00     0.155 A 
ATOM      2  C   UNL d   1       0.256   0.869   0.048  0.00  0.00     0.056 A 
ATOM      3  C   UNL d   1       1.633   1.214   0.164  0.00  0.00     0.080 A 
ATOM      4  C   UNL d   1       0.245  -0.529  -0.008  0.00  0.00     0.162 A 
ATOM      5  O   UNL d   1       1.521  -1.017   0.014  0.00  0.00    -0.286 OA
ATOM      6  C   UNL d   1      -0.999   1.517  -0.015  0.00  0.00     0.000 A 
ATOM      7  N   UNL d   1      -0.829  -1.339  -0.089  0.00  0.00    -0.334 N 
ATOM      8  HN  UNL d   1      -0.757  -2.356  -0.126  1.00  0.00     0.168 HD
ATOM      9  C   UNL d   1      -2.011  -0.681  -0.117  0.00  0.00     0.069 A 
ATOM     10  C   UNL d   1      -2.138   0.704  -0.071  0.00  0.00     0.046 A 
ENDROOT
BRANCH   1  11
ATOM     11  C   UNL d   1       3.804  -0.119   0.026  0.00  0.00     0.218 C 
ATOM     12  O   UNL d   1       4.550   0.739  -0.447  0.00  0.00    -0.284 OA
BRANCH  11  13
ATOM     13  C   UNL d   1       4.450  -1.333   0.595  0.00  0.00     0.017 A 
ATOM     14  C   UNL d   1       3.899  -2.018   1.682  0.00  0.00     0.017 A 
ATOM     15  C   UNL d   1       4.581  -3.101   2.244  0.00  0.00     0.025 A 
ATOM     16  C   UNL d   1       5.813  -3.493   1.721  0.00  0.00     0.034 A 
ATOM     17  C   UNL d   1       6.375  -2.810   0.645  0.00  0.00     0.025 A 
ATOM     18 CL   UNL d   1       6.652  -4.822   2.421  0.00  0.00    -0.084 Cl
ATOM     19  C   UNL d   1       5.697  -1.726   0.085  0.00  0.00     0.017 A 
ENDBRANCH  11  13
ENDBRANCH   1  11
BRANCH   3  20
ATOM     20  N   UNL d   1       2.176   2.440   0.324  0.00  0.00    -0.396 N 
ATOM     21  H   UNL d   1       1.622   3.276   0.148  0.00  0.00     0.156 HD
ATOM     22  H   UNL d   1       3.164   2.579   0.102  0.00  0.00     0.156 HD
ENDBRANCH   3  20
BRANCH   6  23
ATOM     23  C   UNL d   1      -1.134   2.977  -0.023  0.00  0.00     0.016 C 
ATOM     24  S   UNL d   1      -0.180   3.958  -1.066  0.00  0.00    -0.101 SA
ATOM     25  C   UNL d   1      -0.797   5.401  -0.398  0.00  0.00     0.050 C 
ATOM     26  C   UNL d   1      -1.850   5.155   0.451  0.00  0.00     0.008 C 
ATOM     27  C   UNL d   1      -2.060   3.758   0.647  0.00  0.00     0.020 C 
ENDBRANCH   6  23
BRANCH   9  28
ATOM     28  C   UNL d   1      -3.193  -1.528  -0.271  0.00  0.00     0.101 A 
ATOM     29  O   UNL d   1      -4.408  -0.891  -0.215  0.00  0.00    -0.321 OA
ATOM     30  C   UNL d   1      -5.368  -1.822  -0.441  0.00  0.00     0.142 A 
ATOM     31  C   UNL d   1      -4.802  -3.058  -0.633  0.00  0.00     0.027 A 
ATOM     32  C   UNL d   1      -3.401  -2.874  -0.504  0.00  0.00     0.041 A 
ENDBRANCH   9  28
TORSDOF 5
