REMARK  4 active torsions:
REMARK  status: ('A' for Active; 'I' for Inactive)
REMARK    1  A    between atoms: C_15  and  N_1 
REMARK    2  A    between atoms: C_4  and  N_12 
REMARK    3  A    between atoms: C_13  and  C_9 
REMARK       I    between atoms: N_12  and  C_14 
REMARK    4  A    between atoms: C_14  and  C_15 
ROOT
ATOM      1  N   UNL d   1       3.071   2.534   0.060  0.00  0.00    -0.310 N 
ATOM      2  C   UNL d   1       3.857   1.417  -0.410  0.00  0.00     0.241 C 
ATOM      3  O   UNL d   1       5.040   1.562  -0.686  0.00  0.00    -0.271 OA
ATOM      4  H   UNL d   1       2.159   2.344   0.447  0.00  0.00     0.170 HD
ENDROOT
BRANCH   2   5
ATOM      5  C   UNL d   1       3.174   0.057  -0.467  0.00  0.00     0.238 C 
BRANCH   5   6
ATOM      6  N   UNL d   1       1.732   0.111  -0.303  0.00  0.00    -0.271 N 
ATOM      7  C   UNL d   1       1.076  -0.093   0.876  0.00  0.00     0.262 A 
ATOM      8  C   UNL d   1      -0.353   0.006   0.579  0.00  0.00     0.048 A 
ATOM      9  O   UNL d   1       1.562  -0.221   1.980  0.00  0.00    -0.267 OA
ATOM     10  C   UNL d   1      -1.450  -0.101   1.410  0.00  0.00     0.018 A 
ATOM     11  C   UNL d   1      -0.478   0.316  -0.766  0.00  0.00     0.048 A 
ATOM     12  C   UNL d   1      -2.705   0.125   0.836  0.00  0.00     0.001 A 
ATOM     13  C   UNL d   1      -2.831   0.447  -0.533  0.00  0.00     0.001 A 
ATOM     14  C   UNL d   1      -1.704   0.545  -1.355  0.00  0.00     0.018 A 
ATOM     15  C   UNL d   1       0.870   0.398  -1.323  0.00  0.00     0.262 A 
ATOM     16  O   UNL d   1       1.152   0.744  -2.454  0.00  0.00    -0.267 OA
ENDBRANCH   5   6
ENDBRANCH   2   5
BRANCH   1  17
ATOM     17  C   UNL d   1       3.496   3.859   0.005  0.00  0.00     0.126 A 
ATOM     18  C   UNL d   1       4.640   4.374  -0.568  0.00  0.00     0.077 A 
ATOM     19  C   UNL d   1       4.547   5.770  -0.395  0.00  0.00     0.034 A 
ATOM     20  N   UNL d   1       3.452   6.122   0.279  0.00  0.00    -0.301 N 
ATOM     21  N   UNL d   1       2.810   4.958   0.475  0.00  0.00    -0.281 N 
ATOM     22  HN  UNL d   1       3.168   7.055   0.577  1.00  0.00     0.187 HD
ATOM     23  C   UNL d   1       1.503   4.986   1.086  0.00  0.00     0.179 C 
BRANCH  19  24
ATOM     24  C   UNL d   1       5.510   6.816  -0.929  0.00  0.00     0.037 A 
ATOM     25  C   UNL d   1       6.058   6.628  -2.331  0.00  0.00     0.011 A 
ATOM     26  C   UNL d   1       6.970   6.494  -1.159  0.00  0.00     0.011 A 
ENDBRANCH  19  24
ENDBRANCH   1  17
TORSDOF 4
