REMARK  3 active torsions:
REMARK  status: ('A' for Active; 'I' for Inactive)
REMARK    1  A    between atoms: N_11  and  N_6 
REMARK    2  A    between atoms: C_20  and  C_9 
REMARK    3  A    between atoms: C_14  and  C_15 
ROOT
ATOM      1  C   UNL d   1      -0.221   0.643   0.004  0.00  0.00     0.069 A 
ATOM      2  C   UNL d   1      -0.072  -0.723  -0.051  0.00  0.00     0.091 A 
ATOM      3  C   UNL d   1       0.968   1.473   0.059  0.00  0.00     0.280 C 
ATOM      4  N   UNL d   1       1.099  -1.408  -0.065  0.00  0.00    -0.344 N 
ATOM      5  HN  UNL d   1       1.149  -2.423  -0.157  1.00  0.00     0.167 HD
ATOM      6  N   UNL d   1       2.156   0.729   0.178  0.00  0.00    -0.215 N 
ATOM      7  C   UNL d   1      -1.589   1.043   0.004  0.00  0.00     0.040 A 
ATOM      8  S   UNL d   1      -1.579  -1.515  -0.098  0.00  0.00    -0.071 SA
ATOM      9  C   UNL d   1      -2.457  -0.036  -0.010  0.00  0.00     0.018 A 
ATOM     10  C   UNL d   1       2.150  -0.655   0.049  0.00  0.00     0.211 C 
ATOM     11  O   UNL d   1       0.892   2.697  -0.015  0.00  0.00    -0.265 OA
ENDROOT
BRANCH   6  12
ATOM     12  N   UNL d   1       3.415   1.309   0.272  0.00  0.00    -0.299 N 
ATOM     13  C   UNL d   1       3.517   2.446   0.887  0.00  0.00     0.145 C 
ATOM     14  HN  UNL d   1       4.235   0.854  -0.130  1.00  0.00     0.186 HD
BRANCH  13  15
ATOM     15  C   UNL d   1       4.784   3.113   0.989  0.00  0.00     0.092 A 
ATOM     16  O   UNL d   1       4.838   4.260   1.729  0.00  0.00    -0.314 OA
ATOM     17  C   UNL d   1       6.125   4.703   1.699  0.00  0.00     0.050 A 
ATOM     18  C   UNL d   1       6.414   5.940   2.451  0.00  0.00     0.076 C 
ATOM     19  C   UNL d   1       6.900   3.853   0.941  0.00  0.00     0.035 A 
ATOM     20  C   UNL d   1       6.037   2.828   0.484  0.00  0.00     0.041 A 
ENDBRANCH  13  15
ENDBRANCH   6  12
BRANCH   9  21
ATOM     21  C   UNL d   1      -3.930  -0.027   0.023  0.00  0.00    -0.019 A 
ATOM     22  C   UNL d   1      -4.641   1.004  -0.612  0.00  0.00     0.013 A 
ATOM     23  C   UNL d   1      -6.037   1.051  -0.562  0.00  0.00     0.001 A 
ATOM     24  C   UNL d   1      -6.744   0.067   0.123  0.00  0.00     0.000 A 
ATOM     25  C   UNL d   1      -6.057  -0.963   0.759  0.00  0.00     0.001 A 
ATOM     26  C   UNL d   1      -4.660  -1.008   0.712  0.00  0.00     0.013 A 
ENDBRANCH   9  21
TORSDOF 3
