REMARK  3 active torsions:
REMARK  status: ('A' for Active; 'I' for Inactive)
REMARK    1  A    between atoms: C_5  and  N_1 
REMARK    2  A    between atoms: C_2  and  C_6 
REMARK    3  A    between atoms: C_8  and  C_12 
ROOT
ATOM      1  C   UNL d   1       0.312   0.178  -1.132  0.00  0.00     0.116 A 
ATOM      2  C   UNL d   1       0.779  -0.461  -2.290  0.00  0.00     0.024 A 
ATOM      3  C   UNL d   1      -0.890   0.910  -1.115  0.00  0.00     0.053 A 
ATOM      4  C   UNL d   1      -1.660   1.016  -2.280  0.00  0.00     0.050 A 
ATOM      5  C   UNL d   1      -0.004  -0.342  -3.451  0.00  0.00     0.017 A 
ATOM      6  C   UNL d   1      -1.201   0.388  -3.447  0.00  0.00     0.017 A 
ENDROOT
BRANCH   2   7
ATOM      7  C   UNL d   1       1.992  -1.272  -2.309  0.00  0.00     0.053 A 
ATOM      8  N   UNL d   1       2.367  -2.008  -1.202  0.00  0.00    -0.336 N 
ATOM      9  C   UNL d   1       3.485  -2.648  -1.435  0.00  0.00     0.142 A 
ATOM     10  HN  UNL d   1       1.846  -2.048  -0.326  1.00  0.00     0.168 HD
ATOM     11  N   UNL d   1       4.100  -3.410  -0.517  0.00  0.00    -0.380 N 
ATOM     12  S   UNL d   1       4.142  -2.432  -3.006  0.00  0.00    -0.064 SA
ATOM     13  H   UNL d   1       3.821  -3.236   0.443  0.00  0.00     0.158 HD
ATOM     14  H   UNL d   1       5.093  -3.571  -0.630  0.00  0.00     0.158 HD
ATOM     15  C   UNL d   1       2.839  -1.387  -3.394  0.00  0.00     0.083 A 
ENDBRANCH   2   7
BRANCH   1  16
ATOM     16  N   UNL d   1       1.081   0.159   0.101  0.00  0.00    -0.115 N 
ATOM     17  O   UNL d   1       2.159   0.771   0.101  0.00  0.00    -0.532 OA
ATOM     18  O   UNL d   1       0.543  -0.362   1.088  0.00  0.00    -0.532 OA
ENDBRANCH   1  16
BRANCH   4  19
ATOM     19  C   UNL d   1      -2.964   1.780  -2.297  0.00  0.00     0.417 C 
ATOM     20  F   UNL d   1      -3.287   2.328  -1.094  0.00  0.00    -0.166 F 
ATOM     21  F   UNL d   1      -2.946   2.810  -3.187  0.00  0.00    -0.166 F 
ATOM     22  F   UNL d   1      -4.018   0.996  -2.650  0.00  0.00    -0.166 F 
ENDBRANCH   4  19
TORSDOF 3
