REMARK  3 active torsions:
REMARK  status: ('A' for Active; 'I' for Inactive)
REMARK    1  A    between atoms: C_10  and  N_3 
REMARK    2  A    between atoms: C_13  and  N_4 
REMARK    3  A    between atoms: C_11  and  C_7 
ROOT
ATOM      1  C   UNL d   1       0.086   0.707  -0.229  0.00  0.00     0.197 C 
ATOM      2  C   UNL d   1       0.132  -0.719   0.272  0.00  0.00     0.162 C 
ATOM      3  N   UNL d   1      -1.123   1.170   0.420  0.00  0.00    -0.182 NA
ATOM      4  N   UNL d   1       2.191  -0.065  -0.389  0.00  0.00    -0.250 N 
ATOM      5  C   UNL d   1       1.500   1.075   0.068  0.00  0.00     0.252 C 
ATOM      6  C   UNL d   1       1.296  -1.136  -0.518  0.00  0.00     0.243 C 
ATOM      7  C   UNL d   1      -1.304  -0.957   0.105  0.00  0.00     0.082 C 
ATOM      8  N   UNL d   1      -2.042   0.106   0.297  0.00  0.00    -0.313 N 
ATOM      9  HN  UNL d   1      -3.059   0.155   0.348  1.00  0.00     0.181 HD
ATOM     10  O   UNL d   1       1.388  -2.193  -1.113  0.00  0.00    -0.272 OA
ATOM     11  O   UNL d   1       1.913   2.157   0.440  0.00  0.00    -0.271 OA
ENDROOT
BRANCH   3  12
ATOM     12  C   UNL d   1      -1.631   2.460   0.205  0.00  0.00     0.033 A 
ATOM     13  C   UNL d   1      -2.878   2.810   0.752  0.00  0.00     0.049 A 
ATOM     14  C   UNL d   1      -3.398   4.097   0.604  0.00  0.00     0.035 A 
ATOM     15 CL   UNL d   1      -4.917   4.492   1.313  0.00  0.00    -0.084 Cl
ATOM     16  C   UNL d   1      -2.694   5.068  -0.099  0.00  0.00     0.024 A 
ATOM     17  C   UNL d   1      -1.461   4.745  -0.656  0.00  0.00     0.003 A 
ATOM     18  C   UNL d   1      -0.936   3.457  -0.499  0.00  0.00     0.025 A 
ENDBRANCH   3  12
BRANCH   7  19
ATOM     19  C   UNL d   1      -1.838  -2.335  -0.098  0.00  0.00     0.169 C 
ATOM     20  O   UNL d   1      -1.311  -3.250   0.522  0.00  0.00    -0.292 OA
ATOM     21  C   UNL d   1      -2.940  -2.508  -1.098  0.00  0.00     0.098 C 
ENDBRANCH   7  19
BRANCH   4  22
ATOM     22  C   UNL d   1       3.528  -0.036  -0.871  0.00  0.00     0.045 A 
ATOM     23  C   UNL d   1       3.967  -0.949  -1.840  0.00  0.00     0.030 A 
ATOM     24  C   UNL d   1       5.246  -0.856  -2.396  0.00  0.00     0.002 A 
ATOM     25  C   UNL d   1       6.125   0.131  -1.967  0.00  0.00     0.000 A 
ATOM     26  C   UNL d   1       5.726   1.022  -0.977  0.00  0.00     0.002 A 
ATOM     27  C   UNL d   1       4.436   0.943  -0.438  0.00  0.00     0.030 A 
ENDBRANCH   4  22
TORSDOF 3
