REMARK  3 active torsions:
REMARK  status: ('A' for Active; 'I' for Inactive)
REMARK    1  A    between atoms: N_14  and  N_9 
REMARK    2  A    between atoms: C_20  and  C_19 
REMARK    3  A    between atoms: O_24  and  C_22 
ROOT
ATOM      1  C   UNL d   1       1.226   0.880   0.040  0.00  0.00     0.104 A 
ATOM      2  C   UNL d   1       0.741  -0.398   0.026  0.00  0.00     0.069 A 
ATOM      3  C   UNL d   1       2.631   1.199   0.069  0.00  0.00     0.286 A 
ATOM      4  S   UNL d   1      -0.015   2.032   0.019  0.00  0.00    -0.064 SA
ATOM      5  C   UNL d   1      -0.685  -0.483   0.008  0.00  0.00     0.032 A 
ATOM      6  C   UNL d   1      -1.213   0.809   0.005  0.00  0.00     0.088 A 
ATOM      7  N   UNL d   1       1.589  -1.512   0.035  0.00  0.00    -0.349 N 
ATOM      8  HN  UNL d   1       1.243  -2.471   0.021  1.00  0.00     0.167 HD
ATOM      9  N   UNL d   1       3.435   0.038   0.086  0.00  0.00    -0.215 N 
ATOM     10  C   UNL d   1       2.855  -1.220   0.062  0.00  0.00     0.211 A 
ATOM     11  N   UNL d   1      -2.517   1.153  -0.005  0.00  0.00    -0.354 N 
ATOM     12  HN  UNL d   1      -2.830   2.123  -0.008  1.00  0.00     0.166 HD
ATOM     13  C   UNL d   1      -1.613  -1.559  -0.005  0.00  0.00    -0.045 A 
ATOM     14  O   UNL d   1       3.074   2.346   0.077  0.00  0.00    -0.265 OA
ATOM     15  C   UNL d   1      -2.976  -1.220  -0.011  0.00  0.00     0.032 A 
ATOM     16  C   UNL d   1      -3.372   0.113  -0.010  0.00  0.00     0.006 A 
ATOM     17  C   UNL d   1      -1.253  -3.019  -0.004  0.00  0.00     0.049 C 
ATOM     18  C   UNL d   1      -4.838   0.440  -0.011  0.00  0.00     0.068 C 
ENDROOT
BRANCH   9  19
ATOM     19  N   UNL d   1       4.803   0.266   0.104  0.00  0.00    -0.301 N 
ATOM     20  C   UNL d   1       5.676  -0.684   0.132  0.00  0.00     0.119 C 
ATOM     21  HN  UNL d   1       5.135   1.231   0.095  1.00  0.00     0.186 HD
BRANCH  20  22
ATOM     22  C   UNL d   1       7.124  -0.382   0.126  0.00  0.00    -0.017 A 
ATOM     23  C   UNL d   1       7.571   0.945   0.141  0.00  0.00     0.049 A 
ATOM     24  C   UNL d   1       8.939   1.215   0.124  0.00  0.00     0.069 A 
ATOM     25  C   UNL d   1       9.846   0.152   0.072  0.00  0.00     0.037 A 
ATOM     26  C   UNL d   1       9.400  -1.171   0.058  0.00  0.00     0.004 A 
ATOM     27  C   UNL d   1       8.034  -1.442   0.092  0.00  0.00     0.013 A 
BRANCH  24  28
ATOM     28  O   UNL d   1       9.510   2.457   0.155  0.00  0.00    -0.356 OA
ATOM     29  C   UNL d   1       8.623   3.567   0.262  0.00  0.00     0.210 C 
ENDBRANCH  24  28
ENDBRANCH  20  22
ENDBRANCH   9  19
TORSDOF 3
