REMARK  5 active torsions:
REMARK  status: ('A' for Active; 'I' for Inactive)
REMARK    1  A    between atoms: C_3  and  C_1 
REMARK    2  A    between atoms: C_2  and  N_4 
REMARK    3  A    between atoms: N_8  and  C_2 
REMARK    4  A    between atoms: N_4  and  C_7 
REMARK    5  A    between atoms: N_12  and  N_8 
ROOT
ATOM      1  C   UNL d   1       0.638   1.299  -0.494  0.00  0.00     0.050 A 
ATOM      2  C   UNL d   1      -0.671   1.266  -1.013  0.00  0.00     0.045 A 
ATOM      3  C   UNL d   1      -1.308   2.436  -1.423  0.00  0.00     0.035 A 
ATOM      4  C   UNL d   1       1.305   2.529  -0.394  0.00  0.00     0.016 A 
ATOM      5  C   UNL d   1       0.684   3.699  -0.815  0.00  0.00     0.003 A 
ATOM      6  C   UNL d   1      -0.614   3.650  -1.325  0.00  0.00     0.029 A 
ENDROOT
BRANCH   3   7
ATOM      7  N   UNL d   1      -2.637   2.522  -1.868  0.00  0.00    -0.332 N 
ATOM      8  H   UNL d   1      -3.010   3.458  -2.005  0.00  0.00     0.168 HD
BRANCH   7   9
ATOM      9  C   UNL d   1      -3.641   1.612  -2.099  0.00  0.00     0.186 C 
ATOM     10  S   UNL d   1      -3.599  -0.047  -2.222  0.00  0.00    -0.040 SA
BRANCH   9  11
ATOM     11  N   UNL d   1      -4.877   2.239  -2.242  0.00  0.00    -0.298 N 
ATOM     12  H   UNL d   1      -5.689   1.635  -2.365  0.00  0.00     0.183 HD
BRANCH  11  13
ATOM     13  N   UNL d   1      -5.033   3.628  -2.019  0.00  0.00    -0.242 NA
ATOM     14  C   UNL d   1      -5.437   3.881  -0.635  0.00  0.00     0.133 C 
ATOM     15  H   UNL d   1      -5.763   3.975  -2.648  0.00  0.00     0.146 HD
ENDBRANCH  11  13
ENDBRANCH   9  11
ENDBRANCH   7   9
ENDBRANCH   3   7
BRANCH   1  16
ATOM     16  C   UNL d   1       1.308   0.040  -0.004  0.00  0.00     0.417 C 
ATOM     17  F   UNL d   1       0.630  -1.102  -0.304  0.00  0.00    -0.166 F 
ATOM     18  F   UNL d   1       1.468   0.034   1.349  0.00  0.00    -0.166 F 
ATOM     19  F   UNL d   1       2.557  -0.122  -0.525  0.00  0.00    -0.166 F 
ENDBRANCH   1  16
TORSDOF 5
