REMARK  3 active torsions:
REMARK  status: ('A' for Active; 'I' for Inactive)
REMARK    1  A    between atoms: C_6  and  C_1 
REMARK    2  A    between atoms: N_7  and  N_2 
REMARK    3  A    between atoms: C_10  and  N_7 
ROOT
ATOM      1  C   UNL d   1       0.942  -0.097  -0.075  0.00  0.00     0.155 C 
ATOM      2  N   UNL d   1       0.296  -1.229  -0.134  0.00  0.00    -0.288 N 
ATOM      3  HN  UNL d   1      -0.724  -1.233  -0.159  1.00  0.00     0.188 HD
ATOM      4  C   UNL d   1       2.386  -0.120  -0.020  0.00  0.00     0.121 C 
ATOM      5  N   UNL d   1       3.543  -0.218   0.045  0.00  0.00    -0.190 NA
ENDROOT
BRANCH   1   6
ATOM      6  C   UNL d   1       0.272   1.221  -0.070  0.00  0.00     0.071 A 
ATOM      7  N   UNL d   1       1.079   2.309   0.001  0.00  0.00    -0.363 N 
ATOM      8  C   UNL d   1       0.480   3.520  -0.003  0.00  0.00     0.088 A 
ATOM      9  HN  UNL d   1       2.093   2.217   0.054  1.00  0.00     0.165 HD
ATOM     10  C   UNL d   1      -0.891   3.699  -0.073  0.00  0.00     0.017 A 
ATOM     11  C   UNL d   1      -1.701   2.571  -0.143  0.00  0.00     0.004 A 
ATOM     12  C   UNL d   1      -1.115   1.306  -0.142  0.00  0.00     0.032 A 
ENDBRANCH   1   6
BRANCH   2  13
ATOM     13  N   UNL d   1       0.984  -2.408  -0.161  0.00  0.00    -0.300 N 
ATOM     14  H   UNL d   1       1.908  -2.495   0.270  0.00  0.00     0.187 HD
BRANCH  13  15
ATOM     15  C   UNL d   1       0.250  -3.614  -0.166  0.00  0.00     0.048 A 
ATOM     16  C   UNL d   1      -1.146  -3.635  -0.300  0.00  0.00     0.034 A 
ATOM     17  C   UNL d   1      -1.846  -4.842  -0.363  0.00  0.00     0.044 A 
ATOM     18  C   UNL d   1      -1.146  -6.039  -0.322  0.00  0.00     0.116 A 
ATOM     19  C   UNL d   1       0.240  -6.050  -0.229  0.00  0.00     0.044 A 
ATOM     20  F   UNL d   1      -1.815  -7.197  -0.384  0.00  0.00    -0.206 F 
ATOM     21  C   UNL d   1       0.936  -4.839  -0.160  0.00  0.00     0.034 A 
ENDBRANCH  13  15
ENDBRANCH   2  13
TORSDOF 3
