REMARK  1 active torsions:
REMARK  status: ('A' for Active; 'I' for Inactive)
REMARK    1  A    between atoms: C_8  and  C_1 
ROOT
ATOM      1  C   UNL d   1       1.652  -1.599  -0.007  0.00  0.00     0.162 A 
ATOM      2  N   UNL d   1       0.402  -1.924  -0.036  0.00  0.00    -0.335 N 
ATOM      3  HN  UNL d   1       0.107  -2.900  -0.066  1.00  0.00     0.168 HD
ATOM      4  O   UNL d   1       2.154  -0.346   0.025  0.00  0.00    -0.257 OA
ATOM      5  C   UNL d   1       1.314   0.716   0.029  0.00  0.00     0.302 A 
ATOM      6  C   UNL d   1      -0.127   0.440   0.006  0.00  0.00     0.066 A 
ATOM      7  C   UNL d   1      -0.526  -0.887  -0.024  0.00  0.00     0.050 A 
ATOM      8  O   UNL d   1       1.734   1.867   0.053  0.00  0.00    -0.259 OA
ATOM      9  C   UNL d   1      -1.067   1.477   0.020  0.00  0.00     0.020 A 
ATOM     10  C   UNL d   1      -1.889  -1.186  -0.037  0.00  0.00     0.030 A 
ATOM     11  C   UNL d   1      -2.428   1.171   0.007  0.00  0.00     0.001 A 
ATOM     12  C   UNL d   1      -2.839  -0.161  -0.021  0.00  0.00     0.002 A 
ENDROOT
BRANCH   1  13
ATOM     13  C   UNL d   1       2.742  -2.610  -0.005  0.00  0.00     0.015 A 
ATOM     14  C   UNL d   1       2.403  -3.965  -0.142  0.00  0.00     0.017 A 
ATOM     15  C   UNL d   1       3.395  -4.949  -0.126  0.00  0.00     0.025 A 
ATOM     16  C   UNL d   1       4.730  -4.583   0.029  0.00  0.00     0.034 A 
ATOM     17  C   UNL d   1       5.082  -3.240   0.163  0.00  0.00     0.025 A 
ATOM     18 CL   UNL d   1       5.951  -5.794   0.062  0.00  0.00    -0.084 Cl
ATOM     19  C   UNL d   1       4.090  -2.253   0.145  0.00  0.00     0.017 A 
ENDBRANCH   1  13
TORSDOF 1
