REMARK  4 active torsions:
REMARK  status: ('A' for Active; 'I' for Inactive)
REMARK    1  A    between atoms: C_2  and  C_1 
REMARK    2  A    between atoms: C_10  and  N_4 
REMARK    3  A    between atoms: O_12  and  C_6 
REMARK    4  A    between atoms: O_17  and  C_11 
ROOT
ATOM      1  C   UNL d   1       1.068  -1.107   0.056  0.00  0.00     0.023 A 
ATOM      2  C   UNL d   1      -0.296  -0.670   0.092  0.00  0.00    -0.012 A 
ATOM      3  C   UNL d   1       2.115  -0.173  -0.007  0.00  0.00     0.078 A 
ATOM      4  C   UNL d   1      -0.540   0.728   0.070  0.00  0.00    -0.025 A 
ATOM      5  C   UNL d   1       1.848   1.189  -0.026  0.00  0.00     0.038 A 
ATOM      6  C   UNL d   1       0.531   1.635   0.013  0.00  0.00     0.015 A 
ATOM      7  C   UNL d   1      -1.438  -1.516   0.143  0.00  0.00     0.013 A 
ATOM      8  C   UNL d   1      -1.855   1.221   0.099  0.00  0.00     0.012 A 
ATOM      9  C   UNL d   1      -2.742  -1.009   0.171  0.00  0.00     0.001 A 
ATOM     10  C   UNL d   1      -2.946   0.360   0.149  0.00  0.00     0.001 A 
ENDROOT
BRANCH   1  11
ATOM     11  C   UNL d   1       1.395  -2.554   0.056  0.00  0.00     0.103 C 
ATOM     12  N   UNL d   1       2.612  -2.991  -0.052  0.00  0.00    -0.365 N 
ATOM     13  HN  UNL d   1       3.396  -2.339  -0.078  1.00  0.00     0.165 HD
BRANCH  12  14
ATOM     14  C   UNL d   1       2.832  -4.383  -0.133  0.00  0.00     0.032 A 
ATOM     15  C   UNL d   1       1.947  -5.253  -0.778  0.00  0.00     0.032 A 
ATOM     16  C   UNL d   1       2.224  -6.619  -0.890  0.00  0.00     0.039 A 
ATOM     17  C   UNL d   1       3.411  -7.135  -0.380  0.00  0.00     0.068 A 
ATOM     18  C   UNL d   1       4.314  -6.273   0.245  0.00  0.00     0.039 A 
ATOM     19  C   UNL d   1       4.024  -4.908   0.369  0.00  0.00     0.032 A 
BRANCH  17  20
ATOM     20  O   UNL d   1       3.796  -8.447  -0.440  0.00  0.00    -0.356 OA
ATOM     21  C   UNL d   1       2.897  -9.341  -1.087  0.00  0.00     0.210 C 
ENDBRANCH  17  20
ENDBRANCH  12  14
ENDBRANCH   1  11
BRANCH   3  22
ATOM     22  O   UNL d   1       3.439  -0.519  -0.063  0.00  0.00    -0.360 OA
ATOM     23  H   UNL d   1       3.483  -1.502  -0.076  0.00  0.00     0.217 HD
ENDBRANCH   3  22
TORSDOF 4
