REMARK  2 active torsions:
REMARK  status: ('A' for Active; 'I' for Inactive)
REMARK    1  A    between atoms: C_9  and  C_5 
REMARK    2  A    between atoms: C_13  and  C_10 
ROOT
ATOM      1  C   UNL d   1      -1.038   2.786  -0.106  0.00  0.00    -0.022 A 
ATOM      2  C   UNL d   1      -1.653   3.812   0.498  0.00  0.00    -0.060 A 
ATOM      3  C   UNL d   1       0.367   3.094  -0.190  0.00  0.00    -0.019 A 
ATOM      4  C   UNL d   1      -1.992   1.795  -0.497  0.00  0.00     0.020 A 
ATOM      5  C   UNL d   1      -3.207   2.209  -0.084  0.00  0.00    -0.054 A 
ATOM      6  C   UNL d   1       0.557   4.388   0.344  0.00  0.00    -0.043 A 
ATOM      7  C   UNL d   1      -0.764   4.960   0.814  0.00  0.00     0.074 A 
ATOM      8  C   UNL d   1      -3.102   3.535   0.657  0.00  0.00     0.073 A 
ATOM      9  C   UNL d   1       1.439   2.332  -0.617  0.00  0.00     0.013 A 
ATOM     10  C   UNL d   1       1.817   4.956   0.417  0.00  0.00     0.008 A 
ATOM     11  C   UNL d   1       2.717   2.887  -0.515  0.00  0.00     0.001 A 
ATOM     12  C   UNL d   1       2.903   4.188  -0.014  0.00  0.00     0.001 A 
ENDROOT
BRANCH   5  13
ATOM     13  C   UNL d   1      -4.473   1.589  -0.346  0.00  0.00     0.004 C 
ATOM     14  C   UNL d   1      -4.953   1.458  -1.595  0.00  0.00    -0.022 C 
BRANCH  14  15
ATOM     15  C   UNL d   1      -6.278   0.874  -2.023  0.00  0.00    -0.000 C 
ATOM     16  C   UNL d   1      -7.046   0.119  -0.936  0.00  0.00     0.013 C 
ATOM     17  C   UNL d   1      -7.157   1.980  -2.613  0.00  0.00     0.013 C 
ENDBRANCH  14  15
ENDBRANCH   5  13
TORSDOF 2
