REMARK  5 active torsions:
REMARK  status: ('A' for Active; 'I' for Inactive)
REMARK    1  A    between atoms: C_15  and  N_6 
REMARK    2  A    between atoms: S_11  and  C_7 
REMARK    3  A    between atoms: C_18  and  S_11 
REMARK    4  A    between atoms: C_16  and  C_15 
REMARK    5  A    between atoms: C_21  and  C_18 
ROOT
ATOM      1  C   UNL d   1       0.716   0.407  -0.148  0.00  0.00     0.073 A 
ATOM      2  C   UNL d   1       1.289  -0.834  -0.238  0.00  0.00     0.092 A 
ATOM      3  N   UNL d   1       2.616  -1.097  -0.348  0.00  0.00    -0.330 N 
ATOM      4  HN  UNL d   1       2.975  -2.046  -0.454  1.00  0.00     0.168 HD
ATOM      5  C   UNL d   1       1.588   1.559  -0.075  0.00  0.00     0.263 A 
ATOM      6  N   UNL d   1       2.958   1.256  -0.138  0.00  0.00    -0.290 N 
ATOM      7  C   UNL d   1       3.397  -0.064  -0.309  0.00  0.00     0.150 A 
ATOM      8  C   UNL d   1      -0.714   0.358  -0.136  0.00  0.00    -0.026 A 
ATOM      9  C   UNL d   1      -1.159  -0.950  -0.099  0.00  0.00    -0.008 A 
ATOM     10  S   UNL d   1       0.116  -2.076  -0.197  0.00  0.00    -0.075 SA
ATOM     11  C   UNL d   1      -1.651   1.529  -0.100  0.00  0.00     0.041 C 
ATOM     12  O   UNL d   1       1.137   2.696   0.051  0.00  0.00    -0.267 OA
ATOM     13  C   UNL d   1      -2.599  -1.365  -0.009  0.00  0.00     0.051 C 
ATOM     14  C   UNL d   1      -3.109   1.102  -0.328  0.00  0.00     0.009 C 
ATOM     15  C   UNL d   1      -3.485  -0.179   0.447  0.00  0.00    -0.014 C 
ATOM     16  C   UNL d   1      -3.405   0.041   1.963  0.00  0.00     0.010 C 
ENDROOT
BRANCH   7  17
ATOM     17  S   UNL d   1       5.137  -0.359  -0.500  0.00  0.00    -0.089 SA
BRANCH  17  18
ATOM     18  C   UNL d   1       5.103  -1.980  -1.327  0.00  0.00     0.121 C 
BRANCH  18  19
ATOM     19  C   UNL d   1       6.419  -2.621  -1.751  0.00  0.00    -0.048 A 
ATOM     20  C   UNL d   1       7.691  -2.230  -1.309  0.00  0.00     0.011 A 
ATOM     21  C   UNL d   1       8.840  -2.918  -1.736  0.00  0.00     0.043 A 
ATOM     22  C   UNL d   1       8.722  -4.004  -2.593  0.00  0.00     0.116 A 
ATOM     23  C   UNL d   1       7.478  -4.428  -3.031  0.00  0.00     0.043 A 
ATOM     24  F   UNL d   1       9.823  -4.656  -2.995  0.00  0.00    -0.206 F 
ATOM     25  C   UNL d   1       6.335  -3.741  -2.609  0.00  0.00     0.011 A 
ENDBRANCH  18  19
ENDBRANCH  17  18
ENDBRANCH   7  17
BRANCH   6  26
ATOM     26  C   UNL d   1       3.831   2.415   0.004  0.00  0.00     0.161 C 
BRANCH  26  27
ATOM     27  C   UNL d   1       4.044   3.139  -1.301  0.00  0.00    -0.017 C 
ATOM     28  C   UNL d   1       3.744   2.723  -2.539  0.00  0.00     0.008 C 
ENDBRANCH  26  27
ENDBRANCH   6  26
TORSDOF 5
