REMARK  5 active torsions:
REMARK  status: ('A' for Active; 'I' for Inactive)
REMARK    1  A    between atoms: C_6  and  N_1 
REMARK    2  A    between atoms: C_7  and  C_6 
REMARK    3  A    between atoms: C_8  and  C_7 
REMARK    4  A    between atoms: O_12  and  C_8 
REMARK    5  A    between atoms: C_15  and  O_12 
ROOT
ATOM      1  N   UNL d   1       1.899   0.068  -0.116  0.00  0.00    -0.279 N 
ATOM      2  C   UNL d   1       1.178  -0.420   0.941  0.00  0.00     0.261 A 
ATOM      3  C   UNL d   1       1.088   0.608  -1.077  0.00  0.00     0.261 A 
ATOM      4  C   UNL d   1      -0.229  -0.168   0.635  0.00  0.00     0.048 A 
ATOM      5  C   UNL d   1      -0.282   0.472  -0.590  0.00  0.00     0.048 A 
ATOM      6  O   UNL d   1       1.569  -0.955   1.961  0.00  0.00    -0.267 OA
ATOM      7  O   UNL d   1       1.390   1.120  -2.137  0.00  0.00    -0.267 OA
ATOM      8  C   UNL d   1      -1.476   0.870  -1.158  0.00  0.00     0.018 A 
ATOM      9  C   UNL d   1      -1.370  -0.462   1.355  0.00  0.00     0.018 A 
ATOM     10  C   UNL d   1      -2.646   0.588  -0.446  0.00  0.00     0.001 A 
ATOM     11  C   UNL d   1      -2.593  -0.076   0.798  0.00  0.00     0.001 A 
ENDROOT
BRANCH   1  12
ATOM     12  C   UNL d   1       3.348   0.005  -0.218  0.00  0.00     0.145 C 
BRANCH  12  13
ATOM     13  C   UNL d   1       3.978   1.392  -0.221  0.00  0.00     0.131 C 
BRANCH  13  14
ATOM     14  C   UNL d   1       5.474   1.297  -0.117  0.00  0.00     0.260 C 
ATOM     15  O   UNL d   1       6.115   0.258  -0.057  0.00  0.00    -0.265 OA
BRANCH  14  16
ATOM     16  O   UNL d   1       5.996   2.554  -0.042  0.00  0.00    -0.322 OA
BRANCH  16  17
ATOM     17  C   UNL d   1       7.380   2.633   0.328  0.00  0.00     0.174 C 
ATOM     18  C   UNL d   1       7.466   2.721   1.841  0.00  0.00     0.034 C 
ENDBRANCH  16  17
ENDBRANCH  14  16
ENDBRANCH  13  14
ENDBRANCH  12  13
ENDBRANCH   1  12
TORSDOF 5
