REMARK  2 active torsions:
REMARK  status: ('A' for Active; 'I' for Inactive)
REMARK       I    between atoms: C_2  and  N_1 
REMARK    1  A    between atoms: C_6  and  C_2 
REMARK    2  A    between atoms: N_5  and  C_6 
ROOT
ATOM      1  N   UNL d   1       1.339   1.109   0.179  0.00  0.00    -0.316 N 
ATOM      2  C   UNL d   1       1.835   2.408   0.128  0.00  0.00     0.252 C 
ATOM      3  C   UNL d   1      -0.019   0.733   0.148  0.00  0.00     0.043 A 
ATOM      4  C   UNL d   1       2.140  -0.117   0.336  0.00  0.00     0.137 C 
ATOM      5  C   UNL d   1      -0.129  -0.660   0.139  0.00  0.00    -0.030 A 
ATOM      6  O   UNL d   1       1.142   3.427   0.112  0.00  0.00    -0.271 OA
ATOM      7  C   UNL d   1       1.214  -1.310   0.094  0.00  0.00     0.061 C 
ATOM      8  C   UNL d   1      -1.151   1.527   0.108  0.00  0.00     0.030 A 
ATOM      9  C   UNL d   1      -1.363  -1.292   0.095  0.00  0.00     0.009 A 
ATOM     10  C   UNL d   1      -2.403   0.901   0.071  0.00  0.00     0.002 A 
ATOM     11  C   UNL d   1      -2.508  -0.498   0.067  0.00  0.00     0.001 A 
ENDROOT
BRANCH   2  12
ATOM     12  C   UNL d   1       3.372   2.526   0.056  0.00  0.00     0.375 C 
BRANCH  12  13
ATOM     13  N   UNL d   1       3.807   2.117  -1.280  0.00  0.00     0.097 N 
ATOM     14  C   UNL d   1       3.786   3.197  -2.263  0.00  0.00     0.273 C 
ATOM     15  C   UNL d   1       4.406   2.504  -3.466  0.00  0.00     0.032 C 
ATOM     16  C   UNL d   1       5.339   1.449  -2.868  0.00  0.00     0.032 C 
ATOM     17  C   UNL d   1       5.148   1.557  -1.361  0.00  0.00     0.273 C 
ENDBRANCH  12  13
ENDBRANCH   2  12
TORSDOF 2
