REMARK  2 active torsions:
REMARK  status: ('A' for Active; 'I' for Inactive)
REMARK    1  A    between atoms: C_8  and  N_1 
REMARK    2  A    between atoms: C_9  and  N_5 
ROOT
ATOM      1  N   UNL d   1       0.747   1.095  -0.284  0.00  0.00    -0.337 N 
ATOM      2  C   UNL d   1       1.540   0.131   0.306  0.00  0.00     0.140 C 
ATOM      3  C   UNL d   1      -0.635   1.144   0.146  0.00  0.00     0.400 C 
ATOM      4  S   UNL d   1       1.008  -1.468  -0.125  0.00  0.00    -0.070 SA
ATOM      5  N   UNL d   1      -1.357  -0.058  -0.263  0.00  0.00     0.119 N 
ATOM      6  C   UNL d   1      -0.720  -1.255   0.303  0.00  0.00     0.356 C 
ATOM      7  S   UNL d   1       2.894   0.396   1.252  0.00  0.00    -0.053 SA
ENDROOT
BRANCH   1   8
ATOM      8  C   UNL d   1       1.345   2.267  -0.959  0.00  0.00     0.079 C 
ATOM      9  C   UNL d   1       0.877   2.340  -2.414  0.00  0.00     0.032 C 
ATOM     10  C   UNL d   1       1.105   3.598  -0.242  0.00  0.00     0.032 C 
ENDBRANCH   1   8
BRANCH   5  11
ATOM     11  C   UNL d   1      -2.788   0.011   0.169  0.00  0.00     0.218 C 
ATOM     12  C   UNL d   1      -3.531   1.236  -0.391  0.00  0.00     0.042 C 
ATOM     13  C   UNL d   1      -3.596  -1.235  -0.246  0.00  0.00     0.042 C 
ENDBRANCH   5  11
TORSDOF 2
