REMARK  5 active torsions:
REMARK  status: ('A' for Active; 'I' for Inactive)
REMARK    1  A    between atoms: C_2  and  S_1 
REMARK    2  A    between atoms: N_9  and  S_1 
REMARK    3  A    between atoms: N_6  and  C_17 
REMARK    4  A    between atoms: C_25  and  N_9 
REMARK    5  A    between atoms: C_26  and  C_25 
ROOT
ATOM      1  N   UNL d   1       2.425  -1.161  -2.024  0.00  0.00    -0.211 NA
ATOM      2  H   UNL d   1       2.762  -2.064  -1.693  0.00  0.00     0.140 HD
ENDROOT
BRANCH   1   3
ATOM      3  S   UNL d   1       2.990   0.115  -1.084  0.00  0.00     0.248 S 
ATOM      4  O   UNL d   1       4.400  -0.106  -0.848  0.00  0.00    -0.205 OA
ATOM      5  O   UNL d   1       2.481   1.348  -1.630  0.00  0.00    -0.205 OA
BRANCH   3   6
ATOM      6  C   UNL d   1       2.224  -0.026   0.513  0.00  0.00     0.116 A 
ATOM      7  S   UNL d   1       2.532  -1.472   1.372  0.00  0.00    -0.074 SA
ATOM      8  C   UNL d   1       1.570  -0.977   2.702  0.00  0.00     0.042 A 
ATOM      9  C   UNL d   1       1.371  -1.811   3.854  0.00  0.00     0.117 A 
ATOM     10  C   UNL d   1       1.032   0.277   2.490  0.00  0.00     0.024 A 
ATOM     11  O   UNL d   1       0.598  -1.426   4.923  0.00  0.00    -0.237 OA
ATOM     12  C   UNL d   1       1.843  -3.080   4.117  0.00  0.00     0.059 A 
ATOM     13  N   UNL d   1       0.543  -2.441   5.862  0.00  0.00    -0.272 N 
ATOM     14  C   UNL d   1       1.291  -3.426   5.360  0.00  0.00     0.117 A 
ATOM     15  HN  UNL d   1       0.039  -2.437   6.749  1.00  0.00     0.194 HD
ATOM     16  C   UNL d   1       1.384   0.811   1.217  0.00  0.00     0.034 A 
ENDBRANCH   3   6
ENDBRANCH   1   3
BRANCH   1  17
ATOM     17  C   UNL d   1       1.004  -1.107  -2.380  0.00  0.00     0.143 C 
BRANCH  17  18
ATOM     18  C   UNL d   1       0.597  -2.276  -3.235  0.00  0.00    -0.044 A 
ATOM     19  C   UNL d   1       0.636  -3.587  -2.742  0.00  0.00     0.010 A 
ATOM     20  C   UNL d   1       0.297  -4.660  -3.573  0.00  0.00     0.030 A 
ATOM     21  C   UNL d   1      -0.093  -4.463  -4.906  0.00  0.00     0.030 A 
ATOM     22  C   UNL d   1      -0.141  -3.147  -5.374  0.00  0.00     0.030 A 
ATOM     23  C   UNL d   1       0.186  -2.068  -4.553  0.00  0.00     0.010 A 
BRANCH  21  24
ATOM     24  N   UNL d   1      -0.350  -5.541  -5.728  0.00  0.00    -0.378 N 
ATOM     25  C   UNL d   1      -0.208  -5.432  -7.187  0.00  0.00     0.153 C 
ATOM     26  C   UNL d   1       0.230  -6.804  -7.739  0.00  0.00     0.291 C 
ATOM     27  N   UNL d   1      -0.719  -7.884  -7.380  0.00  0.00     0.087 N 
ATOM     28  C   UNL d   1      -0.861  -7.936  -5.903  0.00  0.00     0.291 C 
ATOM     29  C   UNL d   1      -0.250  -9.164  -7.897  0.00  0.00     0.310 C 
ATOM     30  C   UNL d   1      -1.298  -6.582  -5.299  0.00  0.00     0.153 C 
ENDBRANCH  21  24
ENDBRANCH  17  18
ENDBRANCH   1  17
TORSDOF 5
