REMARK  5 active torsions:
REMARK  status: ('A' for Active; 'I' for Inactive)
REMARK    1  A    between atoms: C_3  and  C_1 
REMARK    2  A    between atoms: C_4  and  C_2 
REMARK    3  A    between atoms: C_6  and  C_4 
REMARK    4  A    between atoms: C_5  and  N_11 
REMARK    5  A    between atoms: N_11  and  C_16 
ROOT
ATOM      1  N   UNL d   1      -0.537   1.101   5.306  0.00  0.00    -0.366 N 
ATOM      2  H   UNL d   1      -0.423   2.064   5.602  0.00  0.00     0.165 HD
ENDROOT
BRANCH   1   3
ATOM      3  C   UNL d   1      -0.976   0.209   6.252  0.00  0.00     0.092 C 
ATOM      4  C   UNL d   1      -1.196   0.450   7.552  0.00  0.00     0.072 C 
BRANCH   4   5
ATOM      5  C   UNL d   1      -1.691  -0.656   8.421  0.00  0.00     0.183 C 
ATOM      6  O   UNL d   1      -1.871  -1.788   7.985  0.00  0.00    -0.288 OA
BRANCH   5   7
ATOM      7  C   UNL d   1      -1.917  -0.378   9.866  0.00  0.00     0.014 A 
ATOM      8  C   UNL d   1      -2.274   0.884  10.356  0.00  0.00     0.016 A 
ATOM      9  C   UNL d   1      -2.446   1.078  11.731  0.00  0.00     0.007 A 
ATOM     10  C   UNL d   1      -2.276   0.017  12.630  0.00  0.00    -0.062 A 
ATOM     11  C   UNL d   1      -1.947  -1.248  12.134  0.00  0.00     0.007 A 
ATOM     12  C   UNL d   1      -2.436   0.248  14.104  0.00  0.00     0.048 C 
ATOM     13  C   UNL d   1      -1.776  -1.445  10.762  0.00  0.00     0.016 A 
ENDBRANCH   5   7
ENDBRANCH   4   5
ENDBRANCH   1   3
BRANCH   1  14
ATOM     14  C   UNL d   1      -0.246   0.842   3.955  0.00  0.00     0.031 A 
ATOM     15  C   UNL d   1      -0.354   1.885   3.024  0.00  0.00     0.030 A 
ATOM     16  C   UNL d   1      -0.159   1.659   1.656  0.00  0.00     0.018 A 
ATOM     17  C   UNL d   1       0.153   0.378   1.181  0.00  0.00     0.048 A 
ATOM     18  C   UNL d   1       0.263  -0.668   2.106  0.00  0.00     0.018 A 
ATOM     19  C   UNL d   1       0.055  -0.437   3.471  0.00  0.00     0.030 A 
BRANCH  17  20
ATOM     20  C   UNL d   1       0.351   0.140  -0.295  0.00  0.00     0.417 C 
ATOM     21  F   UNL d   1       0.696  -1.142  -0.603  0.00  0.00    -0.166 F 
ATOM     22  F   UNL d   1       1.333   0.925  -0.822  0.00  0.00    -0.166 F 
ATOM     23  F   UNL d   1      -0.769   0.409  -1.021  0.00  0.00    -0.166 F 
ENDBRANCH  17  20
ENDBRANCH   1  14
TORSDOF 5
