REMARK  3 active torsions:
REMARK  status: ('A' for Active; 'I' for Inactive)
REMARK    1  A    between atoms: S_11  and  C_3 
REMARK    2  A    between atoms: C_14  and  S_11 
REMARK    3  A    between atoms: C_13  and  C_14 
ROOT
ATOM      1  N   UNL d   1       0.776  -0.697  -0.007  0.00  0.00    -0.268 N 
ATOM      2  C   UNL d   1       1.539   0.432   0.055  0.00  0.00     0.173 A 
ATOM      3  C   UNL d   1       1.673  -1.724  -0.043  0.00  0.00     0.168 A 
ATOM      4  N   UNL d   1       2.814   0.151   0.091  0.00  0.00    -0.277 N 
ATOM      5  HN  UNL d   1       3.588   0.812   0.152  1.00  0.00     0.189 HD
ATOM      6  S   UNL d   1       0.613   1.892   0.078  0.00  0.00    -0.050 SA
ATOM      7  N   UNL d   1       2.900  -1.236   0.030  0.00  0.00    -0.277 N 
ATOM      8  HN  UNL d   1       3.761  -1.782   0.040  1.00  0.00     0.189 HD
ATOM      9  C   UNL d   1      -0.601  -0.493  -0.011  0.00  0.00     0.061 A 
ATOM     10  C   UNL d   1      -0.875   0.885   0.023  0.00  0.00     0.035 A 
ATOM     11  C   UNL d   1      -1.606  -1.444  -0.030  0.00  0.00     0.031 A 
ATOM     12  C   UNL d   1      -2.184   1.338   0.020  0.00  0.00     0.021 A 
ATOM     13  C   UNL d   1      -2.925  -0.985  -0.026  0.00  0.00     0.002 A 
ATOM     14  C   UNL d   1      -3.213   0.391  -0.005  0.00  0.00     0.002 A 
ENDROOT
BRANCH   3  15
ATOM     15  S   UNL d   1       1.266  -3.396  -0.177  0.00  0.00    -0.085 SA
BRANCH  15  16
ATOM     16  C   UNL d   1       2.608  -4.137   0.791  0.00  0.00     0.160 C 
BRANCH  16  17
ATOM     17  C   UNL d   1       2.605  -3.626   2.219  0.00  0.00     0.132 C 
ATOM     18  O   UNL d   1       1.578  -3.554   2.897  0.00  0.00    -0.298 OA
ATOM     19  C   UNL d   1       3.942  -3.238   2.795  0.00  0.00     0.091 C 
ENDBRANCH  16  17
ENDBRANCH  15  16
ENDBRANCH   3  15
TORSDOF 3
