REMARK  5 active torsions:
REMARK  status: ('A' for Active; 'I' for Inactive)
REMARK    1  A    between atoms: C_3  and  C_1 
REMARK       I    between atoms: C_2  and  N_5 
REMARK       I    between atoms: N_7  and  C_2 
REMARK       I    between atoms: N_6  and  C_3 
REMARK    2  A    between atoms: C_18  and  N_7 
REMARK    3  A    between atoms: O_19  and  C_20 
REMARK    4  A    between atoms: C_21  and  O_19 
REMARK    5  A    between atoms: C_26  and  C_21 
ROOT
ATOM      1  C   UNL d   1      -2.375   2.500  -4.174  0.00  0.00     0.323 C 
ATOM      2  C   UNL d   1       2.310   0.530  -1.850  0.00  0.00     0.251 C 
ATOM      3  N   UNL d   1      -1.223   1.962  -3.613  0.00  0.00    -0.331 N 
ATOM      4  N   UNL d   1       1.339   1.145  -2.624  0.00  0.00    -0.347 N 
ATOM      5  N   UNL d   1      -3.075   1.684  -5.033  0.00  0.00    -0.309 N 
ATOM      6  O   UNL d   1      -2.703   3.655  -3.902  0.00  0.00    -0.247 OA
ATOM      7  C   UNL d   1      -0.844   0.540  -3.583  0.00  0.00     0.147 C 
ATOM      8  C   UNL d   1      -0.514   2.795  -2.623  0.00  0.00     0.147 C 
ATOM      9  C   UNL d   1       0.675   0.370  -3.671  0.00  0.00     0.146 C 
ATOM     10  C   UNL d   1       1.006   2.570  -2.627  0.00  0.00     0.146 C 
ATOM     11  O   UNL d   1       2.690  -0.616  -2.128  0.00  0.00    -0.270 OA
ATOM     12  H   UNL d   1      -2.748   0.745  -5.166  0.00  0.00     0.170 HD
ENDROOT
BRANCH   5  13
ATOM     13  C   UNL d   1      -4.290   1.984  -5.693  0.00  0.00     0.036 A 
ATOM     14  C   UNL d   1      -4.907   3.232  -5.641  0.00  0.00     0.032 A 
ATOM     15  C   UNL d   1      -6.165   3.435  -6.213  0.00  0.00     0.039 A 
ATOM     16  C   UNL d   1      -6.828   2.386  -6.844  0.00  0.00     0.069 A 
ATOM     17  C   UNL d   1      -6.178   1.163  -6.992  0.00  0.00     0.039 A 
ATOM     18  C   UNL d   1      -4.917   0.960  -6.417  0.00  0.00     0.032 A 
BRANCH  16  19
ATOM     19  O   UNL d   1      -8.095   2.481  -7.357  0.00  0.00    -0.347 OA
BRANCH  19  20
ATOM     20  C   UNL d   1      -8.967   3.302  -6.570  0.00  0.00     0.214 C 
BRANCH  20  21
ATOM     21  C   UNL d   1     -10.375   3.243  -7.111  0.00  0.00    -0.034 A 
ATOM     22  C   UNL d   1     -11.444   2.852  -6.293  0.00  0.00     0.009 A 
ATOM     23  C   UNL d   1     -12.752   2.885  -6.778  0.00  0.00     0.001 A 
ATOM     24  C   UNL d   1     -13.004   3.311  -8.081  0.00  0.00     0.000 A 
ATOM     25  C   UNL d   1     -11.947   3.694  -8.905  0.00  0.00     0.001 A 
ATOM     26  C   UNL d   1     -10.639   3.660  -8.423  0.00  0.00     0.009 A 
ENDBRANCH  20  21
ENDBRANCH  19  20
ENDBRANCH  16  19
ENDBRANCH   5  13
BRANCH   2  27
ATOM     27  C   UNL d   1       2.919   1.304  -0.662  0.00  0.00     0.245 C 
ATOM     28  O   UNL d   1       1.960   1.788   0.284  0.00  0.00    -0.331 OA
ATOM     29  C   UNL d   1       1.564   0.816   1.167  0.00  0.00     0.103 A 
ATOM     30  C   UNL d   1       0.421   1.074   1.922  0.00  0.00     0.040 A 
ATOM     31  C   UNL d   1       2.242  -0.395   1.324  0.00  0.00     0.102 A 
ATOM     32  C   UNL d   1      -0.087   0.090   2.774  0.00  0.00     0.003 A 
ATOM     33  C   UNL d   1       0.546  -1.150   2.867  0.00  0.00     0.003 A 
ATOM     34  C   UNL d   1       1.717  -1.389   2.147  0.00  0.00     0.039 A 
ATOM     35  O   UNL d   1       3.425  -0.681   0.701  0.00  0.00    -0.345 OA
ATOM     36  C   UNL d   1       3.983   0.465   0.047  0.00  0.00     0.218 C 
ENDBRANCH   2  27
TORSDOF 5
