REMARK  4 active torsions:
REMARK  status: ('A' for Active; 'I' for Inactive)
REMARK    1  A    between atoms: C_3  and  C_1 
REMARK    2  A    between atoms: C_15  and  N_2 
REMARK    3  A    between atoms: N_22  and  C_11 
REMARK    4  A    between atoms: C_21  and  C_16 
ROOT
ATOM      1  C   UNL d   1      -0.213  -1.290  -0.257  0.00  0.00     0.152 C 
ATOM      2  N   UNL d   1       1.012  -0.683   0.022  0.00  0.00    -0.224 N 
ATOM      3  N   UNL d   1       0.771   0.554   0.508  0.00  0.00     0.001 NA
ATOM      4  N   UNL d   1      -0.526   0.764   0.337  0.00  0.00    -0.007 NA
ATOM      5  N   UNL d   1      -1.144  -0.356  -0.140  0.00  0.00    -0.269 N 
ATOM      6  HN  UNL d   1      -2.135  -0.454  -0.363  1.00  0.00     0.185 HD
ENDROOT
BRANCH   1   7
ATOM      7  C   UNL d   1      -0.467  -2.714  -0.478  0.00  0.00     0.048 A 
ATOM      8  C   UNL d   1      -1.434  -3.210  -1.341  0.00  0.00     0.023 A 
ATOM      9  N   UNL d   1      -1.657  -4.543  -1.497  0.00  0.00    -0.336 N 
ATOM     10  C   UNL d   1      -2.324  -2.316  -2.157  0.00  0.00     0.069 C 
ATOM     11  C   UNL d   1      -0.929  -5.389  -0.765  0.00  0.00     0.154 A 
ATOM     12  HN  UNL d   1      -2.359  -4.885  -2.153  1.00  0.00     0.168 HD
ATOM     13  N   UNL d   1       0.032  -5.021   0.077  0.00  0.00    -0.342 N 
ATOM     14  C   UNL d   1       0.220  -3.694   0.221  0.00  0.00     0.108 A 
ATOM     15  HN  UNL d   1       0.595  -5.704   0.585  1.00  0.00     0.167 HD
BRANCH  11  16
ATOM     16  N   UNL d   1      -1.162  -6.738  -0.915  0.00  0.00    -0.274 NA
ATOM     17  H   UNL d   1      -0.333  -7.267  -0.680  0.00  0.00     0.127 HD
ATOM     18  H   UNL d   1      -1.611  -6.924  -1.796  0.00  0.00     0.127 HD
ENDBRANCH  11  16
ENDBRANCH   1   7
BRANCH   2  19
ATOM     19  C   UNL d   1       2.326  -1.187  -0.097  0.00  0.00     0.056 A 
ATOM     20  C   UNL d   1       2.638  -2.131  -1.078  0.00  0.00     0.032 A 
ATOM     21  C   UNL d   1       3.897  -2.735  -1.086  0.00  0.00     0.014 A 
ATOM     22  C   UNL d   1       4.885  -2.402  -0.142  0.00  0.00    -0.026 A 
ATOM     23  C   UNL d   1       4.567  -1.393   0.787  0.00  0.00     0.014 A 
ATOM     24  C   UNL d   1       3.308  -0.778   0.808  0.00  0.00     0.032 A 
BRANCH  22  25
ATOM     25  C   UNL d   1       6.193  -3.101  -0.126  0.00  0.00    -0.026 A 
ATOM     26  C   UNL d   1       6.878  -3.353   1.077  0.00  0.00     0.012 A 
ATOM     27  C   UNL d   1       8.102  -4.032   1.092  0.00  0.00     0.001 A 
ATOM     28  C   UNL d   1       8.663  -4.487  -0.096  0.00  0.00     0.000 A 
ATOM     29  C   UNL d   1       8.006  -4.259  -1.299  0.00  0.00     0.001 A 
ATOM     30  C   UNL d   1       6.790  -3.567  -1.312  0.00  0.00     0.012 A 
ENDBRANCH  22  25
ENDBRANCH   2  19
TORSDOF 4
