REMARK  2 active torsions:
REMARK  status: ('A' for Active; 'I' for Inactive)
REMARK       I    between atoms: C_2  and  N_1 
REMARK    1  A    between atoms: C_5  and  C_2 
REMARK    2  A    between atoms: N_3  and  C_5 
ROOT
ATOM      1  N   UNL d   1      -2.372   2.221  -1.179  0.00  0.00    -0.316 N 
ATOM      2  C   UNL d   1      -1.132   2.312  -0.541  0.00  0.00     0.242 C 
ATOM      3  C   UNL d   1      -2.660   2.619  -2.515  0.00  0.00     0.043 A 
ATOM      4  O   UNL d   1      -0.949   1.820   0.582  0.00  0.00    -0.271 OA
ATOM      5  C   UNL d   1      -3.903   3.216  -2.801  0.00  0.00    -0.031 A 
ATOM      6  C   UNL d   1      -3.538   1.865  -0.368  0.00  0.00     0.132 C 
ATOM      7  C   UNL d   1      -1.755   2.412  -3.562  0.00  0.00     0.030 A 
ATOM      8  C   UNL d   1      -4.513   3.030  -0.344  0.00  0.00     0.025 C 
ATOM      9  C   UNL d   1      -4.990   3.337  -1.759  0.00  0.00     0.042 C 
ATOM     10  C   UNL d   1      -4.160   3.692  -4.097  0.00  0.00     0.009 A 
ATOM     11  C   UNL d   1      -2.019   2.885  -4.846  0.00  0.00     0.002 A 
ATOM     12  C   UNL d   1      -3.212   3.547  -5.109  0.00  0.00     0.001 A 
ENDROOT
BRANCH   2  13
ATOM     13  C   UNL d   1       0.011   3.117  -1.195  0.00  0.00     0.226 C 
BRANCH  13  14
ATOM     14  N   UNL d   1       1.038   2.289  -1.879  0.00  0.00    -0.372 N 
ATOM     15  C   UNL d   1       2.177   2.947  -2.384  0.00  0.00     0.036 A 
ATOM     16  C   UNL d   1       3.364   2.235  -2.668  0.00  0.00    -0.032 A 
ATOM     17  C   UNL d   1       2.179   4.319  -2.692  0.00  0.00     0.030 A 
ATOM     18  C   UNL d   1       4.493   2.885  -3.204  0.00  0.00     0.009 A 
ATOM     19  C   UNL d   1       3.484   0.766  -2.355  0.00  0.00     0.042 C 
ATOM     20  C   UNL d   1       4.460   4.244  -3.485  0.00  0.00     0.001 A 
ATOM     21  C   UNL d   1       3.300   4.962  -3.231  0.00  0.00     0.002 A 
ATOM     22  C   UNL d   1       2.119   0.112  -2.300  0.00  0.00     0.024 C 
ATOM     23  C   UNL d   1       1.221   0.918  -1.380  0.00  0.00     0.124 C 
ENDBRANCH  13  14
ENDBRANCH   2  13
TORSDOF 2
