REMARK  4 active torsions:
REMARK  status: ('A' for Active; 'I' for Inactive)
REMARK       I    between atoms: C_7  and  N_1 
REMARK    1  A    between atoms: C_2  and  C_8 
REMARK    2  A    between atoms: C_3  and  C_9 
REMARK    3  A    between atoms: N_6  and  C_10 
REMARK    4  A    between atoms: O_16  and  C_9 
ROOT
ATOM      1  N   UNL d   1      -1.322   1.306   0.271  0.00  0.00    -0.319 N 
ATOM      2  C   UNL d   1      -1.833  -0.066   0.187  0.00  0.00     0.184 C 
ATOM      3  C   UNL d   1      -0.004   1.443  -0.427  0.00  0.00     0.204 C 
ATOM      4  S   UNL d   1      -0.415  -1.167  -0.054  0.00  0.00    -0.127 SA
ATOM      5  C   UNL d   1       0.825   0.181  -0.052  0.00  0.00     0.034 C 
ATOM      6  C   UNL d   1      -2.179   2.396   0.278  0.00  0.00     0.217 C 
ATOM      7  O   UNL d   1      -1.720   3.534   0.172  0.00  0.00    -0.274 OA
ATOM      8  C   UNL d   1       1.420   0.263   1.362  0.00  0.00     0.029 C 
ATOM      9  C   UNL d   1       1.917  -0.184  -1.063  0.00  0.00     0.029 C 
ATOM     10  C   UNL d   1      -3.651   2.225   0.563  0.00  0.00     0.117 C 
ENDROOT
BRANCH   2  11
ATOM     11  C   UNL d   1      -2.680  -0.533   1.354  0.00  0.00    -0.023 A 
ATOM     12  C   UNL d   1      -2.432  -0.115   2.670  0.00  0.00     0.046 A 
ATOM     13  C   UNL d   1      -3.330  -0.456   3.694  0.00  0.00     0.103 A 
ATOM     14  C   UNL d   1      -4.452  -1.252   3.430  0.00  0.00     0.036 A 
ATOM     15  C   UNL d   1      -4.666  -1.723   2.136  0.00  0.00     0.003 A 
ATOM     16  C   UNL d   1      -3.786  -1.371   1.110  0.00  0.00     0.010 A 
BRANCH  13  17
ATOM     17  N   UNL d   1      -3.119   0.082   5.045  0.00  0.00    -0.116 N 
ATOM     18  O   UNL d   1      -2.130   0.801   5.228  0.00  0.00    -0.532 OA
ATOM     19  O   UNL d   1      -3.957  -0.202   5.911  0.00  0.00    -0.532 OA
ENDBRANCH  13  17
ENDBRANCH   2  11
BRANCH   3  20
ATOM     20  C   UNL d   1       0.932   2.666  -0.253  0.00  0.00     0.165 C 
ATOM     21  O   UNL d   1       1.912   2.848  -0.962  0.00  0.00    -0.648 OA
BRANCH  20  22
ATOM     22  O   UNL d   1       0.691   3.461   0.807  0.00  0.00    -0.775 OA
ATOM     23  H   UNL d   1      -0.268   3.465   1.025  0.00  0.00     0.167 HD
ENDBRANCH  20  22
ENDBRANCH   3  20
TORSDOF 4
