REMARK  5 active torsions:
REMARK  status: ('A' for Active; 'I' for Inactive)
REMARK    1  A    between atoms: N_8  and  C_1 
REMARK       I    between atoms: C_4  and  N_7 
REMARK       I    between atoms: N_9  and  C_4 
REMARK    2  A    between atoms: C_15  and  N_9 
REMARK    3  A    between atoms: O_16  and  C_17 
REMARK    4  A    between atoms: C_20  and  O_16 
REMARK    5  A    between atoms: C_27  and  C_20 
ROOT
ATOM      1  C   UNL d   1      -3.317   2.027   3.807  0.00  0.00     0.323 C 
ATOM      2  N   UNL d   1      -2.219   2.351   3.000  0.00  0.00    -0.331 N 
ATOM      3  N   UNL d   1       0.064   2.516   1.094  0.00  0.00     0.105 N 
ATOM      4  N   UNL d   1      -4.321   2.964   3.821  0.00  0.00    -0.309 N 
ATOM      5  O   UNL d   1      -3.338   0.982   4.455  0.00  0.00    -0.247 OA
ATOM      6  C   UNL d   1      -1.203   1.302   2.920  0.00  0.00     0.158 C 
ATOM      7  C   UNL d   1      -2.280   3.269   1.855  0.00  0.00     0.158 C 
ATOM      8  C   UNL d   1      -0.921   3.595   1.186  0.00  0.00     0.293 C 
ATOM      9  C   UNL d   1       0.135   1.810   2.385  0.00  0.00     0.293 C 
ATOM     10  H   UNL d   1      -4.198   3.774   3.243  0.00  0.00     0.170 HD
ENDROOT
BRANCH   4  11
ATOM     11  C   UNL d   1      -5.541   2.908   4.523  0.00  0.00     0.036 A 
ATOM     12  C   UNL d   1      -5.917   1.869   5.378  0.00  0.00     0.032 A 
ATOM     13  C   UNL d   1      -7.202   1.835   5.927  0.00  0.00     0.039 A 
ATOM     14  C   UNL d   1      -8.120   2.834   5.623  0.00  0.00     0.069 A 
ATOM     15  C   UNL d   1      -7.714   3.935   4.871  0.00  0.00     0.039 A 
ATOM     16  C   UNL d   1      -6.434   3.963   4.314  0.00  0.00     0.032 A 
BRANCH  14  17
ATOM     17  O   UNL d   1      -9.396   2.644   6.084  0.00  0.00    -0.347 OA
BRANCH  17  18
ATOM     18  C   UNL d   1     -10.399   3.248   5.262  0.00  0.00     0.214 C 
BRANCH  18  19
ATOM     19  C   UNL d   1     -11.700   2.501   5.382  0.00  0.00    -0.034 A 
ATOM     20  C   UNL d   1     -12.868   3.166   5.779  0.00  0.00     0.009 A 
ATOM     21  C   UNL d   1     -14.086   2.493   5.814  0.00  0.00     0.001 A 
ATOM     22  C   UNL d   1     -14.154   1.148   5.450  0.00  0.00     0.000 A 
ATOM     23  C   UNL d   1     -12.999   0.476   5.053  0.00  0.00     0.001 A 
ATOM     24  C   UNL d   1     -11.778   1.148   5.019  0.00  0.00     0.009 A 
ENDBRANCH  18  19
ENDBRANCH  17  18
ENDBRANCH  14  17
ENDBRANCH   4  11
BRANCH   3  25
ATOM     25  C   UNL d   1       0.031   1.691  -0.132  0.00  0.00     0.290 C 
ATOM     26  C   UNL d   1       1.115   0.608  -0.087  0.00  0.00    -0.009 A 
ATOM     27  C   UNL d   1       0.522  -0.674  -0.063  0.00  0.00    -0.017 A 
ATOM     28  C   UNL d   1       2.488   0.776   0.019  0.00  0.00     0.010 A 
ATOM     29  C   UNL d   1       1.308  -1.804   0.071  0.00  0.00     0.013 A 
ATOM     30  C   UNL d   1      -0.910  -0.528  -0.220  0.00  0.00    -0.017 C 
ATOM     31  C   UNL d   1       2.692  -1.643   0.191  0.00  0.00     0.001 A 
ATOM     32  C   UNL d   1       3.277  -0.366   0.163  0.00  0.00     0.001 A 
ATOM     33  C   UNL d   1      -1.214   0.843  -0.381  0.00  0.00    -0.009 C 
ATOM     34  C   UNL d   1      -1.914  -1.482  -0.255  0.00  0.00     0.013 C 
ATOM     35  C   UNL d   1      -2.485   1.240  -0.764  0.00  0.00     0.010 C 
ATOM     36  C   UNL d   1      -3.499   0.281  -0.806  0.00  0.00     0.001 C 
ATOM     37  C   UNL d   1      -3.221  -1.063  -0.518  0.00  0.00     0.001 C 
ENDBRANCH   3  25
TORSDOF 5
