REMARK  7 active torsions:
REMARK  status: ('A' for Active; 'I' for Inactive)
REMARK    1  A    between atoms: C_6  and  CA_1 
REMARK    2  A    between atoms: C_9  and  C_4 
REMARK    3  A    between atoms: OXT_12  and  C_6 
REMARK    4  A    between atoms: C_7  and  C_11 
REMARK    5  A    between atoms: O_14  and  C_7 
REMARK    6  A    between atoms: C_11  and  C_9 
REMARK    7  A    between atoms: C_15  and  O_14 
ROOT
ATOM      1  CA  UNL d   1      -1.409   0.380  -0.660  0.00  0.00     0.113 A 
ATOM      2  N   UNL d   1      -1.388  -0.334   0.520  0.00  0.00    -0.360 N 
ATOM      3  C   UNL d   1      -0.075   0.581  -1.023  0.00  0.00    -0.021 A 
ATOM      4  C   UNL d   1       0.748   0.008   0.003  0.00  0.00    -0.034 A 
ATOM      5  C   UNL d   1      -0.105  -0.533   0.941  0.00  0.00     0.096 A 
ATOM      6  C   UNL d   1       0.426   1.282  -2.242  0.00  0.00     0.051 C 
ATOM      7  H   UNL d   1      -2.209  -0.699   0.992  0.00  0.00     0.165 HD
ENDROOT
BRANCH   4   8
ATOM      8  C   UNL d   1       2.248   0.006   0.057  0.00  0.00     0.050 C 
BRANCH   8   9
ATOM      9  C   UNL d   1       2.849  -1.396   0.052  0.00  0.00     0.116 C 
BRANCH   9  10
ATOM     10  C   UNL d   1       4.348  -1.319  -0.071  0.00  0.00     0.259 C 
ATOM     11  O   UNL d   1       5.000  -0.287  -0.129  0.00  0.00    -0.265 OA
BRANCH  10  12
ATOM     12  O   UNL d   1       4.858  -2.578  -0.186  0.00  0.00    -0.322 OA
BRANCH  12  13
ATOM     13  C   UNL d   1       6.198  -2.648  -0.694  0.00  0.00     0.174 C 
ATOM     14  C   UNL d   1       6.119  -2.721  -2.209  0.00  0.00     0.034 C 
ENDBRANCH  12  13
ENDBRANCH  10  12
ENDBRANCH   9  10
ENDBRANCH   8   9
ENDBRANCH   4   8
BRANCH   1  15
ATOM     15  C   UNL d   1      -2.614   0.750  -1.376  0.00  0.00     0.194 C 
ATOM     16  O   UNL d   1      -2.736   0.831  -2.588  0.00  0.00    -0.645 OA
BRANCH  15  17
ATOM     17  OXT UNL d   1      -3.641   0.998  -0.531  0.00  0.00    -0.772 OA
ATOM     18  HXT UNL d   1      -3.350   1.170   0.382  0.00  0.00     0.167 HD
ENDBRANCH  15  17
ENDBRANCH   1  15
TORSDOF 7
