REMARK  2 active torsions:
REMARK  status: ('A' for Active; 'I' for Inactive)
REMARK    1  A    between atoms: C_6  and  C_1 
REMARK    2  A    between atoms: C_5  and  C_2 
REMARK       I    between atoms: N_11  and  C_6 
ROOT
ATOM      1  C   UNL d   1       0.605   0.138   0.670  0.00  0.00     0.137 A 
ATOM      2  C   UNL d   1       0.581  -1.131   0.111  0.00  0.00     0.121 A 
ATOM      3  N   UNL d   1      -0.656   0.722   0.553  0.00  0.00    -0.340 N 
ATOM      4  HN  UNL d   1      -0.960   1.640   0.879  1.00  0.00     0.167 HD
ATOM      5  O   UNL d   1      -0.696  -1.339  -0.354  0.00  0.00    -0.303 OA
ATOM      6  C   UNL d   1      -1.359  -0.190  -0.075  0.00  0.00     0.234 A 
ENDROOT
BRANCH   2   7
ATOM      7  C   UNL d   1       1.496  -2.264  -0.009  0.00  0.00     0.022 A 
ATOM      8  C   UNL d   1       1.572  -3.090  -1.145  0.00  0.00     0.047 A 
ATOM      9 CL   UNL d   1       0.651  -2.805  -2.586  0.00  0.00    -0.083 Cl
ATOM     10  C   UNL d   1       2.444  -4.190  -1.174  0.00  0.00     0.025 A 
ATOM     11  C   UNL d   1       3.261  -4.474  -0.082  0.00  0.00     0.002 A 
ATOM     12  C   UNL d   1       3.209  -3.660   1.044  0.00  0.00     0.001 A 
ATOM     13  C   UNL d   1       2.331  -2.574   1.082  0.00  0.00     0.016 A 
ENDBRANCH   2   7
BRANCH   1  14
ATOM     14  C   UNL d   1       1.715   0.818   1.320  0.00  0.00     0.268 C 
ATOM     15  O   UNL d   1       2.881   0.446   1.301  0.00  0.00    -0.266 OA
ATOM     16  N   UNL d   1       1.341   1.944   1.998  0.00  0.00    -0.365 N 
ATOM     17  H   UNL d   1       0.372   2.239   1.985  0.00  0.00     0.159 HD
ATOM     18  H   UNL d   1       2.040   2.487   2.480  0.00  0.00     0.159 HD
ENDBRANCH   1  14
TORSDOF 2
