REMARK  5 active torsions:
REMARK  status: ('A' for Active; 'I' for Inactive)
REMARK    1  A    between atoms: N_2  and  C_1 
REMARK       I    between atoms: C_3  and  N_2 
REMARK    2  A    between atoms: C_8  and  N_2 
REMARK    3  A    between atoms: C_7  and  C_3 
REMARK    4  A    between atoms: C_9  and  C_11 
REMARK    5  A    between atoms: C_10  and  C_12 
ROOT
ATOM      1  N   UNL d   1      -3.275  -1.417  -0.020  0.00  0.00    -0.258 N 
ATOM      2  C   UNL d   1      -3.535  -2.801   0.011  0.00  0.00     0.266 C 
ATOM      3  O   UNL d   1      -4.580  -3.307  -0.429  0.00  0.00    -0.267 OA
ENDROOT
BRANCH   1   4
ATOM      4  C   UNL d   1      -1.964  -0.904  -0.109  0.00  0.00     0.159 C 
ATOM      5  N   UNL d   1      -1.565   0.266   0.344  0.00  0.00    -0.335 N 
ATOM      6  C   UNL d   1      -0.209   0.434   0.187  0.00  0.00     0.051 A 
ATOM      7  HN  UNL d   1      -2.185   0.961   0.759  1.00  0.00     0.168 HD
ATOM      8  C   UNL d   1       0.532   1.564   0.585  0.00  0.00     0.031 A 
ATOM      9  C   UNL d   1       0.452  -0.639  -0.403  0.00  0.00     0.035 A 
ATOM     10  C   UNL d   1       1.921   1.566   0.431  0.00  0.00     0.002 A 
ATOM     11  C   UNL d   1       2.570   0.457  -0.099  0.00  0.00     0.002 A 
ATOM     12  C   UNL d   1       1.850  -0.663  -0.533  0.00  0.00     0.021 A 
ATOM     13  S   UNL d   1      -0.722  -1.789  -0.913  0.00  0.00    -0.051 SA
ENDBRANCH   1   4
BRANCH   1  14
ATOM     14  C   UNL d   1      -4.365  -0.457   0.146  0.00  0.00     0.046 A 
ATOM     15  C   UNL d   1      -5.636  -0.867   0.593  0.00  0.00     0.046 A 
ATOM     16  C   UNL d   1      -6.681   0.044   0.853  0.00  0.00     0.050 A 
ATOM     17  C   UNL d   1      -6.445   1.414   0.693  0.00  0.00     0.032 A 
ATOM     18  C   UNL d   1      -5.199   1.869   0.253  0.00  0.00     0.050 A 
ATOM     19  C   UNL d   1      -4.207   0.925  -0.073  0.00  0.00     0.046 A 
BRANCH  16  20
ATOM     20  C   UNL d   1      -8.026  -0.431   1.351  0.00  0.00     0.417 C 
ATOM     21  F   UNL d   1      -8.113  -1.779   1.513  0.00  0.00    -0.166 F 
ATOM     22  F   UNL d   1      -8.343   0.110   2.561  0.00  0.00    -0.166 F 
ATOM     23  F   UNL d   1      -9.043  -0.086   0.513  0.00  0.00    -0.166 F 
ENDBRANCH  16  20
BRANCH  18  24
ATOM     24  C   UNL d   1      -4.902   3.349   0.198  0.00  0.00     0.417 C 
ATOM     25  F   UNL d   1      -3.615   3.643  -0.137  0.00  0.00    -0.166 F 
ATOM     26  F   UNL d   1      -5.684   4.008  -0.699  0.00  0.00    -0.166 F 
ATOM     27  F   UNL d   1      -5.118   3.957   1.399  0.00  0.00    -0.166 F 
ENDBRANCH  18  24
ENDBRANCH   1  14
BRANCH   2  28
ATOM     28  C   UNL d   1      -2.566  -3.785   0.596  0.00  0.00     0.054 A 
ATOM     29  C   UNL d   1      -1.780  -3.568   1.738  0.00  0.00     0.049 A 
ATOM     30 CL   UNL d   1      -1.997  -2.229   2.808  0.00  0.00    -0.083 Cl
ATOM     31  C   UNL d   1      -0.790  -4.496   2.088  0.00  0.00     0.025 A 
ATOM     32  C   UNL d   1      -0.649  -5.686   1.376  0.00  0.00     0.002 A 
ATOM     33  C   UNL d   1      -1.513  -5.968   0.323  0.00  0.00     0.001 A 
ATOM     34  C   UNL d   1      -2.459  -5.022  -0.070  0.00  0.00     0.019 A 
ENDBRANCH   2  28
TORSDOF 5
