REMARK  5 active torsions:
REMARK  status: ('A' for Active; 'I' for Inactive)
REMARK    1  A    between atoms: N_2  and  S_1 
REMARK    2  A    between atoms: C_9  and  S_1 
REMARK    3  A    between atoms: C_3  and  N_2 
REMARK       I    between atoms: C_4  and  N_10 
REMARK    4  A    between atoms: C_17  and  C_4 
REMARK    5  A    between atoms: N_10  and  C_20 
ROOT
ATOM      1  C   UNL d   1       0.488  -1.328  -1.077  0.00  0.00     0.075 A 
ATOM      2  C   UNL d   1       1.028  -2.587  -0.798  0.00  0.00     0.027 A 
ATOM      3  C   UNL d   1      -0.482  -1.187  -2.066  0.00  0.00     0.027 A 
ATOM      4  C   UNL d   1      -0.285  -3.558  -2.602  0.00  0.00     0.034 A 
ATOM      5  C   UNL d   1       0.632  -3.700  -1.552  0.00  0.00     0.031 A 
ATOM      6  C   UNL d   1      -0.853  -2.297  -2.827  0.00  0.00     0.031 A 
ENDROOT
BRANCH   1   7
ATOM      7  S   UNL d   1       0.971   0.094  -0.107  0.00  0.00     0.248 S 
ATOM      8  O   UNL d   1      -0.129   1.031  -0.121  0.00  0.00    -0.205 OA
ATOM      9  O   UNL d   1       1.473  -0.435   1.146  0.00  0.00    -0.205 OA
BRANCH   7  10
ATOM     10  N   UNL d   1       2.309   0.705  -0.923  0.00  0.00    -0.151 NA
ATOM     11  H   UNL d   1       3.003  -0.022  -1.046  0.00  0.00     0.149 HD
BRANCH  10  12
ATOM     12  C   UNL d   1       1.996   1.247  -2.171  0.00  0.00     0.171 A 
ATOM     13  N   UNL d   1       1.584   2.511  -2.212  0.00  0.00    -0.336 N 
ATOM     14  C   UNL d   1       1.194   2.962  -3.419  0.00  0.00     0.009 A 
ATOM     15  HN  UNL d   1       1.564   3.102  -1.381  1.00  0.00     0.168 HD
ATOM     16  C   UNL d   1       0.744   4.388  -3.510  0.00  0.00     0.068 C 
ATOM     17  C   UNL d   1       1.190   2.153  -4.542  0.00  0.00     0.049 A 
ATOM     18  C   UNL d   1       1.634   0.853  -4.376  0.00  0.00     0.009 A 
ATOM     19  N   UNL d   1       2.067   0.385  -3.187  0.00  0.00    -0.336 N 
ATOM     20  C   UNL d   1       1.619  -0.100  -5.532  0.00  0.00     0.068 C 
ATOM     21  HN  UNL d   1       2.424  -0.563  -3.073  1.00  0.00     0.168 HD
ENDBRANCH  10  12
ENDBRANCH   7  10
ENDBRANCH   1   7
BRANCH   4  22
ATOM     22  N   UNL d   1      -0.588  -4.691  -3.397  0.00  0.00    -0.327 N 
ATOM     23  C   UNL d   1      -1.123  -4.632  -4.675  0.00  0.00     0.226 C 
ATOM     24  O   UNL d   1      -1.428  -3.586  -5.249  0.00  0.00    -0.273 OA
ATOM     25  H   UNL d   1      -0.265  -5.588  -3.059  0.00  0.00     0.169 HD
BRANCH  23  26
ATOM     26  C   UNL d   1      -1.318  -5.987  -5.374  0.00  0.00     0.078 C 
ATOM     27  C   UNL d   1      -0.015  -6.774  -5.555  0.00  0.00     0.014 C 
ATOM     28  C   UNL d   1       0.925  -6.122  -6.568  0.00  0.00     0.001 C 
ATOM     29  C   UNL d   1       0.250  -5.910  -7.920  0.00  0.00     0.000 C 
ATOM     30  C   UNL d   1      -1.077  -5.170  -7.799  0.00  0.00     0.001 C 
ATOM     31  C   UNL d   1      -2.000  -5.794  -6.746  0.00  0.00     0.014 C 
ENDBRANCH  23  26
ENDBRANCH   4  22
TORSDOF 5
