REMARK  6 active torsions:
REMARK  status: ('A' for Active; 'I' for Inactive)
REMARK    1  A    between atoms: C_10  and  C_1 
REMARK    2  A    between atoms: N_16  and  C_3 
REMARK    3  A    between atoms: C_12  and  C_6 
REMARK    4  A    between atoms: C_13  and  C_9 
REMARK    5  A    between atoms: O_24  and  C_10 
REMARK    6  A    between atoms: C_25  and  O_24 
ROOT
ATOM      1  C   UNL d   1       2.388   0.096   0.010  0.00  0.00     0.179 A 
ATOM      2  C   UNL d   1       0.273   0.905   0.034  0.00  0.00     0.058 A 
ATOM      3  C   UNL d   1       1.649   1.262  -0.006  0.00  0.00     0.082 A 
ATOM      4  C   UNL d   1       0.258  -0.492   0.013  0.00  0.00     0.162 A 
ATOM      5  O   UNL d   1       1.532  -0.976   0.027  0.00  0.00    -0.284 OA
ATOM      6  C   UNL d   1      -0.979   1.549   0.047  0.00  0.00     0.017 A 
ATOM      7  N   UNL d   1      -0.818  -1.300  -0.027  0.00  0.00    -0.335 N 
ATOM      8  HN  UNL d   1      -0.748  -2.317  -0.024  1.00  0.00     0.168 HD
ATOM      9  C   UNL d   1      -1.999  -0.643  -0.071  0.00  0.00     0.052 A 
ATOM     10  C   UNL d   1      -2.121   0.743  -0.018  0.00  0.00     0.046 A 
ENDROOT
BRANCH   1  11
ATOM     11  C   UNL d   1       3.814  -0.102  -0.059  0.00  0.00     0.319 C 
ATOM     12  O   UNL d   1       4.652   0.797  -0.120  0.00  0.00    -0.257 OA
BRANCH  11  13
ATOM     13  O   UNL d   1       4.102  -1.431  -0.132  0.00  0.00    -0.316 OA
BRANCH  13  14
ATOM     14  C   UNL d   1       5.394  -1.742  -0.663  0.00  0.00     0.175 C 
ATOM     15  C   UNL d   1       5.283  -1.773  -2.177  0.00  0.00     0.034 C 
ENDBRANCH  13  14
ENDBRANCH  11  13
ENDBRANCH   1  11
BRANCH   3  16
ATOM     16  N   UNL d   1       2.160   2.506  -0.090  0.00  0.00    -0.396 N 
ATOM     17  H   UNL d   1       1.571   3.323   0.069  0.00  0.00     0.156 HD
ATOM     18  H   UNL d   1       3.159   2.689   0.002  0.00  0.00     0.156 HD
ENDBRANCH   3  16
BRANCH   6  19
ATOM     19  C   UNL d   1      -1.096   2.994   0.113  0.00  0.00     0.086 A 
ATOM     20  O   UNL d   1      -0.168   3.655   0.866  0.00  0.00    -0.322 OA
ATOM     21  C   UNL d   1      -0.476   4.976   0.827  0.00  0.00     0.142 A 
ATOM     22  C   UNL d   1      -1.604   5.182   0.071  0.00  0.00     0.027 A 
ATOM     23  C   UNL d   1      -2.011   3.903  -0.383  0.00  0.00     0.040 A 
ENDBRANCH   6  19
BRANCH   9  24
ATOM     24  C   UNL d   1      -3.184  -1.519  -0.156  0.00  0.00     0.031 A 
ATOM     25  S   UNL d   1      -4.637  -0.974  -0.910  0.00  0.00    -0.100 SA
ATOM     26  C   UNL d   1      -5.455  -2.433  -0.580  0.00  0.00     0.050 A 
ATOM     27  C   UNL d   1      -4.644  -3.343   0.057  0.00  0.00     0.008 A 
ATOM     28  C   UNL d   1      -3.335  -2.824   0.287  0.00  0.00     0.021 A 
ENDBRANCH   9  24
TORSDOF 6
