REMARK  4 active torsions:
REMARK  status: ('A' for Active; 'I' for Inactive)
REMARK    1  A    between atoms: N_2  and  C_1 
REMARK       I    between atoms: C_3  and  N_2 
REMARK    2  A    between atoms: C_5  and  C_3 
REMARK    3  A    between atoms: N_4  and  C_9 
REMARK    4  A    between atoms: C_9  and  C_5 
ROOT
ATOM      1  N   UNL d   1       0.020   2.111  -0.226  0.00  0.00    -0.326 N 
ATOM      2  C   UNL d   1       1.052   2.944  -0.626  0.00  0.00     0.223 C 
ATOM      3  O   UNL d   1       0.933   4.151  -0.825  0.00  0.00    -0.273 OA
ATOM      4  H   UNL d   1       0.302   1.271   0.263  0.00  0.00     0.169 HD
ENDROOT
BRANCH   1   5
ATOM      5  C   UNL d   1      -1.255   2.661   0.063  0.00  0.00     0.046 C 
ATOM      6  C   UNL d   1      -1.969   3.353  -0.944  0.00  0.00    -0.035 C 
ATOM      7  C   UNL d   1      -3.116   4.084  -0.602  0.00  0.00     0.009 C 
ATOM      8  C   UNL d   1      -1.568   3.301  -2.396  0.00  0.00     0.050 C 
ATOM      9  C   UNL d   1      -3.600   4.067   0.701  0.00  0.00     0.001 C 
ATOM     10  C   UNL d   1      -2.968   3.282   1.661  0.00  0.00     0.009 C 
ATOM     11  C   UNL d   1      -1.800   2.557   1.358  0.00  0.00    -0.035 C 
ATOM     12  C   UNL d   1      -1.198   1.747   2.472  0.00  0.00     0.050 C 
ENDBRANCH   1   5
BRANCH   2  13
ATOM     13  C   UNL d   1       2.419   2.327  -0.842  0.00  0.00     0.133 C 
BRANCH  13  14
ATOM     14  C   UNL d   1       2.725   0.914  -0.351  0.00  0.00     0.281 C 
BRANCH  14  15
ATOM     15  N   UNL d   1       1.965  -0.192  -0.949  0.00  0.00     0.088 N 
ATOM     16  C   UNL d   1       2.575  -1.497  -0.613  0.00  0.00     0.272 C 
ATOM     17  C   UNL d   1       3.057  -2.092  -1.926  0.00  0.00     0.032 C 
ATOM     18  C   UNL d   1       2.059  -1.543  -2.919  0.00  0.00     0.032 C 
ATOM     19  C   UNL d   1       1.867  -0.124  -2.421  0.00  0.00     0.272 C 
ENDBRANCH  14  15
ENDBRANCH  13  14
ENDBRANCH   2  13
TORSDOF 4
