REMARK  3 active torsions:
REMARK  status: ('A' for Active; 'I' for Inactive)
REMARK    1  A    between atoms: C_11  and  N_1 
REMARK    2  A    between atoms: C_8  and  C_2 
REMARK    3  A    between atoms: C_7  and  C_9 
ROOT
ATOM      1  N   UNL d   1      -0.215  -1.314  -0.104  0.00  0.00    -0.239 N 
ATOM      2  C   UNL d   1       0.961  -0.664   0.059  0.00  0.00     0.147 A 
ATOM      3  N   UNL d   1       0.834   0.621   0.154  0.00  0.00    -0.238 N 
ATOM      4  HN  UNL d   1       1.573   1.306   0.310  1.00  0.00     0.196 HD
ATOM      5  C   UNL d   1      -1.165  -0.349  -0.190  0.00  0.00     0.395 A 
ATOM      6  O   UNL d   1      -0.559   0.874  -0.004  0.00  0.00    -0.179 OA
ATOM      7  O   UNL d   1      -2.369  -0.480  -0.362  0.00  0.00    -0.235 OA
ENDROOT
BRANCH   2   8
ATOM      8  C   UNL d   1       2.286  -1.322   0.019  0.00  0.00     0.011 A 
ATOM      9  C   UNL d   1       2.529  -2.417  -0.824  0.00  0.00     0.031 A 
ATOM     10  C   UNL d   1       3.799  -3.011  -0.889  0.00  0.00     0.048 A 
ATOM     11  C   UNL d   1       4.841  -2.461  -0.128  0.00  0.00     0.016 A 
ATOM     12  C   UNL d   1       4.616  -1.344   0.679  0.00  0.00     0.002 A 
ATOM     13  C   UNL d   1       3.343  -0.774   0.752  0.00  0.00     0.015 A 
BRANCH  10  14
ATOM     14  C   UNL d   1       4.045  -4.214  -1.767  0.00  0.00     0.417 C 
ATOM     15  F   UNL d   1       2.929  -4.652  -2.415  0.00  0.00    -0.166 F 
ATOM     16  F   UNL d   1       4.968  -3.970  -2.738  0.00  0.00    -0.166 F 
ATOM     17  F   UNL d   1       4.511  -5.283  -1.065  0.00  0.00    -0.166 F 
ENDBRANCH  10  14
ENDBRANCH   2   8
BRANCH   1  18
ATOM     18  C   UNL d   1      -0.495  -2.689  -0.022  0.00  0.00     0.046 A 
ATOM     19  C   UNL d   1      -1.290  -3.299  -1.000  0.00  0.00     0.030 A 
ATOM     20  C   UNL d   1      -1.504  -4.679  -0.970  0.00  0.00     0.002 A 
ATOM     21  C   UNL d   1      -0.970  -5.447   0.064  0.00  0.00     0.000 A 
ATOM     22  C   UNL d   1      -0.215  -4.840   1.065  0.00  0.00     0.002 A 
ATOM     23  C   UNL d   1       0.035  -3.468   1.015  0.00  0.00     0.030 A 
ENDBRANCH   1  18
TORSDOF 3
