REMARK  7 active torsions:
REMARK  status: ('A' for Active; 'I' for Inactive)
REMARK    1  A    between atoms: O_12  and  C_1 
REMARK       I    between atoms: C_2  and  N_9 
REMARK    2  A    between atoms: O_11  and  C_2 
REMARK    3  A    between atoms: N_3  and  O_11 
REMARK    4  A    between atoms: C_5  and  C_7 
REMARK    5  A    between atoms: N_9  and  C_21 
REMARK    6  A    between atoms: C_22  and  O_12 
REMARK    7  A    between atoms: O_29  and  C_23 
ROOT
ATOM      1  N   UNL d   1       4.069   4.035   2.212  0.00  0.00    -0.260 N 
ATOM      2  HN  UNL d   1       4.311   4.840   2.790  1.00  0.00     0.194 HD
ATOM      3  C   UNL d   1       4.843   3.004   1.979  0.00  0.00     0.039 C 
ATOM      4  C   UNL d   1       4.448   1.853   1.063  0.00  0.00     0.071 C 
ENDROOT
BRANCH   1   5
ATOM      5  O   UNL d   1       2.851   3.849   1.535  0.00  0.00    -0.181 OA
BRANCH   5   6
ATOM      6  C   UNL d   1       1.837   4.720   1.874  0.00  0.00     0.387 C 
ATOM      7  N   UNL d   1       2.213   5.904   2.487  0.00  0.00    -0.301 N 
ATOM      8  H   UNL d   1       3.212   5.994   2.630  0.00  0.00     0.171 HD
ATOM      9  O   UNL d   1       0.691   4.404   1.557  0.00  0.00    -0.236 OA
BRANCH   7  10
ATOM     10  C   UNL d   1       1.335   6.939   2.907  0.00  0.00     0.037 A 
ATOM     11  C   UNL d   1      -0.055   6.819   2.833  0.00  0.00     0.032 A 
ATOM     12  C   UNL d   1      -0.920   7.804   3.322  0.00  0.00     0.039 A 
ATOM     13  C   UNL d   1      -0.421   8.995   3.825  0.00  0.00     0.078 A 
ATOM     14  C   UNL d   1       0.971   9.143   3.892  0.00  0.00     0.039 A 
ATOM     15  C   UNL d   1       1.844   8.127   3.445  0.00  0.00     0.032 A 
BRANCH  13  16
ATOM     16  O   UNL d   1      -1.150  10.052   4.277  0.00  0.00    -0.255 OA
BRANCH  16  17
ATOM     17  C   UNL d   1      -2.545  10.151   4.004  0.00  0.00     0.530 C 
ATOM     18  F   UNL d   1      -2.962   9.417   2.951  0.00  0.00    -0.144 F 
ATOM     19  F   UNL d   1      -2.831  11.445   3.725  0.00  0.00    -0.144 F 
ATOM     20  F   UNL d   1      -3.256   9.796   5.096  0.00  0.00    -0.144 F 
ENDBRANCH  16  17
ENDBRANCH  13  16
ENDBRANCH   7  10
ENDBRANCH   5   6
ENDBRANCH   1   5
BRANCH   3  21
ATOM     21  C   UNL d   1       6.165   2.916   2.658  0.00  0.00    -0.011 A 
ATOM     22  C   UNL d   1       6.850   4.100   2.917  0.00  0.00     0.025 A 
ATOM     23  C   UNL d   1       8.044   4.091   3.642  0.00  0.00    -0.025 A 
ATOM     24  C   UNL d   1       8.715   5.282   3.925  0.00  0.00     0.015 A 
ATOM     25  C   UNL d   1       8.572   2.864   4.115  0.00  0.00    -0.023 A 
ATOM     26  C   UNL d   1       9.872   5.289   4.698  0.00  0.00     0.037 A 
ATOM     27  C   UNL d   1      10.385   4.091   5.201  0.00  0.00     0.069 A 
ATOM     28  C   UNL d   1       9.739   2.888   4.896  0.00  0.00     0.049 A 
ATOM     29  C   UNL d   1       7.900   1.672   3.809  0.00  0.00     0.013 A 
ATOM     30  C   UNL d   1       6.703   1.692   3.078  0.00  0.00     0.014 A 
BRANCH  27  31
ATOM     31  O   UNL d   1      11.492   3.973   5.994  0.00  0.00    -0.356 OA
ATOM     32  C   UNL d   1      12.162   5.181   6.337  0.00  0.00     0.210 C 
ENDBRANCH  27  31
ENDBRANCH   3  21
TORSDOF 7
