REMARK  11 active torsions:
REMARK  status: ('A' for Active; 'I' for Inactive)
REMARK    1  A    between atoms: C_12  and  N_1 
REMARK    2  A    between atoms: C_11  and  N_2 
REMARK    3  A    between atoms: C_4  and  C_3 
REMARK    4  A    between atoms: O_29  and  C_5 
REMARK    5  A    between atoms: O_28  and  C_6 
REMARK    6  A    between atoms: O_31  and  C_7 
REMARK    7  A    between atoms: O_32  and  C_8 
REMARK    8  A    between atoms: O_33  and  C_9 
REMARK    9  A    between atoms: O_30  and  C_10 
REMARK   10  A    between atoms: C_14  and  C_11 
REMARK   11  A    between atoms: C_15  and  C_12 
ROOT
ATOM      1  N   UNL d   1      -1.235   0.638  -0.214  0.00  0.00     0.131 N 
ATOM      2  N   UNL d   1       1.230   0.721  -0.202  0.00  0.00     0.131 N 
ATOM      3  C   UNL d   1      -0.030   1.404   0.191  0.00  0.00     0.490 C 
ATOM      4  C   UNL d   1      -1.191  -0.741   0.315  0.00  0.00     0.278 C 
ATOM      5  C   UNL d   1       1.278  -0.609   0.420  0.00  0.00     0.278 C 
ATOM      6  C   UNL d   1       0.100  -1.472  -0.002  0.00  0.00     0.061 C 
ENDROOT
BRANCH   1   7
ATOM      7  C   UNL d   1      -2.454   1.297   0.325  0.00  0.00     0.314 C 
BRANCH   7   8
ATOM      8  C   UNL d   1      -3.740   0.624  -0.096  0.00  0.00    -0.025 A 
ATOM      9  C   UNL d   1      -4.644   0.126   0.843  0.00  0.00     0.048 A 
ATOM     10  C   UNL d   1      -5.843  -0.482   0.441  0.00  0.00     0.104 A 
ATOM     11  C   UNL d   1      -6.179  -0.540  -0.924  0.00  0.00     0.135 A 
ATOM     12  C   UNL d   1      -5.304   0.043  -1.866  0.00  0.00     0.104 A 
ATOM     13  C   UNL d   1      -4.067   0.553  -1.451  0.00  0.00     0.048 A 
BRANCH  10  14
ATOM     14  O   UNL d   1      -6.620  -0.881   1.500  0.00  0.00    -0.353 OA
ATOM     15  C   UNL d   1      -7.354  -2.086   1.326  0.00  0.00     0.210 C 
ENDBRANCH  10  14
BRANCH  11  16
ATOM     16  O   UNL d   1      -7.425  -0.992  -1.277  0.00  0.00    -0.351 OA
ATOM     17  C   UNL d   1      -7.434  -2.027  -2.265  0.00  0.00     0.210 C 
ENDBRANCH  11  16
BRANCH  12  18
ATOM     18  O   UNL d   1      -5.723   0.138  -3.171  0.00  0.00    -0.353 OA
ATOM     19  C   UNL d   1      -5.081   1.132  -3.965  0.00  0.00     0.210 C 
ENDBRANCH  12  18
ENDBRANCH   7   8
ENDBRANCH   1   7
BRANCH   3  20
ATOM     20  C   UNL d   1      -0.074   2.893  -0.229  0.00  0.00     0.007 A 
ATOM     21  C   UNL d   1      -0.107   3.891   0.762  0.00  0.00     0.036 A 
ATOM     22  C   UNL d   1      -0.165   5.251   0.426  0.00  0.00     0.056 A 
ATOM     23 CL   UNL d   1      -0.298   6.394   1.716  0.00  0.00    -0.083 Cl
ATOM     24  C   UNL d   1      -0.138   5.642  -0.916  0.00  0.00     0.055 A 
ATOM     25  C   UNL d   1      -0.127   4.669  -1.912  0.00  0.00     0.026 A 
ATOM     26 CL   UNL d   1      -0.146   7.299  -1.407  0.00  0.00    -0.083 Cl
ATOM     27  C   UNL d   1      -0.149   3.314  -1.570  0.00  0.00     0.013 A 
ENDBRANCH   3  20
BRANCH   2  28
ATOM     28  C   UNL d   1       1.446   0.684  -1.656  0.00  0.00     0.314 C 
BRANCH  28  29
ATOM     29  C   UNL d   1       2.629  -0.118  -2.151  0.00  0.00    -0.025 A 
ATOM     30  C   UNL d   1       2.430  -1.214  -2.990  0.00  0.00     0.048 A 
ATOM     31  C   UNL d   1       3.511  -1.925  -3.529  0.00  0.00     0.104 A 
ATOM     32  C   UNL d   1       4.842  -1.534  -3.221  0.00  0.00     0.135 A 
ATOM     33  C   UNL d   1       5.033  -0.454  -2.330  0.00  0.00     0.104 A 
ATOM     34  C   UNL d   1       3.930   0.242  -1.819  0.00  0.00     0.048 A 
BRANCH  31  35
ATOM     35  O   UNL d   1       3.281  -3.056  -4.278  0.00  0.00    -0.353 OA
ATOM     36  C   UNL d   1       2.117  -3.020  -5.104  0.00  0.00     0.210 C 
ENDBRANCH  31  35
BRANCH  32  37
ATOM     37  O   UNL d   1       5.974  -2.142  -3.680  0.00  0.00    -0.351 OA
ATOM     38  C   UNL d   1       5.951  -2.990  -4.821  0.00  0.00     0.210 C 
ENDBRANCH  32  37
BRANCH  33  39
ATOM     39  O   UNL d   1       6.197   0.039  -1.800  0.00  0.00    -0.353 OA
ATOM     40  C   UNL d   1       7.445  -0.183  -2.430  0.00  0.00     0.210 C 
ENDBRANCH  33  39
ENDBRANCH  28  29
ENDBRANCH   2  28
TORSDOF 11
