REMARK  4 active torsions:
REMARK  status: ('A' for Active; 'I' for Inactive)
REMARK    1  A    between atoms: C_9  and  C_1 
REMARK    2  A    between atoms: C_19  and  N_5 
REMARK    3  A    between atoms: C_7  and  C_10 
REMARK    4  A    between atoms: O_18  and  C_9 
ROOT
ATOM      1  C   UNL d   1       2.487  -0.761  -0.051  0.00  0.00     0.105 A 
ATOM      2  C   UNL d   1      -0.047  -0.716   0.041  0.00  0.00     0.043 A 
ATOM      3  C   UNL d   1       1.210  -1.500   0.082  0.00  0.00     0.202 A 
ATOM      4  C   UNL d   1       2.412   0.580  -0.058  0.00  0.00     0.113 A 
ATOM      5  N   UNL d   1       1.255   1.346   0.010  0.00  0.00    -0.355 N 
ATOM      6  C   UNL d   1       0.002   0.693   0.007  0.00  0.00     0.048 A 
ATOM      7  C   UNL d   1      -1.264  -1.419   0.051  0.00  0.00     0.034 A 
ATOM      8  C   UNL d   1      -2.480  -0.735   0.017  0.00  0.00     0.049 A 
ATOM      9  C   UNL d   1      -1.232   1.362  -0.032  0.00  0.00     0.031 A 
ATOM     10  O   UNL d   1       1.159  -2.713   0.250  0.00  0.00    -0.286 OA
ATOM     11  C   UNL d   1      -2.450   0.664  -0.029  0.00  0.00     0.018 A 
ENDROOT
BRANCH   1  12
ATOM     12  C   UNL d   1       3.812  -1.405  -0.156  0.00  0.00     0.298 C 
ATOM     13  O   UNL d   1       4.869  -0.837   0.085  0.00  0.00    -0.259 OA
BRANCH  12  14
ATOM     14  O   UNL d   1       3.692  -2.679  -0.600  0.00  0.00    -0.322 OA
ATOM     15  C   UNL d   1       4.910  -3.420  -0.670  0.00  0.00     0.213 C 
ENDBRANCH  12  14
ENDBRANCH   1  12
BRANCH   5  16
ATOM     16  C   UNL d   1       1.322   2.818   0.078  0.00  0.00     0.124 C 
ATOM     17  C   UNL d   1       1.245   3.441  -1.308  0.00  0.00     0.027 C 
ENDBRANCH   5  16
BRANCH   8  18
ATOM     18  C   UNL d   1      -3.795  -1.474   0.026  0.00  0.00     0.417 C 
ATOM     19  F   UNL d   1      -3.661  -2.828   0.097  0.00  0.00    -0.166 F 
ATOM     20  F   UNL d   1      -4.581  -1.121   1.080  0.00  0.00    -0.166 F 
ATOM     21  F   UNL d   1      -4.533  -1.230  -1.091  0.00  0.00    -0.166 F 
ENDBRANCH   8  18
TORSDOF 4
