REMARK  2 active torsions:
REMARK  status: ('A' for Active; 'I' for Inactive)
REMARK    1  A    between atoms: C_5  and  N_1 
REMARK    2  A    between atoms: C_4  and  C_6 
ROOT
ATOM      1  C   UNL d   1       0.334  -0.741   0.888  0.00  0.00     0.103 A 
ATOM      2  C   UNL d   1       0.026  -1.283   3.241  0.00  0.00     0.002 A 
ATOM      3  C   UNL d   1       0.777  -0.684   2.218  0.00  0.00     0.050 A 
ATOM      4  C   UNL d   1      -0.853  -1.406   0.559  0.00  0.00     0.036 A 
ATOM      5  C   UNL d   1      -1.157  -1.958   2.895  0.00  0.00     0.014 A 
ATOM      6  C   UNL d   1      -1.593  -2.020   1.567  0.00  0.00     0.003 A 
ENDROOT
BRANCH   2   7
ATOM      7  C   UNL d   1       0.441  -1.186   4.634  0.00  0.00     0.102 A 
ATOM      8  O   UNL d   1       1.564  -0.444   4.902  0.00  0.00    -0.304 OA
ATOM      9  C   UNL d   1       1.687  -0.498   6.256  0.00  0.00     0.233 A 
ATOM     10  N   UNL d   1       0.766  -1.203   6.872  0.00  0.00    -0.354 N 
ATOM     11  C   UNL d   1      -0.032  -1.646   5.846  0.00  0.00     0.127 A 
ATOM     12  HN  UNL d   1       0.667  -1.380   7.871  1.00  0.00     0.166 HD
ENDBRANCH   2   7
BRANCH   1  13
ATOM     13  N   UNL d   1       1.115  -0.084  -0.167  0.00  0.00    -0.116 N 
ATOM     14  O   UNL d   1       2.156   0.501   0.164  0.00  0.00    -0.532 OA
ATOM     15  O   UNL d   1       0.685  -0.150  -1.328  0.00  0.00    -0.532 OA
ENDBRANCH   1  13
TORSDOF 2
