REMARK  3 active torsions:
REMARK  status: ('A' for Active; 'I' for Inactive)
REMARK    1  A    between atoms: O_2  and  C_1 
REMARK    2  A    between atoms: C_5  and  C_1 
REMARK    3  A    between atoms: C_3  and  O_2 
ROOT
ATOM      1  C   UNL d   1      -1.175  -1.003  -0.463  0.00  0.00     0.107 A 
ATOM      2  C   UNL d   1      -1.809  -2.179  -0.028  0.00  0.00     0.076 A 
ATOM      3  N   UNL d   1      -1.101  -3.240   0.432  0.00  0.00    -0.363 N 
ATOM      4  HN  UNL d   1      -0.083  -3.206   0.478  1.00  0.00     0.165 HD
ATOM      5  C   UNL d   1      -3.220  -2.203  -0.070  0.00  0.00    -0.007 A 
ATOM      6  C   UNL d   1      -1.885   0.087  -0.973  0.00  0.00     0.040 A 
ATOM      7  C   UNL d   1      -3.274   0.038  -1.010  0.00  0.00     0.004 A 
ATOM      8  C   UNL d   1      -1.773  -4.343   0.829  0.00  0.00     0.088 A 
ATOM      9  C   UNL d   1      -3.940  -1.094  -0.546  0.00  0.00     0.014 A 
ATOM     10  C   UNL d   1      -3.881  -3.355   0.379  0.00  0.00     0.015 A 
ATOM     11  C   UNL d   1      -3.149  -4.446   0.828  0.00  0.00     0.018 A 
ENDROOT
BRANCH   1  12
ATOM     12  O   UNL d   1       0.234  -0.976  -0.263  0.00  0.00    -0.273 OA
BRANCH  12  13
ATOM     13  C   UNL d   1       0.956   0.200  -0.181  0.00  0.00     0.298 C 
ATOM     14  O   UNL d   1       0.901   1.149  -0.944  0.00  0.00    -0.259 OA
BRANCH  13  15
ATOM     15  C   UNL d   1       1.817   0.160   1.037  0.00  0.00     0.040 A 
ATOM     16  C   UNL d   1       2.622   1.273   1.323  0.00  0.00     0.019 A 
ATOM     17  C   UNL d   1       3.398   1.303   2.487  0.00  0.00     0.025 A 
ATOM     18  C   UNL d   1       3.369   0.223   3.368  0.00  0.00     0.034 A 
ATOM     19  C   UNL d   1       2.571  -0.886   3.098  0.00  0.00     0.025 A 
ATOM     20 CL   UNL d   1       4.318   0.261   4.802  0.00  0.00    -0.084 Cl
ATOM     21  C   UNL d   1       1.796  -0.920   1.934  0.00  0.00     0.019 A 
ENDBRANCH  13  15
ENDBRANCH  12  13
ENDBRANCH   1  12
TORSDOF 3
