REMARK  6 active torsions:
REMARK  status: ('A' for Active; 'I' for Inactive)
REMARK    1  A    between atoms: C_2  and  C_1 
REMARK       I    between atoms: N_5  and  C_1 
REMARK    2  A    between atoms: C_4  and  C_3 
REMARK    3  A    between atoms: O_14  and  C_4 
REMARK    4  A    between atoms: C_10  and  N_5 
REMARK    5  A    between atoms: C_6  and  O_9 
REMARK    6  A    between atoms: O_9  and  C_11 
ROOT
ATOM      1  C   UNL d   1       1.008   0.056   0.073  0.00  0.00     0.257 C 
ATOM      2  N   UNL d   1       0.254  -0.499   1.085  0.00  0.00    -0.323 N 
ATOM      3  O   UNL d   1       0.578   0.493  -0.990  0.00  0.00    -0.267 OA
ATOM      4  H   UNL d   1       0.719  -0.785   1.940  0.00  0.00     0.169 HD
ENDROOT
BRANCH   1   5
ATOM      5  C   UNL d   1       2.476   0.168   0.300  0.00  0.00     0.049 A 
ATOM      6  C   UNL d   1       3.099   0.486   1.519  0.00  0.00     0.053 A 
ATOM      7  C   UNL d   1       4.504   0.533   1.584  0.00  0.00     0.019 A 
ATOM      8  C   UNL d   1       5.285   0.303   0.452  0.00  0.00     0.001 A 
ATOM      9  C   UNL d   1       4.672   0.025  -0.764  0.00  0.00     0.001 A 
ATOM     10  C   UNL d   1       3.279  -0.040  -0.839  0.00  0.00     0.018 A 
BRANCH   6  11
ATOM     11  C   UNL d   1       2.404   0.765   2.795  0.00  0.00     0.177 C 
ATOM     12  O   UNL d   1       2.822   0.339   3.857  0.00  0.00    -0.646 OA
BRANCH  11  13
ATOM     13  O   UNL d   1       1.292   1.522   2.707  0.00  0.00    -0.773 OA
ATOM     14  H   UNL d   1       1.038   1.865   1.828  0.00  0.00     0.167 HD
ENDBRANCH  11  13
ENDBRANCH   6  11
ENDBRANCH   1   5
BRANCH   2  15
ATOM     15  C   UNL d   1      -1.151  -0.658   1.103  0.00  0.00     0.035 A 
ATOM     16  C   UNL d   1      -1.980  -0.462  -0.003  0.00  0.00     0.032 A 
ATOM     17  C   UNL d   1      -3.367  -0.645   0.098  0.00  0.00     0.039 A 
ATOM     18  C   UNL d   1      -3.937  -1.034   1.308  0.00  0.00     0.075 A 
ATOM     19  C   UNL d   1      -3.115  -1.207   2.422  0.00  0.00     0.039 A 
ATOM     20  C   UNL d   1      -1.732  -1.033   2.319  0.00  0.00     0.032 A 
BRANCH  18  21
ATOM     21  O   UNL d   1      -5.266  -1.249   1.535  0.00  0.00    -0.290 OA
BRANCH  21  22
ATOM     22  C   UNL d   1      -6.047  -1.556   0.394  0.00  0.00     0.505 C 
ATOM     23  F   UNL d   1      -7.199  -2.123   0.835  0.00  0.00    -0.184 F 
ATOM     24  F   UNL d   1      -6.394  -0.402  -0.226  0.00  0.00    -0.184 F 
ENDBRANCH  21  22
ENDBRANCH  18  21
ENDBRANCH   2  15
TORSDOF 6
