REMARK  2 active torsions:
REMARK  status: ('A' for Active; 'I' for Inactive)
REMARK    1  A    between atoms: C_6  and  N_1 
REMARK    2  A    between atoms: C_14  and  C_10 
ROOT
ATOM      1  N   UNL d   1       2.432  -0.586   0.089  0.00  0.00    -0.254 N 
ATOM      2  C   UNL d   1       2.407   0.814   0.029  0.00  0.00     0.186 C 
ATOM      3  C   UNL d   1       1.300  -1.385   0.301  0.00  0.00     0.267 C 
ATOM      4  C   UNL d   1      -0.003  -0.696   0.236  0.00  0.00     0.059 A 
ATOM      5  N   UNL d   1       1.171   1.404   0.102  0.00  0.00    -0.332 N 
ATOM      6  C   UNL d   1      -0.024   0.691   0.138  0.00  0.00     0.050 A 
ATOM      7  S   UNL d   1       3.710   1.864  -0.155  0.00  0.00    -0.040 SA
ATOM      8  O   UNL d   1       1.313  -2.594   0.526  0.00  0.00    -0.267 OA
ATOM      9  C   UNL d   1      -1.202  -1.416   0.234  0.00  0.00     0.019 A 
ATOM     10  C   UNL d   1      -1.238   1.373   0.039  0.00  0.00     0.030 A 
ATOM     11  C   UNL d   1      -2.417  -0.740   0.105  0.00  0.00     0.001 A 
ATOM     12  C   UNL d   1      -2.434   0.653   0.008  0.00  0.00     0.002 A 
ATOM     13  H   UNL d   1       1.153   2.415   0.035  0.00  0.00     0.168 HD
ENDROOT
BRANCH   1  14
ATOM     14  C   UNL d   1       3.671  -1.280  -0.073  0.00  0.00     0.051 A 
ATOM     15  C   UNL d   1       4.082  -1.753  -1.340  0.00  0.00    -0.031 A 
ATOM     16  C   UNL d   1       5.333  -2.386  -1.436  0.00  0.00     0.009 A 
ATOM     17  C   UNL d   1       6.146  -2.551  -0.312  0.00  0.00     0.001 A 
ATOM     18  C   UNL d   1       5.725  -2.087   0.931  0.00  0.00     0.002 A 
ATOM     19  C   UNL d   1       4.488  -1.459   1.054  0.00  0.00     0.031 A 
BRANCH  15  20
ATOM     20  C   UNL d   1       3.272  -1.528  -2.600  0.00  0.00     0.036 C 
ATOM     21  C   UNL d   1       2.923  -2.806  -3.353  0.00  0.00     0.010 C 
ENDBRANCH  15  20
ENDBRANCH   1  14
TORSDOF 2
