REMARK  5 active torsions:
REMARK  status: ('A' for Active; 'I' for Inactive)
REMARK    1  A    between atoms: C_10  and  C_1 
REMARK    2  A    between atoms: C_8  and  C_2 
REMARK    3  A    between atoms: C_7  and  C_3 
REMARK       I    between atoms: N_11  and  C_8 
REMARK       I    between atoms: C_9  and  N_12 
REMARK       I    between atoms: N_13  and  C_9 
REMARK    4  A    between atoms: O_19  and  C_10 
REMARK    5  A    between atoms: N_12  and  N_11 
ROOT
ATOM      1  C   UNL d   1      -1.460  -0.300   0.152  0.00  0.00     0.110 A 
ATOM      2  C   UNL d   1      -0.935   0.977   0.033  0.00  0.00     0.186 A 
ATOM      3  C   UNL d   1      -0.353  -1.193  -0.072  0.00  0.00     0.087 A 
ATOM      4  N   UNL d   1       0.744  -0.476  -0.354  0.00  0.00    -0.259 N 
ATOM      5  HN  UNL d   1       1.666  -0.844  -0.585  1.00  0.00     0.195 HD
ATOM      6  O   UNL d   1       0.388   0.848  -0.273  0.00  0.00    -0.231 OA
ENDROOT
BRANCH   2   7
ATOM      7  C   UNL d   1      -1.419   2.342   0.177  0.00  0.00     0.297 C 
ATOM      8  N   UNL d   1      -2.692   2.505   0.701  0.00  0.00    -0.260 N 
ATOM      9  H   UNL d   1      -3.370   1.745   0.725  0.00  0.00     0.190 HD
ATOM     10  O   UNL d   1      -0.739   3.331  -0.103  0.00  0.00    -0.264 OA
BRANCH   8  11
ATOM     11  N   UNL d   1      -3.297   3.790   0.715  0.00  0.00    -0.249 N 
ATOM     12  C   UNL d   1      -4.660   3.807   0.908  0.00  0.00     0.336 C 
ATOM     13  N   UNL d   1      -5.275   5.037   1.038  0.00  0.00    -0.342 N 
ATOM     14  O   UNL d   1      -5.283   2.741   0.930  0.00  0.00    -0.245 OA
ATOM     15  C   UNL d   1      -6.726   5.067   1.180  0.00  0.00     0.154 C 
ATOM     16  C   UNL d   1      -4.632   6.343   1.054  0.00  0.00     0.154 C 
ATOM     17  H   UNL d   1      -2.689   4.553   0.987  0.00  0.00     0.192 HD
ENDBRANCH   8  11
ENDBRANCH   2   7
BRANCH   1  18
ATOM     18  C   UNL d   1      -2.834  -0.661   0.403  0.00  0.00     0.298 C 
ATOM     19  O   UNL d   1      -3.172  -1.618   1.076  0.00  0.00    -0.259 OA
BRANCH  18  20
ATOM     20  O   UNL d   1      -3.688   0.159  -0.274  0.00  0.00    -0.322 OA
ATOM     21  C   UNL d   1      -5.053  -0.260  -0.307  0.00  0.00     0.213 C 
ENDBRANCH  18  20
ENDBRANCH   1  18
BRANCH   3  22
ATOM     22  C   UNL d   1      -0.306  -2.671  -0.065  0.00  0.00     0.037 A 
ATOM     23  C   UNL d   1      -1.263  -3.447  -0.753  0.00  0.00     0.048 A 
ATOM     24 CL   UNL d   1      -2.394  -2.777  -1.887  0.00  0.00    -0.083 Cl
ATOM     25  C   UNL d   1      -1.296  -4.846  -0.632  0.00  0.00     0.025 A 
ATOM     26  C   UNL d   1      -0.320  -5.514   0.096  0.00  0.00     0.003 A 
ATOM     27  C   UNL d   1       0.696  -4.782   0.697  0.00  0.00     0.025 A 
ATOM     28  C   UNL d   1       0.698  -3.377   0.637  0.00  0.00     0.048 A 
ATOM     29 CL   UNL d   1       1.998  -2.606   1.489  0.00  0.00    -0.083 Cl
ENDBRANCH   3  22
TORSDOF 5
