REMARK  3 active torsions:
REMARK  status: ('A' for Active; 'I' for Inactive)
REMARK       I    between atoms: N_2  and  C_1 
REMARK    1  A    between atoms: C_4  and  C_1 
REMARK    2  A    between atoms: C_3  and  C_8 
REMARK       I    between atoms: N_5  and  C_3 
REMARK    3  A    between atoms: C_8  and  N_6 
ROOT
ATOM      1  C   UNL d   1       0.708  -0.052  -0.247  0.00  0.00     0.253 C 
ATOM      2  N   UNL d   1       0.041   0.504   0.846  0.00  0.00    -0.345 N 
ATOM      3  N   UNL d   1      -0.062   1.072   3.744  0.00  0.00     0.100 N 
ATOM      4  O   UNL d   1       1.755   0.395  -0.701  0.00  0.00    -0.267 OA
ATOM      5  C   UNL d   1       0.473   1.799   1.360  0.00  0.00     0.156 C 
ATOM      6  C   UNL d   1      -0.955  -0.176   1.690  0.00  0.00     0.156 C 
ATOM      7  C   UNL d   1       0.927   1.686   2.823  0.00  0.00     0.293 C 
ATOM      8  C   UNL d   1      -0.529  -0.212   3.175  0.00  0.00     0.293 C 
ENDROOT
BRANCH   1   9
ATOM      9  C   UNL d   1       0.105  -1.236  -0.916  0.00  0.00     0.032 A 
ATOM     10  C   UNL d   1      -1.274  -1.278  -1.143  0.00  0.00     0.027 A 
ATOM     11  C   UNL d   1      -1.813  -2.451  -1.633  0.00  0.00    -0.022 A 
ATOM     12  C   UNL d   1      -3.229  -2.796  -1.874  0.00  0.00     0.068 C 
ATOM     13  C   UNL d   1      -1.001  -3.510  -1.996  0.00  0.00     0.075 A 
ATOM     14  C   UNL d   1      -3.067  -4.304  -2.068  0.00  0.00     0.180 C 
ATOM     15  O   UNL d   1      -1.703  -4.590  -2.463  0.00  0.00    -0.350 OA
ATOM     16  C   UNL d   1       0.374  -3.450  -1.887  0.00  0.00     0.038 A 
ATOM     17  C   UNL d   1       0.936  -2.298  -1.325  0.00  0.00     0.020 A 
ENDBRANCH   1   9
BRANCH   3  18
ATOM     18  C   UNL d   1      -1.210   1.956   4.042  0.00  0.00     0.374 C 
BRANCH  18  19
ATOM     19  C   UNL d   1      -0.782   3.343   4.533  0.00  0.00     0.248 C 
ATOM     20  N   UNL d   1      -0.076   3.437   5.711  0.00  0.00    -0.351 N 
ATOM     21  C   UNL d   1       0.364   2.360   6.578  0.00  0.00     0.126 C 
ATOM     22  C   UNL d   1       0.397   4.720   6.193  0.00  0.00     0.126 C 
ATOM     23  C   UNL d   1       0.500   3.048   7.927  0.00  0.00     0.021 C 
ATOM     24  C   UNL d   1       1.012   4.438   7.560  0.00  0.00     0.021 C 
ATOM     25  O   UNL d   1      -1.079   4.345   3.876  0.00  0.00    -0.271 OA
ENDBRANCH  18  19
ENDBRANCH   3  18
TORSDOF 3
