REMARK  4 active torsions:
REMARK  status: ('A' for Active; 'I' for Inactive)
REMARK       I    between atoms: N_2  and  C_1 
REMARK       I    between atoms: N_11  and  C_1 
REMARK    1  A    between atoms: C_4  and  N_2 
REMARK    2  A    between atoms: C_6  and  N_2 
REMARK    3  A    between atoms: C_3  and  C_4 
REMARK    4  A    between atoms: C_12  and  C_6 
ROOT
ATOM      1  C   UNL d   1       1.280  -0.164  -0.130  0.00  0.00     0.318 C 
ATOM      2  N   UNL d   1       0.421  -1.185   0.251  0.00  0.00    -0.326 N 
ATOM      3  O   UNL d   1       0.871   0.917  -0.548  0.00  0.00    -0.247 OA
ATOM      4  N   UNL d   1       2.616  -0.432  -0.012  0.00  0.00    -0.347 N 
ATOM      5  C   UNL d   1       3.631   0.486  -0.468  0.00  0.00     0.151 C 
ATOM      6  H   UNL d   1       2.928  -1.349   0.257  0.00  0.00     0.163 HD
ENDROOT
BRANCH   2   7
ATOM      7  C   UNL d   1      -1.019  -0.941   0.125  0.00  0.00     0.168 C 
BRANCH   7   8
ATOM      8  C   UNL d   1      -1.695  -0.306   1.332  0.00  0.00    -0.017 A 
ATOM      9  C   UNL d   1      -3.088  -0.059   1.316  0.00  0.00     0.063 A 
ATOM     10  C   UNL d   1      -3.711   0.572   2.408  0.00  0.00     0.056 A 
ATOM     11 CL   UNL d   1      -4.032  -0.539  -0.063  0.00  0.00    -0.082 Cl
ATOM     12 CL   UNL d   1      -5.407   0.916   2.445  0.00  0.00    -0.083 Cl
ATOM     13  C   UNL d   1      -2.961   0.955   3.521  0.00  0.00     0.026 A 
ATOM     14  C   UNL d   1      -1.591   0.713   3.552  0.00  0.00     0.002 A 
ATOM     15  C   UNL d   1      -0.966   0.093   2.468  0.00  0.00     0.011 A 
ENDBRANCH   7   8
ENDBRANCH   2   7
BRANCH   2  16
ATOM     16  C   UNL d   1       0.832  -2.480   0.798  0.00  0.00     0.167 C 
BRANCH  16  17
ATOM     17  C   UNL d   1       1.496  -3.398  -0.198  0.00  0.00    -0.025 A 
ATOM     18  C   UNL d   1       2.367  -4.387   0.254  0.00  0.00     0.096 A 
ATOM     19  N   UNL d   1       3.032  -5.248  -0.549  0.00  0.00    -0.375 N 
ATOM     20  C   UNL d   1       2.809  -5.136  -1.875  0.00  0.00     0.087 A 
ATOM     21  HN  UNL d   1       3.671  -5.947  -0.171  1.00  0.00     0.164 HD
ATOM     22  C   UNL d   1       1.948  -4.207  -2.432  0.00  0.00     0.018 A 
ATOM     23  C   UNL d   1       1.278  -3.333  -1.579  0.00  0.00     0.011 A 
ENDBRANCH  16  17
ENDBRANCH   2  16
TORSDOF 4
