REMARK  4 active torsions:
REMARK  status: ('A' for Active; 'I' for Inactive)
REMARK    1  A    between atoms: O_15  and  C_3 
REMARK    2  A    between atoms: C_8  and  C_4 
REMARK    3  A    between atoms: O_16  and  C_7 
REMARK    4  A    between atoms: O_17  and  C_10 
ROOT
ATOM      1  C   UNL d   1      -0.397   0.971   0.478  0.00  0.00     0.058 A 
ATOM      2  C   UNL d   1       1.915   0.434   0.042  0.00  0.00    -0.002 A 
ATOM      3  C   UNL d   1      -1.653   1.538   0.731  0.00  0.00     0.119 A 
ATOM      4  C   UNL d   1       3.219   0.684  -0.137  0.00  0.00     0.027 C 
ATOM      5  C   UNL d   1       0.934   1.551   0.152  0.00  0.00     0.192 A 
ATOM      6  C   UNL d   1      -0.213  -0.423   0.524  0.00  0.00    -0.034 A 
ATOM      7  C   UNL d   1      -2.733   0.651   1.048  0.00  0.00     0.136 A 
ATOM      8  C   UNL d   1       1.190  -0.859   0.221  0.00  0.00     0.082 A 
ATOM      9  C   UNL d   1      -2.522  -0.754   1.093  0.00  0.00     0.104 A 
ATOM     10  C   UNL d   1      -1.255  -1.281   0.824  0.00  0.00     0.048 A 
ATOM     11  O   UNL d   1       1.254   2.711   0.001  0.00  0.00    -0.287 OA
ENDROOT
BRANCH   4  12
ATOM     12  C   UNL d   1       4.221  -0.383  -0.174  0.00  0.00     0.025 A 
ATOM     13  C   UNL d   1       4.541  -0.980  -1.398  0.00  0.00     0.128 A 
ATOM     14  F   UNL d   1       3.975  -0.541  -2.533  0.00  0.00    -0.205 F 
ATOM     15  C   UNL d   1       5.434  -2.046  -1.473  0.00  0.00     0.043 A 
ATOM     16  C   UNL d   1       6.028  -2.533  -0.311  0.00  0.00     0.005 A 
ATOM     17  C   UNL d   1       5.739  -1.938   0.917  0.00  0.00     0.025 A 
ATOM     18  C   UNL d   1       4.842  -0.867   0.987  0.00  0.00     0.047 A 
ATOM     19 CL   UNL d   1       4.522  -0.184   2.545  0.00  0.00    -0.083 Cl
ENDBRANCH   4  12
BRANCH   3  20
ATOM     20  O   UNL d   1      -1.988   2.857   0.716  0.00  0.00    -0.352 OA
ATOM     21  C   UNL d   1      -1.071   3.890   0.424  0.00  0.00     0.210 C 
ENDBRANCH   3  20
BRANCH   7  22
ATOM     22  O   UNL d   1      -4.023   1.036   1.330  0.00  0.00    -0.351 OA
ATOM     23  C   UNL d   1      -4.429   2.393   1.334  0.00  0.00     0.210 C 
ENDBRANCH   7  22
BRANCH   9  24
ATOM     24  O   UNL d   1      -3.416  -1.757   1.379  0.00  0.00    -0.353 OA
ATOM     25  C   UNL d   1      -4.767  -1.438   1.679  0.00  0.00     0.210 C 
ENDBRANCH   9  24
TORSDOF 4
