REMARK  2 active torsions:
REMARK  status: ('A' for Active; 'I' for Inactive)
REMARK    1  A    between atoms: C_15  and  O_18 
REMARK    2  A    between atoms: O_18  and  C_20 
ROOT
ATOM      1  C   UNL d   1      -1.455   2.677   0.030  0.00  0.00     0.027 C 
ATOM      2  C   UNL d   1      -0.399  -1.700   0.118  0.00  0.00    -0.026 C 
ATOM      3  C   UNL d   1      -0.660  -0.282  -0.538  0.00  0.00     0.068 C 
ATOM      4  C   UNL d   1       0.437   0.790  -0.224  0.00  0.00     0.003 C 
ATOM      5  C   UNL d   1      -0.008   2.201   0.293  0.00  0.00     0.007 C 
ATOM      6  C   UNL d   1      -2.060   0.323  -0.369  0.00  0.00     0.133 C 
ATOM      7  C   UNL d   1       1.133  -2.106  -0.048  0.00  0.00    -0.034 C 
ATOM      8  C   UNL d   1      -2.233   1.742  -0.872  0.00  0.00     0.096 C 
ATOM      9  C   UNL d   1      -1.237   4.042  -0.601  0.00  0.00     0.136 C 
ATOM     10  C   UNL d   1       1.528   0.324   0.754  0.00  0.00     0.006 C 
ATOM     11  C   UNL d   1      -1.224  -2.838  -0.566  0.00  0.00     0.013 C 
ATOM     12  C   UNL d   1       0.919   3.294  -0.299  0.00  0.00     0.013 C 
ATOM     13  C   UNL d   1       2.113  -1.046   0.507  0.00  0.00     0.010 C 
ATOM     14  C   UNL d   1       1.404  -3.448   0.695  0.00  0.00     0.042 C 
ATOM     15  O   UNL d   1      -3.025  -0.288   0.083  0.00  0.00    -0.297 OA
ATOM     16  C   UNL d   1       0.127   4.583  -0.287  0.00  0.00     0.079 C 
ATOM     17  O   UNL d   1      -2.088   4.660  -1.210  0.00  0.00    -0.297 OA
ATOM     18  C   UNL d   1       0.502  -4.611   0.261  0.00  0.00     0.132 C 
ATOM     19  C   UNL d   1      -0.971  -4.227   0.057  0.00  0.00     0.033 C 
ATOM     20  C   UNL d   1      -2.195   2.938   1.358  0.00  0.00     0.024 C 
ATOM     21  C   UNL d   1      -0.875  -1.656   1.602  0.00  0.00     0.016 C 
ATOM     22  C   UNL d   1       1.556  -2.291  -1.542  0.00  0.00     0.016 C 
ENDROOT
BRANCH  18  23
ATOM     23  O   UNL d   1       1.030  -5.128  -0.976  0.00  0.00    -0.316 OA
BRANCH  23  24
ATOM     24  C   UNL d   1       0.782  -6.437  -1.244  0.00  0.00     0.255 C 
ATOM     25  O   UNL d   1       0.261  -7.237  -0.483  0.00  0.00    -0.266 OA
ATOM     26  C   UNL d   1       1.192  -6.757  -2.649  0.00  0.00     0.126 C 
ENDBRANCH  23  24
ENDBRANCH  18  23
TORSDOF 2
