REMARK  3 active torsions:
REMARK  status: ('A' for Active; 'I' for Inactive)
REMARK    1  A    between atoms: C_8  and  N_1 
REMARK    2  A    between atoms: C_3  and  C_2 
REMARK    3  A    between atoms: C_9  and  C_10 
ROOT
ATOM      1  N   UNL d   1      -0.196  -1.312  -0.068  0.00  0.00    -0.221 N 
ATOM      2  C   UNL d   1       1.065  -0.705  -0.081  0.00  0.00     0.151 A 
ATOM      3  N   UNL d   1      -1.115  -0.348  -0.307  0.00  0.00     0.001 NA
ATOM      4  N   UNL d   1      -0.458   0.799  -0.333  0.00  0.00    -0.007 NA
ATOM      5  N   UNL d   1       0.885   0.596  -0.197  0.00  0.00    -0.269 N 
ATOM      6  HN  UNL d   1       1.611   1.313  -0.188  1.00  0.00     0.185 HD
ENDROOT
BRANCH   2   7
ATOM      7  C   UNL d   1       2.374  -1.357  -0.115  0.00  0.00     0.041 A 
ATOM      8  C   UNL d   1       3.474  -0.920   0.644  0.00  0.00     0.064 A 
ATOM      9  C   UNL d   1       4.704  -1.590   0.494  0.00  0.00     0.034 A 
ATOM     10  C   UNL d   1       4.794  -2.659  -0.379  0.00  0.00     0.088 A 
ATOM     11  N   UNL d   1       3.760  -3.092  -1.120  0.00  0.00    -0.374 N 
ATOM     12  C   UNL d   1       2.592  -2.422  -0.992  0.00  0.00     0.103 A 
ATOM     13  HN  UNL d   1       3.852  -3.889  -1.750  1.00  0.00     0.164 HD
BRANCH   8  14
ATOM     14  C   UNL d   1       3.423   0.258   1.587  0.00  0.00     0.418 C 
ATOM     15  F   UNL d   1       2.218   0.442   2.192  0.00  0.00    -0.166 F 
ATOM     16  F   UNL d   1       4.309   0.118   2.619  0.00  0.00    -0.166 F 
ATOM     17  F   UNL d   1       3.753   1.427   0.983  0.00  0.00    -0.166 F 
ENDBRANCH   8  14
ENDBRANCH   2   7
BRANCH   1  18
ATOM     18  C   UNL d   1      -0.575  -2.655   0.163  0.00  0.00     0.095 A 
ATOM     19  C   UNL d   1      -1.753  -3.153  -0.408  0.00  0.00     0.144 A 
ATOM     20  F   UNL d   1      -2.524  -2.393  -1.197  0.00  0.00    -0.204 F 
ATOM     21  C   UNL d   1      -2.118  -4.486  -0.239  0.00  0.00     0.045 A 
ATOM     22  C   UNL d   1      -1.321  -5.336   0.524  0.00  0.00     0.003 A 
ATOM     23  C   UNL d   1      -0.163  -4.846   1.125  0.00  0.00     0.002 A 
ATOM     24  C   UNL d   1       0.212  -3.509   0.950  0.00  0.00     0.034 A 
ENDBRANCH   1  18
TORSDOF 3
