REMARK  4 active torsions:
REMARK  status: ('A' for Active; 'I' for Inactive)
REMARK    1  A    between atoms: N_8  and  C_2 
REMARK    2  A    between atoms: C_14  and  N_3 
REMARK    3  A    between atoms: C_7  and  C_6 
REMARK    4  A    between atoms: C_21  and  C_10 
ROOT
ATOM      1  C   UNL d   1      -2.917  -2.729   0.148  0.00  0.00     0.120 C 
ATOM      2  C   UNL d   1      -3.909  -3.684   0.022  0.00  0.00     0.157 C 
ATOM      3  N   UNL d   1      -5.105  -2.993  -0.041  0.00  0.00    -0.237 N 
ATOM      4  N   UNL d   1      -4.892  -1.651  -0.197  0.00  0.00    -0.289 N 
ATOM      5  HN  UNL d   1      -5.585  -0.940  -0.431  1.00  0.00     0.188 HD
ATOM      6  C   UNL d   1      -3.573  -1.465   0.022  0.00  0.00     0.094 C 
ATOM      7  C   UNL d   1      -1.512  -2.975   0.206  0.00  0.00     0.106 C 
ATOM      8  N   UNL d   1      -0.372  -3.198   0.241  0.00  0.00    -0.191 NA
ENDROOT
BRANCH   2   9
ATOM      9  N   UNL d   1      -3.775  -5.074  -0.109  0.00  0.00    -0.316 N 
ATOM     10  C   UNL d   1      -4.606  -5.925  -0.823  0.00  0.00     0.098 A 
ATOM     11  C   UNL d   1      -4.188  -7.227  -0.665  0.00  0.00     0.019 A 
ATOM     12  C   UNL d   1      -3.022  -7.189   0.119  0.00  0.00     0.019 A 
ATOM     13  C   UNL d   1      -2.777  -5.866   0.424  0.00  0.00     0.098 A 
ENDBRANCH   2   9
BRANCH   6  14
ATOM     14  C   UNL d   1      -2.935  -0.148   0.035  0.00  0.00     0.076 C 
ATOM     15  C   UNL d   1      -3.410   0.896  -0.679  0.00  0.00     0.054 C 
ATOM     16  C   UNL d   1      -1.775   0.033   0.863  0.00  0.00     0.102 C 
ATOM     17  N   UNL d   1      -0.859   0.172   1.560  0.00  0.00    -0.191 NA
BRANCH  15  18
ATOM     18  C   UNL d   1      -2.779   2.218  -0.770  0.00  0.00     0.033 A 
ATOM     19  N   UNL d   1      -1.869   2.351  -1.760  0.00  0.00    -0.366 N 
ATOM     20  C   UNL d   1      -1.274   3.561  -1.893  0.00  0.00     0.088 A 
ATOM     21  HN  UNL d   1      -1.640   1.575  -2.380  1.00  0.00     0.165 HD
ATOM     22  C   UNL d   1      -1.554   4.652  -1.088  0.00  0.00     0.017 A 
ATOM     23  C   UNL d   1      -2.494   4.493  -0.078  0.00  0.00     0.004 A 
ATOM     24  C   UNL d   1      -3.118   3.257   0.090  0.00  0.00     0.029 A 
ENDBRANCH  15  18
ENDBRANCH   6  14
BRANCH   3  25
ATOM     25  C   UNL d   1      -6.429  -3.508   0.105  0.00  0.00     0.058 A 
ATOM     26  C   UNL d   1      -6.676  -4.592   0.967  0.00  0.00     0.031 A 
ATOM     27  C   UNL d   1      -7.919  -5.226   0.965  0.00  0.00     0.002 A 
ATOM     28  C   UNL d   1      -8.929  -4.767   0.124  0.00  0.00     0.000 A 
ATOM     29  C   UNL d   1      -8.710  -3.647  -0.682  0.00  0.00     0.002 A 
ATOM     30  C   UNL d   1      -7.468  -2.999  -0.680  0.00  0.00     0.031 A 
ENDBRANCH   3  25
TORSDOF 4
