REMARK  4 active torsions:
REMARK  status: ('A' for Active; 'I' for Inactive)
REMARK    1  A    between atoms: C_15  and  C_3 
REMARK    2  A    between atoms: C_11  and  C_5 
REMARK    3  A    between atoms: N_6  and  C_10 
REMARK    4  A    between atoms: C_12  and  N_7 
ROOT
ATOM      1  N   UNL d   1      -2.225  -2.701   0.079  0.00  0.00    -0.362 N 
ATOM      2  HN  UNL d   1      -2.862  -1.964   0.383  1.00  0.00     0.165 HD
ATOM      3  C   UNL d   1      -1.016  -2.419  -0.285  0.00  0.00     0.119 C 
ENDROOT
BRANCH   3   4
ATOM      4  C   UNL d   1      -0.525  -1.060  -0.209  0.00  0.00     0.064 A 
ATOM      5  N   UNL d   1       0.796  -0.742  -0.462  0.00  0.00    -0.340 N 
ATOM      6  C   UNL d   1       0.914   0.559  -0.259  0.00  0.00     0.116 A 
ATOM      7  HN  UNL d   1       1.534  -1.384  -0.749  1.00  0.00     0.167 HD
ATOM      8  N   UNL d   1      -0.312   1.091   0.072  0.00  0.00    -0.349 N 
ATOM      9  C   UNL d   1      -1.227   0.079   0.115  0.00  0.00     0.120 A 
ATOM     10  H   UNL d   1      -0.498   2.071   0.229  0.00  0.00     0.167 HD
BRANCH   6  11
ATOM     11  C   UNL d   1       2.132   1.359  -0.404  0.00  0.00     0.008 A 
ATOM     12  C   UNL d   1       3.123   0.959  -1.312  0.00  0.00     0.015 A 
ATOM     13  C   UNL d   1       4.276   1.726  -1.495  0.00  0.00     0.001 A 
ATOM     14  C   UNL d   1       4.460   2.895  -0.760  0.00  0.00     0.000 A 
ATOM     15  C   UNL d   1       3.497   3.292   0.166  0.00  0.00     0.001 A 
ATOM     16  C   UNL d   1       2.340   2.528   0.344  0.00  0.00     0.015 A 
ENDBRANCH   6  11
ENDBRANCH   3   4
BRANCH   1  17
ATOM     17  C   UNL d   1      -2.645  -4.051   0.048  0.00  0.00     0.059 A 
ATOM     18  C   UNL d   1      -3.963  -4.427  -0.291  0.00  0.00     0.065 A 
ATOM     19  C   UNL d   1      -4.350  -5.784  -0.198  0.00  0.00     0.032 A 
ATOM     20  C   UNL d   1      -3.448  -6.762   0.214  0.00  0.00     0.002 A 
ATOM     21  C   UNL d   1      -2.160  -6.401   0.575  0.00  0.00     0.002 A 
ATOM     22  C   UNL d   1      -1.775  -5.059   0.513  0.00  0.00     0.032 A 
BRANCH  18  23
ATOM     23  N   UNL d   1      -4.946  -3.497  -0.746  0.00  0.00    -0.331 N 
ATOM     24  C   UNL d   1      -6.319  -3.635  -0.595  0.00  0.00     0.097 A 
ATOM     25  C   UNL d   1      -6.960  -2.599  -1.235  0.00  0.00     0.019 A 
ATOM     26  C   UNL d   1      -5.962  -1.786  -1.806  0.00  0.00     0.019 A 
ATOM     27  C   UNL d   1      -4.742  -2.339  -1.473  0.00  0.00     0.097 A 
ENDBRANCH  18  23
ENDBRANCH   1  17
TORSDOF 4
