REMARK  2 active torsions:
REMARK  status: ('A' for Active; 'I' for Inactive)
REMARK    1  A    between atoms: C_6  and  C_3 
REMARK    2  A    between atoms: C_7  and  C_6 
ROOT
ATOM      1  N   UNL d   1       0.242  -0.601   1.126  0.00  0.00    -0.324 N 
ATOM      2  HN  UNL d   1       0.354  -0.967   2.071  1.00  0.00     0.169 HD
ATOM      3  C   UNL d   1       0.707  -1.184   0.069  0.00  0.00     0.054 A 
ATOM      4  C   UNL d   1      -0.422   0.569   0.830  0.00  0.00     0.232 A 
ATOM      5  S   UNL d   1       0.413  -0.414  -1.470  0.00  0.00    -0.107 SA
ATOM      6  O   UNL d   1      -1.005   1.244   1.671  0.00  0.00    -0.272 OA
ATOM      7  C   UNL d   1      -0.370   0.979  -0.626  0.00  0.00     0.183 A 
ENDROOT
BRANCH   3   8
ATOM      8  C   UNL d   1       1.471  -2.479   0.106  0.00  0.00     0.110 C 
BRANCH   8   9
ATOM      9  C   UNL d   1       2.938  -2.209   0.259  0.00  0.00    -0.011 A 
ATOM     10  S   UNL d   1       3.945  -2.088  -1.123  0.00  0.00    -0.106 SA
ATOM     11  C   UNL d   1       5.335  -1.814  -0.168  0.00  0.00     0.050 A 
ATOM     12  C   UNL d   1       5.046  -1.824   1.178  0.00  0.00     0.008 A 
ATOM     13  C   UNL d   1       3.662  -2.056   1.425  0.00  0.00     0.015 A 
ENDBRANCH   8   9
ENDBRANCH   3   8
TORSDOF 2
