REMARK  7 active torsions:
REMARK  status: ('A' for Active; 'I' for Inactive)
REMARK    1  A    between atoms: C_2  and  S_1 
REMARK    2  A    between atoms: N_13  and  S_1 
REMARK    3  A    between atoms: C_3  and  C_4 
REMARK    4  A    between atoms: C_16  and  C_5 
REMARK    5  A    between atoms: C_15  and  C_6 
REMARK    6  A    between atoms: O_21  and  C_15 
REMARK    7  A    between atoms: O_22  and  C_16 
ROOT
ATOM      1  C   UNL d   1      -0.917   0.020  -4.996  0.00  0.00     0.011 A 
ATOM      2  C   UNL d   1      -2.211  -0.566  -5.032  0.00  0.00     0.073 A 
ATOM      3  C   UNL d   1      -0.128  -0.037  -6.169  0.00  0.00     0.073 A 
ATOM      4  N   UNL d   1      -1.844  -1.330  -7.277  0.00  0.00    -0.362 N 
ATOM      5  HN  UNL d   1      -2.168  -1.837  -8.100  1.00  0.00     0.165 HD
ATOM      6  C   UNL d   1      -0.633  -0.722  -7.285  0.00  0.00     0.022 A 
ATOM      7  C   UNL d   1      -2.624  -1.260  -6.171  0.00  0.00     0.022 A 
ATOM      8  C   UNL d   1      -3.909  -2.018  -6.305  0.00  0.00     0.069 C 
ATOM      9  C   UNL d   1       0.111  -0.875  -8.582  0.00  0.00     0.069 C 
ENDROOT
BRANCH   1  10
ATOM     10  C   UNL d   1      -0.431   0.590  -3.725  0.00  0.00    -0.015 A 
ATOM     11  C   UNL d   1      -0.565  -0.020  -2.428  0.00  0.00     0.045 A 
ATOM     12  C   UNL d   1      -0.185   0.807  -1.391  0.00  0.00     0.116 A 
ATOM     13  S   UNL d   1       0.511   2.248  -1.978  0.00  0.00    -0.088 SA
ATOM     14  C   UNL d   1       0.164   1.831  -3.607  0.00  0.00     0.063 A 
BRANCH  12  15
ATOM     15  S   UNL d   1      -0.366   0.606   0.371  0.00  0.00     0.250 S 
ATOM     16  O   UNL d   1       0.140   1.801   1.013  0.00  0.00    -0.205 OA
ATOM     17  O   UNL d   1       0.191  -0.699   0.651  0.00  0.00    -0.205 OA
BRANCH  15  18
ATOM     18  N   UNL d   1      -2.046   0.528   0.679  0.00  0.00    -0.206 NA
ATOM     19  C   UNL d   1      -2.838   1.728   0.288  0.00  0.00     0.107 C 
ATOM     20  C   UNL d   1      -3.356   2.307   1.593  0.00  0.00     0.017 C 
ATOM     21  C   UNL d   1      -3.583   1.072   2.439  0.00  0.00     0.017 C 
ATOM     22  C   UNL d   1      -2.388   0.193   2.093  0.00  0.00     0.107 C 
ENDBRANCH  15  18
ENDBRANCH  12  15
ENDBRANCH   1  10
BRANCH   2  23
ATOM     23  C   UNL d   1      -3.171  -0.340  -3.931  0.00  0.00     0.295 C 
ATOM     24  O   UNL d   1      -3.552   0.767  -3.589  0.00  0.00    -0.259 OA
BRANCH  23  25
ATOM     25  O   UNL d   1      -3.512  -1.525  -3.371  0.00  0.00    -0.322 OA
ATOM     26  C   UNL d   1      -4.501  -1.440  -2.339  0.00  0.00     0.213 C 
ENDBRANCH  23  25
ENDBRANCH   2  23
BRANCH   3  27
ATOM     27  C   UNL d   1       1.249   0.503  -6.234  0.00  0.00     0.295 C 
ATOM     28  O   UNL d   1       2.125   0.241  -5.427  0.00  0.00    -0.259 OA
BRANCH  27  29
ATOM     29  O   UNL d   1       1.374   1.294  -7.328  0.00  0.00    -0.322 OA
ATOM     30  C   UNL d   1       2.707   1.706  -7.653  0.00  0.00     0.213 C 
ENDBRANCH  27  29
ENDBRANCH   3  27
TORSDOF 7
