REMARK  6 active torsions:
REMARK  status: ('A' for Active; 'I' for Inactive)
REMARK    1  A    between atoms: C_5  and  C_1 
REMARK    2  A    between atoms: C_8  and  N_2 
REMARK    3  A    between atoms: O_17  and  C_7 
REMARK    4  A    between atoms: S_13  and  C_10 
REMARK    5  A    between atoms: C_18  and  S_13 
REMARK    6  A    between atoms: C_14  and  C_18 
ROOT
ATOM      1  N   UNL d   1      -5.495  -1.066   5.137  0.00  0.00    -0.197 NA
ATOM      2  C   UNL d   1      -5.195  -1.998   4.513  0.00  0.00     0.059 C 
ATOM      3  C   UNL d   1      -4.863  -3.186   3.701  0.00  0.00     0.134 C 
ENDROOT
BRANCH   3   4
ATOM      4  C   UNL d   1      -3.561  -2.961   2.946  0.00  0.00     0.093 C 
BRANCH   4   5
ATOM      5  S   UNL d   1      -3.061  -4.370   1.893  0.00  0.00    -0.127 SA
BRANCH   5   6
ATOM      6  C   UNL d   1      -4.498  -4.584   0.836  0.00  0.00     0.027 A 
ATOM      7  C   UNL d   1      -4.923  -3.654  -0.137  0.00  0.00     0.049 A 
ATOM      8  C   UNL d   1      -6.018  -4.008  -0.952  0.00  0.00     0.031 A 
ATOM      9  C   UNL d   1      -6.706  -5.209  -0.783  0.00  0.00     0.002 A 
ATOM     10  C   UNL d   1      -6.287  -6.111   0.184  0.00  0.00     0.002 A 
ATOM     11  C   UNL d   1      -5.180  -5.808   0.976  0.00  0.00     0.021 A 
BRANCH   7  12
ATOM     12  N   UNL d   1      -4.207  -2.455  -0.381  0.00  0.00    -0.364 N 
ATOM     13  C   UNL d   1      -4.877  -1.399  -0.730  0.00  0.00     0.102 C 
ATOM     14  HN  UNL d   1      -3.192  -2.423  -0.284  1.00  0.00     0.165 HD
BRANCH  13  15
ATOM     15  C   UNL d   1      -4.207  -0.167  -1.188  0.00  0.00     0.014 A 
ATOM     16  C   UNL d   1      -2.824   0.011  -1.091  0.00  0.00     0.077 A 
ATOM     17  C   UNL d   1      -2.229   1.168  -1.590  0.00  0.00     0.039 A 
ATOM     18  C   UNL d   1      -3.014   2.143  -2.211  0.00  0.00     0.022 A 
ATOM     19  C   UNL d   1      -4.392   1.959  -2.316  0.00  0.00     0.011 A 
ATOM     20  C   UNL d   1      -4.998   0.813  -1.801  0.00  0.00     0.034 A 
ATOM     21 BR   UNL d   1      -5.449   3.259  -3.192  0.00  0.00    -0.051 Br
BRANCH  16  22
ATOM     22  O   UNL d   1      -1.994  -0.919  -0.530  0.00  0.00    -0.360 OA
ATOM     23  H   UNL d   1      -2.530  -1.725  -0.347  0.00  0.00     0.217 HD
ENDBRANCH  16  22
ENDBRANCH  13  15
ENDBRANCH   7  12
ENDBRANCH   5   6
ENDBRANCH   4   5
ENDBRANCH   3   4
TORSDOF 6
