REMARK  3 active torsions:
REMARK  status: ('A' for Active; 'I' for Inactive)
REMARK    1  A    between atoms: C_13  and  C_3 
REMARK    2  A    between atoms: C_15  and  C_4 
REMARK    3  A    between atoms: C_7  and  C_14 
ROOT
ATOM      1  N   UNL d   1       1.395  -0.591  -0.012  0.00  0.00    -0.349 N 
ATOM      2  HN  UNL d   1       2.279  -1.101  -0.025  1.00  0.00     0.166 HD
ATOM      3  C   UNL d   1       0.200  -1.155  -0.022  0.00  0.00     0.084 A 
ATOM      4  C   UNL d   1       1.279   0.792   0.020  0.00  0.00     0.050 A 
ATOM      5  S   UNL d   1      -1.119  -0.045   0.048  0.00  0.00    -0.081 SA
ATOM      6  C   UNL d   1      -0.019   1.261   0.045  0.00  0.00     0.082 A 
ENDROOT
BRANCH   3   7
ATOM      7  C   UNL d   1      -0.045  -2.607  -0.048  0.00  0.00    -0.002 A 
ATOM      8  C   UNL d   1       0.865  -3.477   0.572  0.00  0.00     0.015 A 
ATOM      9  C   UNL d   1       0.655  -4.864   0.572  0.00  0.00     0.014 A 
ATOM     10  C   UNL d   1      -0.467  -5.414  -0.063  0.00  0.00    -0.008 A 
ATOM     11  C   UNL d   1      -1.367  -4.551  -0.699  0.00  0.00     0.014 A 
ATOM     12  C   UNL d   1      -1.159  -3.167  -0.690  0.00  0.00     0.015 A 
BRANCH  10  13
ATOM     13  C   UNL d   1      -0.704  -6.851  -0.106  0.00  0.00     0.063 A 
ATOM     14  N   UNL d   1      -1.365  -7.435  -1.183  0.00  0.00    -0.292 N 
ATOM     15  N   UNL d   1      -1.483  -8.744  -1.042  0.00  0.00    -0.061 NA
ATOM     16  HN  UNL d   1      -1.717  -6.914  -1.987  1.00  0.00     0.183 HD
ATOM     17  S   UNL d   1      -0.826  -9.304   0.390  0.00  0.00    -0.010 SA
ATOM     18  C   UNL d   1      -0.335  -7.737   0.891  0.00  0.00     0.096 A 
ENDBRANCH  10  13
ENDBRANCH   3   7
BRANCH   4  19
ATOM     19  C   UNL d   1       2.447   1.667  -0.020  0.00  0.00    -0.009 A 
ATOM     20  C   UNL d   1       3.610   1.247  -0.683  0.00  0.00     0.015 A 
ATOM     21  C   UNL d   1       4.718   2.096  -0.783  0.00  0.00     0.024 A 
ATOM     22  C   UNL d   1       4.674   3.365  -0.212  0.00  0.00     0.034 A 
ATOM     23  C   UNL d   1       3.537   3.788   0.473  0.00  0.00     0.024 A 
ATOM     24 CL   UNL d   1       6.024   4.420  -0.354  0.00  0.00    -0.084 Cl
ATOM     25  C   UNL d   1       2.430   2.940   0.571  0.00  0.00     0.015 A 
ENDBRANCH   4  19
TORSDOF 3
