REMARK  1 active torsions:
REMARK  status: ('A' for Active; 'I' for Inactive)
REMARK    1  A    between atoms: S_17  and  C_9 
ROOT
ATOM      1  C   UNL d   1       1.212   0.976   0.001  0.00  0.00     0.068 A 
ATOM      2  C   UNL d   1      -1.254   0.841  -0.001  0.00  0.00     0.088 A 
ATOM      3  C   UNL d   1      -0.696  -0.432  -0.001  0.00  0.00     0.032 A 
ATOM      4  S   UNL d   1      -0.098   2.085   0.000  0.00  0.00    -0.067 SA
ATOM      5  C   UNL d   1       0.747  -0.339   0.001  0.00  0.00     0.067 A 
ATOM      6  N   UNL d   1      -2.564   1.156  -0.002  0.00  0.00    -0.354 N 
ATOM      7  HN  UNL d   1      -2.897   2.120  -0.002  1.00  0.00     0.166 HD
ATOM      8  C   UNL d   1      -1.603  -1.527  -0.003  0.00  0.00    -0.045 A 
ATOM      9  C   UNL d   1       2.589   1.193   0.002  0.00  0.00     0.087 A 
ATOM     10  N   UNL d   1       3.427   0.138   0.003  0.00  0.00    -0.346 N 
ATOM     11  HN  UNL d   1       4.438   0.271   0.004  1.00  0.00     0.167 HD
ATOM     12  N   UNL d   1       1.598  -1.399   0.002  0.00  0.00    -0.350 N 
ATOM     13  HN  UNL d   1       1.269  -2.364   0.002  1.00  0.00     0.166 HD
ATOM     14  C   UNL d   1       2.894  -1.086   0.003  0.00  0.00     0.181 A 
ATOM     15  C   UNL d   1      -2.974  -1.221  -0.004  0.00  0.00     0.032 A 
ATOM     16  C   UNL d   1      -3.400   0.101  -0.004  0.00  0.00     0.006 A 
ATOM     17  C   UNL d   1      -1.211  -2.980  -0.005  0.00  0.00     0.049 C 
ATOM     18  C   UNL d   1      -4.873   0.395  -0.007  0.00  0.00     0.068 C 
ENDROOT
BRANCH   9  19
ATOM     19  S   UNL d   1       3.306   2.810   0.002  0.00  0.00    -0.124 SA
ATOM     20  H   UNL d   1       2.151   3.490   0.004  0.00  0.00     0.108 HD
ENDBRANCH   9  19
TORSDOF 1
