REMARK  3 active torsions:
REMARK  status: ('A' for Active; 'I' for Inactive)
REMARK    1  A    between atoms: C_2  and  S_1 
REMARK    2  A    between atoms: O_8  and  S_1 
REMARK    3  A    between atoms: C_16  and  O_8 
ROOT
ATOM      1  C   UNL d   1       0.371  -0.908   1.303  0.00  0.00     0.128 A 
ATOM      2  S   UNL d   1       1.383  -0.992   2.682  0.00  0.00    -0.073 SA
ATOM      3  C   UNL d   1       0.376  -2.141   3.458  0.00  0.00     0.042 A 
ATOM      4  C   UNL d   1       0.724  -2.775   4.702  0.00  0.00     0.117 A 
ATOM      5  C   UNL d   1      -0.775  -1.660   1.482  0.00  0.00     0.035 A 
ATOM      6  C   UNL d   1      -0.769  -2.371   2.718  0.00  0.00     0.024 A 
ATOM      7  N   UNL d   1       0.491  -4.191   6.454  0.00  0.00    -0.272 N 
ATOM      8  HN  UNL d   1       0.112  -4.891   7.093  1.00  0.00     0.194 HD
ATOM      9  O   UNL d   1      -0.091  -3.709   5.296  0.00  0.00    -0.237 OA
ATOM     10  C   UNL d   1       1.847  -2.645   5.499  0.00  0.00     0.059 A 
ATOM     11  C   UNL d   1       1.652  -3.548   6.559  0.00  0.00     0.117 A 
ENDROOT
BRANCH   1  12
ATOM     12  S   UNL d   1       0.957   0.056  -0.085  0.00  0.00     0.309 S 
ATOM     13  O   UNL d   1       0.301  -0.534  -1.234  0.00  0.00    -0.192 OA
ATOM     14  O   UNL d   1       2.401   0.114   0.037  0.00  0.00    -0.192 OA
BRANCH  12  15
ATOM     15  O   UNL d   1       0.293   1.509   0.237  0.00  0.00    -0.229 OA
BRANCH  15  16
ATOM     16  C   UNL d   1       0.466   2.579  -0.609  0.00  0.00     0.089 A 
ATOM     17  C   UNL d   1      -0.551   3.540  -0.594  0.00  0.00     0.040 A 
ATOM     18  C   UNL d   1      -0.439   4.703  -1.365  0.00  0.00     0.026 A 
ATOM     19  C   UNL d   1       0.696   4.910  -2.143  0.00  0.00     0.034 A 
ATOM     20  C   UNL d   1       1.710   3.955  -2.171  0.00  0.00     0.026 A 
ATOM     21 CL   UNL d   1       0.859   6.359  -3.057  0.00  0.00    -0.084 Cl
ATOM     22  C   UNL d   1       1.595   2.790  -1.404  0.00  0.00     0.040 A 
ENDBRANCH  15  16
ENDBRANCH  12  15
ENDBRANCH   1  12
TORSDOF 3
