REMARK  4 active torsions:
REMARK  status: ('A' for Active; 'I' for Inactive)
REMARK    1  A    between atoms: N_2  and  S_1 
REMARK    2  A    between atoms: C_3  and  S_1 
REMARK    3  A    between atoms: N_7  and  C_4 
REMARK    4  A    between atoms: C_8  and  C_14 
REMARK       I    between atoms: N_21  and  C_8 
ROOT
ATOM      1  S   UNL d   1       0.957   0.016  -0.002  0.00  0.00     0.245 S 
ATOM      2  O   UNL d   1       0.875  -0.015  -1.449  0.00  0.00    -0.206 OA
ATOM      3  O   UNL d   1       0.247   1.018   0.765  0.00  0.00    -0.206 OA
ENDROOT
BRANCH   1   4
ATOM      4  N   UNL d   1       2.634   0.124   0.430  0.00  0.00    -0.206 NA
ATOM      5  C   UNL d   1       2.870   0.138   1.907  0.00  0.00     0.108 C 
ATOM      6  C   UNL d   1       4.368   0.192   2.217  0.00  0.00     0.029 C 
ATOM      7  C   UNL d   1       5.064   1.374   1.534  0.00  0.00     0.080 C 
ATOM      8  C   UNL d   1       4.778   1.323   0.033  0.00  0.00     0.029 C 
ATOM      9  C   UNL d   1       3.280   1.285  -0.254  0.00  0.00     0.108 C 
BRANCH   7  10
ATOM     10  C   UNL d   1       4.659   2.706   2.161  0.00  0.00     0.219 C 
ATOM     11  O   UNL d   1       3.867   2.819   3.088  0.00  0.00    -0.273 OA
ATOM     12  N   UNL d   1       5.260   3.813   1.639  0.00  0.00    -0.370 N 
ATOM     13  H   UNL d   1       6.099   3.760   1.077  0.00  0.00     0.159 HD
ATOM     14  H   UNL d   1       5.058   4.691   2.100  0.00  0.00     0.159 HD
ENDBRANCH   7  10
ENDBRANCH   1   4
BRANCH   1  15
ATOM     15  C   UNL d   1       0.473  -1.570   0.566  0.00  0.00     0.090 A 
ATOM     16  C   UNL d   1      -0.564  -1.704   1.462  0.00  0.00     0.114 A 
ATOM     17  N   UNL d   1      -0.962  -2.903   1.961  0.00  0.00    -0.351 N 
ATOM     18  C   UNL d   1      -0.338  -4.029   1.543  0.00  0.00     0.103 A 
ATOM     19  HN  UNL d   1      -1.719  -2.953   2.642  1.00  0.00     0.166 HD
ATOM     20  C   UNL d   1       0.693  -3.950   0.603  0.00  0.00     0.050 A 
ATOM     21  C   UNL d   1       1.110  -2.713   0.111  0.00  0.00     0.030 A 
BRANCH  18  22
ATOM     22  N   UNL d   1      -0.706  -5.230   2.101  0.00  0.00    -0.363 N 
ATOM     23  C   UNL d   1      -1.379  -5.262   3.405  0.00  0.00     0.150 C 
ATOM     24  C   UNL d   1      -2.744  -5.950   3.289  0.00  0.00     0.187 C 
ATOM     25  O   UNL d   1      -2.623  -7.256   2.698  0.00  0.00    -0.388 OA
ATOM     26  C   UNL d   1      -2.074  -7.147   1.375  0.00  0.00     0.187 C 
ATOM     27  C   UNL d   1      -0.675  -6.505   1.383  0.00  0.00     0.150 C 
ENDBRANCH  18  22
ENDBRANCH   1  15
TORSDOF 4
