REMARK  5 active torsions:
REMARK  status: ('A' for Active; 'I' for Inactive)
REMARK    1  A    between atoms: C_10  and  N_1 
REMARK    2  A    between atoms: N_20  and  C_7 
REMARK    3  A    between atoms: C_13  and  C_10 
REMARK    4  A    between atoms: C_14  and  C_19 
REMARK    5  A    between atoms: N_15  and  N_20 
ROOT
ATOM      1  N   UNL d   1       1.468   1.067  -0.045  0.00  0.00    -0.254 N 
ATOM      2  N   UNL d   1       2.333   0.024   0.021  0.00  0.00    -0.018 NA
ATOM      3  C   UNL d   1       0.172   0.632  -0.061  0.00  0.00     0.154 A 
ATOM      4  C   UNL d   1       0.286  -0.745  -0.018  0.00  0.00     0.137 A 
ATOM      5  N   UNL d   1       1.612  -1.096   0.027  0.00  0.00    -0.277 N 
ATOM      6  HN  UNL d   1       1.980  -2.046   0.060  1.00  0.00     0.184 HD
ATOM      7  C   UNL d   1      -0.905  -1.489  -0.023  0.00  0.00     0.153 A 
ATOM      8  N   UNL d   1      -0.956   1.356  -0.098  0.00  0.00    -0.336 N 
ATOM      9  HN  UNL d   1      -0.989   2.375  -0.107  1.00  0.00     0.168 HD
ATOM     10  N   UNL d   1      -2.077  -0.785  -0.081  0.00  0.00    -0.336 N 
ATOM     11  HN  UNL d   1      -2.971  -1.276  -0.095  1.00  0.00     0.168 HD
ATOM     12  C   UNL d   1      -2.039   0.560  -0.120  0.00  0.00     0.183 A 
ENDROOT
BRANCH   7  13
ATOM     13  N   UNL d   1      -0.905  -2.897   0.049  0.00  0.00    -0.284 N 
ATOM     14  H   UNL d   1       0.026  -3.296  -0.071  0.00  0.00     0.188 HD
BRANCH  13  15
ATOM     15  N   UNL d   1      -1.998  -3.536  -0.453  0.00  0.00    -0.309 N 
ATOM     16  C   UNL d   1      -1.981  -4.829  -0.381  0.00  0.00     0.126 C 
ATOM     17  HN  UNL d   1      -2.783  -3.027  -0.859  1.00  0.00     0.186 HD
BRANCH  16  18
ATOM     18  C   UNL d   1      -3.085  -5.593  -0.909  0.00  0.00     0.021 A 
ATOM     19  S   UNL d   1      -3.065  -7.298  -0.799  0.00  0.00    -0.101 SA
ATOM     20  C   UNL d   1      -4.581  -7.428  -1.583  0.00  0.00     0.050 A 
ATOM     21  C   UNL d   1      -5.094  -6.196  -1.925  0.00  0.00     0.008 A 
ATOM     22  C   UNL d   1      -4.229  -5.135  -1.534  0.00  0.00     0.021 A 
ENDBRANCH  16  18
ENDBRANCH  13  15
ENDBRANCH   7  13
BRANCH   1  23
ATOM     23  C   UNL d   1       1.943   2.435   0.034  0.00  0.00     0.189 C 
BRANCH  23  24
ATOM     24  C   UNL d   1       2.294   2.994  -1.324  0.00  0.00    -0.017 A 
ATOM     25  C   UNL d   1       1.402   3.760  -2.093  0.00  0.00     0.042 A 
ATOM     26 CL   UNL d   1      -0.160   4.215  -1.517  0.00  0.00    -0.084 Cl
ATOM     27  C   UNL d   1       1.765   4.215  -3.365  0.00  0.00     0.024 A 
ATOM     28  C   UNL d   1       3.027   3.929  -3.881  0.00  0.00     0.002 A 
ATOM     29  C   UNL d   1       3.932   3.191  -3.125  0.00  0.00     0.001 A 
ATOM     30  C   UNL d   1       3.568   2.723  -1.860  0.00  0.00     0.010 A 
ENDBRANCH  23  24
ENDBRANCH   1  23
TORSDOF 5
