REMARK  3 active torsions:
REMARK  status: ('A' for Active; 'I' for Inactive)
REMARK    1  A    between atoms: C_2  and  C_1 
REMARK       I    between atoms: N_3  and  C_1 
REMARK    2  A    between atoms: C_6  and  N_3 
REMARK    3  A    between atoms: C_4  and  C_5 
ROOT
ATOM      1  C   UNL d   1       0.977  -0.054   0.209  0.00  0.00     0.260 C 
ATOM      2  N   UNL d   1       0.314  -0.941  -0.663  0.00  0.00    -0.317 N 
ATOM      3  O   UNL d   1       2.182  -0.073   0.456  0.00  0.00    -0.267 OA
ATOM      4  C   UNL d   1      -1.141  -0.994  -0.852  0.00  0.00     0.159 C 
ENDROOT
BRANCH   1   5
ATOM      5  C   UNL d   1       0.231   1.051   0.862  0.00  0.00     0.062 A 
ATOM      6  C   UNL d   1       0.703   2.371   0.860  0.00  0.00     0.066 A 
ATOM      7  C   UNL d   1      -0.054   3.356   1.524  0.00  0.00     0.034 A 
ATOM      8  C   UNL d   1      -1.229   2.994   2.161  0.00  0.00     0.088 A 
ATOM      9  N   UNL d   1      -1.670   1.726   2.222  0.00  0.00    -0.374 N 
ATOM     10  C   UNL d   1      -0.913   0.784   1.604  0.00  0.00     0.105 A 
ATOM     11  HN  UNL d   1      -2.532   1.483   2.709  1.00  0.00     0.164 HD
BRANCH   6  12
ATOM     12  C   UNL d   1       2.020   2.796   0.252  0.00  0.00     0.418 C 
ATOM     13  F   UNL d   1       2.414   2.096  -0.843  0.00  0.00    -0.166 F 
ATOM     14  F   UNL d   1       1.967   4.095  -0.180  0.00  0.00    -0.166 F 
ATOM     15  F   UNL d   1       3.040   2.767   1.148  0.00  0.00    -0.166 F 
ENDBRANCH   6  12
ENDBRANCH   1   5
BRANCH   2  16
ATOM     16  C   UNL d   1       1.066  -1.923  -1.398  0.00  0.00     0.049 A 
ATOM     17  C   UNL d   1       1.868  -2.879  -0.729  0.00  0.00    -0.035 A 
ATOM     18  C   UNL d   1       2.585  -3.829  -1.480  0.00  0.00     0.009 A 
ATOM     19  C   UNL d   1       2.006  -2.964   0.768  0.00  0.00     0.050 C 
ATOM     20  C   UNL d   1       2.483  -3.880  -2.865  0.00  0.00     0.001 A 
ATOM     21  C   UNL d   1       1.677  -2.963  -3.527  0.00  0.00     0.009 A 
ATOM     22  C   UNL d   1       0.983  -1.968  -2.818  0.00  0.00    -0.035 A 
ATOM     23  C   UNL d   1       0.186  -0.991  -3.647  0.00  0.00     0.050 C 
ENDBRANCH   2  16
TORSDOF 3
