REMARK  9 active torsions:
REMARK  status: ('A' for Active; 'I' for Inactive)
REMARK    1  A    between atoms: C_7  and  C_1 
REMARK    2  A    between atoms: N_19  and  C_3 
REMARK    3  A    between atoms: C_18  and  C_6 
REMARK       I    between atoms: N_14  and  C_7 
REMARK    4  A    between atoms: C_21  and  C_12 
REMARK    5  A    between atoms: C_13  and  N_15 
REMARK    6  A    between atoms: N_17  and  C_13 
REMARK    7  A    between atoms: N_15  and  N_14 
REMARK    8  A    between atoms: C_22  and  N_17 
REMARK    9  A    between atoms: C_23  and  C_22 
ROOT
ATOM      1  C   UNL d   1      -2.578  -0.714  -0.115  0.00  0.00     0.103 A 
ATOM      2  C   UNL d   1      -0.209  -0.989  -0.016  0.00  0.00     0.040 A 
ATOM      3  C   UNL d   1      -1.515  -1.607  -0.135  0.00  0.00     0.062 A 
ATOM      4  C   UNL d   1      -0.383   0.386   0.054  0.00  0.00     0.103 A 
ATOM      5  S   UNL d   1      -2.011   0.889   0.052  0.00  0.00    -0.062 SA
ATOM      6  C   UNL d   1       1.145  -1.459   0.027  0.00  0.00     0.018 A 
ATOM      7  N   UNL d   1       1.849   0.865   0.143  0.00  0.00    -0.298 N 
ATOM      8  HN  UNL d   1       2.609   1.544   0.178  1.00  0.00     0.187 HD
ATOM      9  N   UNL d   1       0.602   1.297   0.124  0.00  0.00    -0.292 N 
ATOM     10  HN  UNL d   1       0.392   2.295   0.161  1.00  0.00     0.187 HD
ATOM     11  C   UNL d   1       2.148  -0.462   0.117  0.00  0.00     0.070 A 
ENDROOT
BRANCH   1  12
ATOM     12  C   UNL d   1      -3.985  -1.036  -0.290  0.00  0.00     0.279 C 
ATOM     13  N   UNL d   1      -4.910  -0.104   0.168  0.00  0.00    -0.263 N 
ATOM     14  H   UNL d   1      -4.636   0.764   0.614  0.00  0.00     0.190 HD
ATOM     15  O   UNL d   1      -4.351  -2.091  -0.815  0.00  0.00    -0.265 OA
BRANCH  13  16
ATOM     16  N   UNL d   1      -6.289  -0.365   0.013  0.00  0.00    -0.274 N 
ATOM     17  H   UNL d   1      -6.678  -0.073  -0.875  0.00  0.00     0.189 HD
BRANCH  16  18
ATOM     18  C   UNL d   1      -6.891  -1.412   0.675  0.00  0.00     0.186 C 
ATOM     19  S   UNL d   1      -6.469  -1.970   2.195  0.00  0.00    -0.040 SA
BRANCH  18  20
ATOM     20  N   UNL d   1      -7.930  -2.022   0.029  0.00  0.00    -0.362 N 
ATOM     21  H   UNL d   1      -8.311  -2.810   0.539  0.00  0.00     0.162 HD
BRANCH  20  22
ATOM     22  C   UNL d   1      -8.249  -1.964  -1.390  0.00  0.00     0.160 C 
BRANCH  22  23
ATOM     23  C   UNL d   1      -9.049  -0.737  -1.744  0.00  0.00    -0.041 A 
ATOM     24  C   UNL d   1      -8.577   0.176  -2.700  0.00  0.00     0.009 A 
ATOM     25  C   UNL d   1      -9.302   1.332  -2.992  0.00  0.00     0.001 A 
ATOM     26  C   UNL d   1     -10.514   1.577  -2.350  0.00  0.00     0.000 A 
ATOM     27  C   UNL d   1     -11.007   0.664  -1.421  0.00  0.00     0.001 A 
ATOM     28  C   UNL d   1     -10.280  -0.487  -1.120  0.00  0.00     0.009 A 
ENDBRANCH  22  23
ENDBRANCH  20  22
ENDBRANCH  18  20
ENDBRANCH  16  18
ENDBRANCH  13  16
ENDBRANCH   1  12
BRANCH   3  29
ATOM     29  N   UNL d   1      -1.741  -2.934  -0.258  0.00  0.00    -0.397 N 
ATOM     30  H   UNL d   1      -1.042  -3.566  -0.643  0.00  0.00     0.156 HD
ATOM     31  H   UNL d   1      -2.692  -3.274  -0.435  0.00  0.00     0.156 HD
ENDBRANCH   3  29
BRANCH   6  32
ATOM     32  C   UNL d   1       1.428  -2.909  -0.043  0.00  0.00    -0.023 A 
ATOM     33  C   UNL d   1       2.293  -3.444  -1.016  0.00  0.00     0.012 A 
ATOM     34  C   UNL d   1       2.581  -4.812  -1.057  0.00  0.00     0.001 A 
ATOM     35  C   UNL d   1       1.964  -5.683  -0.164  0.00  0.00     0.000 A 
ATOM     36  C   UNL d   1       1.097  -5.181   0.801  0.00  0.00     0.001 A 
ATOM     37  C   UNL d   1       0.867  -3.805   0.884  0.00  0.00     0.012 A 
ENDBRANCH   6  32
BRANCH  11  38
ATOM     38  C   UNL d   1       3.617  -0.726   0.169  0.00  0.00    -0.007 A 
ATOM     39  C   UNL d   1       4.513   0.052  -0.591  0.00  0.00     0.014 A 
ATOM     40  C   UNL d   1       5.888  -0.230  -0.620  0.00  0.00     0.001 A 
ATOM     41  C   UNL d   1       6.391  -1.304   0.106  0.00  0.00     0.000 A 
ATOM     42  C   UNL d   1       5.537  -2.064   0.895  0.00  0.00     0.001 A 
ATOM     43  C   UNL d   1       4.170  -1.758   0.947  0.00  0.00     0.014 A 
ENDBRANCH  11  38
TORSDOF 9
