REMARK  3 active torsions:
REMARK  status: ('A' for Active; 'I' for Inactive)
REMARK    1  A    between atoms: C_7  and  C_1 
REMARK    2  A    between atoms: O_14  and  C_7 
REMARK    3  A    between atoms: C_17  and  O_14 
ROOT
ATOM      1  C   UNL d   1      -2.403  -0.860   0.007  0.00  0.00     0.105 A 
ATOM      2  C   UNL d   1       0.141  -0.715  -0.004  0.00  0.00     0.044 A 
ATOM      3  C   UNL d   1      -1.087  -1.552   0.034  0.00  0.00     0.202 A 
ATOM      4  N   UNL d   1      -1.257   1.262  -0.078  0.00  0.00    -0.364 N 
ATOM      5  C   UNL d   1       0.025   0.693  -0.010  0.00  0.00     0.052 A 
ATOM      6  C   UNL d   1      -2.385   0.481  -0.030  0.00  0.00     0.110 A 
ATOM      7  C   UNL d   1       1.199   1.468  -0.023  0.00  0.00    -0.033 A 
ATOM      8  C   UNL d   1       1.388  -1.349  -0.002  0.00  0.00     0.041 A 
ATOM      9  O   UNL d   1      -0.975  -2.770   0.133  0.00  0.00    -0.286 OA
ATOM     10  C   UNL d   1       2.450   0.815  -0.026  0.00  0.00     0.033 A 
ATOM     11  C   UNL d   1       2.538  -0.576  -0.017  0.00  0.00     0.035 A 
ATOM     12 CL   UNL d   1       4.081  -1.335  -0.026  0.00  0.00    -0.084 Cl
ATOM     13  C   UNL d   1       1.217   2.972  -0.039  0.00  0.00     0.050 C 
ATOM     14  H   UNL d   1      -1.375   2.255   0.086  0.00  0.00     0.165 HD
ENDROOT
BRANCH   1  15
ATOM     15  C   UNL d   1      -3.710  -1.541   0.110  0.00  0.00     0.298 C 
ATOM     16  O   UNL d   1      -4.735  -0.989   0.486  0.00  0.00    -0.259 OA
BRANCH  15  17
ATOM     17  O   UNL d   1      -3.596  -2.846  -0.223  0.00  0.00    -0.318 OA
BRANCH  17  18
ATOM     18  C   UNL d   1      -4.636  -3.715   0.237  0.00  0.00     0.174 C 
ATOM     19  C   UNL d   1      -4.307  -4.150   1.655  0.00  0.00     0.034 C 
ENDBRANCH  17  18
ENDBRANCH  15  17
ENDBRANCH   1  15
TORSDOF 3
