REMARK  9 active torsions:
REMARK  status: ('A' for Active; 'I' for Inactive)
REMARK    1  A    between atoms: C_11  and  C_1 
REMARK    2  A    between atoms: N_13  and  C_4 
REMARK    3  A    between atoms: C_7  and  O_10 
REMARK    4  A    between atoms: N_8  and  C_11 
REMARK    5  A    between atoms: C_20  and  N_8 
REMARK    6  A    between atoms: O_10  and  C_17 
REMARK    7  A    between atoms: C_14  and  C_20 
REMARK    8  A    between atoms: C_17  and  C_14 
REMARK    9  A    between atoms: O_19  and  C_14 
ROOT
ATOM      1  C   UNL d   1       1.274   4.553   0.120  0.00  0.00     0.303 C 
ENDROOT
BRANCH   1   2
ATOM      2  C   UNL d   1       2.670   5.207   0.041  0.00  0.00     0.170 C 
BRANCH   2   3
ATOM      3  C   UNL d   1       3.415   4.778  -1.234  0.00  0.00     0.209 C 
BRANCH   3   4
ATOM      4  O   UNL d   1       4.751   5.296  -1.210  0.00  0.00    -0.349 OA
BRANCH   4   5
ATOM      5  C   UNL d   1       5.531   5.007  -2.298  0.00  0.00     0.070 A 
ATOM      6  C   UNL d   1       5.173   4.178  -3.363  0.00  0.00     0.062 A 
ATOM      7  C   UNL d   1       6.060   3.974  -4.428  0.00  0.00     0.058 A 
ATOM      8 CL   UNL d   1       5.540   2.942  -5.714  0.00  0.00    -0.082 Cl
ATOM      9  C   UNL d   1       7.313   4.596  -4.428  0.00  0.00     0.056 A 
ATOM     10  C   UNL d   1       7.676   5.416  -3.358  0.00  0.00     0.028 A 
ATOM     11 CL   UNL d   1       8.448   4.395  -5.715  0.00  0.00    -0.083 Cl
ATOM     12  C   UNL d   1       6.788   5.617  -2.298  0.00  0.00     0.038 A 
ENDBRANCH   4   5
ENDBRANCH   3   4
ENDBRANCH   2   3
BRANCH   2  13
ATOM     13  O   UNL d   1       2.509   6.633   0.088  0.00  0.00    -0.392 OA
ATOM     14  H   UNL d   1       2.187   6.930  -0.780  0.00  0.00     0.210 HD
ENDBRANCH   2  13
ENDBRANCH   1   2
BRANCH   1  15
ATOM     15  N   UNL d   1       1.256   3.092   0.018  0.00  0.00     0.090 N 
ATOM     16  H   UNL d   1       0.286   2.773  -0.004  0.00  0.00     0.316 HD
BRANCH  15  17
ATOM     17  C   UNL d   1       1.915   2.443   1.155  0.00  0.00     0.313 C 
BRANCH  17  18
ATOM     18  C   UNL d   1       1.851   0.939   1.051  0.00  0.00     0.029 A 
ATOM     19  C   UNL d   1       2.819   0.161   0.385  0.00  0.00     0.017 A 
ATOM     20  C   UNL d   1       2.616  -1.226   0.280  0.00  0.00     0.024 A 
ATOM     21  C   UNL d   1       1.532  -1.855   0.895  0.00  0.00     0.005 A 
ATOM     22  C   UNL d   1       0.602  -1.093   1.590  0.00  0.00     0.043 A 
ATOM     23  C   UNL d   1       0.762   0.286   1.651  0.00  0.00     0.126 A 
ATOM     24  F   UNL d   1      -0.170   1.004   2.298  0.00  0.00    -0.205 F 
BRANCH  19  25
ATOM     25  N   UNL d   1       3.861   0.728  -0.368  0.00  0.00    -0.302 NA
ATOM     26  H   UNL d   1       4.169   1.643  -0.062  0.00  0.00     0.124 HD
ATOM     27  H   UNL d   1       4.638   0.100  -0.541  0.00  0.00     0.124 HD
ENDBRANCH  19  25
ENDBRANCH  17  18
ENDBRANCH  15  17
ENDBRANCH   1  15
TORSDOF 9
