REMARK  5 active torsions:
REMARK  status: ('A' for Active; 'I' for Inactive)
REMARK    1  A    between atoms: C_14  and  N_1 
REMARK    2  A    between atoms: C_7  and  C_2 
REMARK    3  A    between atoms: O_15  and  C_8 
REMARK    4  A    between atoms: O_16  and  C_9 
REMARK    5  A    between atoms: O_17  and  C_10 
ROOT
ATOM      1  N   UNL d   1       0.925  -0.658   0.140  0.00  0.00    -0.302 N 
ATOM      2  C   UNL d   1       0.935   0.725   0.109  0.00  0.00     0.135 A 
ATOM      3  N   UNL d   1      -0.244   1.278   0.197  0.00  0.00    -0.282 N 
ATOM      4  HN  UNL d   1      -0.474   2.271   0.163  1.00  0.00     0.188 HD
ATOM      5  C   UNL d   1      -0.399  -0.964   0.374  0.00  0.00     0.195 A 
ATOM      6  N   UNL d   1      -1.091   0.235   0.344  0.00  0.00    -0.274 N 
ATOM      7  S   UNL d   1      -1.199  -2.381   0.669  0.00  0.00    -0.039 SA
ATOM      8  H   UNL d   1      -2.087   0.356   0.479  0.00  0.00     0.189 HD
ENDROOT
BRANCH   2   9
ATOM      9  C   UNL d   1       2.148   1.570  -0.002  0.00  0.00     0.015 A 
ATOM     10  C   UNL d   1       2.079   2.768  -0.716  0.00  0.00     0.055 A 
ATOM     11  C   UNL d   1       3.197   3.615  -0.824  0.00  0.00     0.105 A 
ATOM     12  C   UNL d   1       4.417   3.242  -0.210  0.00  0.00     0.135 A 
ATOM     13  C   UNL d   1       4.453   2.062   0.562  0.00  0.00     0.105 A 
ATOM     14  C   UNL d   1       3.316   1.256   0.678  0.00  0.00     0.055 A 
BRANCH  11  15
ATOM     15  O   UNL d   1       3.152   4.800  -1.511  0.00  0.00    -0.353 OA
ATOM     16  C   UNL d   1       1.920   5.215  -2.086  0.00  0.00     0.210 C 
ENDBRANCH  11  15
BRANCH  12  17
ATOM     17  O   UNL d   1       5.614   3.904  -0.298  0.00  0.00    -0.351 OA
ATOM     18  C   UNL d   1       5.730   5.091  -1.064  0.00  0.00     0.210 C 
ENDBRANCH  12  17
BRANCH  13  19
ATOM     19  O   UNL d   1       5.531   1.518   1.211  0.00  0.00    -0.353 OA
ATOM     20  C   UNL d   1       6.455   2.425   1.799  0.00  0.00     0.210 C 
ENDBRANCH  13  19
ENDBRANCH   2   9
BRANCH   1  21
ATOM     21  C   UNL d   1       2.074  -1.562  -0.148  0.00  0.00     0.094 C 
ATOM     22  C   UNL d   1       1.863  -2.561  -1.303  0.00  0.00     0.026 C 
ATOM     23  C   UNL d   1       1.549  -4.005  -0.918  0.00  0.00     0.002 C 
ATOM     24  C   UNL d   1       2.388  -4.515   0.243  0.00  0.00     0.000 C 
ATOM     25  C   UNL d   1       2.326  -3.589   1.448  0.00  0.00     0.002 C 
ATOM     26  C   UNL d   1       2.736  -2.167   1.101  0.00  0.00     0.026 C 
ENDBRANCH   1  21
TORSDOF 5
