REMARK  6 active torsions:
REMARK  status: ('A' for Active; 'I' for Inactive)
REMARK    1  A    between atoms: C_7  and  C_1 
REMARK    2  A    between atoms: C_8  and  C_3 
REMARK    3  A    between atoms: C_6  and  C_4 
REMARK    4  A    between atoms: O_14  and  C_6 
REMARK    5  A    between atoms: O_21  and  C_15 
REMARK    6  A    between atoms: O_22  and  C_16 
ROOT
ATOM      1  C   UNL d   1       0.157   1.203  -0.093  0.00  0.00     0.027 A 
ATOM      2  S   UNL d   1      -1.011  -0.072  -0.165  0.00  0.00    -0.083 SA
ATOM      3  C   UNL d   1       1.446   0.679   0.042  0.00  0.00    -0.006 A 
ATOM      4  C   UNL d   1       0.158  -1.300  -0.040  0.00  0.00     0.081 A 
ATOM      5  C   UNL d   1       1.424  -0.762   0.047  0.00  0.00     0.038 A 
ENDROOT
BRANCH   1   6
ATOM      6  C   UNL d   1      -0.346   2.596  -0.208  0.00  0.00    -0.018 A 
ATOM      7  C   UNL d   1      -1.520   3.009   0.447  0.00  0.00     0.015 A 
ATOM      8  C   UNL d   1      -1.983   4.330   0.358  0.00  0.00     0.037 A 
ATOM      9  C   UNL d   1      -1.265   5.276  -0.367  0.00  0.00     0.068 A 
ATOM     10  C   UNL d   1      -0.094   4.884  -1.015  0.00  0.00     0.037 A 
ATOM     11  C   UNL d   1       0.344   3.555  -0.962  0.00  0.00     0.015 A 
BRANCH   9  12
ATOM     12  O   UNL d   1      -1.593   6.594  -0.517  0.00  0.00    -0.356 OA
ATOM     13  C   UNL d   1      -2.859   7.000  -0.012  0.00  0.00     0.210 C 
ENDBRANCH   9  12
ENDBRANCH   1   6
BRANCH   3  14
ATOM     14  C   UNL d   1       2.679   1.475   0.146  0.00  0.00    -0.024 A 
ATOM     15  C   UNL d   1       2.732   2.662   0.887  0.00  0.00     0.015 A 
ATOM     16  C   UNL d   1       3.892   3.446   0.913  0.00  0.00     0.037 A 
ATOM     17  C   UNL d   1       5.044   3.020   0.256  0.00  0.00     0.068 A 
ATOM     18  C   UNL d   1       5.022   1.806  -0.430  0.00  0.00     0.037 A 
ATOM     19  C   UNL d   1       3.849   1.045  -0.496  0.00  0.00     0.015 A 
BRANCH  17  20
ATOM     20  O   UNL d   1       6.236   3.687   0.213  0.00  0.00    -0.356 OA
ATOM     21  C   UNL d   1       6.285   4.944   0.879  0.00  0.00     0.210 C 
ENDBRANCH  17  20
ENDBRANCH   3  14
BRANCH   4  22
ATOM     22  C   UNL d   1      -0.254  -2.691  -0.040  0.00  0.00     0.299 C 
ATOM     23  O   UNL d   1      -1.409  -3.112  -0.050  0.00  0.00    -0.259 OA
BRANCH  22  24
ATOM     24  O   UNL d   1       0.848  -3.498  -0.028  0.00  0.00    -0.322 OA
ATOM     25  C   UNL d   1       0.556  -4.896  -0.034  0.00  0.00     0.213 C 
ENDBRANCH  22  24
ENDBRANCH   4  22
TORSDOF 6
