REMARK  3 active torsions:
REMARK  status: ('A' for Active; 'I' for Inactive)
REMARK    1  A    between atoms: C_9  and  N_2 
REMARK    2  A    between atoms: C_10  and  C_8 
REMARK    3  A    between atoms: C_14  and  C_9 
ROOT
ATOM      1  N   UNL d   1       0.910  -5.225  -0.942  0.00  0.00    -0.270 N 
ATOM      2  HN  UNL d   1       0.441  -5.820  -1.626  1.00  0.00     0.194 HD
ATOM      3  C   UNL d   1       1.059  -5.479   0.320  0.00  0.00     0.046 C 
ATOM      4  O   UNL d   1       1.515  -3.973  -1.199  0.00  0.00    -0.273 OA
ATOM      5  C   UNL d   1       2.399  -3.676  -0.108  0.00  0.00     0.177 C 
ATOM      6  C   UNL d   1       1.798  -4.423   1.068  0.00  0.00     0.096 C 
ENDROOT
BRANCH   5   7
ATOM      7  C   UNL d   1       2.444  -2.164   0.131  0.00  0.00     0.180 C 
BRANCH   7   8
ATOM      8  N   UNL d   1       3.122  -1.451  -0.962  0.00  0.00    -0.234 N 
ATOM      9  S   UNL d   1       4.775  -1.176  -0.867  0.00  0.00     0.268 S 
ATOM     10  C   UNL d   1       4.822  -0.317  -2.377  0.00  0.00     0.095 A 
ATOM     11  O   UNL d   1       5.035  -0.246   0.207  0.00  0.00    -0.200 OA
ATOM     12  O   UNL d   1       5.472  -2.431  -1.013  0.00  0.00    -0.200 OA
ATOM     13  C   UNL d   1       3.552  -0.235  -2.932  0.00  0.00     0.056 A 
ATOM     14  C   UNL d   1       5.938   0.240  -2.976  0.00  0.00     0.026 A 
ATOM     15  C   UNL d   1       3.356   0.412  -4.144  0.00  0.00     0.018 A 
ATOM     16  C   UNL d   1       2.512  -0.873  -2.099  0.00  0.00     0.269 A 
ATOM     17  C   UNL d   1       4.470   0.978  -4.777  0.00  0.00     0.001 A 
ATOM     18  C   UNL d   1       5.749   0.896  -4.195  0.00  0.00     0.002 A 
ATOM     19  O   UNL d   1       1.321  -0.861  -2.343  0.00  0.00    -0.266 OA
ENDBRANCH   7   8
ENDBRANCH   5   7
BRANCH   3  20
ATOM     20  C   UNL d   1       0.556  -6.737   0.938  0.00  0.00     0.010 A 
ATOM     21  C   UNL d   1       0.160  -6.887   2.275  0.00  0.00     0.046 A 
ATOM     22 CL   UNL d   1       0.118  -5.600   3.425  0.00  0.00    -0.083 Cl
ATOM     23  C   UNL d   1      -0.287  -8.135   2.738  0.00  0.00     0.025 A 
ATOM     24  C   UNL d   1      -0.350  -9.234   1.883  0.00  0.00     0.002 A 
ATOM     25  C   UNL d   1       0.024  -9.091   0.552  0.00  0.00     0.001 A 
ATOM     26  C   UNL d   1       0.468  -7.852   0.083  0.00  0.00     0.015 A 
ENDBRANCH   3  20
TORSDOF 3
