REMARK  4 active torsions:
REMARK  status: ('A' for Active; 'I' for Inactive)
REMARK    1  A    between atoms: C_2  and  N_1 
REMARK    2  A    between atoms: C_4  and  C_3 
REMARK    3  A    between atoms: O_13  and  C_7 
REMARK    4  A    between atoms: C_15  and  O_13 
ROOT
ATOM      1  C   UNL d   1      -1.738  -0.041  -0.184  0.00  0.00     0.001 A 
ATOM      2  C   UNL d   1      -2.712   0.685   0.523  0.00  0.00     0.079 A 
ATOM      3  C   UNL d   1      -1.530   0.238  -1.547  0.00  0.00     0.033 A 
ATOM      4  C   UNL d   1      -3.465   1.659  -0.151  0.00  0.00     0.039 A 
ATOM      5  C   UNL d   1      -2.280   1.218  -2.195  0.00  0.00     0.011 A 
ATOM      6  C   UNL d   1      -3.246   1.934  -1.502  0.00  0.00     0.022 A 
ATOM      7 BR   UNL d   1      -1.985   1.563  -4.030  0.00  0.00    -0.051 Br
ENDROOT
BRANCH   1   8
ATOM      8  C   UNL d   1      -0.896  -1.108   0.373  0.00  0.00     0.045 C 
ATOM      9  C   UNL d   1      -1.301  -2.381   0.538  0.00  0.00     0.077 C 
ATOM     10  C   UNL d   1      -2.632  -2.981   0.231  0.00  0.00     0.075 C 
BRANCH   9  11
ATOM     11  N   UNL d   1      -0.303  -3.309   1.072  0.00  0.00    -0.120 N 
ATOM     12  O   UNL d   1       0.893  -3.063   0.862  0.00  0.00    -0.532 OA
ATOM     13  O   UNL d   1      -0.725  -4.284   1.707  0.00  0.00    -0.532 OA
ENDBRANCH   9  11
ENDBRANCH   1   8
BRANCH   2  14
ATOM     14  O   UNL d   1      -3.092   0.523   1.828  0.00  0.00    -0.351 OA
BRANCH  14  15
ATOM     15  C   UNL d   1      -2.074   0.253   2.789  0.00  0.00     0.171 C 
ATOM     16  C   UNL d   1      -2.486   0.890   4.106  0.00  0.00     0.034 C 
ENDBRANCH  14  15
ENDBRANCH   2  14
TORSDOF 4
