REMARK  1 active torsions:
REMARK  status: ('A' for Active; 'I' for Inactive)
REMARK    1  A    between atoms: C_10  and  C_5 
ROOT
ATOM      1  C   UNL d   1       1.156  -0.862   0.010  0.00  0.00     0.088 A 
ATOM      2  C   UNL d   1       0.731   0.539   0.006  0.00  0.00     0.015 A 
ATOM      3  C   UNL d   1       1.651   1.526   0.007  0.00  0.00    -0.045 A 
ATOM      4  O   UNL d   1       2.488  -1.205   0.023  0.00  0.00    -0.309 OA
ATOM      5  C   UNL d   1       3.410  -0.167   0.027  0.00  0.00     0.086 A 
ATOM      6  C   UNL d   1       3.057   1.130   0.019  0.00  0.00     0.045 A 
ATOM      7  C   UNL d   1       0.106  -1.693   0.004  0.00  0.00     0.050 A 
ATOM      8  C   UNL d   1      -0.739   0.517  -0.002  0.00  0.00    -0.012 A 
ATOM      9  C   UNL d   1      -1.091  -0.852  -0.004  0.00  0.00    -0.022 A 
ATOM     10  C   UNL d   1       1.430   3.006  -0.000  0.00  0.00     0.049 C 
ATOM     11  C   UNL d   1      -1.726   1.489  -0.004  0.00  0.00     0.013 A 
ATOM     12  C   UNL d   1      -2.417  -1.258  -0.008  0.00  0.00     0.012 A 
ATOM     13  C   UNL d   1      -3.066   1.085  -0.008  0.00  0.00     0.001 A 
ATOM     14  C   UNL d   1      -3.409  -0.276  -0.010  0.00  0.00     0.001 A 
ENDROOT
BRANCH   5  15
ATOM     15  C   UNL d   1       4.821  -0.555   0.047  0.00  0.00    -0.002 A 
ATOM     16  C   UNL d   1       5.488  -0.724   1.266  0.00  0.00     0.014 A 
ATOM     17  C   UNL d   1       6.861  -0.981   1.288  0.00  0.00     0.001 A 
ATOM     18  C   UNL d   1       7.572  -1.074   0.092  0.00  0.00     0.000 A 
ATOM     19  C   UNL d   1       6.912  -0.923  -1.126  0.00  0.00     0.001 A 
ATOM     20  C   UNL d   1       5.540  -0.665  -1.150  0.00  0.00     0.014 A 
ENDBRANCH   5  15
TORSDOF 1
