REMARK  1 active torsions:
REMARK  status: ('A' for Active; 'I' for Inactive)
REMARK    1  A    between atoms: O_20  and  C_17 
ROOT
ATOM      1  C   UNL d   1      -1.050  -0.961  -0.348  0.00  0.00     0.021 C 
ATOM      2  C   UNL d   1      -0.372  -1.103  -2.871  0.00  0.00     0.022 C 
ATOM      3  C   UNL d   1       0.050  -1.311  -1.385  0.00  0.00     0.010 C 
ATOM      4  C   UNL d   1      -0.965   0.317  -3.148  0.00  0.00     0.027 C 
ATOM      5  C   UNL d   1      -2.049   0.361  -4.216  0.00  0.00    -0.043 A 
ATOM      6  C   UNL d   1      -1.275  -2.241  -3.304  0.00  0.00    -0.020 C 
ATOM      7  C   UNL d   1      -2.832  -0.776  -4.479  0.00  0.00    -0.027 A 
ATOM      8  C   UNL d   1      -2.399  -2.091  -4.012  0.00  0.00     0.008 C 
ATOM      9  C   UNL d   1      -0.296  -0.166   0.702  0.00  0.00     0.135 C 
ATOM     10  C   UNL d   1      -2.157  -0.066  -0.925  0.00  0.00     0.018 C 
ATOM     11  C   UNL d   1      -1.585   0.967  -1.888  0.00  0.00     0.011 C 
ATOM     12  C   UNL d   1       1.316  -0.514  -1.009  0.00  0.00     0.014 C 
ATOM     13  C   UNL d   1      -2.420   1.603  -4.766  0.00  0.00     0.011 A 
ATOM     14  C   UNL d   1      -4.042  -0.627  -5.157  0.00  0.00     0.048 A 
ATOM     15  C   UNL d   1       1.032   0.330   0.221  0.00  0.00     0.079 C 
ATOM     16  O   UNL d   1      -0.753   0.126   1.802  0.00  0.00    -0.297 OA
ATOM     17  C   UNL d   1      -4.454   0.634  -5.580  0.00  0.00     0.066 A 
ATOM     18  C   UNL d   1      -3.630   1.742  -5.432  0.00  0.00     0.037 A 
ATOM     19  C   UNL d   1      -1.651  -2.211   0.303  0.00  0.00     0.024 C 
ENDROOT
BRANCH  17  20
ATOM     20  O   UNL d   1      -5.707   0.755  -6.101  0.00  0.00    -0.361 OA
ATOM     21  H   UNL d   1      -5.971   1.687  -6.030  0.00  0.00     0.217 HD
ENDBRANCH  17  20
TORSDOF 1
