REMARK  8 active torsions:
REMARK  status: ('A' for Active; 'I' for Inactive)
REMARK       I    between atoms: N_3  and  C_1 
REMARK    1  A    between atoms: C_8  and  C_1 
REMARK    2  A    between atoms: S_5  and  C_2 
REMARK    3  A    between atoms: C_4  and  N_3 
REMARK    4  A    between atoms: C_12  and  S_5 
REMARK    5  A    between atoms: C_23  and  C_15 
REMARK    6  A    between atoms: C_25  and  C_23 
REMARK    7  A    between atoms: C_27  and  C_25 
REMARK    8  A    between atoms: C_26  and  C_27 
ROOT
ATOM      1  C   UNL d   1       1.464   1.421  -2.860  0.00  0.00     0.101 A 
ATOM      2  C   UNL d   1       1.136   0.121  -2.447  0.00  0.00     0.069 A 
ATOM      3  N   UNL d   1       2.004   1.678  -4.079  0.00  0.00    -0.358 N 
ATOM      4  HN  UNL d   1       2.236   2.629  -4.365  1.00  0.00     0.166 HD
ATOM      5  C   UNL d   1       1.385  -0.942  -3.317  0.00  0.00     0.034 A 
ATOM      6  C   UNL d   1       2.225   0.626  -4.899  0.00  0.00     0.089 A 
ATOM      7  C   UNL d   1       1.934  -0.686  -4.568  0.00  0.00     0.019 A 
ENDROOT
BRANCH   2   8
ATOM      8  N   UNL d   1       0.459  -0.175  -1.238  0.00  0.00    -0.320 N 
ATOM      9  C   UNL d   1       1.202  -0.486  -0.105  0.00  0.00     0.256 C 
ATOM     10  O   UNL d   1       2.423  -0.595  -0.072  0.00  0.00    -0.267 OA
ATOM     11  H   UNL d   1      -0.331   0.425  -1.032  0.00  0.00     0.169 HD
BRANCH   9  12
ATOM     12  C   UNL d   1       0.402  -0.669   1.143  0.00  0.00     0.032 A 
ATOM     13  C   UNL d   1      -0.897  -1.172   1.085  0.00  0.00     0.017 A 
ATOM     14  C   UNL d   1      -1.626  -1.391   2.259  0.00  0.00     0.008 A 
ATOM     15  C   UNL d   1      -1.063  -1.104   3.512  0.00  0.00    -0.058 A 
ATOM     16  C   UNL d   1       0.251  -0.606   3.562  0.00  0.00     0.008 A 
ATOM     17  C   UNL d   1       0.979  -0.391   2.387  0.00  0.00     0.017 A 
BRANCH  15  18
ATOM     18  C   UNL d   1      -1.848  -1.368   4.772  0.00  0.00     0.038 C 
BRANCH  18  19
ATOM     19  C   UNL d   1      -2.061  -0.143   5.668  0.00  0.00     0.005 C 
BRANCH  19  20
ATOM     20  C   UNL d   1      -2.864   0.969   4.987  0.00  0.00    -0.000 C 
BRANCH  20  21
ATOM     21  C   UNL d   1      -3.054   2.159   5.927  0.00  0.00    -0.005 C 
ATOM     22  C   UNL d   1      -3.840   3.277   5.262  0.00  0.00     0.005 C 
ENDBRANCH  20  21
ENDBRANCH  19  20
ENDBRANCH  18  19
ENDBRANCH  15  18
ENDBRANCH   9  12
ENDBRANCH   2   8
BRANCH   1  23
ATOM     23  S   UNL d   1       1.135   2.853  -1.851  0.00  0.00    -0.070 SA
BRANCH  23  24
ATOM     24  C   UNL d   1       2.696   3.260  -1.068  0.00  0.00     0.007 A 
ATOM     25  C   UNL d   1       3.816   2.425  -1.032  0.00  0.00     0.019 A 
ATOM     26  C   UNL d   1       4.953   2.778  -0.289  0.00  0.00     0.008 A 
ATOM     27  C   UNL d   1       5.001   3.978   0.430  0.00  0.00    -0.062 A 
ATOM     28  C   UNL d   1       3.890   4.829   0.375  0.00  0.00     0.008 A 
ATOM     29  C   UNL d   1       6.166   4.306   1.309  0.00  0.00     0.048 C 
ATOM     30  C   UNL d   1       2.757   4.474  -0.368  0.00  0.00     0.019 A 
ENDBRANCH  23  24
ENDBRANCH   1  23
TORSDOF 8
