REMARK  4 active torsions:
REMARK  status: ('A' for Active; 'I' for Inactive)
REMARK    1  A    between atoms: N_4  and  S_1 
REMARK    2  A    between atoms: C_8  and  S_1 
REMARK    3  A    between atoms: C_3  and  N_6 
REMARK    4  A    between atoms: C_7  and  C_16 
ROOT
ATOM      1  N   UNL d   1       0.201   1.141  -0.325  0.00  0.00    -0.204 NA
ATOM      2  N   UNL d   1      -1.030   2.276   2.020  0.00  0.00    -0.266 NA
ATOM      3  C   UNL d   1       0.685   2.430   0.271  0.00  0.00     0.122 C 
ATOM      4  C   UNL d   1      -1.228   0.863   0.044  0.00  0.00     0.122 C 
ATOM      5  C   UNL d   1       0.416   2.486   1.797  0.00  0.00     0.112 C 
ATOM      6  C   UNL d   1      -1.456   0.937   1.565  0.00  0.00     0.112 C 
ENDROOT
BRANCH   1   7
ATOM      7  S   UNL d   1       1.277  -0.167  -0.216  0.00  0.00     0.243 S 
ATOM      8  O   UNL d   1       0.556  -1.393  -0.483  0.00  0.00    -0.206 OA
ATOM      9  O   UNL d   1       2.084  -0.002   0.970  0.00  0.00    -0.206 OA
BRANCH   7  10
ATOM     10  C   UNL d   1       2.307   0.129  -1.637  0.00  0.00     0.075 A 
ATOM     11  C   UNL d   1       1.732   0.029  -2.910  0.00  0.00     0.041 A 
ATOM     12  C   UNL d   1       2.523   0.206  -4.054  0.00  0.00     0.049 A 
ATOM     13  C   UNL d   1       3.892   0.483  -3.890  0.00  0.00     0.016 A 
ATOM     14  C   UNL d   1       4.457   0.585  -2.616  0.00  0.00     0.002 A 
ATOM     15  C   UNL d   1       3.665   0.408  -1.481  0.00  0.00     0.025 A 
BRANCH  12  16
ATOM     16  C   UNL d   1       1.933   0.089  -5.438  0.00  0.00     0.417 C 
ATOM     17  F   UNL d   1       0.595  -0.160  -5.441  0.00  0.00    -0.166 F 
ATOM     18  F   UNL d   1       2.102   1.226  -6.170  0.00  0.00    -0.166 F 
ATOM     19  F   UNL d   1       2.503  -0.911  -6.164  0.00  0.00    -0.166 F 
ENDBRANCH  12  16
ENDBRANCH   7  10
ENDBRANCH   1   7
BRANCH   2  20
ATOM     20  C   UNL d   1      -1.488   2.663   3.278  0.00  0.00     0.097 A 
ATOM     21  C   UNL d   1      -1.535   4.024   3.688  0.00  0.00     0.043 A 
ATOM     22  C   UNL d   1      -1.994   4.244   4.980  0.00  0.00     0.088 A 
ATOM     23  C   UNL d   1      -1.257   5.294   3.026  0.00  0.00    -0.039 A 
ATOM     24  S   UNL d   1      -1.944   5.882   5.440  0.00  0.00    -0.083 SA
ATOM     25  N   UNL d   1      -2.445   3.324   5.847  0.00  0.00    -0.346 N 
ATOM     26  C   UNL d   1      -1.389   6.357   3.901  0.00  0.00     0.059 A 
ATOM     27  C   UNL d   1      -2.427   2.097   5.332  0.00  0.00     0.182 A 
ATOM     28  HN  UNL d   1      -2.766   3.541   6.791  1.00  0.00     0.167 HD
ATOM     29  N   UNL d   1      -1.979   1.724   4.124  0.00  0.00    -0.342 N 
ATOM     30  HN  UNL d   1      -2.007   0.744   3.844  1.00  0.00     0.167 HD
ATOM     31  C   UNL d   1      -0.888   5.484   1.590  0.00  0.00     0.050 C 
ENDBRANCH   2  20
TORSDOF 4
