REMARK  1 active torsions:
REMARK  status: ('A' for Active; 'I' for Inactive)
REMARK       I    between atoms: N_2  and  C_1 
REMARK    1  A    between atoms: C_3  and  C_1 
ROOT
ATOM      1  C   UNL d   1       0.982   0.006   0.100  0.00  0.00     0.261 C 
ATOM      2  N   UNL d   1       0.265  -0.124  -1.112  0.00  0.00    -0.313 N 
ATOM      3  C   UNL d   1      -0.836   0.676  -1.553  0.00  0.00     0.043 A 
ATOM      4  O   UNL d   1       2.024  -0.610   0.318  0.00  0.00    -0.267 OA
ATOM      5  C   UNL d   1      -1.830   0.087  -2.359  0.00  0.00    -0.031 A 
ATOM      6  C   UNL d   1       0.628  -1.231  -1.998  0.00  0.00     0.133 C 
ATOM      7  C   UNL d   1      -0.979   2.022  -1.185  0.00  0.00     0.030 A 
ATOM      8  C   UNL d   1      -0.580  -2.114  -2.252  0.00  0.00     0.025 C 
ATOM      9  C   UNL d   1      -1.689  -1.308  -2.915  0.00  0.00     0.042 C 
ATOM     10  C   UNL d   1      -2.988   0.818  -2.677  0.00  0.00     0.009 A 
ATOM     11  C   UNL d   1      -2.146   2.728  -1.480  0.00  0.00     0.002 A 
ATOM     12  C   UNL d   1      -3.159   2.119  -2.211  0.00  0.00     0.001 A 
ENDROOT
BRANCH   1  13
ATOM     13  C   UNL d   1       0.432   0.812   1.218  0.00  0.00     0.071 A 
ATOM     14  C   UNL d   1       1.296   1.626   1.961  0.00  0.00     0.135 A 
ATOM     15  C   UNL d   1       0.802   2.467   2.957  0.00  0.00     0.085 A 
ATOM     16  F   UNL d   1       2.611   1.662   1.705  0.00  0.00    -0.205 F 
ATOM     17  C   UNL d   1      -0.564   2.502   3.197  0.00  0.00     0.119 A 
ATOM     18  C   UNL d   1      -1.438   1.671   2.505  0.00  0.00     0.043 A 
ATOM     19  F   UNL d   1      -1.054   3.358   4.104  0.00  0.00    -0.206 F 
ATOM     20  C   UNL d   1      -0.931   0.789   1.547  0.00  0.00     0.023 A 
ENDBRANCH   1  13
TORSDOF 1
