REMARK  8 active torsions:
REMARK  status: ('A' for Active; 'I' for Inactive)
REMARK    1  A    between atoms: C_5  and  C_1 
REMARK    2  A    between atoms: C_19  and  C_2 
REMARK    3  A    between atoms: C_3  and  C_7 
REMARK    4  A    between atoms: C_4  and  C_6 
REMARK    5  A    between atoms: O_18  and  C_5 
REMARK    6  A    between atoms: C_10  and  C_11 
REMARK    7  A    between atoms: N_28  and  C_11 
REMARK    8  A    between atoms: N_12  and  O_18 
ROOT
ATOM      1  C   UNL d   1      -2.519  -4.303   0.018  0.00  0.00     0.109 C 
ATOM      2  N   UNL d   1      -2.217  -3.051  -0.180  0.00  0.00    -0.246 N 
ATOM      3  HN  UNL d   1      -2.902  -2.306  -0.310  1.00  0.00     0.196 HD
ENDROOT
BRANCH   1   4
ATOM      4  C   UNL d   1      -3.969  -4.664   0.038  0.00  0.00     0.005 A 
ATOM      5  C   UNL d   1      -4.870  -3.945  -0.755  0.00  0.00     0.031 A 
ATOM      6  C   UNL d   1      -6.249  -4.191  -0.677  0.00  0.00     0.049 A 
ATOM      7  C   UNL d   1      -6.712  -5.182   0.203  0.00  0.00     0.032 A 
ATOM      8  C   UNL d   1      -5.819  -5.913   1.006  0.00  0.00     0.049 A 
ATOM      9  C   UNL d   1      -4.440  -5.658   0.902  0.00  0.00     0.031 A 
BRANCH   6  10
ATOM     10  C   UNL d   1      -7.203  -3.352  -1.498  0.00  0.00     0.417 C 
ATOM     11  F   UNL d   1      -8.511  -3.663  -1.290  0.00  0.00    -0.166 F 
ATOM     12  F   UNL d   1      -7.083  -2.025  -1.227  0.00  0.00    -0.166 F 
ATOM     13  F   UNL d   1      -6.991  -3.486  -2.835  0.00  0.00    -0.166 F 
ENDBRANCH   6  10
BRANCH   8  14
ATOM     14  C   UNL d   1      -6.322  -6.918   2.017  0.00  0.00     0.417 C 
ATOM     15  F   UNL d   1      -7.680  -6.996   2.075  0.00  0.00    -0.166 F 
ATOM     16  F   UNL d   1      -5.882  -8.179   1.759  0.00  0.00    -0.166 F 
ATOM     17  F   UNL d   1      -5.910  -6.625   3.280  0.00  0.00    -0.166 F 
ENDBRANCH   8  14
ENDBRANCH   1   4
BRANCH   1  18
ATOM     18  N   UNL d   1      -1.591  -5.296   0.221  0.00  0.00    -0.286 NA
ATOM     19  H   UNL d   1      -1.823  -6.219  -0.130  0.00  0.00     0.125 HD
ATOM     20  H   UNL d   1      -0.641  -5.018  -0.007  0.00  0.00     0.125 HD
ENDBRANCH   1  18
BRANCH   2  21
ATOM     21  O   UNL d   1      -0.827  -2.861  -0.192  0.00  0.00    -0.193 OA
BRANCH  21  22
ATOM     22  C   UNL d   1      -0.407  -1.535  -0.233  0.00  0.00     0.319 C 
ATOM     23  O   UNL d   1       0.801  -1.308  -0.166  0.00  0.00    -0.257 OA
BRANCH  22  24
ATOM     24  C   UNL d   1      -1.364  -0.454  -0.408  0.00  0.00     0.091 A 
ATOM     25  C   UNL d   1      -1.251   0.870   0.008  0.00  0.00     0.101 A 
ATOM     26  O   UNL d   1      -2.331   1.567  -0.469  0.00  0.00    -0.241 OA
ATOM     27  N   UNL d   1      -3.166   0.735  -1.174  0.00  0.00    -0.271 N 
ATOM     28  C   UNL d   1      -2.577  -0.457  -1.139  0.00  0.00     0.134 A 
ATOM     29  HN  UNL d   1      -4.048   0.978  -1.625  1.00  0.00     0.194 HD
BRANCH  25  30
ATOM     30  C   UNL d   1      -0.265   1.726   0.785  0.00  0.00     0.001 C 
ATOM     31  C   UNL d   1       0.798   2.281  -0.179  0.00  0.00     0.021 C 
ATOM     32  C   UNL d   1      -0.999   2.922   1.440  0.00  0.00     0.021 C 
ATOM     33  C   UNL d   1       0.425   0.963   1.927  0.00  0.00     0.021 C 
ENDBRANCH  25  30
ENDBRANCH  22  24
ENDBRANCH  21  22
ENDBRANCH   2  21
TORSDOF 8
