REMARK  26 active torsions:
REMARK  status: ('A' for Active; 'I' for Inactive)
REMARK    1  A    between atoms: N_2  and  C_1 
REMARK    2  A    between atoms: N_3  and  C_1 
REMARK       I    between atoms: C_4  and  N_2 
REMARK    3  A    between atoms: C_5  and  N_3 
REMARK       I    between atoms: N_10  and  C_4 
REMARK    4  A    between atoms: N_11  and  C_5 
REMARK    5  A    between atoms: C_12  and  N_10 
REMARK    6  A    between atoms: C_13  and  N_11 
REMARK    7  A    between atoms: C_14  and  C_12 
REMARK    8  A    between atoms: C_15  and  C_13 
REMARK    9  A    between atoms: C_29  and  C_14 
REMARK   10  A    between atoms: C_32  and  C_15 
REMARK   11  A    between atoms: C_16  and  C_19 
REMARK   12  A    between atoms: C_17  and  C_18 
REMARK   13  A    between atoms: C_18  and  C_30 
REMARK   14  A    between atoms: C_19  and  C_27 
REMARK   15  A    between atoms: C_20  and  C_32 
REMARK   16  A    between atoms: C_22  and  C_20 
REMARK   17  A    between atoms: C_21  and  C_33 
REMARK   18  A    between atoms: C_23  and  C_21 
REMARK   19  A    between atoms: C_24  and  C_22 
REMARK   20  A    between atoms: C_25  and  C_23 
REMARK   21  A    between atoms: C_26  and  C_24 
REMARK   22  A    between atoms: C_27  and  C_25 
REMARK   23  A    between atoms: C_28  and  C_26 
REMARK   24  A    between atoms: C_30  and  C_28 
REMARK   25  A    between atoms: C_31  and  C_29 
REMARK   26  A    between atoms: C_33  and  C_31 
ROOT
ATOM      1  C   UNL d   1       0.970   0.079  -0.014  0.00  0.00     0.192 C 
ATOM      2  S   UNL d   1       2.590   0.469  -0.113  0.00  0.00    -0.040 SA
ENDROOT
BRANCH   1   3
ATOM      3  N   UNL d   1       0.520  -1.187   0.321  0.00  0.00    -0.167 N 
ATOM      4  C   UNL d   1      -0.603  -1.884  -0.126  0.00  0.00     0.673 C 
ATOM      5  N   UNL d   1      -1.436  -1.404  -0.938  0.00  0.00    -0.235 N 
ATOM      6  N   UNL d   1      -0.723  -3.188   0.313  0.00  0.00    -0.226 N 
ATOM      7  H   UNL d   1      -1.179  -0.453  -1.150  0.00  0.00     0.174 HD
ATOM      8  HN  UNL d   1      -2.241  -1.899  -1.321  1.00  0.00     0.174 HD
ATOM      9  H   UNL d   1      -0.367  -3.470   1.226  0.00  0.00     0.177 HD
ATOM     10  H   UNL d   1       1.215  -1.759   0.804  0.00  0.00     0.186 HD
BRANCH   6  11
ATOM     11  C   UNL d   1      -1.533  -4.129  -0.440  0.00  0.00     0.138 C 
BRANCH  11  12
ATOM     12  C   UNL d   1      -1.640  -5.500   0.219  0.00  0.00     0.020 C 
BRANCH  12  13
ATOM     13  C   UNL d   1      -2.357  -5.411   1.567  0.00  0.00     0.002 C 
BRANCH  13  14
ATOM     14  C   UNL d   1      -2.487  -6.779   2.224  0.00  0.00     0.000 C 
BRANCH  14  15
ATOM     15  C   UNL d   1      -3.193  -6.667   3.572  0.00  0.00     0.000 C 
BRANCH  15  16
ATOM     16  C   UNL d   1      -3.318  -8.039   4.225  0.00  0.00     0.000 C 
BRANCH  16  17
ATOM     17  C   UNL d   1      -4.020  -7.935   5.572  0.00  0.00     0.000 C 
BRANCH  17  18
ATOM     18  C   UNL d   1      -4.139  -9.308   6.219  0.00  0.00     0.000 C 
BRANCH  18  19
ATOM     19  C   UNL d   1      -4.844  -9.206   7.566  0.00  0.00     0.000 C 
BRANCH  19  20
ATOM     20  C   UNL d   1      -4.961 -10.580   8.213  0.00  0.00    -0.000 C 
BRANCH  20  21
ATOM     21  C   UNL d   1      -5.663 -10.487   9.563  0.00  0.00    -0.005 C 
ATOM     22  C   UNL d   1      -5.778 -11.857  10.205  0.00  0.00     0.005 C 
ENDBRANCH  20  21
ENDBRANCH  19  20
ENDBRANCH  18  19
ENDBRANCH  17  18
ENDBRANCH  16  17
ENDBRANCH  15  16
ENDBRANCH  14  15
ENDBRANCH  13  14
ENDBRANCH  12  13
ENDBRANCH  11  12
ENDBRANCH   6  11
ENDBRANCH   1   3
BRANCH   1  23
ATOM     23  N   UNL d   1       0.018   1.019  -0.367  0.00  0.00    -0.310 N 
ATOM     24  H   UNL d   1       0.411   1.804  -0.873  0.00  0.00     0.170 HD
BRANCH  23  25
ATOM     25  C   UNL d   1      -1.231   1.301   0.211  0.00  0.00     0.173 C 
ATOM     26  S   UNL d   1      -1.736   0.834   1.740  0.00  0.00    -0.041 SA
BRANCH  25  27
ATOM     27  N   UNL d   1      -1.993   2.046  -0.683  0.00  0.00    -0.367 N 
ATOM     28  H   UNL d   1      -1.854   1.884  -1.679  0.00  0.00     0.161 HD
BRANCH  27  29
ATOM     29  C   UNL d   1      -3.120   2.850  -0.255  0.00  0.00     0.122 C 
BRANCH  29  30
ATOM     30  C   UNL d   1      -3.913   3.516  -1.367  0.00  0.00     0.020 C 
BRANCH  30  31
ATOM     31  C   UNL d   1      -4.574   2.454  -2.239  0.00  0.00     0.002 C 
BRANCH  31  32
ATOM     32  C   UNL d   1      -5.405   3.083  -3.342  0.00  0.00     0.000 C 
BRANCH  32  33
ATOM     33  C   UNL d   1      -6.046   2.006  -4.207  0.00  0.00     0.000 C 
BRANCH  33  34
ATOM     34  C   UNL d   1      -6.871   2.648  -5.311  0.00  0.00     0.000 C 
BRANCH  34  35
ATOM     35  C   UNL d   1      -7.519   1.585  -6.184  0.00  0.00     0.000 C 
BRANCH  35  36
ATOM     36  C   UNL d   1      -8.342   2.239  -7.285  0.00  0.00     0.000 C 
BRANCH  36  37
ATOM     37  C   UNL d   1      -8.992   1.179  -8.162  0.00  0.00     0.000 C 
BRANCH  37  38
ATOM     38  C   UNL d   1      -9.816   1.832  -9.264  0.00  0.00    -0.000 C 
BRANCH  38  39
ATOM     39  C   UNL d   1     -10.471   0.778 -10.148  0.00  0.00    -0.005 C 
ATOM     40  C   UNL d   1     -11.290   1.431 -11.246  0.00  0.00     0.005 C 
ENDBRANCH  38  39
ENDBRANCH  37  38
ENDBRANCH  36  37
ENDBRANCH  35  36
ENDBRANCH  34  35
ENDBRANCH  33  34
ENDBRANCH  32  33
ENDBRANCH  31  32
ENDBRANCH  30  31
ENDBRANCH  29  30
ENDBRANCH  27  29
ENDBRANCH  25  27
ENDBRANCH  23  25
ENDBRANCH   1  23
TORSDOF 26
