REMARK  4 active torsions:
REMARK  status: ('A' for Active; 'I' for Inactive)
REMARK    1  A    between atoms: S_2  and  C_1 
REMARK    2  A    between atoms: N_7  and  S_2 
REMARK    3  A    between atoms: C_15  and  N_7 
REMARK    4  A    between atoms: C_14  and  C_15 
ROOT
ATOM      1  N   UNL d   1       1.078  -3.787   1.388  0.00  0.00    -0.213 NA
ATOM      2  H   UNL d   1       1.277  -4.788   1.301  0.00  0.00     0.140 HD
ENDROOT
BRANCH   1   3
ATOM      3  S   UNL d   1       1.411  -2.968  -0.047  0.00  0.00     0.243 S 
ATOM      4  O   UNL d   1       1.150  -1.561   0.162  0.00  0.00    -0.206 OA
ATOM      5  O   UNL d   1       0.826  -3.712  -1.135  0.00  0.00    -0.206 OA
BRANCH   3   6
ATOM      6  C   UNL d   1       3.109  -3.057  -0.334  0.00  0.00     0.105 A 
ATOM      7  C   UNL d   1       3.812  -4.223  -0.508  0.00  0.00     0.099 A 
ATOM      8  S   UNL d   1       5.477  -3.965  -0.742  0.00  0.00    -0.064 SA
ATOM      9 CL   UNL d   1       3.239  -5.845  -0.487  0.00  0.00    -0.075 Cl
ATOM     10  C   UNL d   1       5.273  -2.291  -0.590  0.00  0.00     0.077 A 
ATOM     11  C   UNL d   1       3.972  -1.914  -0.379  0.00  0.00     0.058 A 
ATOM     12 CL   UNL d   1       6.636  -1.253  -0.694  0.00  0.00    -0.076 Cl
ENDBRANCH   3   6
ENDBRANCH   1   3
BRANCH   1  13
ATOM     13  C   UNL d   1       1.625  -3.175   2.622  0.00  0.00     0.139 C 
BRANCH  13  14
ATOM     14  C   UNL d   1       1.288  -4.056   3.838  0.00  0.00     0.167 C 
ATOM     15  O   UNL d   1       1.855  -5.370   3.667  0.00  0.00    -0.340 OA
ATOM     16  C   UNL d   1       3.173  -5.432   4.038  0.00  0.00     0.102 A 
ATOM     17  C   UNL d   1       3.873  -6.577   3.664  0.00  0.00     0.039 A 
ATOM     18  C   UNL d   1       3.825  -4.407   4.732  0.00  0.00     0.102 A 
ATOM     19  C   UNL d   1       5.235  -6.680   3.948  0.00  0.00     0.003 A 
ATOM     20  C   UNL d   1       5.895  -5.640   4.604  0.00  0.00     0.003 A 
ATOM     21  C   UNL d   1       5.189  -4.502   4.997  0.00  0.00     0.039 A 
ATOM     22  O   UNL d   1       3.191  -3.265   5.149  0.00  0.00    -0.346 OA
ATOM     23  C   UNL d   1       1.768  -3.434   5.147  0.00  0.00     0.209 C 
ENDBRANCH  13  14
ENDBRANCH   1  13
TORSDOF 4
