REMARK  3 active torsions:
REMARK  status: ('A' for Active; 'I' for Inactive)
REMARK    1  A    between atoms: C_8  and  C_3 
REMARK    2  A    between atoms: O_9  and  C_8 
REMARK    3  A    between atoms: C_11  and  O_9 
ROOT
ATOM      1  N   UNL d   1      -0.745  -0.566  -0.756  0.00  0.00    -0.314 N 
ATOM      2  C   UNL d   1       0.103   0.463  -0.433  0.00  0.00     0.194 A 
ATOM      3  C   UNL d   1      -1.796  -0.437   0.088  0.00  0.00     0.124 A 
ATOM      4  N   UNL d   1      -1.706   0.572   0.913  0.00  0.00    -0.285 N 
ATOM      5  HN  UNL d   1      -2.377   0.861   1.626  1.00  0.00     0.188 HD
ATOM      6  N   UNL d   1      -0.511   1.150   0.603  0.00  0.00    -0.275 N 
ATOM      7  S   UNL d   1       1.564   0.895  -1.082  0.00  0.00    -0.039 SA
ATOM      8  C   UNL d   1      -0.569  -1.580  -1.780  0.00  0.00     0.160 C 
ATOM      9  H   UNL d   1      -0.164   1.974   1.080  0.00  0.00     0.189 HD
ENDROOT
BRANCH   3  10
ATOM     10  C   UNL d   1      -3.002  -1.349   0.050  0.00  0.00     0.253 C 
BRANCH  10  11
ATOM     11  O   UNL d   1      -2.616  -2.692   0.306  0.00  0.00    -0.344 OA
BRANCH  11  12
ATOM     12  C   UNL d   1      -3.616  -3.628   0.312  0.00  0.00     0.069 A 
ATOM     13  C   UNL d   1      -4.979  -3.376   0.131  0.00  0.00     0.037 A 
ATOM     14  C   UNL d   1      -5.898  -4.430   0.154  0.00  0.00     0.003 A 
ATOM     15  C   UNL d   1      -5.464  -5.738   0.358  0.00  0.00     0.000 A 
ATOM     16  C   UNL d   1      -4.107  -5.995   0.544  0.00  0.00     0.003 A 
ATOM     17  C   UNL d   1      -3.190  -4.942   0.522  0.00  0.00     0.037 A 
ENDBRANCH  11  12
ENDBRANCH  10  11
ENDBRANCH   3  10
TORSDOF 3
