REMARK  6 active torsions:
REMARK  status: ('A' for Active; 'I' for Inactive)
REMARK    1  A    between atoms: C_8  and  C_3 
REMARK    2  A    between atoms: C_9  and  C_4 
REMARK    3  A    between atoms: C_14  and  N_5 
REMARK    4  A    between atoms: C_10  and  C_6 
REMARK    5  A    between atoms: O_19  and  C_10 
REMARK    6  A    between atoms: C_22  and  O_19 
ROOT
ATOM      1  C   UNL d   1      -1.641   2.231  -1.010  0.00  0.00     0.120 C 
ATOM      2  C   UNL d   1      -0.998   2.739   0.060  0.00  0.00     0.044 C 
ATOM      3  C   UNL d   1      -1.345   2.618  -2.346  0.00  0.00     0.105 C 
ATOM      4  N   UNL d   1      -1.098   2.940  -3.435  0.00  0.00    -0.191 NA
ENDROOT
BRANCH   1   5
ATOM      5  C   UNL d   1      -2.604   1.135  -0.750  0.00  0.00     0.303 C 
ATOM      6  O   UNL d   1      -2.888   0.720   0.366  0.00  0.00    -0.258 OA
BRANCH   5   7
ATOM      7  O   UNL d   1      -3.031   0.597  -1.919  0.00  0.00    -0.317 OA
BRANCH   7   8
ATOM      8  C   UNL d   1      -3.608  -0.714  -1.834  0.00  0.00     0.174 C 
ATOM      9  C   UNL d   1      -2.492  -1.729  -1.999  0.00  0.00     0.034 C 
ENDBRANCH   7   8
ENDBRANCH   5   7
ENDBRANCH   1   5
BRANCH   2  10
ATOM     10  C   UNL d   1       0.078   3.669   0.018  0.00  0.00     0.013 A 
ATOM     11  C   UNL d   1       1.478   3.452  -0.037  0.00  0.00     0.077 A 
ATOM     12  N   UNL d   1       2.140   4.619  -0.038  0.00  0.00    -0.292 N 
ATOM     13  N   UNL d   1       1.182   5.582   0.022  0.00  0.00    -0.266 N 
ATOM     14  HN  UNL d   1       3.150   4.755  -0.076  1.00  0.00     0.187 HD
ATOM     15  C   UNL d   1      -0.081   5.031   0.068  0.00  0.00     0.130 A 
BRANCH  11  16
ATOM     16  C   UNL d   1       2.215   2.133  -0.081  0.00  0.00     0.033 A 
ATOM     17  S   UNL d   1       1.477   0.588  -0.096  0.00  0.00    -0.100 SA
ATOM     18  C   UNL d   1       2.980  -0.218  -0.131  0.00  0.00     0.050 A 
ATOM     19  C   UNL d   1       4.034   0.666  -0.133  0.00  0.00     0.008 A 
ATOM     20  C   UNL d   1       3.592   2.023  -0.109  0.00  0.00     0.021 A 
ENDBRANCH  11  16
BRANCH  13  21
ATOM     21  C   UNL d   1       1.521   6.966   0.043  0.00  0.00     0.056 A 
ATOM     22  C   UNL d   1       2.866   7.356  -0.041  0.00  0.00     0.031 A 
ATOM     23  C   UNL d   1       3.208   8.712  -0.031  0.00  0.00     0.002 A 
ATOM     24  C   UNL d   1       2.215   9.684   0.066  0.00  0.00     0.000 A 
ATOM     25  C   UNL d   1       0.877   9.306   0.155  0.00  0.00     0.002 A 
ATOM     26  C   UNL d   1       0.528   7.952   0.142  0.00  0.00     0.031 A 
ENDBRANCH  13  21
ENDBRANCH   2  10
TORSDOF 6
