REMARK  1 active torsions:
REMARK  status: ('A' for Active; 'I' for Inactive)
REMARK    1  A    between atoms: O_20  and  C_10 
ROOT
ATOM      1  C   UNL d   1      -0.660  -1.410  -1.056  0.00  0.00    -0.016 C 
ATOM      2  C   UNL d   1       1.712   1.432   1.470  0.00  0.00    -0.009 C 
ATOM      3  C   UNL d   1      -2.124  -0.985  -1.179  0.00  0.00    -0.068 C 
ATOM      4  C   UNL d   1       0.099  -0.397  -0.126  0.00  0.00     0.002 C 
ATOM      5  C   UNL d   1       0.648   2.067   0.513  0.00  0.00     0.001 C 
ATOM      6  C   UNL d   1      -0.172   1.099  -0.408  0.00  0.00    -0.004 C 
ATOM      7  C   UNL d   1      -3.159  -1.820  -1.008  0.00  0.00     0.054 C 
ATOM      8  C   UNL d   1      -0.559  -2.811  -0.376  0.00  0.00     0.026 C 
ATOM      9  C   UNL d   1      -2.975  -3.271  -0.756  0.00  0.00     0.153 C 
ATOM     10  C   UNL d   1       1.014   1.516   2.873  0.00  0.00     0.062 C 
ATOM     11  C   UNL d   1       2.225   0.015   1.133  0.00  0.00     0.013 C 
ATOM     12  C   UNL d   1       1.613  -0.611  -0.105  0.00  0.00     0.007 C 
ATOM     13  C   UNL d   1      -1.574  -3.839  -0.871  0.00  0.00     0.056 C 
ATOM     14  C   UNL d   1      -1.679   1.380  -0.491  0.00  0.00     0.010 C 
ATOM     15  C   UNL d   1      -0.133   3.068   1.415  0.00  0.00     0.009 C 
ATOM     16  C   UNL d   1      -2.368   0.468  -1.503  0.00  0.00     0.035 C 
ATOM     17  C   UNL d   1       0.399   2.915   2.844  0.00  0.00     0.038 C 
ATOM     18  O   UNL d   1      -3.967  -3.962  -0.535  0.00  0.00    -0.293 OA
ATOM     19  C   UNL d   1      -0.040  -1.480  -2.468  0.00  0.00     0.020 C 
ATOM     20  C   UNL d   1       2.975   2.351   1.425  0.00  0.00     0.018 C 
ATOM     21  C   UNL d   1      -0.105   0.504   3.171  0.00  0.00     0.046 C 
ATOM     22  C   UNL d   1      -1.439  -5.123  -0.051  0.00  0.00     0.018 C 
ENDROOT
BRANCH  10  23
ATOM     23  O   UNL d   1       1.961   1.422   3.930  0.00  0.00    -0.389 OA
ATOM     24  H   UNL d   1       2.221   0.486   4.014  0.00  0.00     0.210 HD
ENDBRANCH  10  23
TORSDOF 1
