REMARK  4 active torsions:
REMARK  status: ('A' for Active; 'I' for Inactive)
REMARK    1  A    between atoms: C_12  and  C_1 
REMARK    2  A    between atoms: O_7  and  C_3 
REMARK    3  A    between atoms: C_8  and  O_7 
REMARK    4  A    between atoms: C_9  and  C_8 
ROOT
ATOM      1  C   UNL d   1      -1.300   2.537  -0.050  0.00  0.00     0.077 A 
ATOM      2  C   UNL d   1       0.192   2.428   0.086  0.00  0.00     0.262 A 
ATOM      3  C   UNL d   1      -2.044   1.419  -0.126  0.00  0.00     0.108 A 
ATOM      4  N   UNL d   1       0.771   1.170   0.013  0.00  0.00    -0.312 N 
ATOM      5  C   UNL d   1      -1.410   0.084  -0.107  0.00  0.00     0.026 A 
ATOM      6  C   UNL d   1      -0.004  -0.012  -0.036  0.00  0.00     0.057 A 
ATOM      7  O   UNL d   1       0.872   3.450   0.225  0.00  0.00    -0.267 OA
ATOM      8  C   UNL d   1       0.619  -1.270  -0.001  0.00  0.00    -0.030 A 
ATOM      9  C   UNL d   1       2.215   1.121   0.150  0.00  0.00     0.133 C 
ATOM     10  C   UNL d   1      -2.171  -1.096  -0.146  0.00  0.00     0.017 A 
ATOM     11  C   UNL d   1       2.900  -0.187  -0.194  0.00  0.00     0.025 C 
ATOM     12  C   UNL d   1      -1.554  -2.345  -0.106  0.00  0.00     0.002 A 
ATOM     13  C   UNL d   1      -0.169  -2.431  -0.032  0.00  0.00     0.009 A 
ATOM     14  C   UNL d   1       2.104  -1.426   0.157  0.00  0.00     0.042 C 
ENDROOT
BRANCH   3  15
ATOM     15  O   UNL d   1      -3.435   1.462  -0.373  0.00  0.00    -0.273 OA
BRANCH  15  16
ATOM     16  C   UNL d   1      -4.255   1.365   0.729  0.00  0.00     0.305 C 
ATOM     17  O   UNL d   1      -3.865   1.264   1.889  0.00  0.00    -0.258 OA
BRANCH  16  18
ATOM     18  C   UNL d   1      -5.660   1.352   0.334  0.00  0.00     0.080 A 
ATOM     19  S   UNL d   1      -6.158   1.407  -1.309  0.00  0.00    -0.096 SA
ATOM     20  C   UNL d   1      -7.820   1.356  -0.894  0.00  0.00     0.050 A 
ATOM     21  C   UNL d   1      -8.002   1.286   0.471  0.00  0.00     0.009 A 
ATOM     22  C   UNL d   1      -6.761   1.278   1.175  0.00  0.00     0.025 A 
ENDBRANCH  16  18
ENDBRANCH  15  16
ENDBRANCH   3  15
BRANCH   1  23
ATOM     23  C   UNL d   1      -1.870   3.894  -0.130  0.00  0.00    -0.018 A 
ATOM     24  C   UNL d   1      -2.226   4.583   1.036  0.00  0.00     0.012 A 
ATOM     25  C   UNL d   1      -2.539   5.943   0.980  0.00  0.00     0.001 A 
ATOM     26  C   UNL d   1      -2.511   6.614  -0.241  0.00  0.00     0.000 A 
ATOM     27  C   UNL d   1      -2.194   5.928  -1.411  0.00  0.00     0.001 A 
ATOM     28  C   UNL d   1      -1.876   4.571  -1.357  0.00  0.00     0.012 A 
ENDBRANCH   1  23
TORSDOF 4
