REMARK  5 active torsions:
REMARK  status: ('A' for Active; 'I' for Inactive)
REMARK    1  A    between atoms: C_9  and  C_1 
REMARK    2  A    between atoms: N_14  and  C_3 
REMARK    3  A    between atoms: C_12  and  C_6 
REMARK       I    between atoms: N_18  and  C_9 
REMARK    4  A    between atoms: C_19  and  C_10 
REMARK    5  A    between atoms: N_21  and  N_18 
ROOT
ATOM      1  C   UNL d   1       2.381   0.090   0.055  0.00  0.00     0.173 A 
ATOM      2  C   UNL d   1       0.260   0.891   0.043  0.00  0.00     0.056 A 
ATOM      3  C   UNL d   1       1.637   1.250   0.139  0.00  0.00     0.081 A 
ATOM      4  C   UNL d   1       0.263  -0.505   0.017  0.00  0.00     0.162 A 
ATOM      5  O   UNL d   1       1.538  -0.985   0.015  0.00  0.00    -0.285 OA
ATOM      6  C   UNL d   1      -1.007   1.516  -0.013  0.00  0.00    -0.000 A 
ATOM      7  N   UNL d   1      -0.796  -1.331  -0.023  0.00  0.00    -0.335 N 
ATOM      8  HN  UNL d   1      -0.702  -2.347  -0.023  1.00  0.00     0.168 HD
ATOM      9  C   UNL d   1      -1.995  -0.711  -0.062  0.00  0.00     0.045 A 
ATOM     10  C   UNL d   1      -2.134   0.679  -0.047  0.00  0.00     0.044 A 
ENDROOT
BRANCH   1  11
ATOM     11  C   UNL d   1       3.811  -0.129  -0.010  0.00  0.00     0.291 C 
ATOM     12  O   UNL d   1       4.646   0.778  -0.077  0.00  0.00    -0.264 OA
ATOM     13  N   UNL d   1       4.189  -1.466  -0.017  0.00  0.00    -0.288 N 
ATOM     14  H   UNL d   1       3.469  -2.179   0.119  0.00  0.00     0.183 HD
BRANCH  13  15
ATOM     15  N   UNL d   1       5.557  -1.829  -0.027  0.00  0.00    -0.247 NA
ATOM     16  H   UNL d   1       6.096  -0.957   0.083  0.00  0.00     0.143 HD
ATOM     17  H   UNL d   1       5.790  -2.151  -0.969  0.00  0.00     0.143 HD
ENDBRANCH  13  15
ENDBRANCH   1  11
BRANCH   3  18
ATOM     18  N   UNL d   1       2.163   2.483   0.274  0.00  0.00    -0.396 N 
ATOM     19  H   UNL d   1       1.594   3.321   0.174  0.00  0.00     0.156 HD
ATOM     20  H   UNL d   1       3.160   2.649   0.125  0.00  0.00     0.156 HD
ENDBRANCH   3  18
BRANCH   6  21
ATOM     21  C   UNL d   1      -1.168   2.975  -0.024  0.00  0.00     0.016 C 
ATOM     22  S   UNL d   1      -0.236   3.974  -1.070  0.00  0.00    -0.101 SA
ATOM     23  C   UNL d   1      -0.872   5.407  -0.397  0.00  0.00     0.050 C 
ATOM     24  C   UNL d   1      -1.914   5.144   0.461  0.00  0.00     0.008 C 
ATOM     25  C   UNL d   1      -2.102   3.743   0.654  0.00  0.00     0.020 C 
ENDBRANCH   6  21
BRANCH   9  26
ATOM     26  C   UNL d   1      -3.170  -1.609  -0.157  0.00  0.00    -0.009 A 
ATOM     27  C   UNL d   1      -3.191  -2.851   0.506  0.00  0.00     0.013 A 
ATOM     28  C   UNL d   1      -4.290  -3.711   0.405  0.00  0.00     0.001 A 
ATOM     29  C   UNL d   1      -5.390  -3.349  -0.365  0.00  0.00     0.000 A 
ATOM     30  C   UNL d   1      -5.396  -2.127  -1.032  0.00  0.00     0.001 A 
ATOM     31  C   UNL d   1      -4.297  -1.270  -0.929  0.00  0.00     0.013 A 
ENDBRANCH   9  26
TORSDOF 5
