REMARK  10 active torsions:
REMARK  status: ('A' for Active; 'I' for Inactive)
REMARK    1  A    between atoms: C_9  and  C_1 
REMARK    2  A    between atoms: N_6  and  C_2 
REMARK    3  A    between atoms: C_7  and  N_6 
REMARK    4  A    between atoms: N_12  and  C_7 
REMARK    5  A    between atoms: C_10  and  C_8 
REMARK    6  A    between atoms: O_17  and  C_9 
REMARK    7  A    between atoms: O_18  and  C_10 
REMARK    8  A    between atoms: C_19  and  N_12 
REMARK    9  A    between atoms: C_21  and  O_17 
REMARK   10  A    between atoms: C_20  and  O_18 
ROOT
ATOM      1  C   UNL d   1       1.134  -1.329  -0.291  0.00  0.00     0.081 C 
ATOM      2  C   UNL d   1       2.057  -0.298  -0.097  0.00  0.00     0.093 C 
ATOM      3  C   UNL d   1      -0.207  -0.774  -0.125  0.00  0.00    -0.012 C 
ATOM      4  C   UNL d   1      -0.175   0.581   0.077  0.00  0.00    -0.007 C 
ATOM      5  S   UNL d   1       1.324   1.265   0.004  0.00  0.00    -0.075 SA
ATOM      6  C   UNL d   1      -1.649  -1.226  -0.126  0.00  0.00     0.121 C 
ATOM      7  C   UNL d   1      -2.433   0.152  -0.202  0.00  0.00     0.024 C 
ATOM      8  C   UNL d   1      -1.470   1.260   0.250  0.00  0.00     0.048 C 
ENDROOT
BRANCH   2   9
ATOM      9  N   UNL d   1       3.397  -0.040   0.065  0.00  0.00    -0.327 N 
ATOM     10  H   UNL d   1       3.567   0.961   0.052  0.00  0.00     0.169 HD
BRANCH   9  11
ATOM     11  C   UNL d   1       4.459  -0.739   0.586  0.00  0.00     0.177 C 
ATOM     12  S   UNL d   1       4.739  -2.373   0.637  0.00  0.00    -0.040 SA
BRANCH  11  13
ATOM     13  N   UNL d   1       5.445   0.133   1.061  0.00  0.00    -0.333 N 
ATOM     14  H   UNL d   1       6.403  -0.192   1.022  0.00  0.00     0.168 HD
BRANCH  13  15
ATOM     15  C   UNL d   1       5.203   1.359   1.742  0.00  0.00     0.034 A 
ATOM     16  C   UNL d   1       4.044   1.543   2.510  0.00  0.00     0.029 A 
ATOM     17  C   UNL d   1       3.778   2.767   3.123  0.00  0.00     0.002 A 
ATOM     18  C   UNL d   1       4.677   3.820   2.981  0.00  0.00     0.000 A 
ATOM     19  C   UNL d   1       5.851   3.634   2.253  0.00  0.00     0.002 A 
ATOM     20  C   UNL d   1       6.130   2.399   1.653  0.00  0.00     0.029 A 
ENDBRANCH  13  15
ENDBRANCH  11  13
ENDBRANCH   9  11
ENDBRANCH   2   9
BRANCH   1  21
ATOM     21  C   UNL d   1       1.475  -2.683  -0.736  0.00  0.00     0.296 C 
ATOM     22  O   UNL d   1       2.376  -2.900  -1.543  0.00  0.00    -0.259 OA
BRANCH  21  23
ATOM     23  O   UNL d   1       0.622  -3.653  -0.277  0.00  0.00    -0.318 OA
BRANCH  23  24
ATOM     24  C   UNL d   1       0.661  -4.898  -1.008  0.00  0.00     0.174 C 
ATOM     25  C   UNL d   1       1.378  -6.000  -0.246  0.00  0.00     0.034 C 
ENDBRANCH  23  24
ENDBRANCH  21  23
ENDBRANCH   1  21
BRANCH   6  26
ATOM     26  C   UNL d   1      -2.128  -2.074  -1.284  0.00  0.00     0.267 C 
ATOM     27  O   UNL d   1      -1.431  -2.611  -2.133  0.00  0.00    -0.265 OA
BRANCH  26  28
ATOM     28  O   UNL d   1      -3.497  -2.145  -1.235  0.00  0.00    -0.321 OA
BRANCH  28  29
ATOM     29  C   UNL d   1      -4.155  -2.824  -2.313  0.00  0.00     0.174 C 
ATOM     30  C   UNL d   1      -4.354  -1.888  -3.493  0.00  0.00     0.034 C 
ENDBRANCH  28  29
ENDBRANCH  26  28
ENDBRANCH   6  26
TORSDOF 10
