REMARK  3 active torsions:
REMARK  status: ('A' for Active; 'I' for Inactive)
REMARK    1  A    between atoms: C_2  and  S_1 
REMARK    2  A    between atoms: C_4  and  S_1 
REMARK    3  A    between atoms: N_13  and  C_5 
ROOT
ATOM      1  C   UNL d   1       0.301  -0.287  -1.611  0.00  0.00     0.066 A 
ATOM      2  C   UNL d   1       1.067  -0.935  -2.588  0.00  0.00     0.048 A 
ATOM      3  C   UNL d   1       0.604  -1.020  -3.905  0.00  0.00     0.029 A 
ATOM      4  C   UNL d   1      -0.677  -0.511  -4.200  0.00  0.00     0.055 A 
ATOM      5  C   UNL d   1      -0.941   0.271  -1.927  0.00  0.00     0.025 A 
ATOM      6  C   UNL d   1      -1.434   0.146  -3.225  0.00  0.00     0.027 A 
ATOM      7 CL   UNL d   1      -1.331  -0.642  -5.796  0.00  0.00    -0.082 Cl
ENDROOT
BRANCH   1   8
ATOM      8  S   UNL d   1       0.962  -0.087   0.030  0.00  0.00     0.206 S 
ATOM      9  O   UNL d   1       0.339   1.095   0.598  0.00  0.00    -0.217 OA
ATOM     10  O   UNL d   1       2.408  -0.161  -0.081  0.00  0.00    -0.217 OA
BRANCH   8  11
ATOM     11  C   UNL d   1       0.425  -1.484   0.988  0.00  0.00     0.064 A 
ATOM     12  C   UNL d   1       1.253  -2.603   1.107  0.00  0.00     0.024 A 
ATOM     13  C   UNL d   1       0.854  -3.671   1.913  0.00  0.00     0.008 A 
ATOM     14  C   UNL d   1      -0.360  -3.622   2.612  0.00  0.00    -0.062 A 
ATOM     15  C   UNL d   1      -1.177  -2.490   2.489  0.00  0.00     0.008 A 
ATOM     16  C   UNL d   1      -0.769  -4.775   3.482  0.00  0.00     0.048 C 
ATOM     17  C   UNL d   1      -0.785  -1.418   1.683  0.00  0.00     0.024 A 
ENDBRANCH   8  11
ENDBRANCH   1   8
BRANCH   3  18
ATOM     18  N   UNL d   1       1.327  -1.791  -4.834  0.00  0.00    -0.301 NA
ATOM     19  H   UNL d   1       2.333  -1.776  -4.699  0.00  0.00     0.124 HD
ATOM     20  H   UNL d   1       1.060  -1.593  -5.797  0.00  0.00     0.124 HD
ENDBRANCH   3  18
TORSDOF 3
