REMARK  2 active torsions:
REMARK  status: ('A' for Active; 'I' for Inactive)
REMARK    1  A    between atoms: C_6  and  C_1 
REMARK    2  A    between atoms: N_13  and  C_10 
ROOT
ATOM      1  C   UNL d   1      -0.514  -2.614  -0.129  0.00  0.00     0.072 A 
ATOM      2  N   UNL d   1       0.465  -3.543  -0.084  0.00  0.00    -0.331 N 
ATOM      3  HN  UNL d   1       1.438  -3.281   0.074  1.00  0.00     0.168 HD
ATOM      4  C   UNL d   1       0.108  -4.813  -0.254  0.00  0.00     0.155 A 
ATOM      5  N   UNL d   1      -1.147  -5.232  -0.420  0.00  0.00    -0.343 N 
ATOM      6  HN  UNL d   1      -1.373  -6.221  -0.523  1.00  0.00     0.167 HD
ATOM      7  C   UNL d   1      -1.840  -2.939  -0.301  0.00  0.00     0.049 A 
ATOM      8  C   UNL d   1      -2.099  -4.281  -0.444  0.00  0.00     0.093 A 
ENDROOT
BRANCH   1   9
ATOM      9  C   UNL d   1      -0.030  -1.247  -0.022  0.00  0.00     0.126 A 
ATOM     10  C   UNL d   1       1.225  -0.673   0.060  0.00  0.00     0.043 A 
ATOM     11  N   UNL d   1       1.113   0.697   0.106  0.00  0.00    -0.342 N 
ATOM     12  C   UNL d   1       2.549  -1.331   0.070  0.00  0.00     0.071 C 
ATOM     13  C   UNL d   1      -0.184   0.911   0.042  0.00  0.00     0.120 A 
ATOM     14  HN  UNL d   1       1.861   1.387   0.174  1.00  0.00     0.167 HD
ATOM     15  O   UNL d   1      -0.948  -0.224  -0.030  0.00  0.00    -0.294 OA
ATOM     16  C   UNL d   1      -0.888   2.208   0.013  0.00  0.00     0.098 C 
ENDBRANCH   1   9
BRANCH   4  17
ATOM     17  N   UNL d   1       1.112  -5.758  -0.226  0.00  0.00    -0.274 NA
ATOM     18  H   UNL d   1       1.891  -5.421   0.318  0.00  0.00     0.127 HD
ATOM     19  H   UNL d   1       0.730  -6.663   0.011  0.00  0.00     0.127 HD
ENDBRANCH   4  17
TORSDOF 2
