REMARK  3 active torsions:
REMARK  status: ('A' for Active; 'I' for Inactive)
REMARK       I    between atoms: N_2  and  C_1 
REMARK       I    between atoms: N_6  and  C_1 
REMARK    1  A    between atoms: C_4  and  N_2 
REMARK    2  A    between atoms: N_3  and  C_5 
REMARK    3  A    between atoms: C_8  and  N_6 
ROOT
ATOM      1  C   UNL d   1      -0.028  -1.562  -0.075  0.00  0.00     0.325 C 
ATOM      2  N   UNL d   1       0.301  -0.656   0.924  0.00  0.00    -0.307 N 
ATOM      3  N   UNL d   1      -0.653  -0.907  -1.129  0.00  0.00    -0.309 N 
ATOM      4  O   UNL d   1       0.220  -2.758  -0.036  0.00  0.00    -0.247 OA
ATOM      5  H   UNL d   1       0.542   0.254   0.587  0.00  0.00     0.170 HD
ATOM      6  H   UNL d   1      -0.945   0.039  -0.941  0.00  0.00     0.170 HD
ENDROOT
BRANCH   2   7
ATOM      7  C   UNL d   1       0.893  -1.032   2.156  0.00  0.00     0.063 A 
ATOM      8  C   UNL d   1       1.950  -0.279   2.730  0.00  0.00     0.057 A 
ATOM      9  C   UNL d   1       2.469  -0.758   3.956  0.00  0.00     0.031 A 
ATOM     10  C   UNL d   1       1.980  -1.902   4.592  0.00  0.00     0.002 A 
ATOM     11  C   UNL d   1       0.946  -2.618   4.014  0.00  0.00     0.002 A 
ATOM     12  C   UNL d   1       0.409  -2.186   2.804  0.00  0.00     0.032 A 
BRANCH   8  13
ATOM     13  N   UNL d   1       2.555   0.842   2.169  0.00  0.00    -0.379 N 
ATOM     14  C   UNL d   1       1.838   1.933   1.523  0.00  0.00     0.123 C 
ATOM     15  C   UNL d   1       2.361   3.276   2.028  0.00  0.00     0.020 C 
ATOM     16  C   UNL d   1       3.881   3.382   1.940  0.00  0.00     0.003 C 
ATOM     17  C   UNL d   1       4.555   2.181   2.601  0.00  0.00     0.020 C 
ATOM     18  C   UNL d   1       4.017   0.869   2.029  0.00  0.00     0.123 C 
ENDBRANCH   8  13
ENDBRANCH   2   7
BRANCH   3  19
ATOM     19  C   UNL d   1      -1.065  -1.461  -2.363  0.00  0.00     0.037 A 
ATOM     20  C   UNL d   1      -0.781  -2.775  -2.759  0.00  0.00     0.053 A 
ATOM     21  C   UNL d   1      -1.228  -3.245  -3.994  0.00  0.00     0.036 A 
ATOM     22 CL   UNL d   1      -0.884  -4.862  -4.473  0.00  0.00    -0.084 Cl
ATOM     23  C   UNL d   1      -1.946  -2.414  -4.848  0.00  0.00     0.024 A 
ATOM     24  C   UNL d   1      -2.225  -1.106  -4.468  0.00  0.00     0.004 A 
ATOM     25  C   UNL d   1      -1.784  -0.630  -3.224  0.00  0.00     0.029 A 
ENDBRANCH   3  19
TORSDOF 3
