REMARK  6 active torsions:
REMARK  status: ('A' for Active; 'I' for Inactive)
REMARK    1  A    between atoms: C_2  and  C_1 
REMARK    2  A    between atoms: C_7  and  C_1 
REMARK    3  A    between atoms: S_4  and  C_2 
REMARK    4  A    between atoms: C_3  and  C_5 
REMARK    5  A    between atoms: C_11  and  S_4 
REMARK    6  A    between atoms: C_8  and  C_6 
ROOT
ATOM      1  C   UNL d   1       0.065   1.042  -0.798  0.00  0.00     0.226 C 
ATOM      2  O   UNL d   1       0.379   1.452  -1.912  0.00  0.00    -0.279 OA
ENDROOT
BRANCH   1   3
ATOM      3  C   UNL d   1       1.016   0.200   0.041  0.00  0.00     0.033 C 
ATOM      4  C   UNL d   1       0.625  -0.859   0.790  0.00  0.00     0.035 C 
BRANCH   4   5
ATOM      5  C   UNL d   1      -0.666  -1.435   0.926  0.00  0.00     0.005 A 
ATOM      6  S   UNL d   1      -1.544  -1.211   2.392  0.00  0.00    -0.102 SA
ATOM      7  C   UNL d   1      -2.805  -2.244   1.883  0.00  0.00     0.050 A 
ATOM      8  C   UNL d   1      -2.552  -2.796   0.649  0.00  0.00     0.008 A 
ATOM      9  C   UNL d   1      -1.318  -2.334   0.101  0.00  0.00     0.019 A 
ENDBRANCH   4   5
BRANCH   3  10
ATOM     10  C   UNL d   1       2.446   0.540  -0.036  0.00  0.00    -0.014 A 
ATOM     11  C   UNL d   1       2.952   1.683  -0.634  0.00  0.00     0.061 A 
ATOM     12  S   UNL d   1       4.661   1.785  -0.580  0.00  0.00    -0.113 SA
ATOM     13  C   UNL d   1       4.772   0.310   0.264  0.00  0.00     0.050 A 
ATOM     14  C   UNL d   1       3.534  -0.248   0.488  0.00  0.00     0.020 A 
ENDBRANCH   3  10
ENDBRANCH   1   3
BRANCH   1  15
ATOM     15  S   UNL d   1      -1.409   1.629  -0.034  0.00  0.00    -0.029 SA
BRANCH  15  16
ATOM     16  C   UNL d   1      -2.607   0.670  -0.935  0.00  0.00     0.077 A 
ATOM     17  N   UNL d   1      -2.191   0.004  -2.035  0.00  0.00    -0.359 N 
ATOM     18  C   UNL d   1      -3.039  -0.855  -2.627  0.00  0.00     0.105 A 
ATOM     19  HN  UNL d   1      -1.253   0.150  -2.407  1.00  0.00     0.166 HD
ATOM     20  C   UNL d   1      -4.314  -1.115  -2.160  0.00  0.00     0.063 A 
ATOM     21  C   UNL d   1      -4.761  -0.372  -1.064  0.00  0.00     0.020 A 
ATOM     22  C   UNL d   1      -3.899   0.534  -0.443  0.00  0.00     0.038 A 
BRANCH  20  23
ATOM     23  C   UNL d   1      -5.144  -2.175  -2.811  0.00  0.00     0.418 C 
ATOM     24  F   UNL d   1      -4.402  -3.092  -3.491  0.00  0.00    -0.166 F 
ATOM     25  F   UNL d   1      -5.879  -2.890  -1.914  0.00  0.00    -0.166 F 
ATOM     26  F   UNL d   1      -6.032  -1.672  -3.704  0.00  0.00    -0.166 F 
ENDBRANCH  20  23
ENDBRANCH  15  16
ENDBRANCH   1  15
TORSDOF 6
