REMARK  7 active torsions:
REMARK  status: ('A' for Active; 'I' for Inactive)
REMARK    1  A    between atoms: S_9  and  C_3 
REMARK    2  A    between atoms: C_7  and  C_4 
REMARK    3  A    between atoms: N_10  and  C_5 
REMARK    4  A    between atoms: C_8  and  N_6 
REMARK    5  A    between atoms: O_17  and  C_7 
REMARK    6  A    between atoms: C_18  and  C_12 
REMARK    7  A    between atoms: C_20  and  O_17 
ROOT
ATOM      1  N   UNL d   1      -0.260  -1.047   0.151  0.00  0.00    -0.321 N 
ATOM      2  HN  UNL d   1      -0.546  -2.025   0.197  1.00  0.00     0.169 HD
ATOM      3  C   UNL d   1       0.960  -0.565   0.168  0.00  0.00     0.153 A 
ATOM      4  C   UNL d   1      -0.356   1.230   0.026  0.00  0.00     0.161 A 
ATOM      5  C   UNL d   1      -1.054   0.043   0.059  0.00  0.00     0.135 A 
ATOM      6  N   UNL d   1       0.986   0.829   0.030  0.00  0.00    -0.283 N 
ENDROOT
BRANCH   6   7
ATOM      7  C   UNL d   1       2.144   1.660  -0.050  0.00  0.00     0.042 A 
ATOM      8  C   UNL d   1       3.257   1.237  -0.786  0.00  0.00     0.030 A 
ATOM      9  C   UNL d   1       4.416   2.013  -0.831  0.00  0.00     0.010 A 
ATOM     10  C   UNL d   1       4.477   3.248  -0.174  0.00  0.00    -0.055 A 
ATOM     11  C   UNL d   1       3.350   3.683   0.535  0.00  0.00     0.010 A 
ATOM     12  C   UNL d   1       2.197   2.893   0.609  0.00  0.00     0.030 A 
BRANCH  10  13
ATOM     13  C   UNL d   1       5.732   4.098  -0.213  0.00  0.00     0.010 C 
ATOM     14  C   UNL d   1       6.887   3.399   0.509  0.00  0.00     0.015 C 
ATOM     15  C   UNL d   1       6.121   4.462  -1.648  0.00  0.00     0.015 C 
ENDBRANCH  10  13
ENDBRANCH   6   7
BRANCH   3  16
ATOM     16  S   UNL d   1       2.371  -1.525   0.539  0.00  0.00    -0.098 SA
ATOM     17  C   UNL d   1       1.759  -3.211   0.414  0.00  0.00     0.099 C 
ENDBRANCH   3  16
BRANCH   4  18
ATOM     18  C   UNL d   1      -0.865   2.566  -0.111  0.00  0.00     0.314 C 
ATOM     19  O   UNL d   1      -0.314   3.501  -0.682  0.00  0.00    -0.257 OA
BRANCH  18  20
ATOM     20  O   UNL d   1      -2.067   2.678   0.533  0.00  0.00    -0.317 OA
BRANCH  20  21
ATOM     21  C   UNL d   1      -2.631   3.997   0.590  0.00  0.00     0.175 C 
ATOM     22  C   UNL d   1      -3.333   4.346  -0.709  0.00  0.00     0.034 C 
ENDBRANCH  20  21
ENDBRANCH  18  20
ENDBRANCH   4  18
BRANCH   5  23
ATOM     23  N   UNL d   1      -2.377  -0.123  -0.017  0.00  0.00    -0.383 N 
ATOM     24  H   UNL d   1      -3.013   0.644   0.177  0.00  0.00     0.157 HD
ATOM     25  H   UNL d   1      -2.760  -1.043   0.165  0.00  0.00     0.157 HD
ENDBRANCH   5  23
TORSDOF 7
