REMARK  4 active torsions:
REMARK  status: ('A' for Active; 'I' for Inactive)
REMARK    1  A    between atoms: C_12  and  N_3 
REMARK    2  A    between atoms: O_11  and  C_9 
REMARK    3  A    between atoms: C_16  and  O_11 
REMARK    4  A    between atoms: C_24  and  C_12 
ROOT
ATOM      1  C   UNL d   1      -0.165  -0.856  -0.108  0.00  0.00     0.147 A 
ATOM      2  C   UNL d   1      -0.412   0.485  -0.117  0.00  0.00     0.151 A 
ATOM      3  N   UNL d   1       1.913   0.874  -0.000  0.00  0.00    -0.260 N 
ATOM      4  N   UNL d   1      -1.298  -1.591  -0.128  0.00  0.00    -0.305 N 
ATOM      5  HN  UNL d   1      -1.382  -2.605  -0.192  1.00  0.00     0.171 HD
ATOM      6  N   UNL d   1       1.100  -1.371  -0.015  0.00  0.00    -0.287 N 
ATOM      7  C   UNL d   1       2.178  -0.504   0.106  0.00  0.00     0.333 A 
ATOM      8  C   UNL d   1       0.637   1.451  -0.095  0.00  0.00     0.282 A 
ATOM      9  C   UNL d   1      -2.270  -0.706  -0.049  0.00  0.00     0.233 A 
ATOM     10  N   UNL d   1      -1.783   0.582  -0.107  0.00  0.00    -0.309 N 
ATOM     11  O   UNL d   1       3.316  -0.939   0.316  0.00  0.00    -0.246 OA
ATOM     12  O   UNL d   1       0.435   2.662  -0.133  0.00  0.00    -0.265 OA
ATOM     13  C   UNL d   1       1.335  -2.801   0.039  0.00  0.00     0.163 C 
ATOM     14  C   UNL d   1      -2.599   1.767  -0.042  0.00  0.00     0.160 C 
ENDROOT
BRANCH   9  15
ATOM     15  O   UNL d   1      -3.557  -1.005   0.141  0.00  0.00    -0.279 OA
BRANCH  15  16
ATOM     16  C   UNL d   1      -3.877  -2.240   0.672  0.00  0.00     0.080 A 
ATOM     17  C   UNL d   1      -3.153  -2.800   1.735  0.00  0.00     0.045 A 
ATOM     18  C   UNL d   1      -3.451  -4.081   2.222  0.00  0.00    -0.038 A 
ATOM     19  C   UNL d   1      -2.590  -4.670   3.304  0.00  0.00     0.050 C 
ATOM     20  C   UNL d   1      -4.530  -4.772   1.656  0.00  0.00     0.040 A 
ATOM     21  C   UNL d   1      -5.285  -4.195   0.626  0.00  0.00     0.027 A 
ATOM     22 CL   UNL d   1      -4.968  -6.353   2.197  0.00  0.00    -0.084 Cl
ATOM     23  C   UNL d   1      -4.960  -2.928   0.133  0.00  0.00     0.039 A 
ENDBRANCH  15  16
ENDBRANCH   9  15
BRANCH   3  24
ATOM     24  C   UNL d   1       3.063   1.766   0.013  0.00  0.00     0.175 C 
BRANCH  24  25
ATOM     25  C   UNL d   1       3.679   1.913  -1.364  0.00  0.00    -0.040 A 
ATOM     26  C   UNL d   1       3.266   2.940  -2.224  0.00  0.00     0.009 A 
ATOM     27  C   UNL d   1       3.806   3.047  -3.507  0.00  0.00     0.001 A 
ATOM     28  C   UNL d   1       4.753   2.125  -3.949  0.00  0.00     0.000 A 
ATOM     29  C   UNL d   1       5.170   1.099  -3.105  0.00  0.00     0.001 A 
ATOM     30  C   UNL d   1       4.639   0.995  -1.819  0.00  0.00     0.009 A 
ENDBRANCH  24  25
ENDBRANCH   3  24
TORSDOF 4
