REMARK  4 active torsions:
REMARK  status: ('A' for Active; 'I' for Inactive)
REMARK    1  A    between atoms: C_4  and  C_1 
REMARK    2  A    between atoms: C_3  and  C_9 
REMARK       I    between atoms: N_10  and  C_4 
REMARK    3  A    between atoms: C_5  and  C_8 
REMARK    4  A    between atoms: C_13  and  N_10 
ROOT
ATOM      1  C   UNL d   1       3.302   2.519   0.861  0.00  0.00     0.050 A 
ATOM      2  C   UNL d   1       4.910   2.196  -0.941  0.00  0.00     0.050 A 
ATOM      3  C   UNL d   1       3.816   0.263   0.075  0.00  0.00     0.036 A 
ATOM      4  C   UNL d   1       4.190   3.045  -0.085  0.00  0.00     0.032 A 
ATOM      5  C   UNL d   1       3.143   1.128   0.941  0.00  0.00     0.045 A 
ATOM      6  C   UNL d   1       4.728   0.802  -0.839  0.00  0.00     0.045 A 
ENDROOT
BRANCH   3   7
ATOM      7  N   UNL d   1       3.579  -1.129   0.055  0.00  0.00    -0.322 N 
ATOM      8  C   UNL d   1       2.498  -1.777   0.637  0.00  0.00     0.274 C 
ATOM      9  O   UNL d   1       1.602  -1.239   1.283  0.00  0.00    -0.266 OA
ATOM     10  H   UNL d   1       4.166  -1.704  -0.544  0.00  0.00     0.169 HD
BRANCH   8  11
ATOM     11  C   UNL d   1       2.452  -3.212   0.386  0.00  0.00     0.121 A 
ATOM     12  N   UNL d   1       3.471  -3.881  -0.290  0.00  0.00    -0.287 N 
ATOM     13  N   UNL d   1       3.218  -5.175  -0.397  0.00  0.00    -0.061 NA
ATOM     14  HN  UNL d   1       4.308  -3.428  -0.656  1.00  0.00     0.183 HD
ATOM     15  S   UNL d   1       1.758  -5.618   0.292  0.00  0.00    -0.010 SA
ATOM     16  C   UNL d   1       1.397  -4.020   0.784  0.00  0.00     0.101 A 
ENDBRANCH   8  11
ENDBRANCH   3   7
BRANCH   1  17
ATOM     17  C   UNL d   1       2.487   3.402   1.776  0.00  0.00     0.417 C 
ATOM     18  F   UNL d   1       2.636   4.730   1.516  0.00  0.00    -0.166 F 
ATOM     19  F   UNL d   1       1.152   3.152   1.684  0.00  0.00    -0.166 F 
ATOM     20  F   UNL d   1       2.813   3.237   3.087  0.00  0.00    -0.166 F 
ENDBRANCH   1  17
BRANCH   2  21
ATOM     21  C   UNL d   1       5.839   2.768  -1.988  0.00  0.00     0.417 C 
ATOM     22  F   UNL d   1       5.815   4.127  -2.050  0.00  0.00    -0.166 F 
ATOM     23  F   UNL d   1       7.139   2.423  -1.777  0.00  0.00    -0.166 F 
ATOM     24  F   UNL d   1       5.533   2.333  -3.241  0.00  0.00    -0.166 F 
ENDBRANCH   2  21
TORSDOF 4
