REMARK  4 active torsions:
REMARK  status: ('A' for Active; 'I' for Inactive)
REMARK    1  A    between atoms: C_17  and  N_1 
REMARK    2  A    between atoms: S_10  and  C_2 
REMARK    3  A    between atoms: C_11  and  S_10 
REMARK    4  A    between atoms: N_27  and  C_12 
ROOT
ATOM      1  N   UNL d   1       2.090  -1.914   2.705  0.00  0.00    -0.326 N 
ATOM      2  HN  UNL d   1       1.100  -1.930   2.459  1.00  0.00     0.169 HD
ATOM      3  C   UNL d   1       3.030  -1.619   1.784  0.00  0.00     0.153 A 
ATOM      4  C   UNL d   1       2.497  -2.187   3.957  0.00  0.00     0.102 A 
ATOM      5  C   UNL d   1       3.829  -2.158   4.324  0.00  0.00     0.098 A 
ATOM      6  N   UNL d   1       4.344  -1.567   2.050  0.00  0.00    -0.345 N 
ATOM      7  HN  UNL d   1       5.029  -1.347   1.327  1.00  0.00     0.167 HD
ATOM      8  C   UNL d   1       4.289  -2.471   5.637  0.00  0.00     0.104 C 
ATOM      9  N   UNL d   1       4.676  -2.706   6.703  0.00  0.00    -0.191 NA
ATOM     10  C   UNL d   1       4.713  -1.821   3.324  0.00  0.00     0.116 A 
ENDROOT
BRANCH   4  11
ATOM     11  N   UNL d   1       1.487  -2.623   4.811  0.00  0.00    -0.287 NA
ATOM     12  H   UNL d   1       0.587  -2.524   4.347  0.00  0.00     0.125 HD
ATOM     13  H   UNL d   1       1.492  -2.189   5.728  0.00  0.00     0.125 HD
ENDBRANCH   4  11
BRANCH   3  14
ATOM     14  S   UNL d   1       2.552  -1.619   0.068  0.00  0.00    -0.016 SA
BRANCH  14  15
ATOM     15  C   UNL d   1       1.019  -0.818   0.204  0.00  0.00     0.175 A 
ATOM     16  N   UNL d   1      -0.243  -1.402   0.104  0.00  0.00    -0.274 N 
ATOM     17  C   UNL d   1      -1.098  -0.290   0.031  0.00  0.00     0.146 A 
ATOM     18  N   UNL d   1      -0.385   0.820   0.051  0.00  0.00    -0.282 N 
ATOM     19  C   UNL d   1      -2.538  -0.247   0.042  0.00  0.00     0.050 A 
ATOM     20  N   UNL d   1       0.930   0.492   0.167  0.00  0.00    -0.277 N 
ATOM     21  HN  UNL d   1      -0.758   1.768  -0.010  1.00  0.00     0.188 HD
ATOM     22  HN  UNL d   1       1.710   1.147   0.217  1.00  0.00     0.189 HD
ATOM     23  S   UNL d   1      -3.376   0.863  -0.972  0.00  0.00    -0.098 SA
ATOM     24  C   UNL d   1      -3.427  -0.973   0.814  0.00  0.00     0.023 A 
ATOM     25  C   UNL d   1      -4.903   0.316  -0.434  0.00  0.00     0.050 A 
ATOM     26  C   UNL d   1      -4.790  -0.678   0.510  0.00  0.00     0.009 A 
BRANCH  16  27
ATOM     27  C   UNL d   1      -0.618  -2.790   0.108  0.00  0.00     0.043 A 
ATOM     28  C   UNL d   1       0.109  -3.738   0.842  0.00  0.00     0.032 A 
ATOM     29  C   UNL d   1      -0.346  -5.053   0.982  0.00  0.00     0.026 A 
ATOM     30  C   UNL d   1      -1.536  -5.441   0.382  0.00  0.00     0.034 A 
ATOM     31  C   UNL d   1      -2.242  -4.537  -0.402  0.00  0.00     0.026 A 
ATOM     32 CL   UNL d   1      -2.136  -7.032   0.624  0.00  0.00    -0.084 Cl
ATOM     33  C   UNL d   1      -1.773  -3.225  -0.558  0.00  0.00     0.032 A 
ENDBRANCH  16  27
ENDBRANCH  14  15
ENDBRANCH   3  14
TORSDOF 4
