REMARK  2 active torsions:
REMARK  status: ('A' for Active; 'I' for Inactive)
REMARK    1  A    between atoms: C_2  and  S_6 
REMARK    2  A    between atoms: S_6  and  C_4 
ROOT
ATOM      1  C   UNL d   1       0.569  -0.700   0.101  0.00  0.00     0.039 A 
ATOM      2  C   UNL d   1       1.264   0.508   0.122  0.00  0.00     0.089 A 
ATOM      3  C   UNL d   1       1.406  -1.836   0.014  0.00  0.00     0.092 A 
ATOM      4  S   UNL d   1       0.256   1.880   0.127  0.00  0.00    -0.075 SA
ATOM      5  C   UNL d   1      -0.862  -0.438   0.170  0.00  0.00    -0.029 A 
ATOM      6  C   UNL d   1      -1.140   0.922   0.159  0.00  0.00    -0.008 A 
ATOM      7  N   UNL d   1       2.595   0.689   0.104  0.00  0.00    -0.346 N 
ATOM      8  HN  UNL d   1       3.041   1.606   0.127  1.00  0.00     0.167 HD
ATOM      9  N   UNL d   1       2.756  -1.688  -0.012  0.00  0.00    -0.346 N 
ATOM     10  HN  UNL d   1       3.367  -2.502  -0.078  1.00  0.00     0.167 HD
ATOM     11  C   UNL d   1       3.267  -0.456   0.051  0.00  0.00     0.182 A 
ATOM     12  C   UNL d   1      -1.983  -1.430   0.330  0.00  0.00     0.040 C 
ATOM     13  C   UNL d   1      -2.504   1.540   0.168  0.00  0.00     0.047 C 
ATOM     14  C   UNL d   1      -3.364  -0.832   0.025  0.00  0.00     0.005 C 
ATOM     15  C   UNL d   1      -3.544   0.541   0.681  0.00  0.00     0.005 C 
ENDROOT
BRANCH   3  16
ATOM     16  S   UNL d   1       0.841  -3.436  -0.477  0.00  0.00    -0.035 SA
BRANCH  16  17
ATOM     17  C   UNL d   1       0.108  -4.066   0.944  0.00  0.00     0.151 C 
ATOM     18  N   UNL d   1      -0.291  -3.455   2.031  0.00  0.00    -0.335 N 
ATOM     19  C   UNL d   1      -1.125  -4.361   2.653  0.00  0.00     0.061 A 
ATOM     20  HN  UNL d   1      -0.041  -2.518   2.347  1.00  0.00     0.168 HD
ATOM     21  C   UNL d   1      -1.933  -4.208   3.790  0.00  0.00     0.032 A 
ATOM     22  C   UNL d   1      -1.165  -5.564   1.956  0.00  0.00     0.061 A 
ATOM     23  C   UNL d   1      -2.775  -5.267   4.162  0.00  0.00     0.002 A 
ATOM     24  C   UNL d   1      -2.794  -6.460   3.436  0.00  0.00     0.002 A 
ATOM     25  C   UNL d   1      -1.974  -6.643   2.317  0.00  0.00     0.032 A 
ATOM     26  N   UNL d   1      -0.302  -5.369   0.911  0.00  0.00    -0.335 N 
ATOM     27  H   UNL d   1      -0.107  -6.017   0.164  0.00  0.00     0.168 HD
ENDBRANCH  16  17
ENDBRANCH   3  16
TORSDOF 2
