REMARK  6 active torsions:
REMARK  status: ('A' for Active; 'I' for Inactive)
REMARK    1  A    between atoms: C_2  and  C_1 
REMARK       I    between atoms: N_7  and  C_2 
REMARK    2  A    between atoms: C_3  and  C_4 
REMARK    3  A    between atoms: O_11  and  C_5 
REMARK    4  A    between atoms: C_6  and  C_12 
REMARK    5  A    between atoms: C_16  and  N_7 
REMARK    6  A    between atoms: C_12  and  O_11 
ROOT
ATOM      1  C   UNL d   1       0.986   0.894  -0.280  0.00  0.00     0.098 A 
ATOM      2  C   UNL d   1       1.868  -0.195  -0.188  0.00  0.00     0.069 A 
ATOM      3  C   UNL d   1      -0.376   0.648  -0.382  0.00  0.00     0.159 A 
ATOM      4  N   UNL d   1      -0.897  -0.595  -0.339  0.00  0.00    -0.346 N 
ATOM      5  HN  UNL d   1      -1.905  -0.744  -0.388  1.00  0.00     0.167 HD
ATOM      6  C   UNL d   1      -0.045  -1.633  -0.229  0.00  0.00     0.091 A 
ATOM      7  C   UNL d   1       1.326  -1.486  -0.147  0.00  0.00     0.034 A 
ENDROOT
BRANCH   1   8
ATOM      8  C   UNL d   1       1.520   2.255  -0.434  0.00  0.00     0.261 C 
ATOM      9  N   UNL d   1       2.050   2.801   0.718  0.00  0.00    -0.323 N 
ATOM     10  H   UNL d   1       1.728   2.442   1.610  0.00  0.00     0.169 HD
ATOM     11  O   UNL d   1       1.525   2.733  -1.562  0.00  0.00    -0.267 OA
BRANCH   9  12
ATOM     12  C   UNL d   1       3.059   3.787   0.767  0.00  0.00     0.035 A 
ATOM     13  C   UNL d   1       3.355   4.368   2.005  0.00  0.00     0.031 A 
ATOM     14  C   UNL d   1       4.409   5.281   2.127  0.00  0.00     0.026 A 
ATOM     15  C   UNL d   1       5.184   5.599   1.014  0.00  0.00     0.034 A 
ATOM     16  C   UNL d   1       4.903   5.024  -0.221  0.00  0.00     0.026 A 
ATOM     17 CL   UNL d   1       6.503   6.692   1.171  0.00  0.00    -0.084 Cl
ATOM     18  C   UNL d   1       3.837   4.128  -0.346  0.00  0.00     0.031 A 
ENDBRANCH   9  12
ENDBRANCH   1   8
BRANCH   2  19
ATOM     19  C   UNL d   1       3.358   0.000  -0.123  0.00  0.00     0.418 C 
ATOM     20  F   UNL d   1       3.846   0.851  -1.062  0.00  0.00    -0.166 F 
ATOM     21  F   UNL d   1       3.754   0.481   1.086  0.00  0.00    -0.166 F 
ATOM     22  F   UNL d   1       4.048  -1.164  -0.295  0.00  0.00    -0.166 F 
ENDBRANCH   2  19
BRANCH   3  23
ATOM     23  O   UNL d   1      -1.266   1.689  -0.391  0.00  0.00    -0.326 OA
BRANCH  23  24
ATOM     24  C   UNL d   1      -2.404   1.454  -1.245  0.00  0.00     0.294 C 
BRANCH  24  25
ATOM     25  C   UNL d   1      -3.467   0.468  -0.751  0.00  0.00     0.408 C 
ATOM     26  F   UNL d   1      -3.497   0.353   0.595  0.00  0.00    -0.169 F 
ATOM     27  F   UNL d   1      -4.699   0.906  -1.129  0.00  0.00    -0.169 F 
ATOM     28  F   UNL d   1      -3.332  -0.764  -1.290  0.00  0.00    -0.169 F 
ENDBRANCH  24  25
ENDBRANCH  23  24
ENDBRANCH   3  23
TORSDOF 6
