REMARK  3 active torsions:
REMARK  status: ('A' for Active; 'I' for Inactive)
REMARK    1  A    between atoms: C_2  and  C_1 
REMARK       I    between atoms: C_3  and  N_5 
REMARK       I    between atoms: N_7  and  C_3 
REMARK    2  A    between atoms: N_5  and  C_4 
REMARK    3  A    between atoms: C_9  and  N_7 
ROOT
ATOM      1  C   UNL d   1      -1.230   2.647   0.342  0.00  0.00    -0.086 C 
ATOM      2  C   UNL d   1      -2.330   3.089   0.171  0.00  0.00     0.015 C 
ATOM      3  C   UNL d   1       0.132   2.098   0.570  0.00  0.00     0.090 C 
ATOM      4  C   UNL d   1       0.773   2.749   1.807  0.00  0.00     0.053 C 
ATOM      5  C   UNL d   1       0.992   2.451  -0.657  0.00  0.00     0.053 C 
ENDROOT
BRANCH   3   6
ATOM      6  N   UNL d   1       0.075   0.627   0.700  0.00  0.00    -0.324 N 
ATOM      7  C   UNL d   1      -0.602   0.023   1.688  0.00  0.00     0.322 C 
ATOM      8  N   UNL d   1      -0.592  -1.310   1.853  0.00  0.00    -0.307 N 
ATOM      9  O   UNL d   1      -1.302   0.633   2.499  0.00  0.00    -0.247 OA
ATOM     10  H   UNL d   1      -1.223  -1.429   2.644  0.00  0.00     0.170 HD
ATOM     11  H   UNL d   1       0.941   0.173   0.461  0.00  0.00     0.166 HD
BRANCH   8  12
ATOM     12  C   UNL d   1      -0.118  -2.540   1.346  0.00  0.00     0.066 A 
ATOM     13  C   UNL d   1       0.768  -2.888   0.320  0.00  0.00     0.077 A 
ATOM     14  C   UNL d   1       0.970  -4.274   0.051  0.00  0.00     0.035 A 
ATOM     15  C   UNL d   1       0.348  -5.252   0.806  0.00  0.00     0.088 A 
ATOM     16  N   UNL d   1      -0.476  -4.953   1.814  0.00  0.00    -0.373 N 
ATOM     17  C   UNL d   1      -0.681  -3.636   2.043  0.00  0.00     0.117 A 
ATOM     18  HN  UNL d   1      -0.923  -5.675   2.378  1.00  0.00     0.164 HD
BRANCH  13  19
ATOM     19  C   UNL d   1       1.565  -1.996  -0.589  0.00  0.00     0.419 C 
ATOM     20  F   UNL d   1       1.899  -0.789  -0.069  0.00  0.00    -0.166 F 
ATOM     21  F   UNL d   1       0.937  -1.756  -1.770  0.00  0.00    -0.166 F 
ATOM     22  F   UNL d   1       2.768  -2.550  -0.927  0.00  0.00    -0.166 F 
ENDBRANCH  13  19
ENDBRANCH   8  12
ENDBRANCH   3   6
TORSDOF 3
