REMARK  6 active torsions:
REMARK  status: ('A' for Active; 'I' for Inactive)
REMARK    1  A    between atoms: C_2  and  C_8 
REMARK    2  A    between atoms: C_3  and  C_9 
REMARK    3  A    between atoms: C_17  and  C_4 
REMARK    4  A    between atoms: C_7  and  O_16 
REMARK    5  A    between atoms: C_10  and  C_7 
REMARK    6  A    between atoms: O_16  and  C_27 
ROOT
ATOM      1  C   UNL d   1       6.097  -5.133  -1.103  0.00  0.00     0.298 C 
ATOM      2  O   UNL d   1       6.987  -5.949  -0.915  0.00  0.00    -0.259 OA
ENDROOT
BRANCH   1   3
ATOM      3  O   UNL d   1       5.633  -4.168  -0.217  0.00  0.00    -0.275 OA
BRANCH   3   4
ATOM      4  C   UNL d   1       6.102  -3.957   1.106  0.00  0.00     0.079 A 
ATOM      5  C   UNL d   1       5.338  -3.068   1.865  0.00  0.00     0.038 A 
ATOM      6  C   UNL d   1       5.689  -2.801   3.194  0.00  0.00     0.016 A 
ATOM      7  C   UNL d   1       6.805  -3.419   3.773  0.00  0.00    -0.008 A 
ATOM      8  C   UNL d   1       7.583  -4.279   2.983  0.00  0.00     0.016 A 
ATOM      9  C   UNL d   1       7.235  -4.547   1.650  0.00  0.00     0.038 A 
BRANCH   7  10
ATOM     10  C   UNL d   1       7.173  -3.195   5.170  0.00  0.00     0.063 A 
ATOM     11  N   UNL d   1       8.483  -3.346   5.607  0.00  0.00    -0.292 N 
ATOM     12  N   UNL d   1       8.607  -3.125   6.905  0.00  0.00    -0.061 NA
ATOM     13  HN  UNL d   1       9.261  -3.598   4.997  1.00  0.00     0.183 HD
ATOM     14  S   UNL d   1       7.154  -2.743   7.636  0.00  0.00    -0.010 SA
ATOM     15  C   UNL d   1       6.273  -2.862   6.168  0.00  0.00     0.096 A 
ENDBRANCH   7  10
ENDBRANCH   3   4
ENDBRANCH   1   3
BRANCH   1  16
ATOM     16  C   UNL d   1       5.354  -5.034  -2.395  0.00  0.00     0.041 A 
ATOM     17  C   UNL d   1       5.758  -5.865  -3.452  0.00  0.00     0.034 A 
ATOM     18  C   UNL d   1       5.165  -5.764  -4.722  0.00  0.00     0.049 A 
ATOM     19  C   UNL d   1       4.121  -4.844  -4.911  0.00  0.00     0.032 A 
ATOM     20  C   UNL d   1       3.693  -4.010  -3.865  0.00  0.00     0.049 A 
ATOM     21  C   UNL d   1       4.312  -4.119  -2.605  0.00  0.00     0.034 A 
BRANCH  18  22
ATOM     22  C   UNL d   1       5.687  -6.597  -5.872  0.00  0.00     0.417 C 
ATOM     23  F   UNL d   1       5.140  -6.257  -7.072  0.00  0.00    -0.166 F 
ATOM     24  F   UNL d   1       7.033  -6.469  -6.028  0.00  0.00    -0.166 F 
ATOM     25  F   UNL d   1       5.446  -7.925  -5.711  0.00  0.00    -0.166 F 
ENDBRANCH  18  22
BRANCH  20  26
ATOM     26  C   UNL d   1       2.621  -2.967  -4.089  0.00  0.00     0.417 C 
ATOM     27  F   UNL d   1       2.187  -2.903  -5.378  0.00  0.00    -0.166 F 
ATOM     28  F   UNL d   1       1.516  -3.184  -3.327  0.00  0.00    -0.166 F 
ATOM     29  F   UNL d   1       3.055  -1.715  -3.777  0.00  0.00    -0.166 F 
ENDBRANCH  20  26
ENDBRANCH   1  16
TORSDOF 6
