REMARK  4 active torsions:
REMARK  status: ('A' for Active; 'I' for Inactive)
REMARK    1  A    between atoms: C_2  and  C_1 
REMARK    2  A    between atoms: C_4  and  C_1 
REMARK    3  A    between atoms: C_5  and  C_3 
REMARK    4  A    between atoms: O_16  and  C_4 
ROOT
ATOM      1  C   UNL d   1       0.921  -0.135  -0.045  0.00  0.00     0.049 C 
ATOM      2  C   UNL d   1       0.210   0.912  -0.515  0.00  0.00     0.031 C 
ENDROOT
BRANCH   1   3
ATOM      3  C   UNL d   1       0.252  -1.329   0.501  0.00  0.00    -0.013 A 
ATOM      4  C   UNL d   1      -0.072  -2.402  -0.337  0.00  0.00     0.054 A 
ATOM      5  C   UNL d   1      -0.675  -3.538   0.198  0.00  0.00     0.120 A 
ATOM      6  F   UNL d   1      -0.969  -4.565  -0.609  0.00  0.00    -0.206 F 
ATOM      7  C   UNL d   1      -0.961  -3.630   1.553  0.00  0.00     0.084 A 
ATOM      8  C   UNL d   1      -0.647  -2.558   2.376  0.00  0.00     0.120 A 
ATOM      9  C   UNL d   1      -0.046  -1.409   1.868  0.00  0.00     0.054 A 
ATOM     10  F   UNL d   1      -0.911  -2.633   3.686  0.00  0.00    -0.206 F 
ENDBRANCH   1   3
BRANCH   1  11
ATOM     11  C   UNL d   1       2.409  -0.011  -0.103  0.00  0.00     0.177 C 
ATOM     12  O   UNL d   1       2.991   0.961  -0.560  0.00  0.00    -0.646 OA
BRANCH  11  13
ATOM     13  O   UNL d   1       3.080  -1.071   0.396  0.00  0.00    -0.773 OA
ATOM     14  H   UNL d   1       2.541  -1.804   0.743  0.00  0.00     0.167 HD
ENDBRANCH  11  13
ENDBRANCH   1  11
BRANCH   2  15
ATOM     15  C   UNL d   1      -1.217   1.005  -0.552  0.00  0.00    -0.028 A 
ATOM     16  C   UNL d   1      -1.953   1.587   0.457  0.00  0.00     0.061 A 
ATOM     17  S   UNL d   1      -3.635   1.513   0.144  0.00  0.00    -0.113 SA
ATOM     18  C   UNL d   1      -3.378   0.734  -1.359  0.00  0.00     0.050 A 
ATOM     19  C   UNL d   1      -2.039   0.532  -1.616  0.00  0.00     0.019 A 
ENDBRANCH   2  15
TORSDOF 4
