REMARK  4 active torsions:
REMARK  status: ('A' for Active; 'I' for Inactive)
REMARK    1  A    between atoms: C_2  and  C_1 
REMARK    2  A    between atoms: C_18  and  C_17 
REMARK    3  A    between atoms: O_22  and  C_17 
REMARK    4  A    between atoms: O_21  and  C_18 
ROOT
ATOM      1  C   UNL d   2       1.436  -0.683  -0.743  0.00  0.00     0.243 C 
ATOM      2  O   UNL d   2       0.738  -1.115  -1.666  0.00  0.00    -0.642 OA
ENDROOT
BRANCH   1   3
ATOM      3  C   UNL d   2       0.964  -0.066   1.245  0.00  0.00     0.243 C 
ATOM      4  O   UNL d   2       0.948   1.062   1.766  0.00  0.00    -0.642 OA
BRANCH   3   5
ATOM      5  O   UNL d   2       0.715  -0.899   2.341  0.00  0.00    -0.769 OA
ATOM      6  H   UNL d   2      -0.110  -1.422   2.324  0.00  0.00     0.168 HD
ENDBRANCH   3   5
ENDBRANCH   1   3
BRANCH   1   7
ATOM      7  O   UNL d   2       2.719  -0.713  -1.307  0.00  0.00    -0.769 OA
ATOM      8  H   UNL d   2       3.236  -0.018  -0.819  0.00  0.00     0.168 HD
ENDBRANCH   1   7
TORSDOF 4
