REMARK  4 active torsions:
REMARK  status: ('A' for Active; 'I' for Inactive)
REMARK    1  A    between atoms: C_3  and  C_1 
REMARK    2  A    between atoms: C_12  and  C_2 
REMARK    3  A    between atoms: C_15  and  N_4 
REMARK    4  A    between atoms: C_14  and  N_5 
ROOT
ATOM      1  C   UNL d   1      -0.231   1.273  -0.047  0.00  0.00     0.061 A 
ATOM      2  C   UNL d   1       1.093   0.879  -0.139  0.00  0.00     0.155 A 
ATOM      3  N   UNL d   1       1.079  -0.510  -0.098  0.00  0.00    -0.251 N 
ATOM      4  N   UNL d   1      -0.194  -0.980   0.019  0.00  0.00    -0.304 N 
ATOM      5  HN  UNL d   1      -0.485  -1.953   0.108  1.00  0.00     0.186 HD
ATOM      6  C   UNL d   1      -0.975   0.090  -0.005  0.00  0.00     0.125 A 
ENDROOT
BRANCH   1   7
ATOM      7  C   UNL d   1      -0.760   2.659   0.036  0.00  0.00     0.152 C 
ATOM      8  N   UNL d   1      -1.905   3.081   0.693  0.00  0.00    -0.224 N 
ATOM      9  N   UNL d   1      -2.199   4.328   0.263  0.00  0.00     0.001 NA
ATOM     10  N   UNL d   1      -1.149   4.715  -0.449  0.00  0.00    -0.007 NA
ATOM     11  N   UNL d   1      -0.245   3.694  -0.592  0.00  0.00    -0.269 N 
ATOM     12  HN  UNL d   1       0.647   3.730  -1.086  1.00  0.00     0.185 HD
BRANCH   8  13
ATOM     13  C   UNL d   1      -2.625   2.474   1.751  0.00  0.00     0.056 A 
ATOM     14  C   UNL d   1      -1.981   1.602   2.646  0.00  0.00     0.034 A 
ATOM     15  C   UNL d   1      -2.696   1.027   3.697  0.00  0.00     0.044 A 
ATOM     16  C   UNL d   1      -4.044   1.324   3.851  0.00  0.00     0.116 A 
ATOM     17  C   UNL d   1      -4.690   2.195   2.979  0.00  0.00     0.044 A 
ATOM     18  F   UNL d   1      -4.727   0.775   4.863  0.00  0.00    -0.206 F 
ATOM     19  C   UNL d   1      -3.979   2.787   1.933  0.00  0.00     0.034 A 
ENDBRANCH   8  13
ENDBRANCH   1   7
BRANCH   2  20
ATOM     20  C   UNL d   1       2.321   1.683  -0.091  0.00  0.00     0.435 C 
ATOM     21  F   UNL d   1       2.106   2.970   0.267  0.00  0.00    -0.165 F 
ATOM     22  F   UNL d   1       3.201   1.202   0.826  0.00  0.00    -0.165 F 
ATOM     23  F   UNL d   1       2.957   1.716  -1.286  0.00  0.00    -0.165 F 
ENDBRANCH   2  20
BRANCH   3  24
ATOM     24  C   UNL d   1       2.130  -1.485  -0.116  0.00  0.00     0.059 A 
ATOM     25  C   UNL d   1       1.855  -2.766   0.398  0.00  0.00     0.073 A 
ATOM     26  C   UNL d   1       2.851  -3.737   0.420  0.00  0.00     0.118 A 
ATOM     27  F   UNL d   1       2.582  -4.945   0.932  0.00  0.00    -0.206 F 
ATOM     28  C   UNL d   1       4.121  -3.472  -0.071  0.00  0.00     0.042 A 
ATOM     29  C   UNL d   1       4.397  -2.216  -0.602  0.00  0.00     0.005 A 
ATOM     30  C   UNL d   1       3.405  -1.228  -0.628  0.00  0.00     0.032 A 
ENDBRANCH   3  24
TORSDOF 4
