REMARK  4 active torsions:
REMARK  status: ('A' for Active; 'I' for Inactive)
REMARK    1  A    between atoms: C_8  and  S_1 
REMARK    2  A    between atoms: N_19  and  S_1 
REMARK    3  A    between atoms: S_2  and  C_9 
REMARK    4  A    between atoms: N_20  and  S_2 
ROOT
ATOM      1  C   UNL d   1       0.704  -4.027   0.656  0.00  0.00     0.027 A 
ATOM      2  C   UNL d   1       0.382  -6.343   1.014  0.00  0.00     0.027 A 
ATOM      3  C   UNL d   1       1.320  -5.352   0.449  0.00  0.00     0.194 A 
ATOM      4  C   UNL d   1      -0.718  -5.639   1.541  0.00  0.00    -0.011 A 
ATOM      5  C   UNL d   1      -0.518  -4.221   1.325  0.00  0.00    -0.011 A 
ATOM      6  C   UNL d   1       0.361  -1.694   0.573  0.00  0.00     0.075 A 
ATOM      7  C   UNL d   1      -0.568  -8.411   1.623  0.00  0.00     0.075 A 
ATOM      8  C   UNL d   1       1.174  -2.789   0.271  0.00  0.00     0.041 A 
ATOM      9  C   UNL d   1       0.490  -7.718   1.035  0.00  0.00     0.041 A 
ATOM     10  C   UNL d   1      -1.766  -6.336   2.118  0.00  0.00     0.015 A 
ATOM     11  C   UNL d   1      -1.306  -3.126   1.644  0.00  0.00     0.015 A 
ATOM     12  O   UNL d   1       2.385  -5.584  -0.085  0.00  0.00    -0.287 OA
ATOM     13  C   UNL d   1      -1.691  -7.736   2.152  0.00  0.00     0.026 A 
ATOM     14  C   UNL d   1      -0.859  -1.851   1.265  0.00  0.00     0.026 A 
ENDROOT
BRANCH   6  15
ATOM     15  S   UNL d   1       0.914  -0.078   0.105  0.00  0.00     0.239 S 
ATOM     16  O   UNL d   1       2.346  -0.093  -0.049  0.00  0.00    -0.206 OA
ATOM     17  O   UNL d   1       0.227   0.906   0.910  0.00  0.00    -0.206 OA
BRANCH  15  18
ATOM     18  N   UNL d   1       0.280   0.061  -1.444  0.00  0.00    -0.225 NA
ATOM     19  H   UNL d   1       1.027   0.002  -2.137  0.00  0.00     0.136 HD
ATOM     20  H   UNL d   1      -0.272   0.918  -1.512  0.00  0.00     0.136 HD
ENDBRANCH  15  18
ENDBRANCH   6  15
BRANCH   7  21
ATOM     21  S   UNL d   1      -0.518 -10.179   1.672  0.00  0.00     0.239 S 
ATOM     22  O   UNL d   1      -1.863 -10.684   1.817  0.00  0.00    -0.206 OA
ATOM     23  O   UNL d   1       0.387 -10.656   0.654  0.00  0.00    -0.206 OA
BRANCH  21  24
ATOM     24  N   UNL d   1       0.244 -10.444   3.142  0.00  0.00    -0.225 NA
ATOM     25  H   UNL d   1      -0.381 -10.945   3.774  0.00  0.00     0.136 HD
ATOM     26  H   UNL d   1       1.140 -10.908   2.991  0.00  0.00     0.136 HD
ENDBRANCH  21  24
ENDBRANCH   7  21
TORSDOF 4
