REMARK  6 active torsions:
REMARK  status: ('A' for Active; 'I' for Inactive)
REMARK    1  A    between atoms: C_2  and  S_1 
REMARK    2  A    between atoms: C_22  and  S_1 
REMARK    3  A    between atoms: C_3  and  C_7 
REMARK    4  A    between atoms: C_4  and  C_6 
REMARK    5  A    between atoms: C_9  and  C_5 
REMARK    6  A    between atoms: C_23  and  C_22 
ROOT
ATOM      1  C   UNL d   1       0.479   1.635  -0.017  0.00  0.00     0.140 C 
ATOM      2  C   UNL d   1      -0.309   1.941  -1.068  0.00  0.00     0.046 C 
ATOM      3  C   UNL d   1       0.966   0.335   0.257  0.00  0.00     0.111 C 
ATOM      4  N   UNL d   1       1.318  -0.750   0.468  0.00  0.00    -0.191 NA
ENDROOT
BRANCH   1   5
ATOM      5  S   UNL d   1       0.933   2.904   1.086  0.00  0.00     0.185 S 
ATOM      6  O   UNL d   1       0.789   4.189   0.423  0.00  0.00    -0.222 OA
ATOM      7  O   UNL d   1       2.189   2.562   1.728  0.00  0.00    -0.222 OA
BRANCH   5   8
ATOM      8  C   UNL d   1      -0.351   2.805   2.328  0.00  0.00     0.146 C 
BRANCH   8   9
ATOM      9  C   UNL d   1      -0.169   3.877   3.399  0.00  0.00     0.011 C 
ATOM     10  C   UNL d   1      -1.274   3.827   4.441  0.00  0.00     0.006 C 
ENDBRANCH   8   9
ENDBRANCH   5   8
ENDBRANCH   1   5
BRANCH   2  11
ATOM     11  C   UNL d   1      -0.741   0.978  -2.085  0.00  0.00    -0.033 A 
ATOM     12  C   UNL d   1      -1.926   0.256  -1.915  0.00  0.00     0.027 A 
ATOM     13  C   UNL d   1      -2.331  -0.691  -2.870  0.00  0.00     0.049 A 
ATOM     14  C   UNL d   1      -1.534  -0.895  -4.008  0.00  0.00     0.032 A 
ATOM     15  C   UNL d   1      -0.329  -0.196  -4.181  0.00  0.00     0.049 A 
ATOM     16  C   UNL d   1       0.052   0.751  -3.216  0.00  0.00     0.027 A 
BRANCH  13  17
ATOM     17  C   UNL d   1      -3.582  -1.508  -2.641  0.00  0.00     0.417 C 
ATOM     18  F   UNL d   1      -3.841  -2.399  -3.637  0.00  0.00    -0.166 F 
ATOM     19  F   UNL d   1      -3.513  -2.237  -1.494  0.00  0.00    -0.166 F 
ATOM     20  F   UNL d   1      -4.696  -0.735  -2.528  0.00  0.00    -0.166 F 
ENDBRANCH  13  17
BRANCH  15  21
ATOM     21  C   UNL d   1       0.577  -0.486  -5.356  0.00  0.00     0.417 C 
ATOM     22  F   UNL d   1       0.106  -1.468  -6.173  0.00  0.00    -0.166 F 
ATOM     23  F   UNL d   1       0.771   0.602  -6.148  0.00  0.00    -0.166 F 
ATOM     24  F   UNL d   1       1.815  -0.890  -4.961  0.00  0.00    -0.166 F 
ENDBRANCH  15  21
ENDBRANCH   2  11
TORSDOF 6
