REMARK  3 active torsions:
REMARK  status: ('A' for Active; 'I' for Inactive)
REMARK    1  A    between atoms: C_7  and  C_3 
REMARK    2  A    between atoms: C_17  and  C_10 
REMARK    3  A    between atoms: C_20  and  N_16 
ROOT
ATOM      1  C   UNL d   1       2.204   1.803  -0.047  0.00  0.00     0.046 A 
ATOM      2  N   UNL d   1       4.171   2.818  -0.987  0.00  0.00    -0.345 N 
ATOM      3  HN  UNL d   1       4.876   2.866  -1.721  1.00  0.00     0.167 HD
ATOM      4  C   UNL d   1       4.200   3.668   0.059  0.00  0.00     0.115 A 
ATOM      5  C   UNL d   1       3.174   1.894  -1.034  0.00  0.00     0.022 A 
ATOM      6  N   UNL d   1       3.293   3.671   1.051  0.00  0.00    -0.351 N 
ATOM      7  HN  UNL d   1       3.340   4.336   1.823  1.00  0.00     0.166 HD
ATOM      8  C   UNL d   1       2.315   2.739   0.967  0.00  0.00     0.107 A 
ATOM      9  C   UNL d   1       3.193   1.007  -2.244  0.00  0.00     0.069 C 
ENDROOT
BRANCH   1  10
ATOM     10  C   UNL d   1       1.126   0.827  -0.011  0.00  0.00     0.127 A 
ATOM     11  N   UNL d   1      -0.096   1.191   0.547  0.00  0.00    -0.320 N 
ATOM     12  C   UNL d   1      -0.908   0.157   0.575  0.00  0.00     0.167 A 
ATOM     13  HN  UNL d   1      -0.328   2.125   0.885  1.00  0.00     0.169 HD
ATOM     14  S   UNL d   1      -0.142  -1.238  -0.093  0.00  0.00     0.024 SA
ATOM     15  N   UNL d   1      -2.158   0.121   1.089  0.00  0.00    -0.335 N 
ATOM     16  N   UNL d   1       1.274  -0.432  -0.438  0.00  0.00    -0.309 N 
ATOM     17  HN  UNL d   1       2.100  -0.825  -0.891  1.00  0.00     0.176 HD
ATOM     18  H   UNL d   1      -2.610  -0.773   1.232  0.00  0.00     0.168 HD
BRANCH  15  19
ATOM     19  C   UNL d   1      -3.018   1.228   1.228  0.00  0.00     0.034 A 
ATOM     20  C   UNL d   1      -2.932   2.359   0.405  0.00  0.00     0.029 A 
ATOM     21  C   UNL d   1      -3.785   3.450   0.589  0.00  0.00     0.002 A 
ATOM     22  C   UNL d   1      -4.716   3.437   1.623  0.00  0.00     0.000 A 
ATOM     23  C   UNL d   1      -4.797   2.332   2.468  0.00  0.00     0.002 A 
ATOM     24  C   UNL d   1      -3.957   1.234   2.268  0.00  0.00     0.029 A 
ENDBRANCH  15  19
ENDBRANCH   1  10
BRANCH   4  25
ATOM     25  C   UNL d   1       5.301   4.647   0.117  0.00  0.00     0.011 A 
ATOM     26  C   UNL d   1       5.450   5.526   1.199  0.00  0.00     0.032 A 
ATOM     27  C   UNL d   1       6.509   6.420   1.210  0.00  0.00     0.088 A 
ATOM     28  N   UNL d   1       7.428   6.508   0.228  0.00  0.00    -0.375 N 
ATOM     29  C   UNL d   1       7.280   5.662  -0.811  0.00  0.00     0.088 A 
ATOM     30  HN  UNL d   1       8.196   7.179   0.268  1.00  0.00     0.164 HD
ATOM     31  C   UNL d   1       6.255   4.734  -0.908  0.00  0.00     0.032 A 
ENDBRANCH   4  25
TORSDOF 3
