REMARK  2 active torsions:
REMARK  status: ('A' for Active; 'I' for Inactive)
REMARK    1  A    between atoms: C_17  and  N_7 
REMARK    2  A    between atoms: C_19  and  C_13 
ROOT
ATOM      1  C   UNL d   1       0.749  -0.792  -0.115  0.00  0.00     0.173 A 
ATOM      2  C   UNL d   1       0.449   0.553  -0.176  0.00  0.00     0.090 A 
ATOM      3  C   UNL d   1       1.960  -1.533   0.125  0.00  0.00     0.285 C 
ATOM      4  C   UNL d   1      -0.983   0.652  -0.249  0.00  0.00     0.051 A 
ATOM      5  C   UNL d   1      -1.446  -0.661  -0.164  0.00  0.00     0.162 A 
ATOM      6  O   UNL d   1      -0.403  -1.523  -0.165  0.00  0.00    -0.285 OA
ATOM      7  N   UNL d   1       2.946  -0.822   0.825  0.00  0.00    -0.303 N 
ATOM      8  N   UNL d   1       1.324   1.614  -0.107  0.00  0.00    -0.322 N 
ATOM      9  N   UNL d   1      -2.714  -1.083  -0.043  0.00  0.00    -0.335 N 
ATOM     10  HN  UNL d   1      -2.966  -2.071  -0.004  1.00  0.00     0.168 HD
ATOM     11  C   UNL d   1      -1.958   1.672  -0.313  0.00  0.00    -0.043 A 
ATOM     12  C   UNL d   1       2.667   1.628   0.086  0.00  0.00     0.240 C 
ATOM     13  C   UNL d   1      -3.627  -0.093   0.025  0.00  0.00     0.044 A 
ATOM     14  C   UNL d   1       3.511   0.359   0.186  0.00  0.00     0.235 C 
ATOM     15  C   UNL d   1      -3.294   1.252  -0.153  0.00  0.00     0.038 A 
ATOM     16  O   UNL d   1       2.067  -2.730  -0.137  0.00  0.00    -0.265 OA
ATOM     17  O   UNL d   1       3.221   2.734   0.047  0.00  0.00    -0.271 OA
ATOM     18  C   UNL d   1      -1.717   3.147  -0.459  0.00  0.00     0.049 C 
ATOM     19  H   UNL d   1       0.940   2.546  -0.169  0.00  0.00     0.169 HD
ENDROOT
BRANCH   7  20
ATOM     20  C   UNL d   1       3.690  -1.542   1.821  0.00  0.00     0.038 A 
ATOM     21  C   UNL d   1       5.066  -1.382   2.024  0.00  0.00     0.030 A 
ATOM     22  C   UNL d   1       5.723  -2.079   3.046  0.00  0.00     0.002 A 
ATOM     23  C   UNL d   1       5.013  -2.933   3.887  0.00  0.00     0.000 A 
ATOM     24  C   UNL d   1       3.647  -3.106   3.698  0.00  0.00     0.002 A 
ATOM     25  C   UNL d   1       2.994  -2.420   2.672  0.00  0.00     0.030 A 
ENDBRANCH   7  20
BRANCH  13  26
ATOM     26  C   UNL d   1      -5.013  -0.511   0.341  0.00  0.00    -0.009 A 
ATOM     27  C   UNL d   1      -5.878   0.305   1.098  0.00  0.00     0.013 A 
ATOM     28  C   UNL d   1      -7.184  -0.083   1.391  0.00  0.00     0.001 A 
ATOM     29  C   UNL d   1      -7.659  -1.313   0.944  0.00  0.00     0.000 A 
ATOM     30  C   UNL d   1      -6.819  -2.154   0.220  0.00  0.00     0.001 A 
ATOM     31  C   UNL d   1      -5.510  -1.760  -0.072  0.00  0.00     0.013 A 
ENDBRANCH  13  26
TORSDOF 2
