REMARK  0 active torsions:
REMARK  status: ('A' for Active; 'I' for Inactive)
ROOT
ATOM      1  C   UNL d   1       1.592   0.461   1.108  0.00  0.00     0.263 C 
ATOM      2  O   UNL d   1       1.452   1.200  -0.040  0.00  0.00    -0.315 OA
ATOM      3  C   UNL d   1       0.474  -0.546   1.167  0.00  0.00     0.092 C 
ATOM      4  C   UNL d   1       0.328   0.686  -0.775  0.00  0.00     0.137 C 
ATOM      5  C   UNL d   1       0.263  -0.772  -0.330  0.00  0.00     0.029 C 
ATOM      6  C   UNL d   1      -1.073  -1.431  -0.662  0.00  0.00     0.008 C 
ATOM      7  C   UNL d   1      -0.748   0.140   1.806  0.00  0.00     0.020 C 
ATOM      8  C   UNL d   1      -0.955   1.430  -0.353  0.00  0.00     0.037 C 
ATOM      9  O   UNL d   1       2.448   0.641   1.954  0.00  0.00    -0.265 OA
ATOM     10  C   UNL d   1      -1.718   0.585   0.693  0.00  0.00    -0.011 C 
ATOM     11  C   UNL d   1      -2.235  -0.686  -0.000  0.00  0.00     0.005 C 
ENDROOT
TORSDOF 0
