REMARK  2 active torsions:
REMARK  status: ('A' for Active; 'I' for Inactive)
REMARK    1  A    between atoms: C_2  and  C_1 
REMARK       I    between atoms: N_3  and  C_1 
REMARK    2  A    between atoms: C_9  and  N_3 
ROOT
ATOM      1  C   UNL d   1      -3.386  -1.457   1.811  0.00  0.00    -0.006 A 
ATOM      2  N   UNL d   1      -5.391  -1.244   0.869  0.00  0.00    -0.365 N 
ATOM      3  C   UNL d   1      -4.041  -1.123   0.628  0.00  0.00     0.042 A 
ATOM      4  C   UNL d   1      -5.610  -1.628   2.166  0.00  0.00     0.089 A 
ATOM      5  C   UNL d   1      -1.256  -1.045   0.704  0.00  0.00     0.035 A 
ATOM      6  C   UNL d   1      -1.977  -1.421   1.844  0.00  0.00     0.043 A 
ATOM      7  C   UNL d   1      -4.384  -1.770   2.774  0.00  0.00     0.030 A 
ATOM      8  C   UNL d   1      -3.352  -0.747  -0.529  0.00  0.00     0.033 A 
ATOM      9  C   UNL d   1      -1.951  -0.706  -0.464  0.00  0.00     0.032 A 
ATOM     10  H   UNL d   1      -6.115  -1.067   0.186  0.00  0.00     0.165 HD
ENDROOT
BRANCH   5  11
ATOM     11  N   UNL d   1       0.153  -0.956   0.676  0.00  0.00    -0.322 N 
ATOM     12  C   UNL d   1       1.041  -1.370   1.658  0.00  0.00     0.263 C 
ATOM     13  O   UNL d   1       0.715  -1.999   2.663  0.00  0.00    -0.267 OA
ATOM     14  H   UNL d   1       0.571  -0.557  -0.155  0.00  0.00     0.169 HD
BRANCH  12  15
ATOM     15  C   UNL d   1       2.442  -1.025   1.426  0.00  0.00     0.072 A 
ATOM     16  S   UNL d   1       2.970  -0.081   0.098  0.00  0.00    -0.097 SA
ATOM     17  C   UNL d   1       4.600  -0.131   0.619  0.00  0.00     0.050 A 
ATOM     18  C   UNL d   1       4.750  -0.864   1.775  0.00  0.00     0.009 A 
ATOM     19  C   UNL d   1       3.507  -1.380   2.237  0.00  0.00     0.025 A 
ENDBRANCH  12  15
ENDBRANCH   5  11
TORSDOF 2
