REMARK  4 active torsions:
REMARK  status: ('A' for Active; 'I' for Inactive)
REMARK       I    between atoms: N_2  and  C_1 
REMARK       I    between atoms: N_4  and  C_1 
REMARK    1  A    between atoms: C_5  and  N_2 
REMARK    2  A    between atoms: C_7  and  N_4 
REMARK    3  A    between atoms: O_6  and  C_8 
REMARK    4  A    between atoms: C_8  and  C_7 
ROOT
ATOM      1  C   UNL d   1       1.280  -0.267  -0.055  0.00  0.00     0.320 C 
ATOM      2  N   UNL d   1       0.556   0.127  -1.159  0.00  0.00    -0.309 N 
ATOM      3  O   UNL d   1       2.448  -0.630  -0.026  0.00  0.00    -0.247 OA
ATOM      4  N   UNL d   1       0.495  -0.236   1.083  0.00  0.00    -0.341 N 
ATOM      5  H   UNL d   1      -0.423   0.296  -0.994  0.00  0.00     0.170 HD
ATOM      6  H   UNL d   1      -0.208   0.489   1.120  0.00  0.00     0.164 HD
ENDROOT
BRANCH   2   7
ATOM      7  C   UNL d   1       1.001   0.231  -2.492  0.00  0.00     0.036 A 
ATOM      8  C   UNL d   1       2.307  -0.043  -2.902  0.00  0.00     0.029 A 
ATOM      9  C   UNL d   1       2.675   0.099  -4.245  0.00  0.00     0.002 A 
ATOM     10  C   UNL d   1       1.740   0.518  -5.188  0.00  0.00     0.000 A 
ATOM     11  C   UNL d   1       0.434   0.787  -4.793  0.00  0.00     0.002 A 
ATOM     12  C   UNL d   1       0.065   0.641  -3.452  0.00  0.00     0.029 A 
ENDBRANCH   2   7
BRANCH   4  13
ATOM     13  C   UNL d   1       1.061  -0.587   2.376  0.00  0.00     0.150 C 
BRANCH  13  14
ATOM     14  C   UNL d   1       1.766   0.602   3.029  0.00  0.00     0.183 C 
BRANCH  14  15
ATOM     15  O   UNL d   1       0.805   1.622   3.312  0.00  0.00    -0.399 OA
ATOM     16  H   UNL d   1       1.292   2.347   3.742  0.00  0.00     0.209 HD
ENDBRANCH  14  15
ENDBRANCH  13  14
ENDBRANCH   4  13
TORSDOF 4
