REMARK  3 active torsions:
REMARK  status: ('A' for Active; 'I' for Inactive)
REMARK    1  A    between atoms: C_20  and  C_3 
REMARK       I    between atoms: C_14  and  N_22 
REMARK       I    between atoms: N_19  and  C_14 
REMARK    2  A    between atoms: C_15  and  N_19 
REMARK    3  A    between atoms: N_22  and  C_25 
ROOT
ATOM      1  C   UNL d   1       2.740   4.704   3.562  0.00  0.00     0.325 C 
ATOM      2  N   UNL d   1       3.090   4.587   4.896  0.00  0.00    -0.309 N 
ATOM      3  N   UNL d   1       3.779   4.356   2.706  0.00  0.00    -0.309 N 
ATOM      4  O   UNL d   1       1.609   4.989   3.185  0.00  0.00    -0.247 OA
ATOM      5  H   UNL d   1       4.041   4.814   5.141  0.00  0.00     0.170 HD
ATOM      6  H   UNL d   1       4.727   4.559   2.981  0.00  0.00     0.170 HD
ENDROOT
BRANCH   3   7
ATOM      7  C   UNL d   1       3.589   3.605   1.520  0.00  0.00     0.037 A 
ATOM      8  C   UNL d   1       2.372   2.972   1.276  0.00  0.00     0.044 A 
ATOM      9  C   UNL d   1       2.221   1.988   0.291  0.00  0.00     0.012 A 
ATOM     10  C   UNL d   1       3.286   1.731  -0.570  0.00  0.00     0.015 A 
ATOM     11  C   UNL d   1       4.490   2.433  -0.404  0.00  0.00     0.003 A 
ATOM     12  C   UNL d   1       4.653   3.341   0.657  0.00  0.00     0.029 A 
BRANCH   9  13
ATOM     13  C   UNL d   1       0.983   1.218   0.331  0.00  0.00     0.137 A 
ATOM     14  N   UNL d   1      -0.051   1.638   1.141  0.00  0.00    -0.323 N 
ATOM     15  C   UNL d   1      -0.879   0.631   1.114  0.00  0.00     0.144 A 
ATOM     16  HN  UNL d   1      -0.146   2.523   1.640  1.00  0.00     0.169 HD
ATOM     17  O   UNL d   1      -0.459  -0.386   0.308  0.00  0.00    -0.223 OA
ATOM     18  C   UNL d   1      -2.153   0.477   1.837  0.00  0.00     0.100 C 
ATOM     19  N   UNL d   1       0.783   0.011  -0.220  0.00  0.00    -0.242 N 
ATOM     20  HN  UNL d   1       1.387  -0.497  -0.867  1.00  0.00     0.196 HD
ENDBRANCH   9  13
ENDBRANCH   3   7
BRANCH   2  21
ATOM     21  C   UNL d   1       2.161   4.373   5.950  0.00  0.00     0.038 A 
ATOM     22  C   UNL d   1       0.882   3.824   5.703  0.00  0.00     0.062 A 
ATOM     23  C   UNL d   1       0.041   3.618   6.823  0.00  0.00     0.069 A 
ATOM     24  N   UNL d   1      -1.198   3.099   6.803  0.00  0.00    -0.310 N 
ATOM     25  C   UNL d   1       0.505   3.971   8.209  0.00  0.00     0.067 A 
ATOM     26  S   UNL d   1      -1.732   3.091   8.375  0.00  0.00     0.068 SA
ATOM     27  HN  UNL d   1      -1.710   2.774   5.983  1.00  0.00     0.176 HD
ATOM     28  N   UNL d   1      -0.406   3.722   9.156  0.00  0.00    -0.310 N 
ATOM     29  HN  UNL d   1      -0.307   3.886  10.158  1.00  0.00     0.176 HD
ATOM     30  C   UNL d   1       1.800   4.505   8.419  0.00  0.00     0.035 A 
ATOM     31  C   UNL d   1       2.599   4.675   7.268  0.00  0.00     0.032 A 
ENDBRANCH   2  21
TORSDOF 3
