REMARK  2 active torsions:
REMARK  status: ('A' for Active; 'I' for Inactive)
REMARK    1  A    between atoms: N_3  and  C_1 
REMARK       I    between atoms: C_2  and  N_4 
REMARK    2  A    between atoms: C_8  and  C_2 
ROOT
ATOM      1  C   UNL d   1       0.347   7.170   0.644  0.00  0.00     0.277 C 
ATOM      2  N   UNL d   1      -0.590   3.172  -0.035  0.00  0.00    -0.377 N 
ATOM      3  N   UNL d   1      -0.198   6.007   0.096  0.00  0.00    -0.343 N 
ATOM      4  C   UNL d   1      -1.122   3.951   1.117  0.00  0.00     0.143 C 
ATOM      5  C   UNL d   1       0.643   3.785  -0.603  0.00  0.00     0.143 C 
ATOM      6  C   UNL d   1       0.314   5.228  -1.043  0.00  0.00     0.146 C 
ATOM      7  C   UNL d   1      -1.390   5.413   0.708  0.00  0.00     0.146 C 
ATOM      8  O   UNL d   1      -0.269   7.788   1.515  0.00  0.00    -0.265 OA
ENDROOT
BRANCH   2   9
ATOM      9  C   UNL d   1      -0.560   1.766   0.099  0.00  0.00     0.044 A 
ATOM     10  C   UNL d   1      -0.645   0.907  -1.039  0.00  0.00     0.017 A 
ATOM     11  C   UNL d   1      -0.686  -0.490  -0.808  0.00  0.00     0.044 A 
ATOM     12  C   UNL d   1      -0.731   1.355  -2.382  0.00  0.00     0.016 A 
ATOM     13  C   UNL d   1      -0.786  -1.357  -1.888  0.00  0.00     0.030 A 
ATOM     14  N   UNL d   1      -0.657  -1.037   0.414  0.00  0.00    -0.359 N 
ATOM     15  C   UNL d   1      -0.840  -0.899  -3.204  0.00  0.00     0.002 A 
ATOM     16  C   UNL d   1      -0.810   0.464  -3.453  0.00  0.00     0.001 A 
ATOM     17  C   UNL d   1      -0.584  -0.219   1.481  0.00  0.00     0.007 A 
ATOM     18  HN  UNL d   1      -0.690  -2.049   0.534  1.00  0.00     0.166 HD
ATOM     19  C   UNL d   1      -0.519   1.162   1.363  0.00  0.00     0.054 A 
ATOM     20  C   UNL d   1      -0.603  -0.854   2.838  0.00  0.00     0.068 C 
ENDBRANCH   2   9
BRANCH   1  21
ATOM     21  C   UNL d   1       1.634   7.654   0.174  0.00  0.00     0.142 A 
ATOM     22  O   UNL d   1       2.596   6.795  -0.288  0.00  0.00    -0.317 OA
ATOM     23  C   UNL d   1       3.676   7.539  -0.634  0.00  0.00     0.143 A 
ATOM     24  C   UNL d   1       3.453   8.866  -0.364  0.00  0.00     0.027 A 
ATOM     25  C   UNL d   1       2.150   8.939   0.182  0.00  0.00     0.045 A 
ENDBRANCH   1  21
TORSDOF 2
