REMARK  6 active torsions:
REMARK  status: ('A' for Active; 'I' for Inactive)
REMARK       I    between atoms: N_2  and  C_1 
REMARK    1  A    between atoms: C_5  and  C_1 
REMARK    2  A    between atoms: C_12  and  N_2 
REMARK    3  A    between atoms: O_11  and  C_6 
REMARK    4  A    between atoms: C_7  and  C_8 
REMARK    5  A    between atoms: C_16  and  O_11 
REMARK    6  A    between atoms: O_22  and  C_17 
ROOT
ATOM      1  N   UNL d   1       1.263   3.513   3.469  0.00  0.00    -0.344 N 
ATOM      2  HN  UNL d   1       0.949   3.796   4.397  1.00  0.00     0.167 HD
ATOM      3  C   UNL d   1       2.320   4.099   2.876  0.00  0.00     0.148 A 
ATOM      4  C   UNL d   1       1.035   2.070   1.528  0.00  0.00     0.050 A 
ATOM      5  C   UNL d   1       0.637   2.534   2.780  0.00  0.00     0.119 A 
ATOM      6  C   UNL d   1       2.845   3.668   1.665  0.00  0.00     0.059 A 
ATOM      7  C   UNL d   1       2.194   2.630   0.987  0.00  0.00     0.035 A 
ENDROOT
BRANCH   4   8
ATOM      8  N   UNL d   1       0.327   1.084   0.799  0.00  0.00    -0.322 N 
ATOM      9  C   UNL d   1      -0.978   0.714   1.080  0.00  0.00     0.256 C 
ATOM     10  O   UNL d   1      -1.703   1.235   1.923  0.00  0.00    -0.267 OA
ATOM     11  H   UNL d   1       0.744   0.751  -0.062  0.00  0.00     0.169 HD
BRANCH   9  12
ATOM     12  C   UNL d   1      -1.574  -0.361   0.253  0.00  0.00     0.035 A 
ATOM     13  C   UNL d   1      -2.953  -0.277  -0.002  0.00  0.00     0.053 A 
ATOM     14  C   UNL d   1      -3.609  -1.300  -0.679  0.00  0.00     0.069 A 
ATOM     15  C   UNL d   1      -2.876  -2.412  -1.100  0.00  0.00     0.037 A 
ATOM     16  C   UNL d   1      -1.502  -2.501  -0.851  0.00  0.00     0.004 A 
ATOM     17  C   UNL d   1      -0.844  -1.474  -0.173  0.00  0.00     0.017 A 
BRANCH  14  18
ATOM     18  O   UNL d   1      -4.945  -1.331  -0.970  0.00  0.00    -0.356 OA
ATOM     19  C   UNL d   1      -5.723  -0.226  -0.516  0.00  0.00     0.210 C 
ENDBRANCH  14  18
ENDBRANCH   9  12
ENDBRANCH   4   8
BRANCH   3  20
ATOM     20  O   UNL d   1       2.917   5.189   3.494  0.00  0.00    -0.294 OA
BRANCH  20  21
ATOM     21  C   UNL d   1       2.097   6.011   4.244  0.00  0.00     0.077 A 
ATOM     22  C   UNL d   1       2.624   6.552   5.412  0.00  0.00     0.038 A 
ATOM     23  C   UNL d   1       1.849   7.415   6.202  0.00  0.00     0.011 A 
ATOM     24  C   UNL d   1       0.532   7.766   5.840  0.00  0.00    -0.050 A 
ATOM     25  C   UNL d   1       0.030   7.217   4.651  0.00  0.00     0.011 A 
ATOM     26  C   UNL d   1       0.806   6.369   3.854  0.00  0.00     0.038 A 
BRANCH  24  27
ATOM     27  C   UNL d   1      -0.295   8.728   6.713  0.00  0.00    -0.024 C 
ATOM     28  C   UNL d   1      -1.715   9.000   6.162  0.00  0.00     0.019 C 
ATOM     29  C   UNL d   1      -0.463   8.150   8.134  0.00  0.00     0.019 C 
ATOM     30  C   UNL d   1       0.425  10.090   6.802  0.00  0.00     0.019 C 
ENDBRANCH  24  27
ENDBRANCH  20  21
ENDBRANCH   3  20
TORSDOF 6
