REMARK  3 active torsions:
REMARK  status: ('A' for Active; 'I' for Inactive)
REMARK    1  A    between atoms: C_2  and  N_1 
REMARK    2  A    between atoms: C_6  and  C_3 
REMARK    3  A    between atoms: O_13  and  C_7 
ROOT
ATOM      1  C   UNL d   1      -1.834   0.098  -0.053  0.00  0.00    -0.034 A 
ATOM      2  C   UNL d   1      -3.467   2.061   1.123  0.00  0.00     0.068 A 
ATOM      3  C   UNL d   1      -1.504   1.454  -0.159  0.00  0.00     0.014 A 
ATOM      4  C   UNL d   1      -2.997  -0.270   0.627  0.00  0.00     0.014 A 
ATOM      5  C   UNL d   1      -3.813   0.710   1.201  0.00  0.00     0.037 A 
ATOM      6  C   UNL d   1      -2.316   2.432   0.430  0.00  0.00     0.037 A 
ENDROOT
BRANCH   1   7
ATOM      7  C   UNL d   1      -0.997  -0.918  -0.694  0.00  0.00     0.042 C 
ATOM      8  C   UNL d   1       0.057  -1.515  -0.110  0.00  0.00     0.077 C 
ATOM      9  C   UNL d   1       0.579  -1.334   1.278  0.00  0.00     0.075 C 
BRANCH   8  10
ATOM     10  N   UNL d   1       0.801  -2.467  -0.929  0.00  0.00    -0.120 N 
ATOM     11  O   UNL d   1       0.183  -3.092  -1.805  0.00  0.00    -0.532 OA
ATOM     12  O   UNL d   1       2.012  -2.584  -0.698  0.00  0.00    -0.532 OA
ENDBRANCH   8  10
ENDBRANCH   1   7
BRANCH   2  13
ATOM     13  O   UNL d   1      -4.350   2.927   1.706  0.00  0.00    -0.356 OA
ATOM     14  C   UNL d   1      -3.789   4.133   2.216  0.00  0.00     0.210 C 
ENDBRANCH   2  13
TORSDOF 3
