REMARK  2 active torsions:
REMARK  status: ('A' for Active; 'I' for Inactive)
REMARK    1  A    between atoms: C_6  and  N_1 
REMARK    2  A    between atoms: C_7  and  C_9 
ROOT
ATOM      1  N   UNL d   1       2.425  -0.589  -0.066  0.00  0.00    -0.254 N 
ATOM      2  C   UNL d   1       2.393   0.815  -0.035  0.00  0.00     0.186 A 
ATOM      3  C   UNL d   1       1.261  -1.386  -0.050  0.00  0.00     0.267 A 
ATOM      4  C   UNL d   1      -0.035  -0.686  -0.025  0.00  0.00     0.059 A 
ATOM      5  N   UNL d   1       1.153   1.402   0.025  0.00  0.00    -0.332 N 
ATOM      6  C   UNL d   1      -0.048   0.700   0.006  0.00  0.00     0.050 A 
ATOM      7  S   UNL d   1       3.683   1.891  -0.143  0.00  0.00    -0.040 SA
ATOM      8  O   UNL d   1       1.241  -2.616  -0.026  0.00  0.00    -0.267 OA
ATOM      9  C   UNL d   1      -1.238  -1.401  -0.038  0.00  0.00     0.019 A 
ATOM     10  C   UNL d   1      -1.260   1.391   0.006  0.00  0.00     0.030 A 
ATOM     11  C   UNL d   1      -2.452  -0.715  -0.040  0.00  0.00     0.001 A 
ATOM     12  C   UNL d   1      -2.462   0.680  -0.023  0.00  0.00     0.002 A 
ATOM     13  H   UNL d   1       1.139   2.417   0.028  0.00  0.00     0.168 HD
ENDROOT
BRANCH   1  14
ATOM     14  C   UNL d   1       3.668  -1.308  -0.109  0.00  0.00     0.045 A 
ATOM     15  C   UNL d   1       4.631  -1.145   0.897  0.00  0.00     0.046 A 
ATOM     16  C   UNL d   1       5.817  -1.899   0.886  0.00  0.00     0.050 A 
ATOM     17  C   UNL d   1       6.039  -2.808  -0.160  0.00  0.00     0.016 A 
ATOM     18  C   UNL d   1       5.086  -2.978  -1.162  0.00  0.00     0.003 A 
ATOM     19  C   UNL d   1       3.902  -2.241  -1.129  0.00  0.00     0.030 A 
BRANCH  16  20
ATOM     20  C   UNL d   1       6.832  -1.766   1.993  0.00  0.00     0.417 C 
ATOM     21  F   UNL d   1       6.476  -0.871   2.957  0.00  0.00    -0.166 F 
ATOM     22  F   UNL d   1       7.046  -2.944   2.643  0.00  0.00    -0.166 F 
ATOM     23  F   UNL d   1       8.052  -1.363   1.540  0.00  0.00    -0.166 F 
ENDBRANCH  16  20
ENDBRANCH   1  14
TORSDOF 2
