REMARK  1 active torsions:
REMARK  status: ('A' for Active; 'I' for Inactive)
REMARK    1  A    between atoms: C_18  and  C_12 
ROOT
ATOM      1  N   UNL d   1       0.002   0.546   0.103  0.00  0.00    -0.237 N 
ATOM      2  C   UNL d   1      -0.627  -0.646   0.267  0.00  0.00     0.175 A 
ATOM      3  C   UNL d   1      -1.009   1.468   0.035  0.00  0.00     0.166 A 
ATOM      4  C   UNL d   1       1.377   0.514   0.011  0.00  0.00     0.272 A 
ATOM      5  N   UNL d   1      -2.168   0.825   0.129  0.00  0.00    -0.281 N 
ATOM      6  HN  UNL d   1      -3.091   1.259   0.093  1.00  0.00     0.188 HD
ATOM      7  C   UNL d   1       1.786  -0.930   0.097  0.00  0.00     0.077 A 
ATOM      8  N   UNL d   1      -1.922  -0.522   0.285  0.00  0.00    -0.277 N 
ATOM      9  HN  UNL d   1      -2.612  -1.267   0.391  1.00  0.00     0.189 HD
ATOM     10  S   UNL d   1       0.419  -1.992   0.356  0.00  0.00    -0.046 SA
ATOM     11  C   UNL d   1      -0.937   2.886  -0.121  0.00  0.00     0.120 A 
ATOM     12  C   UNL d   1       3.057  -1.331  -0.070  0.00  0.00     0.036 C 
ATOM     13  O   UNL d   1       0.184   3.648   0.072  0.00  0.00    -0.319 OA
ATOM     14  O   UNL d   1       2.070   1.497  -0.157  0.00  0.00    -0.266 OA
ATOM     15  C   UNL d   1      -1.990   3.732  -0.442  0.00  0.00     0.043 A 
ATOM     16  C   UNL d   1      -0.163   4.949  -0.114  0.00  0.00     0.142 A 
ATOM     17  C   UNL d   1      -1.493   5.054  -0.434  0.00  0.00     0.027 A 
ENDROOT
BRANCH  12  18
ATOM     18  C   UNL d   1       3.460  -2.744  -0.113  0.00  0.00    -0.035 A 
ATOM     19  C   UNL d   1       3.324  -3.465  -1.306  0.00  0.00     0.012 A 
ATOM     20  C   UNL d   1       3.611  -4.832  -1.345  0.00  0.00     0.007 A 
ATOM     21  C   UNL d   1       4.046  -5.499  -0.195  0.00  0.00    -0.062 A 
ATOM     22  C   UNL d   1       4.196  -4.774   0.994  0.00  0.00     0.007 A 
ATOM     23  C   UNL d   1       4.313  -6.975  -0.246  0.00  0.00     0.048 C 
ATOM     24  C   UNL d   1       3.906  -3.405   1.036  0.00  0.00     0.012 A 
ENDBRANCH  12  18
TORSDOF 1
