REMARK  11 active torsions:
REMARK  status: ('A' for Active; 'I' for Inactive)
REMARK    1  A    between atoms: C_3  and  S_1 
REMARK    2  A    between atoms: N_4  and  S_1 
REMARK    3  A    between atoms: S_2  and  C_6 
REMARK    4  A    between atoms: N_12  and  S_2 
REMARK    5  A    between atoms: C_13  and  N_4 
REMARK    6  A    between atoms: O_21  and  C_9 
REMARK    7  A    between atoms: C_25  and  N_12 
REMARK    8  A    between atoms: O_23  and  C_17 
REMARK    9  A    between atoms: C_22  and  C_25 
REMARK   10  A    between atoms: C_26  and  C_22 
REMARK   11  A    between atoms: O_24  and  C_26 
ROOT
ATOM      1  C   UNL d   1       1.725   2.572   4.777  0.00  0.00     0.079 A 
ATOM      2  C   UNL d   1       1.458   2.046   2.053  0.00  0.00     0.042 A 
ATOM      3  C   UNL d   1       0.526   2.881   4.128  0.00  0.00     0.027 A 
ATOM      4  C   UNL d   1       2.792   2.013   4.070  0.00  0.00     0.027 A 
ATOM      5  C   UNL d   1       0.395   2.611   2.759  0.00  0.00     0.031 A 
ATOM      6  C   UNL d   1       2.651   1.742   2.709  0.00  0.00     0.031 A 
ENDROOT
BRANCH   2   7
ATOM      7  N   UNL d   1       1.316   1.608   0.713  0.00  0.00    -0.281 N 
ATOM      8  H   UNL d   1       0.722   0.797   0.547  0.00  0.00     0.179 HD
BRANCH   7   9
ATOM      9  S   UNL d   1       1.264   2.704  -0.560  0.00  0.00     0.266 S 
ATOM     10  O   UNL d   1       0.760   1.930  -1.681  0.00  0.00    -0.200 OA
ATOM     11  O   UNL d   1       0.557   3.900  -0.152  0.00  0.00    -0.200 OA
BRANCH   9  12
ATOM     12  C   UNL d   1       2.981   3.041  -0.912  0.00  0.00     0.115 A 
ATOM     13  C   UNL d   1       3.660   2.108  -1.727  0.00  0.00     0.065 A 
ATOM     14  C   UNL d   1       4.931   2.397  -2.220  0.00  0.00     0.069 A 
ATOM     15  C   UNL d   1       5.512   3.624  -1.912  0.00  0.00     0.039 A 
ATOM     16  C   UNL d   1       4.858   4.536  -1.078  0.00  0.00     0.041 A 
ATOM     17  C   UNL d   1       3.590   4.252  -0.557  0.00  0.00     0.091 A 
BRANCH  14  18
ATOM     18  O   UNL d   1       5.694   1.600  -3.025  0.00  0.00    -0.356 OA
ATOM     19  C   UNL d   1       5.227   0.279  -3.261  0.00  0.00     0.210 C 
ENDBRANCH  14  18
BRANCH  17  20
ATOM     20  O   UNL d   1       2.942   5.075   0.317  0.00  0.00    -0.354 OA
ATOM     21  C   UNL d   1       3.389   6.423   0.405  0.00  0.00     0.210 C 
ENDBRANCH  17  20
ENDBRANCH   9  12
ENDBRANCH   7   9
ENDBRANCH   2   7
BRANCH   1  22
ATOM     22  S   UNL d   1       1.936   2.929   6.504  0.00  0.00     0.258 S 
ATOM     23  O   UNL d   1       3.215   3.582   6.654  0.00  0.00    -0.201 OA
ATOM     24  O   UNL d   1       0.719   3.514   7.018  0.00  0.00    -0.201 OA
BRANCH  22  25
ATOM     25  N   UNL d   1       2.113   1.397   7.192  0.00  0.00    -0.315 N 
ATOM     26  H   UNL d   1       2.896   1.383   7.848  0.00  0.00     0.172 HD
BRANCH  25  27
ATOM     27  C   UNL d   1       0.888   0.678   7.564  0.00  0.00     0.134 C 
BRANCH  27  28
ATOM     28  C   UNL d   1       1.240  -0.700   8.125  0.00  0.00     0.046 C 
BRANCH  28  29
ATOM     29  C   UNL d   1      -0.014  -1.445   8.575  0.00  0.00     0.168 C 
BRANCH  29  30
ATOM     30  O   UNL d   1      -0.872  -1.618   7.450  0.00  0.00    -0.396 OA
ATOM     31  C   UNL d   1      -2.106  -2.225   7.809  0.00  0.00     0.201 C 
ENDBRANCH  29  30
ENDBRANCH  28  29
ENDBRANCH  27  28
ENDBRANCH  25  27
ENDBRANCH  22  25
ENDBRANCH   1  22
TORSDOF 11
