REMARK  2 active torsions:
REMARK  status: ('A' for Active; 'I' for Inactive)
REMARK    1  A    between atoms: C_10  and  C_2 
REMARK    2  A    between atoms: C_3  and  C_9 
ROOT
ATOM      1  C   UNL d   1      -0.311  -0.628   0.025  0.00  0.00     0.005 A 
ATOM      2  C   UNL d   1       0.926  -1.398  -0.041  0.00  0.00     0.049 C 
ATOM      3  C   UNL d   1      -0.250   0.747  -0.044  0.00  0.00    -0.004 A 
ATOM      4  N   UNL d   1       2.073  -0.808  -0.077  0.00  0.00    -0.388 N 
ATOM      5  HN  UNL d   1       2.909  -1.390  -0.130  1.00  0.00     0.159 HD
ATOM      6  S   UNL d   1      -1.772   1.505  -0.015  0.00  0.00    -0.105 SA
ATOM      7  C   UNL d   1      -1.673  -1.047   0.199  0.00  0.00     0.022 A 
ATOM      8  C   UNL d   1      -2.565   0.003   0.157  0.00  0.00     0.051 A 
ATOM      9  C   UNL d   1       1.005   1.529  -0.146  0.00  0.00     0.066 C 
ATOM     10  C   UNL d   1       2.250   0.648  -0.046  0.00  0.00     0.125 C 
ENDROOT
BRANCH   2  11
ATOM     11  C   UNL d   1       0.913  -2.891  -0.047  0.00  0.00    -0.009 A 
ATOM     12  C   UNL d   1      -0.024  -3.632  -0.775  0.00  0.00     0.014 A 
ATOM     13  C   UNL d   1       0.011  -5.032  -0.747  0.00  0.00     0.017 A 
ATOM     14  C   UNL d   1       0.999  -5.711  -0.018  0.00  0.00     0.048 A 
ATOM     15  C   UNL d   1       1.963  -4.962   0.673  0.00  0.00     0.017 A 
ATOM     16  C   UNL d   1       1.919  -3.565   0.658  0.00  0.00     0.014 A 
BRANCH  14  17
ATOM     17  C   UNL d   1       1.055  -7.220   0.011  0.00  0.00     0.417 C 
ATOM     18  F   UNL d   1      -0.021  -7.814  -0.577  0.00  0.00    -0.166 F 
ATOM     19  F   UNL d   1       2.151  -7.712  -0.629  0.00  0.00    -0.166 F 
ATOM     20  F   UNL d   1       1.107  -7.716   1.278  0.00  0.00    -0.166 F 
ENDBRANCH  14  17
ENDBRANCH   2  11
TORSDOF 2
