REMARK  3 active torsions:
REMARK  status: ('A' for Active; 'I' for Inactive)
REMARK    1  A    between atoms: C_10  and  N_5 
REMARK    2  A    between atoms: C_14  and  C_10 
REMARK       I    between atoms: C_11  and  N_12 
REMARK       I    between atoms: N_17  and  C_11 
REMARK       I    between atoms: N_12  and  C_14 
REMARK    3  A    between atoms: C_20  and  N_17 
ROOT
ATOM      1  N   UNL d   1       0.460   1.148  -0.717  0.00  0.00    -0.251 N 
ATOM      2  C   UNL d   1       1.108  -0.012  -0.367  0.00  0.00     0.174 A 
ATOM      3  C   UNL d   1       1.118   2.132  -1.428  0.00  0.00     0.324 C 
ATOM      4  C   UNL d   1       2.598   1.842  -1.720  0.00  0.00     0.331 C 
ATOM      5  N   UNL d   1       3.122   0.667  -1.183  0.00  0.00    -0.242 N 
ATOM      6  N   UNL d   1       2.352  -0.281  -0.561  0.00  0.00    -0.273 N 
ATOM      7  HN  UNL d   1       2.752  -1.171  -0.262  1.00  0.00     0.189 HD
ATOM      8  S   UNL d   1       0.039  -1.147   0.434  0.00  0.00    -0.050 SA
ATOM      9  C   UNL d   1      -0.890   1.199  -0.284  0.00  0.00     0.062 A 
ATOM     10  C   UNL d   1      -1.285   0.023   0.365  0.00  0.00     0.035 A 
ATOM     11  O   UNL d   1       3.286   2.646  -2.345  0.00  0.00    -0.260 OA
ATOM     12  O   UNL d   1       0.634   3.181  -1.833  0.00  0.00    -0.261 OA
ATOM     13  C   UNL d   1      -1.792   2.248  -0.412  0.00  0.00     0.031 A 
ATOM     14  C   UNL d   1      -2.561  -0.143   0.878  0.00  0.00     0.021 A 
ATOM     15  C   UNL d   1      -3.086   2.093   0.104  0.00  0.00     0.002 A 
ATOM     16  C   UNL d   1      -3.469   0.905   0.742  0.00  0.00     0.002 A 
ENDROOT
BRANCH   5  17
ATOM     17  C   UNL d   1       4.541   0.349  -1.330  0.00  0.00     0.255 C 
BRANCH  17  18
ATOM     18  C   UNL d   1       5.386   1.170  -0.354  0.00  0.00     0.245 C 
ATOM     19  N   UNL d   1       5.401   2.527  -0.632  0.00  0.00    -0.278 N 
ATOM     20  C   UNL d   1       5.978   3.570   0.056  0.00  0.00     0.327 C 
ATOM     21  H   UNL d   1       4.919   2.857  -1.465  0.00  0.00     0.173 HD
ATOM     22  N   UNL d   1       6.559   3.252   1.255  0.00  0.00    -0.309 N 
ATOM     23  O   UNL d   1       5.909   4.683  -0.459  0.00  0.00    -0.247 OA
ATOM     24  H   UNL d   1       6.602   2.259   1.473  0.00  0.00     0.170 HD
ATOM     25  O   UNL d   1       6.040   0.663   0.557  0.00  0.00    -0.271 OA
BRANCH  22  26
ATOM     26  C   UNL d   1       7.197   4.139   2.148  0.00  0.00     0.036 A 
ATOM     27  C   UNL d   1       7.247   5.523   1.959  0.00  0.00     0.029 A 
ATOM     28  C   UNL d   1       7.956   6.342   2.843  0.00  0.00     0.002 A 
ATOM     29  C   UNL d   1       8.610   5.787   3.937  0.00  0.00     0.000 A 
ATOM     30  C   UNL d   1       8.532   4.414   4.162  0.00  0.00     0.002 A 
ATOM     31  C   UNL d   1       7.825   3.594   3.275  0.00  0.00     0.029 A 
ENDBRANCH  22  26
ENDBRANCH  17  18
ENDBRANCH   5  17
TORSDOF 3
