REMARK  4 active torsions:
REMARK  status: ('A' for Active; 'I' for Inactive)
REMARK    1  A    between atoms: C_9  and  C_1 
REMARK       I    between atoms: C_2  and  N_4 
REMARK    2  A    between atoms: C_5  and  C_2 
REMARK    3  A    between atoms: C_3  and  C_10 
REMARK       I    between atoms: N_6  and  C_3 
REMARK    4  A    between atoms: N_4  and  N_6 
ROOT
ATOM      1  C   UNL d   1      -4.144  -4.905  -3.112  0.00  0.00     0.270 C 
ATOM      2  N   UNL d   1      -2.853  -4.560  -2.768  0.00  0.00    -0.263 N 
ATOM      3  O   UNL d   1      -4.518  -6.077  -3.139  0.00  0.00    -0.266 OA
ATOM      4  H   UNL d   1      -2.438  -3.638  -2.887  0.00  0.00     0.190 HD
ENDROOT
BRANCH   2   5
ATOM      5  N   UNL d   1      -1.963  -5.584  -2.402  0.00  0.00    -0.263 N 
ATOM      6  C   UNL d   1      -0.618  -5.280  -2.352  0.00  0.00     0.270 C 
ATOM      7  O   UNL d   1      -0.201  -4.167  -2.679  0.00  0.00    -0.266 OA
ATOM      8  H   UNL d   1      -2.379  -6.496  -2.234  0.00  0.00     0.190 HD
BRANCH   6   9
ATOM      9  C   UNL d   1       0.333  -6.326  -1.857  0.00  0.00     0.033 A 
ATOM     10  C   UNL d   1      -0.069  -7.546  -1.301  0.00  0.00     0.018 A 
ATOM     11  C   UNL d   1       0.885  -8.437  -0.786  0.00  0.00     0.017 A 
ATOM     12  C   UNL d   1       2.256  -8.127  -0.818  0.00  0.00     0.048 A 
ATOM     13  C   UNL d   1       2.655  -6.915  -1.393  0.00  0.00     0.017 A 
ATOM     14  C   UNL d   1       1.704  -6.026  -1.907  0.00  0.00     0.018 A 
BRANCH  12  15
ATOM     15  C   UNL d   1       3.268  -9.076  -0.216  0.00  0.00     0.417 C 
ATOM     16  F   UNL d   1       4.559  -8.674  -0.381  0.00  0.00    -0.166 F 
ATOM     17  F   UNL d   1       3.196 -10.327  -0.749  0.00  0.00    -0.166 F 
ATOM     18  F   UNL d   1       3.096  -9.232   1.126  0.00  0.00    -0.166 F 
ENDBRANCH  12  15
ENDBRANCH   6   9
ENDBRANCH   2   5
BRANCH   1  19
ATOM     19  C   UNL d   1      -5.100  -3.800  -3.429  0.00  0.00     0.035 A 
ATOM     20  C   UNL d   1      -6.333  -4.140  -4.006  0.00  0.00     0.049 A 
ATOM     21  C   UNL d   1      -7.318  -3.189  -4.247  0.00  0.00     0.060 A 
ATOM     22  N   UNL d   1      -8.496  -3.569  -4.782  0.00  0.00    -0.363 N 
ATOM     23  C   UNL d   1      -7.071  -1.837  -3.908  0.00  0.00     0.059 A 
ATOM     24  C   UNL d   1      -9.419  -2.600  -4.963  0.00  0.00     0.105 A 
ATOM     25  HN  UNL d   1      -8.680  -4.540  -5.037  1.00  0.00     0.165 HD
ATOM     26  C   UNL d   1      -9.178  -1.284  -4.626  0.00  0.00     0.105 A 
ATOM     27  N   UNL d   1      -8.002  -0.881  -4.100  0.00  0.00    -0.363 N 
ATOM     28  HN  UNL d   1      -7.827   0.095  -3.860  1.00  0.00     0.165 HD
ATOM     29  C   UNL d   1      -5.843  -1.499  -3.353  0.00  0.00     0.033 A 
ATOM     30  C   UNL d   1      -4.857  -2.463  -3.107  0.00  0.00     0.019 A 
ENDBRANCH   1  19
TORSDOF 4
