REMARK  3 active torsions:
REMARK  status: ('A' for Active; 'I' for Inactive)
REMARK       I    between atoms: C_2  and  N_1 
REMARK    1  A    between atoms: C_6  and  C_2 
REMARK    2  A    between atoms: C_4  and  N_3 
REMARK    3  A    between atoms: N_5  and  C_6 
ROOT
ATOM      1  N   UNL d   1      -1.333   0.047   0.072  0.00  0.00    -0.348 N 
ATOM      2  C   UNL d   1      -2.545   0.098   0.738  0.00  0.00     0.248 C 
ATOM      3  N   UNL d   1       1.530  -0.168  -0.021  0.00  0.00    -0.364 N 
ATOM      4  C   UNL d   1      -0.721  -1.248  -0.251  0.00  0.00     0.145 C 
ATOM      5  C   UNL d   1      -0.533   1.194  -0.376  0.00  0.00     0.145 C 
ATOM      6  C   UNL d   1       0.724  -1.361   0.291  0.00  0.00     0.144 C 
ATOM      7  C   UNL d   1       0.883   1.131   0.219  0.00  0.00     0.144 C 
ATOM      8  O   UNL d   1      -3.131  -0.932   1.097  0.00  0.00    -0.271 OA
ENDROOT
BRANCH   2   9
ATOM      9  C   UNL d   1      -3.170   1.465   1.091  0.00  0.00     0.374 C 
BRANCH   9  10
ATOM     10  N   UNL d   1      -3.493   2.265  -0.106  0.00  0.00     0.101 N 
ATOM     11  C   UNL d   1      -4.508   1.637  -0.978  0.00  0.00     0.299 C 
ATOM     12  C   UNL d   1      -5.970   1.845  -0.546  0.00  0.00     0.198 C 
ATOM     13  O   UNL d   1      -6.263   3.232  -0.339  0.00  0.00    -0.388 OA
ATOM     14  C   UNL d   1      -5.396   3.772   0.662  0.00  0.00     0.198 C 
ATOM     15  C   UNL d   1      -3.921   3.635   0.248  0.00  0.00     0.299 C 
ENDBRANCH   9  10
ENDBRANCH   2   9
BRANCH   3  16
ATOM     16  C   UNL d   1       2.569  -0.227  -0.934  0.00  0.00     0.102 A 
ATOM     17  N   UNL d   1       2.725   0.790  -1.816  0.00  0.00    -0.352 N 
ATOM     18  C   UNL d   1       3.800   0.773  -2.637  0.00  0.00     0.089 A 
ATOM     19  HN  UNL d   1       2.048   1.551  -1.859  1.00  0.00     0.166 HD
ATOM     20  C   UNL d   1       4.767  -0.213  -2.630  0.00  0.00     0.017 A 
ATOM     21  C   UNL d   1       4.612  -1.255  -1.733  0.00  0.00     0.005 A 
ATOM     22  C   UNL d   1       3.502  -1.264  -0.885  0.00  0.00     0.048 A 
ENDBRANCH   3  16
TORSDOF 3
