REMARK  9 active torsions:
REMARK  status: ('A' for Active; 'I' for Inactive)
REMARK    1  A    between atoms: N_6  and  C_1 
REMARK    2  A    between atoms: C_10  and  C_2 
REMARK    3  A    between atoms: C_8  and  N_6 
REMARK       I    between atoms: C_9  and  N_7 
REMARK    4  A    between atoms: N_13  and  C_8 
REMARK    5  A    between atoms: O_18  and  C_9 
REMARK    6  A    between atoms: O_19  and  C_10 
REMARK    7  A    between atoms: C_20  and  N_13 
REMARK    8  A    between atoms: C_21  and  O_18 
REMARK    9  A    between atoms: C_22  and  O_19 
ROOT
ATOM      1  C   UNL d   1       1.929   0.965   0.155  0.00  0.00     0.093 C 
ATOM      2  C   UNL d   1       0.815   1.751   0.402  0.00  0.00     0.080 C 
ATOM      3  C   UNL d   1      -0.096  -0.390  -0.015  0.00  0.00     0.010 C 
ATOM      4  C   UNL d   1      -0.393   0.952   0.165  0.00  0.00    -0.023 C 
ATOM      5  S   UNL d   1       1.556  -0.702   0.066  0.00  0.00    -0.074 SA
ATOM      6  N   UNL d   1      -2.384  -0.961  -0.464  0.00  0.00    -0.323 N 
ATOM      7  C   UNL d   1      -3.226  -1.479  -1.426  0.00  0.00     0.363 C 
ATOM      8  C   UNL d   1      -1.065  -1.517  -0.193  0.00  0.00     0.174 C 
ATOM      9  C   UNL d   1      -1.840   1.389   0.151  0.00  0.00     0.061 C 
ATOM     10  C   UNL d   1      -2.788   0.189   0.347  0.00  0.00     0.133 C 
ATOM     11  O   UNL d   1      -4.309  -0.993  -1.720  0.00  0.00    -0.238 OA
ENDROOT
BRANCH   1  12
ATOM     12  N   UNL d   1       3.291   1.077  -0.005  0.00  0.00    -0.327 N 
ATOM     13  H   UNL d   1       3.747   0.174   0.015  0.00  0.00     0.169 HD
BRANCH  12  14
ATOM     14  C   UNL d   1       4.019   2.009  -0.724  0.00  0.00     0.177 C 
ATOM     15  S   UNL d   1       3.710   3.615  -1.025  0.00  0.00    -0.040 SA
BRANCH  14  16
ATOM     16  N   UNL d   1       5.215   1.460  -1.192  0.00  0.00    -0.333 N 
ATOM     17  H   UNL d   1       5.981   2.107  -1.349  0.00  0.00     0.168 HD
BRANCH  16  18
ATOM     18  C   UNL d   1       5.323   0.204  -1.844  0.00  0.00     0.034 A 
ATOM     19  C   UNL d   1       4.230  -0.373  -2.505  0.00  0.00     0.029 A 
ATOM     20  C   UNL d   1       4.343  -1.621  -3.118  0.00  0.00     0.002 A 
ATOM     21  C   UNL d   1       5.555  -2.302  -3.076  0.00  0.00     0.000 A 
ATOM     22  C   UNL d   1       6.657  -1.722  -2.448  0.00  0.00     0.002 A 
ATOM     23  C   UNL d   1       6.550  -0.459  -1.850  0.00  0.00     0.029 A 
ENDBRANCH  16  18
ENDBRANCH  14  16
ENDBRANCH  12  14
ENDBRANCH   1  12
BRANCH   2  24
ATOM     24  C   UNL d   1       0.862   3.107   0.967  0.00  0.00     0.296 C 
ATOM     25  O   UNL d   1       1.816   3.533   1.607  0.00  0.00    -0.259 OA
BRANCH  24  26
ATOM     26  O   UNL d   1      -0.337   3.762   0.893  0.00  0.00    -0.318 OA
BRANCH  26  27
ATOM     27  C   UNL d   1      -0.534   4.809   1.855  0.00  0.00     0.174 C 
ATOM     28  C   UNL d   1      -0.261   6.169   1.250  0.00  0.00     0.034 C 
ENDBRANCH  26  27
ENDBRANCH  24  26
ENDBRANCH   2  24
BRANCH   7  29
ATOM     29  O   UNL d   1      -2.712  -2.597  -2.011  0.00  0.00    -0.304 OA
BRANCH  29  30
ATOM     30  C   UNL d   1      -3.463  -3.144  -3.103  0.00  0.00     0.176 C 
ATOM     31  C   UNL d   1      -4.567  -4.055  -2.600  0.00  0.00     0.034 C 
ENDBRANCH  29  30
ENDBRANCH   7  29
TORSDOF 9
