REMARK  5 active torsions:
REMARK  status: ('A' for Active; 'I' for Inactive)
REMARK    1  A    between atoms: C_2  and  N_1 
REMARK       I    between atoms: C_3  and  N_1 
REMARK    2  A    between atoms: C_6  and  C_3 
REMARK    3  A    between atoms: O_7  and  C_6 
REMARK    4  A    between atoms: C_16  and  O_7 
REMARK    5  A    between atoms: C_8  and  C_9 
ROOT
ATOM      1  N   UNL d   1       3.189  -0.753  -1.122  0.00  0.00    -0.324 N 
ATOM      2  C   UNL d   1       2.516  -0.302   0.013  0.00  0.00     0.251 C 
ATOM      3  O   UNL d   1       1.390   0.190   0.016  0.00  0.00    -0.270 OA
ATOM      4  H   UNL d   1       3.907  -1.443  -0.950  0.00  0.00     0.169 HD
ENDROOT
BRANCH   2   5
ATOM      5  C   UNL d   1       3.316  -0.552   1.317  0.00  0.00     0.217 C 
ATOM      6  C   UNL d   1       2.354  -0.787   2.480  0.00  0.00     0.050 C 
BRANCH   5   7
ATOM      7  O   UNL d   1       4.151   0.586   1.579  0.00  0.00    -0.337 OA
BRANCH   7   8
ATOM      8  C   UNL d   1       5.191   0.368   2.445  0.00  0.00     0.070 A 
ATOM      9  C   UNL d   1       6.076  -0.696   2.326  0.00  0.00     0.037 A 
ATOM     10  C   UNL d   1       7.123  -0.849   3.243  0.00  0.00     0.011 A 
ATOM     11  C   UNL d   1       7.336   0.069   4.289  0.00  0.00    -0.050 A 
ATOM     12  C   UNL d   1       6.455   1.160   4.366  0.00  0.00     0.011 A 
ATOM     13  C   UNL d   1       5.400   1.312   3.449  0.00  0.00     0.037 A 
BRANCH  11  14
ATOM     14  C   UNL d   1       8.499  -0.155   5.274  0.00  0.00    -0.024 C 
ATOM     15  C   UNL d   1       8.642   0.945   6.349  0.00  0.00     0.019 C 
ATOM     16  C   UNL d   1       8.293  -1.495   6.016  0.00  0.00     0.019 C 
ATOM     17  C   UNL d   1       9.837  -0.210   4.502  0.00  0.00     0.019 C 
ENDBRANCH  11  14
ENDBRANCH   7   8
ENDBRANCH   5   7
ENDBRANCH   2   5
BRANCH   1  18
ATOM     18  C   UNL d   1       2.649  -0.758  -2.434  0.00  0.00     0.046 A 
ATOM     19  C   UNL d   1       2.117   0.396  -3.045  0.00  0.00    -0.034 A 
ATOM     20  C   UNL d   1       1.676   0.324  -4.384  0.00  0.00     0.015 A 
ATOM     21  C   UNL d   1       2.041   1.755  -2.402  0.00  0.00     0.050 C 
ATOM     22  C   UNL d   1       1.790  -0.848  -5.135  0.00  0.00    -0.061 A 
ATOM     23  C   UNL d   1       2.321  -1.982  -4.525  0.00  0.00     0.015 A 
ATOM     24  C   UNL d   1       1.355  -0.869  -6.571  0.00  0.00     0.048 C 
ATOM     25  C   UNL d   1       2.739  -1.961  -3.181  0.00  0.00    -0.034 A 
ATOM     26  C   UNL d   1       3.247  -3.256  -2.607  0.00  0.00     0.050 C 
ENDBRANCH   1  18
TORSDOF 5
