REMARK  1 active torsions:
REMARK  status: ('A' for Active; 'I' for Inactive)
REMARK    1  A    between atoms: S_9  and  C_2 
ROOT
ATOM      1  S   UNL d   1       1.698  -0.840   0.003  0.00  0.00    -0.045 SA
ATOM      2  C   UNL d   1       2.072   0.837   0.002  0.00  0.00     0.114 A 
ATOM      3  N   UNL d   1       1.052   1.667   0.001  0.00  0.00    -0.343 N 
ATOM      4  HN  UNL d   1       1.116   2.685   0.000  1.00  0.00     0.167 HD
ATOM      5  C   UNL d   1       0.043  -0.450   0.003  0.00  0.00     0.103 A 
ATOM      6  C   UNL d   1      -0.124   0.933   0.002  0.00  0.00     0.067 A 
ATOM      7  N   UNL d   1      -0.925  -1.390   0.005  0.00  0.00    -0.358 N 
ATOM      8  HN  UNL d   1      -0.733  -2.392   0.006  1.00  0.00     0.166 HD
ATOM      9  C   UNL d   1      -1.446   1.413   0.003  0.00  0.00     0.034 A 
ATOM     10  C   UNL d   1      -2.172  -0.872   0.006  0.00  0.00     0.089 A 
ATOM     11  C   UNL d   1      -2.484   0.480   0.005  0.00  0.00     0.019 A 
ENDROOT
BRANCH   2  12
ATOM     12  S   UNL d   1       3.739   1.385   0.001  0.00  0.00    -0.109 SA
ATOM     13  C   UNL d   1       3.532   3.176   0.001  0.00  0.00     0.097 C 
ENDBRANCH   2  12
TORSDOF 1
