REMARK  2 active torsions:
REMARK  status: ('A' for Active; 'I' for Inactive)
REMARK    1  A    between atoms: O_22  and  C_10 
REMARK    2  A    between atoms: C_20  and  C_11 
ROOT
ATOM      1  C   UNL d   1      37.134  13.696  -3.084  0.00  0.00    -0.029 C 
ATOM      2  C   UNL d   1      33.496  14.521  -5.733  0.00  0.00    -0.009 C 
ATOM      3  C   UNL d   1      37.355  12.198  -2.665  0.00  0.00    -0.029 C 
ATOM      4  C   UNL d   1      35.626  13.982  -3.504  0.00  0.00    -0.001 C 
ATOM      5  C   UNL d   1      38.910  14.250  -1.272  0.00  0.00    -0.029 C 
ATOM      6  C   UNL d   1      34.144  13.116  -5.535  0.00  0.00     0.001 C 
ATOM      7  C   UNL d   1      34.804  12.816  -4.152  0.00  0.00    -0.005 C 
ATOM      8  C   UNL d   1      37.540  14.567  -1.837  0.00  0.00     0.048 C 
ATOM      9  C   UNL d   1      39.603  12.970  -1.646  0.00  0.00     0.152 C 
ATOM     10  C   UNL d   1      31.952  14.255  -5.715  0.00  0.00     0.062 C 
ATOM     11  C   UNL d   1      39.652  15.141  -0.578  0.00  0.00     0.076 C 
ATOM     12  C   UNL d   1      38.861  11.923  -2.444  0.00  0.00     0.093 C 
ATOM     13  C   UNL d   1      33.978  15.541  -4.688  0.00  0.00     0.013 C 
ATOM     14  C   UNL d   1      35.435  15.304  -4.295  0.00  0.00     0.007 C 
ATOM     15  C   UNL d   1      35.441  11.410  -4.190  0.00  0.00     0.006 C 
ATOM     16  C   UNL d   1      33.016  12.098  -5.862  0.00  0.00     0.009 C 
ATOM     17  C   UNL d   1      36.891  11.261  -3.784  0.00  0.00     0.011 C 
ATOM     18  C   UNL d   1      31.843  12.896  -6.412  0.00  0.00     0.038 C 
ATOM     19  O   UNL d   1      40.773  12.758  -1.317  0.00  0.00    -0.293 OA
ATOM     20  C   UNL d   1      38.064  14.107  -4.269  0.00  0.00     0.016 C 
ATOM     21  C   UNL d   1      33.921  15.039  -7.144  0.00  0.00     0.018 C 
ATOM     22  C   UNL d   1      36.611  11.809  -1.355  0.00  0.00     0.016 C 
ATOM     23  C   UNL d   1      31.306  14.207  -4.325  0.00  0.00     0.046 C 
ENDROOT
BRANCH  11  24
ATOM     24  C   UNL d   1      39.553  15.047   0.911  0.00  0.00    -0.054 A 
ATOM     25  C   UNL d   1      40.588  14.400   1.614  0.00  0.00     0.007 A 
ATOM     26  C   UNL d   1      40.548  14.273   3.003  0.00  0.00     0.001 A 
ATOM     27  C   UNL d   1      39.474  14.799   3.713  0.00  0.00     0.000 A 
ATOM     28  C   UNL d   1      38.442  15.445   3.028  0.00  0.00     0.001 A 
ATOM     29  C   UNL d   1      38.479  15.569   1.631  0.00  0.00     0.007 A 
ENDBRANCH  11  24
BRANCH  10  30
ATOM     30  O   UNL d   1      31.241  15.234  -6.469  0.00  0.00    -0.389 OA
ATOM     31  H   UNL d   1      30.320  14.947  -6.537  0.00  0.00     0.210 HD
ENDBRANCH  10  30
TORSDOF 2
