REMARK  1 active torsions:
REMARK  status: ('A' for Active; 'I' for Inactive)
REMARK       I    between atoms: C_3  and  N_1 
REMARK       I    between atoms: C_4  and  N_1 
REMARK       I    between atoms: N_6  and  C_3 
REMARK       I    between atoms: N_12  and  C_4 
REMARK    1  A    between atoms: C_7  and  N_6 
ROOT
ATOM      1  N   UNL d   1       0.813  -0.304   0.231  0.00  0.00    -0.167 N 
ATOM      2  HN  UNL d   1       1.810  -0.476   0.362  1.00  0.00     0.187 HD
ATOM      3  C   UNL d   1       0.334   0.878   0.464  0.00  0.00     0.678 C 
ATOM      4  C   UNL d   1       0.015  -1.311  -0.181  0.00  0.00     0.163 C 
ATOM      5  N   UNL d   1       1.098   1.926   0.911  0.00  0.00    -0.190 N 
ATOM      6  N   UNL d   1       0.183  -2.433   0.423  0.00  0.00    -0.376 N 
ATOM      7  HN  UNL d   1      -0.301  -3.315   0.254  1.00  0.00     0.158 HD
ATOM      8  N   UNL d   1      -0.955   1.270   0.286  0.00  0.00    -0.234 N 
ATOM      9  N   UNL d   1      -0.864  -1.221  -1.201  0.00  0.00    -0.274 NA
ATOM     10  H   UNL d   1       0.710   2.440   1.693  0.00  0.00     0.184 HD
ATOM     11  H   UNL d   1       0.916  -2.239   1.115  0.00  0.00     0.158 HD
ATOM     12  H   UNL d   1      -1.635   0.543   0.082  0.00  0.00     0.174 HD
ATOM     13  H   UNL d   1      -1.310   2.096   0.744  0.00  0.00     0.174 HD
ATOM     14  H   UNL d   1      -0.524  -0.612  -1.934  0.00  0.00     0.127 HD
ATOM     15  H   UNL d   1      -1.080  -2.152  -1.538  0.00  0.00     0.127 HD
ENDROOT
BRANCH   5  16
ATOM     16  C   UNL d   1       2.514   1.984   0.874  0.00  0.00     0.072 A 
ATOM     17  C   UNL d   1       3.248   2.606   1.907  0.00  0.00     0.083 A 
ATOM     18  C   UNL d   1       4.647   2.694   1.826  0.00  0.00     0.058 A 
ATOM     19 CL   UNL d   1       2.386   3.246   3.275  0.00  0.00    -0.080 Cl
ATOM     20 CL   UNL d   1       5.604   3.449   3.053  0.00  0.00    -0.082 Cl
ATOM     21  C   UNL d   1       5.322   2.169   0.721  0.00  0.00     0.026 A 
ATOM     22  C   UNL d   1       4.609   1.546  -0.299  0.00  0.00     0.004 A 
ATOM     23  C   UNL d   1       3.221   1.455  -0.219  0.00  0.00     0.032 A 
ENDBRANCH   5  16
TORSDOF 1
