REMARK  5 active torsions:
REMARK  status: ('A' for Active; 'I' for Inactive)
REMARK    1  A    between atoms: C_3  and  C_1 
REMARK    2  A    between atoms: N_5  and  C_2 
REMARK       I    between atoms: N_8  and  C_3 
REMARK    3  A    between atoms: N_4  and  C_9 
REMARK       I    between atoms: C_6  and  N_5 
REMARK    4  A    between atoms: C_13  and  C_6 
REMARK    5  A    between atoms: C_22  and  N_8 
ROOT
ATOM      1  C   UNL d   1      -0.048   2.459   0.246  0.00  0.00     0.061 C 
ATOM      2  C   UNL d   1      -1.170   1.748  -0.234  0.00  0.00     0.068 C 
ATOM      3  C   UNL d   1      -1.015   0.411  -0.631  0.00  0.00     0.040 C 
ATOM      4  C   UNL d   1       0.178  -0.266  -0.383  0.00  0.00     0.040 C 
ATOM      5  C   UNL d   1       1.148   1.772   0.504  0.00  0.00     0.038 C 
ATOM      6  C   UNL d   1       1.234   0.408   0.226  0.00  0.00     0.013 C 
ATOM      7 BR   UNL d   1      -2.432  -0.545  -1.466  0.00  0.00    -0.049 Br
ATOM      8 BR   UNL d   1       2.827  -0.530   0.622  0.00  0.00    -0.051 Br
ENDROOT
BRANCH   2   9
ATOM      9  N   UNL d   1      -2.474   2.307  -0.267  0.00  0.00    -0.321 N 
ATOM     10  C   UNL d   1      -2.992   2.970   0.837  0.00  0.00     0.256 C 
ATOM     11  O   UNL d   1      -2.351   3.197   1.861  0.00  0.00    -0.267 OA
ATOM     12  H   UNL d   1      -3.109   1.891  -0.932  0.00  0.00     0.169 HD
BRANCH  10  13
ATOM     13  C   UNL d   1      -4.444   3.329   0.811  0.00  0.00     0.032 A 
ATOM     14  C   UNL d   1      -5.361   2.789  -0.104  0.00  0.00     0.019 A 
ATOM     15  C   UNL d   1      -6.720   3.117  -0.022  0.00  0.00     0.037 A 
ATOM     16  C   UNL d   1      -7.169   3.986   0.980  0.00  0.00     0.102 A 
ATOM     17  C   UNL d   1      -6.266   4.542   1.892  0.00  0.00     0.037 A 
ATOM     18  C   UNL d   1      -4.911   4.210   1.803  0.00  0.00     0.019 A 
BRANCH  16  19
ATOM     19  N   UNL d   1      -8.600   4.295   1.088  0.00  0.00    -0.116 N 
ATOM     20  O   UNL d   1      -9.366   3.760   0.273  0.00  0.00    -0.532 OA
ATOM     21  O   UNL d   1      -8.958   5.064   1.991  0.00  0.00    -0.532 OA
ENDBRANCH  16  19
ENDBRANCH  10  13
ENDBRANCH   2   9
BRANCH   1  22
ATOM     22  C   UNL d   1      -0.049   3.951   0.171  0.00  0.00     0.258 C 
ATOM     23  N   UNL d   1       0.748   4.637   1.070  0.00  0.00    -0.323 N 
ATOM     24  H   UNL d   1       1.208   4.101   1.797  0.00  0.00     0.169 HD
ATOM     25  O   UNL d   1      -0.685   4.460  -0.750  0.00  0.00    -0.267 OA
BRANCH  23  26
ATOM     26  C   UNL d   1       1.003   6.033   1.067  0.00  0.00     0.035 A 
ATOM     27  C   UNL d   1       0.350   6.938   0.220  0.00  0.00     0.032 A 
ATOM     28  C   UNL d   1       0.673   8.298   0.243  0.00  0.00     0.044 A 
ATOM     29  C   UNL d   1       1.654   8.753   1.109  0.00  0.00     0.116 A 
ATOM     30  C   UNL d   1       2.308   7.875   1.963  0.00  0.00     0.044 A 
ATOM     31  F   UNL d   1       1.974  10.054   1.124  0.00  0.00    -0.206 F 
ATOM     32  C   UNL d   1       1.977   6.515   1.947  0.00  0.00     0.032 A 
ENDBRANCH  23  26
ENDBRANCH   1  22
TORSDOF 5
