REMARK  3 active torsions:
REMARK  status: ('A' for Active; 'I' for Inactive)
REMARK    1  A    between atoms: C_7  and  C_1 
REMARK    2  A    between atoms: S_8  and  C_7 
REMARK    3  A    between atoms: C_9  and  S_8 
ROOT
ATOM      1  C   UNL d   1      -1.203   1.052   0.015  0.00  0.00    -0.036 C 
ATOM      2  C   UNL d   1       0.059   1.712   0.108  0.00  0.00    -0.048 C 
ATOM      3  C   UNL d   1      -1.237  -0.375  -0.025  0.00  0.00    -0.048 C 
ATOM      4  C   UNL d   1       1.263   0.962   0.003  0.00  0.00    -0.049 C 
ATOM      5  C   UNL d   1      -0.025  -1.123  -0.022  0.00  0.00    -0.049 C 
ATOM      6  C   UNL d   1       1.222  -0.454  -0.029  0.00  0.00    -0.049 C 
ATOM      7  C   UNL d   1       2.616   1.647  -0.050  0.00  0.00     0.049 C 
ATOM      8  C   UNL d   1      -0.042  -2.639  -0.005  0.00  0.00     0.049 C 
ATOM      9  C   UNL d   1       0.166   3.208   0.322  0.00  0.00     0.049 C 
ATOM     10  C   UNL d   1       2.528  -1.222  -0.046  0.00  0.00     0.049 C 
ATOM     11  C   UNL d   1      -2.550  -1.132  -0.042  0.00  0.00     0.049 C 
ENDROOT
BRANCH   1  12
ATOM     12  C   UNL d   1      -2.507   1.847   0.005  0.00  0.00     0.119 C 
BRANCH  12  13
ATOM     13  S   UNL d   1      -3.370   1.882  -1.613  0.00  0.00    -0.125 SA
BRANCH  13  14
ATOM     14  C   UNL d   1      -4.908   2.670  -1.132  0.00  0.00     0.001 A 
ATOM     15  C   UNL d   1      -4.927   3.824  -0.341  0.00  0.00     0.020 A 
ATOM     16  C   UNL d   1      -6.138   4.394   0.061  0.00  0.00     0.025 A 
ATOM     17  C   UNL d   1      -7.344   3.827  -0.346  0.00  0.00     0.034 A 
ATOM     18  C   UNL d   1      -7.342   2.703  -1.173  0.00  0.00     0.025 A 
ATOM     19 CL   UNL d   1      -8.830   4.516   0.170  0.00  0.00    -0.084 Cl
ATOM     20  C   UNL d   1      -6.127   2.129  -1.568  0.00  0.00     0.020 A 
ENDBRANCH  13  14
ENDBRANCH  12  13
ENDBRANCH   1  12
TORSDOF 3
