REMARK  3 active torsions:
REMARK  status: ('A' for Active; 'I' for Inactive)
REMARK    1  A    between atoms: N_10  and  C_1 
REMARK    2  A    between atoms: S_11  and  C_8 
REMARK    3  A    between atoms: N_12  and  C_9 
ROOT
ATOM      1  C   UNL d   1      -1.984  -0.831   1.154  0.00  0.00     0.684 A 
ATOM      2  N   UNL d   1      -1.308   0.283   0.897  0.00  0.00    -0.170 N 
ATOM      3  HN  UNL d   1      -1.634   0.967   0.215  1.00  0.00     0.186 HD
ATOM      4  N   UNL d   1      -1.566  -1.750   2.012  0.00  0.00    -0.166 N 
ATOM      5  HN  UNL d   1      -2.115  -2.584   2.223  1.00  0.00     0.187 HD
ATOM      6  N   UNL d   1       0.329  -0.425   2.427  0.00  0.00    -0.312 N 
ATOM      7  HN  UNL d   1       1.206  -0.267   2.923  1.00  0.00     0.170 HD
ATOM      8  C   UNL d   1      -0.184   0.452   1.579  0.00  0.00     0.161 A 
ATOM      9  C   UNL d   1      -0.391  -1.522   2.578  0.00  0.00     0.171 A 
ENDROOT
BRANCH   1  10
ATOM     10  N   UNL d   1      -3.217  -0.942   0.542  0.00  0.00    -0.213 N 
ATOM     11  C   UNL d   1      -4.144  -1.976   1.000  0.00  0.00     0.167 C 
ATOM     12  C   UNL d   1      -5.544  -1.635   0.448  0.00  0.00     0.188 C 
ATOM     13  O   UNL d   1      -5.537  -1.501  -0.987  0.00  0.00    -0.388 OA
ATOM     14  C   UNL d   1      -4.609  -0.480  -1.397  0.00  0.00     0.188 C 
ATOM     15  C   UNL d   1      -3.187  -0.802  -0.919  0.00  0.00     0.167 C 
ENDBRANCH   1  10
BRANCH   8  16
ATOM     16  S   UNL d   1       0.687   1.993   1.399  0.00  0.00    -0.098 SA
ATOM     17  C   UNL d   1      -0.489   2.911   0.370  0.00  0.00     0.099 C 
ENDBRANCH   8  16
BRANCH   9  18
ATOM     18  N   UNL d   1       0.112  -2.485   3.429  0.00  0.00    -0.273 NA
ATOM     19  H   UNL d   1       0.766  -2.074   4.080  0.00  0.00     0.127 HD
ATOM     20  H   UNL d   1      -0.631  -3.057   3.808  0.00  0.00     0.127 HD
ENDBRANCH   9  18
TORSDOF 3
