REMARK  4 active torsions:
REMARK  status: ('A' for Active; 'I' for Inactive)
REMARK       I    between atoms: C_7  and  N_1 
REMARK    1  A    between atoms: C_8  and  C_3 
REMARK    2  A    between atoms: C_10  and  C_4 
REMARK    3  A    between atoms: O_13  and  C_8 
REMARK    4  A    between atoms: C_18  and  O_13 
ROOT
ATOM      1  N   UNL d   1      -1.153   1.001   0.270  0.00  0.00    -0.256 N 
ATOM      2  C   UNL d   1      -1.124  -0.378   0.273  0.00  0.00     0.330 C 
ATOM      3  C   UNL d   1       1.346   0.955   0.009  0.00  0.00     0.067 C 
ATOM      4  C   UNL d   1       0.080   1.788   0.018  0.00  0.00     0.171 C 
ATOM      5  C   UNL d   1       1.312  -0.388   0.078  0.00  0.00     0.024 C 
ATOM      6  N   UNL d   1       0.091  -0.984   0.208  0.00  0.00    -0.312 N 
ATOM      7  C   UNL d   1      -2.359   1.676   0.056  0.00  0.00     0.224 C 
ATOM      8  O   UNL d   1      -2.096  -1.128   0.354  0.00  0.00    -0.246 OA
ATOM      9  O   UNL d   1      -2.421   2.770  -0.512  0.00  0.00    -0.273 OA
ATOM     10  C   UNL d   1       2.442  -1.378  -0.048  0.00  0.00     0.069 C 
ATOM     11  C   UNL d   1      -3.649   1.004   0.469  0.00  0.00     0.117 C 
ATOM     12  H   UNL d   1       0.028  -1.998   0.212  0.00  0.00     0.170 HD
ENDROOT
BRANCH   4  13
ATOM     13  C   UNL d   1       0.177   2.983   0.982  0.00  0.00    -0.030 A 
ATOM     14  C   UNL d   1       0.108   4.292   0.465  0.00  0.00     0.009 A 
ATOM     15  C   UNL d   1       0.161   5.403   1.305  0.00  0.00     0.001 A 
ATOM     16  C   UNL d   1       0.297   5.227   2.679  0.00  0.00     0.000 A 
ATOM     17  C   UNL d   1       0.378   3.938   3.208  0.00  0.00     0.001 A 
ATOM     18  C   UNL d   1       0.316   2.820   2.368  0.00  0.00     0.009 A 
ENDBRANCH   4  13
BRANCH   3  19
ATOM     19  C   UNL d   1       2.587   1.709  -0.281  0.00  0.00     0.293 C 
ATOM     20  O   UNL d   1       2.630   2.628  -1.087  0.00  0.00    -0.259 OA
BRANCH  19  21
ATOM     21  O   UNL d   1       3.631   1.224   0.428  0.00  0.00    -0.318 OA
BRANCH  21  22
ATOM     22  C   UNL d   1       4.934   1.699   0.041  0.00  0.00     0.174 C 
ATOM     23  C   UNL d   1       5.358   1.092  -1.289  0.00  0.00     0.034 C 
ENDBRANCH  21  22
ENDBRANCH  19  21
ENDBRANCH   3  19
TORSDOF 4
