REMARK  8 active torsions:
REMARK  status: ('A' for Active; 'I' for Inactive)
REMARK    1  A    between atoms: C_13  and  N_1 
REMARK    2  A    between atoms: C_8  and  C_2 
REMARK       I    between atoms: C_7  and  N_12 
REMARK    3  A    between atoms: C_9  and  C_7 
REMARK    4  A    between atoms: O_22  and  C_8 
REMARK    5  A    between atoms: C_11  and  C_10 
REMARK    6  A    between atoms: O_21  and  C_11 
REMARK    7  A    between atoms: N_12  and  C_19 
REMARK    8  A    between atoms: C_28  and  O_22 
ROOT
ATOM      1  C   UNL d   1      -0.373  -2.465  -0.127  0.00  0.00     0.056 A 
ATOM      2  C   UNL d   1       0.430  -3.292   0.676  0.00  0.00     0.034 A 
ATOM      3  C   UNL d   1      -1.268  -3.076  -1.006  0.00  0.00     0.034 A 
ATOM      4  C   UNL d   1      -0.614  -5.293  -0.220  0.00  0.00     0.035 A 
ATOM      5  C   UNL d   1       0.311  -4.690   0.635  0.00  0.00     0.032 A 
ATOM      6  C   UNL d   1      -1.379  -4.478  -1.048  0.00  0.00     0.032 A 
ENDROOT
BRANCH   4   7
ATOM      7  N   UNL d   1      -0.720  -6.702  -0.157  0.00  0.00    -0.323 N 
ATOM      8  C   UNL d   1      -1.574  -7.501  -0.887  0.00  0.00     0.257 C 
ATOM      9  O   UNL d   1      -2.331  -7.083  -1.762  0.00  0.00    -0.267 OA
ATOM     10  H   UNL d   1      -0.124  -7.144   0.540  0.00  0.00     0.169 HD
BRANCH   8  11
ATOM     11  C   UNL d   1      -1.635  -8.977  -0.615  0.00  0.00     0.049 A 
ATOM     12  C   UNL d   1      -0.618  -9.830  -0.147  0.00  0.00     0.053 A 
ATOM     13  C   UNL d   1      -0.850 -11.225  -0.096  0.00  0.00     0.019 A 
ATOM     14  C   UNL d   1      -2.063 -11.775  -0.513  0.00  0.00     0.001 A 
ATOM     15  C   UNL d   1      -3.083 -10.941  -0.939  0.00  0.00     0.001 A 
ATOM     16  C   UNL d   1      -2.872  -9.562  -0.981  0.00  0.00     0.018 A 
BRANCH  12  17
ATOM     17  C   UNL d   1       0.681  -9.352   0.384  0.00  0.00     0.177 C 
ATOM     18  O   UNL d   1       0.780  -8.353   1.076  0.00  0.00    -0.646 OA
BRANCH  17  19
ATOM     19  O   UNL d   1       1.740 -10.133   0.087  0.00  0.00    -0.773 OA
ATOM     20  H   UNL d   1       1.585 -10.863  -0.541  0.00  0.00     0.167 HD
ENDBRANCH  17  19
ENDBRANCH  12  17
ENDBRANCH   8  11
ENDBRANCH   4   7
BRANCH   1  21
ATOM     21  N   UNL d   1      -0.212  -1.043  -0.015  0.00  0.00    -0.260 N 
ATOM     22  N   UNL d   1       0.792  -0.596   0.781  0.00  0.00    -0.297 N 
ATOM     23  C   UNL d   1       0.831   0.723   0.623  0.00  0.00     0.041 A 
ATOM     24  HN  UNL d   1       1.395  -1.160   1.379  1.00  0.00     0.187 HD
ATOM     25  C   UNL d   1       1.910   1.485   1.304  0.00  0.00     0.071 C 
ATOM     26  C   UNL d   1      -0.207   1.185  -0.220  0.00  0.00     0.087 A 
ATOM     27  C   UNL d   1      -0.902   0.029  -0.588  0.00  0.00     0.049 A 
ATOM     28  C   UNL d   1      -2.130  -0.089  -1.419  0.00  0.00     0.071 C 
BRANCH  26  29
ATOM     29  C   UNL d   1      -0.464   2.555  -0.650  0.00  0.00     0.297 C 
ATOM     30  O   UNL d   1      -1.315   2.872  -1.474  0.00  0.00    -0.259 OA
BRANCH  29  31
ATOM     31  O   UNL d   1       0.417   3.434  -0.096  0.00  0.00    -0.318 OA
BRANCH  31  32
ATOM     32  C   UNL d   1       0.584   4.681  -0.780  0.00  0.00     0.174 C 
ATOM     33  C   UNL d   1       1.611   4.483  -1.880  0.00  0.00     0.034 C 
ENDBRANCH  31  32
ENDBRANCH  29  31
ENDBRANCH  26  29
ENDBRANCH   1  21
TORSDOF 8
