REMARK  7 active torsions:
REMARK  status: ('A' for Active; 'I' for Inactive)
REMARK    1  A    between atoms: C_2  and  N_1 
REMARK    2  A    between atoms: N_6  and  C_2 
REMARK    3  A    between atoms: C_19  and  C_4 
REMARK    4  A    between atoms: C_9  and  C_5 
REMARK    5  A    between atoms: C_8  and  N_6 
REMARK    6  A    between atoms: O_17  and  C_9 
REMARK    7  A    between atoms: C_22  and  C_19 
ROOT
ATOM      1  C   UNL d   1      -3.607   0.482  -1.003  0.00  0.00     0.175 C 
ATOM      2  S   UNL d   1      -4.763  -0.673  -1.441  0.00  0.00    -0.041 SA
ENDROOT
BRANCH   1   3
ATOM      3  N   UNL d   1      -2.550   0.241  -0.102  0.00  0.00    -0.349 N 
ATOM      4  C   UNL d   1      -1.629   1.313   0.409  0.00  0.00     0.120 C 
ATOM      5  C   UNL d   1      -0.217   0.757   0.372  0.00  0.00    -0.022 A 
ATOM      6  C   UNL d   1       1.000   1.509   0.278  0.00  0.00     0.017 A 
ATOM      7  C   UNL d   1       0.056  -0.598   0.415  0.00  0.00    -0.008 A 
ATOM      8  C   UNL d   1       2.120   0.707   0.300  0.00  0.00     0.051 A 
ATOM      9  S   UNL d   1       1.718  -0.952   0.402  0.00  0.00    -0.106 SA
ATOM     10  C   UNL d   1      -0.979  -1.672   0.416  0.00  0.00     0.066 C 
ATOM     11  C   UNL d   1      -2.385  -1.076   0.581  0.00  0.00     0.131 C 
BRANCH   4  12
ATOM     12  C   UNL d   1      -2.039   1.760   1.842  0.00  0.00     0.030 C 
BRANCH  12  13
ATOM     13  C   UNL d   1      -1.185   2.900   2.416  0.00  0.00    -0.002 C 
ATOM     14  C   UNL d   1      -1.638   3.313   3.809  0.00  0.00     0.005 C 
ENDBRANCH  12  13
ENDBRANCH   4  12
ENDBRANCH   1   3
BRANCH   1  15
ATOM     15  N   UNL d   1      -3.589   1.737  -1.600  0.00  0.00    -0.332 N 
ATOM     16  H   UNL d   1      -2.738   1.937  -2.129  0.00  0.00     0.168 HD
BRANCH  15  17
ATOM     17  C   UNL d   1      -4.724   2.528  -1.958  0.00  0.00     0.050 A 
ATOM     18  C   UNL d   1      -4.707   3.415  -3.056  0.00  0.00     0.066 A 
ATOM     19  C   UNL d   1      -5.787   4.300  -3.263  0.00  0.00     0.020 A 
ATOM     20  C   UNL d   1      -6.897   4.279  -2.422  0.00  0.00     0.001 A 
ATOM     21  C   UNL d   1      -6.947   3.363  -1.379  0.00  0.00     0.002 A 
ATOM     22  C   UNL d   1      -5.868   2.506  -1.143  0.00  0.00     0.030 A 
BRANCH  18  23
ATOM     23  C   UNL d   1      -3.601   3.401  -4.045  0.00  0.00     0.295 C 
ATOM     24  O   UNL d   1      -2.460   3.037  -3.789  0.00  0.00    -0.259 OA
BRANCH  23  25
ATOM     25  O   UNL d   1      -4.074   3.796  -5.254  0.00  0.00    -0.322 OA
ATOM     26  C   UNL d   1      -3.166   3.784  -6.357  0.00  0.00     0.213 C 
ENDBRANCH  23  25
ENDBRANCH  18  23
ENDBRANCH  15  17
ENDBRANCH   1  15
TORSDOF 7
