REMARK  7 active torsions:
REMARK  status: ('A' for Active; 'I' for Inactive)
REMARK    1  A    between atoms: C_9  and  N_5 
REMARK    2  A    between atoms: C_14  and  C_6 
REMARK    3  A    between atoms: C_15  and  C_8 
REMARK    4  A    between atoms: C_10  and  C_9 
REMARK       I    between atoms: N_16  and  C_10 
REMARK    5  A    between atoms: N_11  and  N_16 
REMARK    6  A    between atoms: C_19  and  C_18 
REMARK    7  A    between atoms: O_25  and  C_20 
ROOT
ATOM      1  N   UNL d   1      -0.632   1.183  -0.014  0.00  0.00    -0.291 N 
ATOM      2  HN  UNL d   1      -1.148   2.050   0.137  1.00  0.00     0.187 HD
ATOM      3  N   UNL d   1       0.719  -1.231  -0.383  0.00  0.00    -0.304 N 
ATOM      4  HN  UNL d   1       1.209  -2.117  -0.509  1.00  0.00     0.171 HD
ATOM      5  N   UNL d   1      -1.290   0.007  -0.262  0.00  0.00    -0.233 N 
ATOM      6  C   UNL d   1       0.665   1.163   0.024  0.00  0.00     0.086 A 
ATOM      7  C   UNL d   1      -0.639  -1.196  -0.482  0.00  0.00     0.342 A 
ATOM      8  C   UNL d   1       1.403  -0.153  -0.129  0.00  0.00     0.075 A 
ATOM      9  O   UNL d   1      -1.276  -2.201  -0.791  0.00  0.00    -0.245 OA
ENDROOT
BRANCH   5  10
ATOM     10  C   UNL d   1      -2.749   0.059  -0.208  0.00  0.00     0.258 C 
BRANCH  10  11
ATOM     11  C   UNL d   1      -3.494   0.040  -1.547  0.00  0.00     0.256 C 
ATOM     12  N   UNL d   1      -3.116  -0.965  -2.429  0.00  0.00    -0.269 N 
ATOM     13  H   UNL d   1      -2.426  -1.663  -2.142  0.00  0.00     0.190 HD
ATOM     14  O   UNL d   1      -4.464   0.781  -1.726  0.00  0.00    -0.270 OA
BRANCH  12  15
ATOM     15  N   UNL d   1      -3.895  -1.217  -3.526  0.00  0.00    -0.308 N 
ATOM     16  C   UNL d   1      -3.429  -2.090  -4.362  0.00  0.00     0.118 C 
ATOM     17  HN  UNL d   1      -4.788  -0.747  -3.676  1.00  0.00     0.186 HD
BRANCH  16  18
ATOM     18  C   UNL d   1      -4.197  -2.499  -5.559  0.00  0.00    -0.019 A 
ATOM     19  C   UNL d   1      -3.529  -3.113  -6.622  0.00  0.00     0.015 A 
ATOM     20  C   UNL d   1      -4.245  -3.543  -7.747  0.00  0.00     0.037 A 
ATOM     21  C   UNL d   1      -5.629  -3.369  -7.809  0.00  0.00     0.068 A 
ATOM     22  C   UNL d   1      -6.292  -2.767  -6.736  0.00  0.00     0.037 A 
ATOM     23  C   UNL d   1      -5.580  -2.318  -5.618  0.00  0.00     0.015 A 
BRANCH  21  24
ATOM     24  O   UNL d   1      -6.434  -3.847  -8.804  0.00  0.00    -0.356 OA
ATOM     25  C   UNL d   1      -5.944  -3.761 -10.137  0.00  0.00     0.210 C 
ENDBRANCH  21  24
ENDBRANCH  16  18
ENDBRANCH  12  15
ENDBRANCH  10  11
ENDBRANCH   5  10
BRANCH   6  26
ATOM     26  C   UNL d   1       1.311   2.488   0.164  0.00  0.00    -0.006 A 
ATOM     27  C   UNL d   1       0.837   3.348   1.166  0.00  0.00     0.014 A 
ATOM     28  C   UNL d   1       1.252   4.677   1.206  0.00  0.00     0.001 A 
ATOM     29  C   UNL d   1       2.137   5.152   0.238  0.00  0.00     0.000 A 
ATOM     30  C   UNL d   1       2.617   4.296  -0.755  0.00  0.00     0.001 A 
ATOM     31  C   UNL d   1       2.204   2.962  -0.801  0.00  0.00     0.014 A 
ENDBRANCH   6  26
BRANCH   8  32
ATOM     32  C   UNL d   1       2.885  -0.330  -0.005  0.00  0.00    -0.007 A 
ATOM     33  C   UNL d   1       3.459  -1.412  -0.701  0.00  0.00     0.014 A 
ATOM     34  C   UNL d   1       4.825  -1.688  -0.614  0.00  0.00     0.001 A 
ATOM     35  C   UNL d   1       5.639  -0.882   0.173  0.00  0.00     0.000 A 
ATOM     36  C   UNL d   1       5.084   0.180   0.884  0.00  0.00     0.001 A 
ATOM     37  C   UNL d   1       3.708   0.450   0.811  0.00  0.00     0.014 A 
ENDBRANCH   8  32
TORSDOF 7
