REMARK  5 active torsions:
REMARK  status: ('A' for Active; 'I' for Inactive)
REMARK    1  A    between atoms: S_8  and  C_2 
REMARK    2  A    between atoms: N_13  and  C_3 
REMARK    3  A    between atoms: C_11  and  S_8 
REMARK    4  A    between atoms: C_9  and  C_11 
REMARK    5  A    between atoms: C_10  and  C_9 
ROOT
ATOM      1  S   UNL d   1       4.027   2.246  -0.764  0.00  0.00    -0.096 SA
ENDROOT
BRANCH   1   2
ATOM      2  C   UNL d   1       2.300   2.444  -0.645  0.00  0.00     0.130 A 
ATOM      3  S   UNL d   1       1.516   3.890  -1.124  0.00  0.00    -0.027 SA
ATOM      4  C   UNL d   1       0.033   3.143  -0.692  0.00  0.00     0.159 A 
ATOM      5  N   UNL d   1       0.169   1.917  -0.236  0.00  0.00    -0.279 N 
ATOM      6  N   UNL d   1       1.491   1.506  -0.206  0.00  0.00    -0.286 N 
ATOM      7  HN  UNL d   1      -0.613   1.334   0.063  1.00  0.00     0.189 HD
ATOM      8  HN  UNL d   1       1.799   0.588   0.117  1.00  0.00     0.188 HD
BRANCH   4   9
ATOM      9  N   UNL d   1      -1.142   3.783  -0.841  0.00  0.00    -0.379 N 
ATOM     10  H   UNL d   1      -1.185   4.570  -1.478  0.00  0.00     0.158 HD
ATOM     11  H   UNL d   1      -1.978   3.209  -0.824  0.00  0.00     0.158 HD
ENDBRANCH   4   9
ENDBRANCH   1   2
BRANCH   1  12
ATOM     12  C   UNL d   1       4.263   0.576  -0.081  0.00  0.00     0.165 C 
BRANCH  12  13
ATOM     13  C   UNL d   1       5.739   0.212  -0.111  0.00  0.00     0.169 C 
ATOM     14  O   UNL d   1       6.651   1.040  -0.081  0.00  0.00    -0.291 OA
BRANCH  13  15
ATOM     15  C   UNL d   1       6.123  -1.226  -0.157  0.00  0.00     0.011 A 
ATOM     16  C   UNL d   1       7.348  -1.561  -0.755  0.00  0.00     0.017 A 
ATOM     17  C   UNL d   1       7.780  -2.889  -0.786  0.00  0.00     0.025 A 
ATOM     18  C   UNL d   1       6.994  -3.882  -0.209  0.00  0.00     0.034 A 
ATOM     19  C   UNL d   1       5.773  -3.558   0.388  0.00  0.00     0.025 A 
ATOM     20 CL   UNL d   1       7.536  -5.514  -0.221  0.00  0.00    -0.084 Cl
ATOM     21  C   UNL d   1       5.333  -2.229   0.414  0.00  0.00     0.017 A 
ENDBRANCH  13  15
ENDBRANCH  12  13
ENDBRANCH   1  12
TORSDOF 5
