REMARK  6 active torsions:
REMARK  status: ('A' for Active; 'I' for Inactive)
REMARK    1  A    between atoms: C_10  and  C_1 
REMARK    2  A    between atoms: O_15  and  C_9 
REMARK    3  A    between atoms: O_20  and  C_10 
REMARK       I    between atoms: C_13  and  N_14 
REMARK    4  A    between atoms: N_14  and  C_18 
REMARK    5  A    between atoms: C_19  and  O_15 
REMARK    6  A    between atoms: C_26  and  O_20 
ROOT
ATOM      1  C   UNL d   1      -2.319  -0.208   0.004  0.00  0.00     0.127 A 
ATOM      2  N   UNL d   1      -0.180  -0.687  -0.034  0.00  0.00    -0.247 N 
ATOM      3  N   UNL d   1      -1.639   1.002  -0.009  0.00  0.00    -0.335 N 
ATOM      4  HN  UNL d   1      -2.044   1.938   0.007  1.00  0.00     0.168 HD
ATOM      5  C   UNL d   1      -0.360   0.688  -0.047  0.00  0.00     0.127 A 
ATOM      6  C   UNL d   1      -1.418  -1.257   0.017  0.00  0.00     0.154 A 
ATOM      7  N   UNL d   1       0.993  -1.369  -0.073  0.00  0.00    -0.272 N 
ATOM      8  HN  UNL d   1       1.064  -2.386  -0.056  1.00  0.00     0.189 HD
ATOM      9  C   UNL d   1       2.010  -0.573  -0.134  0.00  0.00     0.163 A 
ATOM     10  C   UNL d   1       0.796   1.493  -0.127  0.00  0.00     0.054 A 
ATOM     11  C   UNL d   1       1.999   0.906  -0.196  0.00  0.00     0.061 A 
ENDROOT
BRANCH   9  12
ATOM     12  O   UNL d   1       3.331  -0.995  -0.140  0.00  0.00    -0.293 OA
BRANCH  12  13
ATOM     13  C   UNL d   1       3.647  -2.265   0.384  0.00  0.00     0.078 A 
ATOM     14  C   UNL d   1       4.660  -2.983  -0.244  0.00  0.00     0.039 A 
ATOM     15  C   UNL d   1       5.085  -4.196   0.312  0.00  0.00     0.032 A 
ATOM     16  C   UNL d   1       4.510  -4.684   1.496  0.00  0.00     0.034 A 
ATOM     17  C   UNL d   1       3.489  -3.950   2.102  0.00  0.00     0.032 A 
ATOM     18  C   UNL d   1       3.068  -2.736   1.558  0.00  0.00     0.039 A 
BRANCH  16  19
ATOM     19  N   UNL d   1       5.025  -5.887   2.026  0.00  0.00    -0.328 N 
ATOM     20  C   UNL d   1       4.645  -6.510   3.201  0.00  0.00     0.218 C 
ATOM     21  O   UNL d   1       3.758  -6.157   3.971  0.00  0.00    -0.274 OA
ATOM     22  C   UNL d   1       5.457  -7.743   3.511  0.00  0.00     0.117 C 
ATOM     23  H   UNL d   1       5.772  -6.316   1.497  0.00  0.00     0.169 HD
ENDBRANCH  16  19
ENDBRANCH  12  13
ENDBRANCH   9  12
BRANCH   1  24
ATOM     24  C   UNL d   1      -3.772  -0.338  -0.078  0.00  0.00     0.311 C 
ATOM     25  O   UNL d   1      -4.346  -1.419  -0.141  0.00  0.00    -0.258 OA
BRANCH  24  26
ATOM     26  O   UNL d   1      -4.388   0.875  -0.180  0.00  0.00    -0.317 OA
BRANCH  26  27
ATOM     27  C   UNL d   1      -5.723   0.847  -0.694  0.00  0.00     0.175 C 
ATOM     28  C   UNL d   1      -5.651   0.926  -2.209  0.00  0.00     0.034 C 
ENDBRANCH  26  27
ENDBRANCH  24  26
ENDBRANCH   1  24
TORSDOF 6
