REMARK  4 active torsions:
REMARK  status: ('A' for Active; 'I' for Inactive)
REMARK    1  A    between atoms: C_12  and  N_3 
REMARK    2  A    between atoms: C_13  and  N_10 
REMARK    3  A    between atoms: C_17  and  C_12 
REMARK    4  A    between atoms: C_15  and  C_13 
ROOT
ATOM      1  C   UNL d   1       0.204   0.656  -0.008  0.00  0.00     0.155 A 
ATOM      2  C   UNL d   1       0.324  -0.710  -0.051  0.00  0.00     0.160 A 
ATOM      3  N   UNL d   1       1.498   1.093  -0.032  0.00  0.00    -0.254 N 
ATOM      4  N   UNL d   1      -0.929   1.397   0.045  0.00  0.00    -0.335 N 
ATOM      5  HN  UNL d   1      -0.942   2.417   0.086  1.00  0.00     0.168 HD
ATOM      6  N   UNL d   1       1.635  -1.074  -0.081  0.00  0.00    -0.276 N 
ATOM      7  HN  UNL d   1       1.997  -2.027  -0.115  1.00  0.00     0.184 HD
ATOM      8  N   UNL d   1       2.359   0.044  -0.056  0.00  0.00    -0.018 NA
ATOM      9  C   UNL d   1      -0.869  -1.520  -0.039  0.00  0.00     0.280 A 
ATOM     10  N   UNL d   1      -2.038  -0.738   0.004  0.00  0.00    -0.304 N 
ATOM     11  C   UNL d   1      -1.999   0.656   0.039  0.00  0.00     0.188 A 
ATOM     12  O   UNL d   1      -0.861  -2.747  -0.047  0.00  0.00    -0.265 OA
ENDROOT
BRANCH  10  13
ATOM     13  C   UNL d   1      -3.322  -1.420  -0.018  0.00  0.00     0.171 C 
BRANCH  13  14
ATOM     14  C   UNL d   1      -3.802  -1.653  -1.434  0.00  0.00    -0.040 A 
ATOM     15  C   UNL d   1      -3.475  -2.845  -2.102  0.00  0.00     0.012 A 
ATOM     16  C   UNL d   1      -3.848  -3.036  -3.433  0.00  0.00     0.043 A 
ATOM     17  C   UNL d   1      -4.545  -2.037  -4.098  0.00  0.00     0.116 A 
ATOM     18  C   UNL d   1      -4.892  -0.856  -3.453  0.00  0.00     0.043 A 
ATOM     19  F   UNL d   1      -4.885  -2.210  -5.383  0.00  0.00    -0.206 F 
ATOM     20  C   UNL d   1      -4.523  -0.662  -2.121  0.00  0.00     0.012 A 
ENDBRANCH  13  14
ENDBRANCH  10  13
BRANCH   3  21
ATOM     21  C   UNL d   1       1.989   2.455   0.027  0.00  0.00     0.187 C 
BRANCH  21  22
ATOM     22  C   UNL d   1       2.148   3.035  -1.355  0.00  0.00    -0.039 A 
ATOM     23  C   UNL d   1       1.103   3.760  -1.946  0.00  0.00     0.009 A 
ATOM     24  C   UNL d   1       1.223   4.235  -3.253  0.00  0.00     0.001 A 
ATOM     25  C   UNL d   1       2.386   3.990  -3.981  0.00  0.00     0.000 A 
ATOM     26  C   UNL d   1       3.436   3.283  -3.399  0.00  0.00     0.001 A 
ATOM     27  C   UNL d   1       3.319   2.807  -2.093  0.00  0.00     0.009 A 
ENDBRANCH  21  22
ENDBRANCH   3  21
TORSDOF 4
