REMARK  1 active torsions:
REMARK  status: ('A' for Active; 'I' for Inactive)
REMARK    1  A    between atoms: C_3  and  N_1 
ROOT
ATOM      1  N   UNL d   1       0.349  -1.052  -0.010  0.00  0.00    -0.266 N 
ATOM      2  C   UNL d   1      -0.732  -0.188   0.009  0.00  0.00     0.148 A 
ATOM      3  C   UNL d   1       1.616  -0.477   0.001  0.00  0.00     0.239 A 
ATOM      4  S   UNL d   1      -0.179   1.479  -0.069  0.00  0.00    -0.090 SA
ATOM      5  S   UNL d   1      -2.361  -0.530   0.183  0.00  0.00    -0.052 SA
ATOM      6  C   UNL d   1       1.557   1.026  -0.044  0.00  0.00     0.185 A 
ATOM      7  O   UNL d   1       2.688  -1.073   0.011  0.00  0.00    -0.272 OA
ENDROOT
BRANCH   1   8
ATOM      8  C   UNL d   1       0.228  -2.471  -0.020  0.00  0.00     0.045 A 
ATOM      9  C   UNL d   1       0.875  -3.243   0.953  0.00  0.00     0.054 A 
ATOM     10  C   UNL d   1       0.735  -4.630   0.949  0.00  0.00     0.036 A 
ATOM     11 CL   UNL d   1       1.476  -5.566   2.189  0.00  0.00    -0.084 Cl
ATOM     12  C   UNL d   1      -0.012  -5.266  -0.041  0.00  0.00     0.024 A 
ATOM     13  C   UNL d   1      -0.631  -4.508  -1.032  0.00  0.00     0.004 A 
ATOM     14  C   UNL d   1      -0.520  -3.115  -1.018  0.00  0.00     0.030 A 
ENDBRANCH   1   8
TORSDOF 1
