REMARK  8 active torsions:
REMARK  status: ('A' for Active; 'I' for Inactive)
REMARK    1  A    between atoms: C_3  and  O_15 
REMARK    2  A    between atoms: O_15  and  C_4 
REMARK    3  A    between atoms: O_25  and  C_5 
REMARK    4  A    between atoms: O_24  and  C_6 
REMARK    5  A    between atoms: O_26  and  C_9 
REMARK    6  A    between atoms: O_27  and  C_10 
REMARK    7  A    between atoms: C_22  and  C_16 
REMARK    8  A    between atoms: C_23  and  C_17 
ROOT
ATOM      1  O   UNL d   1      -2.522   0.521   1.626  0.00  0.00    -0.326 OA
ENDROOT
BRANCH   1   2
ATOM      2  C   UNL d   1      -3.857   0.074   1.825  0.00  0.00     0.294 C 
ATOM      3  C   UNL d   1      -4.186   0.271   3.323  0.00  0.00     0.204 C 
ATOM      4  C   UNL d   1      -3.478  -0.793   4.188  0.00  0.00     0.183 C 
ATOM      5  C   UNL d   1      -3.813  -2.186   3.658  0.00  0.00     0.187 C 
ATOM      6  C   UNL d   1      -3.467  -2.283   2.181  0.00  0.00     0.180 C 
ATOM      7  O   UNL d   1      -3.112  -3.215   4.357  0.00  0.00    -0.346 OA
ATOM      8  O   UNL d   1      -4.115  -1.275   1.407  0.00  0.00    -0.348 OA
ATOM      9  C   UNL d   1      -3.919  -3.677   1.729  0.00  0.00     0.206 C 
ATOM     10  O   UNL d   1      -3.390  -4.718   2.551  0.00  0.00    -0.354 OA
ATOM     11  C   UNL d   1      -3.579  -4.513   3.958  0.00  0.00     0.295 C 
BRANCH   3  12
ATOM     12  O   UNL d   1      -5.603   0.228   3.566  0.00  0.00    -0.388 OA
ATOM     13  H   UNL d   1      -5.969  -0.564   3.131  0.00  0.00     0.210 HD
ENDBRANCH   3  12
BRANCH   4  14
ATOM     14  O   UNL d   1      -3.897  -0.686   5.559  0.00  0.00    -0.390 OA
ATOM     15  H   UNL d   1      -4.510   0.069   5.624  0.00  0.00     0.210 HD
ENDBRANCH   4  14
BRANCH  11  16
ATOM     16  C   UNL d   1      -4.990  -4.801   4.471  0.00  0.00    -0.004 A 
ATOM     17  C   UNL d   1      -5.873  -5.647   3.786  0.00  0.00     0.012 A 
ATOM     18  C   UNL d   1      -7.182  -5.825   4.243  0.00  0.00     0.001 A 
ATOM     19  C   UNL d   1      -7.619  -5.176   5.398  0.00  0.00     0.000 A 
ATOM     20  C   UNL d   1      -6.739  -4.377   6.119  0.00  0.00     0.001 A 
ATOM     21  C   UNL d   1      -5.430  -4.208   5.670  0.00  0.00     0.012 A 
ENDBRANCH  11  16
ENDBRANCH   1   2
BRANCH   1  22
ATOM     22  C   UNL d   1      -2.020   0.344   0.312  0.00  0.00     0.294 C 
ATOM     23  O   UNL d   1      -2.761   1.026  -0.706  0.00  0.00    -0.348 OA
ATOM     24  C   UNL d   1      -2.541   2.438  -0.810  0.00  0.00     0.180 C 
ATOM     25  C   UNL d   1      -1.063   2.763  -0.959  0.00  0.00     0.187 C 
ATOM     26  C   UNL d   1      -3.249   2.975  -2.060  0.00  0.00     0.206 C 
ATOM     27  O   UNL d   1      -0.887   4.162  -1.169  0.00  0.00    -0.346 OA
ATOM     28  C   UNL d   1      -0.326   2.250   0.275  0.00  0.00     0.183 C 
ATOM     29  C   UNL d   1      -1.468   4.554  -2.421  0.00  0.00     0.295 C 
ATOM     30  O   UNL d   1      -2.881   4.311  -2.406  0.00  0.00    -0.354 OA
ATOM     31  C   UNL d   1      -0.517   0.722   0.328  0.00  0.00     0.204 C 
BRANCH  29  32
ATOM     32  C   UNL d   1      -0.710   3.977  -3.625  0.00  0.00    -0.004 A 
ATOM     33  C   UNL d   1      -1.365   3.598  -4.806  0.00  0.00     0.012 A 
ATOM     34  C   UNL d   1      -0.656   2.997  -5.852  0.00  0.00     0.001 A 
ATOM     35  C   UNL d   1       0.719   2.790  -5.739  0.00  0.00     0.000 A 
ATOM     36  C   UNL d   1       1.393   3.208  -4.597  0.00  0.00     0.001 A 
ATOM     37  C   UNL d   1       0.687   3.813  -3.556  0.00  0.00     0.012 A 
ENDBRANCH  29  32
BRANCH  28  38
ATOM     38  O   UNL d   1       1.076   2.545   0.180  0.00  0.00    -0.390 OA
ATOM     39  H   UNL d   1       1.453   1.886  -0.436  0.00  0.00     0.210 HD
ENDBRANCH  28  38
BRANCH  31  40
ATOM     40  O   UNL d   1       0.183   0.138  -0.792  0.00  0.00    -0.388 OA
ATOM     41  H   UNL d   1      -0.455  -0.016  -1.514  0.00  0.00     0.210 HD
ENDBRANCH  31  40
ENDBRANCH   1  22
TORSDOF 8
