REMARK  4 active torsions:
REMARK  status: ('A' for Active; 'I' for Inactive)
REMARK       I    between atoms: N_3  and  C_1 
REMARK    1  A    between atoms: C_6  and  C_1 
REMARK    2  A    between atoms: S_5  and  C_2 
REMARK    3  A    between atoms: C_4  and  N_3 
REMARK    4  A    between atoms: C_10  and  S_5 
ROOT
ATOM      1  C   UNL d   1       0.608   3.528   0.329  0.00  0.00     0.101 A 
ATOM      2  C   UNL d   1       1.193   2.378  -0.228  0.00  0.00     0.069 A 
ATOM      3  N   UNL d   1       1.103   4.778   0.143  0.00  0.00    -0.358 N 
ATOM      4  HN  UNL d   1       0.654   5.595   0.559  1.00  0.00     0.166 HD
ATOM      5  C   UNL d   1       2.333   2.548  -1.014  0.00  0.00     0.034 A 
ATOM      6  C   UNL d   1       2.213   4.895  -0.615  0.00  0.00     0.089 A 
ATOM      7  C   UNL d   1       2.854   3.824  -1.212  0.00  0.00     0.019 A 
ENDROOT
BRANCH   1   8
ATOM      8  S   UNL d   1      -0.847   3.414   1.362  0.00  0.00    -0.070 SA
BRANCH   8   9
ATOM      9  C   UNL d   1      -0.204   3.364   3.033  0.00  0.00     0.007 A 
ATOM     10  C   UNL d   1       1.045   3.869   3.415  0.00  0.00     0.019 A 
ATOM     11  C   UNL d   1       1.435   3.871   4.760  0.00  0.00     0.008 A 
ATOM     12  C   UNL d   1       0.583   3.380   5.753  0.00  0.00    -0.062 A 
ATOM     13  C   UNL d   1      -0.650   2.840   5.374  0.00  0.00     0.008 A 
ATOM     14  C   UNL d   1       0.995   3.421   7.195  0.00  0.00     0.048 C 
ATOM     15  C   UNL d   1      -1.035   2.838   4.029  0.00  0.00     0.019 A 
ENDBRANCH   8   9
ENDBRANCH   1   8
BRANCH   2  16
ATOM     16  N   UNL d   1       0.610   1.105  -0.013  0.00  0.00    -0.324 N 
ATOM     17  C   UNL d   1       1.325  -0.073   0.102  0.00  0.00     0.229 C 
ATOM     18  O   UNL d   1       2.550  -0.142   0.010  0.00  0.00    -0.272 OA
ATOM     19  H   UNL d   1      -0.320   1.134   0.388  0.00  0.00     0.169 HD
BRANCH  17  20
ATOM     20  C   UNL d   1       0.464  -1.341   0.295  0.00  0.00     0.030 C 
ATOM     21  C   UNL d   1      -0.122  -1.731  -1.069  0.00  0.00     0.025 C 
ATOM     22  C   UNL d   1       1.372  -2.478   0.802  0.00  0.00     0.025 C 
ATOM     23  C   UNL d   1      -0.669  -1.143   1.315  0.00  0.00     0.025 C 
ENDBRANCH  17  20
ENDBRANCH   2  16
TORSDOF 4
