REMARK  5 active torsions:
REMARK  status: ('A' for Active; 'I' for Inactive)
REMARK    1  A    between atoms: C_6  and  C_1 
REMARK    2  A    between atoms: C_8  and  N_2 
REMARK    3  A    between atoms: C_9  and  C_4 
REMARK       I    between atoms: N_7  and  C_6 
REMARK    4  A    between atoms: C_11  and  N_7 
REMARK    5  A    between atoms: O_18  and  C_13 
ROOT
ATOM      1  C   UNL d   1      -0.220   1.077  -0.046  0.00  0.00     0.057 C 
ATOM      2  N   UNL d   1       0.918  -0.881   0.151  0.00  0.00    -0.314 N 
ATOM      3  C   UNL d   1       1.024   0.505   0.224  0.00  0.00     0.029 C 
ATOM      4  C   UNL d   1      -0.442  -1.214   0.051  0.00  0.00     0.051 C 
ATOM      5  C   UNL d   1      -1.131  -0.016  -0.110  0.00  0.00     0.050 C 
ATOM      6  C   UNL d   1       2.297   1.204   0.598  0.00  0.00     0.070 C 
ENDROOT
BRANCH   1   7
ATOM      7  C   UNL d   1      -0.450   2.529  -0.176  0.00  0.00     0.258 C 
ATOM      8  N   UNL d   1      -1.776   2.912  -0.295  0.00  0.00    -0.323 N 
ATOM      9  H   UNL d   1      -2.464   2.176  -0.337  0.00  0.00     0.169 HD
ATOM     10  O   UNL d   1       0.499   3.312  -0.173  0.00  0.00    -0.267 OA
BRANCH   8  11
ATOM     11  C   UNL d   1      -2.282   4.235  -0.294  0.00  0.00     0.035 A 
ATOM     12  C   UNL d   1      -1.486   5.378  -0.184  0.00  0.00     0.032 A 
ATOM     13  C   UNL d   1      -2.060   6.654  -0.087  0.00  0.00     0.039 A 
ATOM     14  C   UNL d   1      -3.443   6.804  -0.097  0.00  0.00     0.068 A 
ATOM     15  C   UNL d   1      -4.243   5.675  -0.271  0.00  0.00     0.039 A 
ATOM     16  C   UNL d   1      -3.669   4.400  -0.366  0.00  0.00     0.032 A 
BRANCH  14  17
ATOM     17  O   UNL d   1      -4.115   7.986   0.048  0.00  0.00    -0.356 OA
ATOM     18  C   UNL d   1      -3.370   9.065   0.606  0.00  0.00     0.210 C 
ENDBRANCH  14  17
ENDBRANCH   8  11
ENDBRANCH   1   7
BRANCH   2  19
ATOM     19  C   UNL d   1       2.029  -1.780   0.108  0.00  0.00     0.039 A 
ATOM     20  C   UNL d   1       2.030  -2.970   0.842  0.00  0.00     0.030 A 
ATOM     21  C   UNL d   1       3.026  -3.924   0.618  0.00  0.00     0.002 A 
ATOM     22  C   UNL d   1       4.040  -3.674  -0.305  0.00  0.00     0.000 A 
ATOM     23  C   UNL d   1       4.079  -2.459  -0.989  0.00  0.00     0.002 A 
ATOM     24  C   UNL d   1       3.075  -1.511  -0.786  0.00  0.00     0.030 A 
ENDBRANCH   2  19
BRANCH   4  25
ATOM     25  C   UNL d   1      -1.016  -2.575   0.044  0.00  0.00    -0.009 A 
ATOM     26  C   UNL d   1      -0.466  -3.614  -0.720  0.00  0.00     0.014 A 
ATOM     27  C   UNL d   1      -0.903  -4.931  -0.561  0.00  0.00     0.001 A 
ATOM     28  C   UNL d   1      -1.960  -5.215   0.297  0.00  0.00     0.000 A 
ATOM     29  C   UNL d   1      -2.592  -4.179   0.980  0.00  0.00     0.001 A 
ATOM     30  C   UNL d   1      -2.119  -2.867   0.859  0.00  0.00     0.014 A 
ENDBRANCH   4  25
TORSDOF 5
