REMARK  2 active torsions:
REMARK  status: ('A' for Active; 'I' for Inactive)
REMARK    1  A    between atoms: C_2  and  S_1 
REMARK    2  A    between atoms: N_7  and  S_1 
ROOT
ATOM      1  S   UNL d   1       1.104  -0.025  -0.002  0.00  0.00     0.250 S 
ATOM      2  O   UNL d   1       1.068  -1.469  -0.015  0.00  0.00    -0.205 OA
ATOM      3  O   UNL d   1       0.493   0.751  -1.059  0.00  0.00    -0.205 OA
ENDROOT
BRANCH   1   4
ATOM      4  C   UNL d   1       2.824   0.442  -0.040  0.00  0.00     0.117 A 
ATOM      5  S   UNL d   1       3.942  -0.677   0.619  0.00  0.00    -0.068 SA
ATOM      6  C   UNL d   1       5.255   0.348   0.288  0.00  0.00     0.070 A 
ATOM      7 BR   UNL d   1       7.020  -0.139   0.699  0.00  0.00    -0.042 Br
ATOM      8  C   UNL d   1       4.864   1.529  -0.284  0.00  0.00     0.037 A 
ATOM      9  C   UNL d   1       3.459   1.588  -0.485  0.00  0.00     0.053 A 
ATOM     10 BR   UNL d   1       5.965   2.981  -0.782  0.00  0.00    -0.049 Br
ENDBRANCH   1   4
BRANCH   1  11
ATOM     11  N   UNL d   1       0.470   0.536   1.491  0.00  0.00    -0.206 NA
ATOM     12  C   UNL d   1       0.344   2.018   1.569  0.00  0.00     0.107 C 
ATOM     13  C   UNL d   1      -0.012   2.439   2.990  0.00  0.00     0.015 C 
ATOM     14  C   UNL d   1      -1.294   1.759   3.458  0.00  0.00     0.002 C 
ATOM     15  C   UNL d   1      -1.180   0.246   3.307  0.00  0.00     0.015 C 
ATOM     16  C   UNL d   1      -0.798  -0.146   1.880  0.00  0.00     0.107 C 
ENDBRANCH   1  11
TORSDOF 2
