REMARK  4 active torsions:
REMARK  status: ('A' for Active; 'I' for Inactive)
REMARK    1  A    between atoms: C_2  and  S_1 
REMARK    2  A    between atoms: N_10  and  S_1 
REMARK    3  A    between atoms: C_21  and  N_10 
REMARK    4  A    between atoms: N_11  and  C_16 
ROOT
ATOM      1  N   UNL d   1       0.484  -0.097  -1.613  0.00  0.00    -0.281 N 
ATOM      2  H   UNL d   1       0.151   0.409  -0.795  0.00  0.00     0.179 HD
ENDROOT
BRANCH   1   3
ATOM      3  S   UNL d   1       0.435  -1.763  -1.558  0.00  0.00     0.265 S 
ATOM      4  O   UNL d   1       0.036  -2.138  -0.221  0.00  0.00    -0.200 OA
ATOM      5  O   UNL d   1      -0.311  -2.237  -2.707  0.00  0.00    -0.200 OA
BRANCH   3   6
ATOM      6  C   UNL d   1       2.102  -2.255  -1.763  0.00  0.00     0.110 A 
ATOM      7  C   UNL d   1       3.130  -1.872  -0.887  0.00  0.00     0.108 A 
ATOM      8  C   UNL d   1       4.512  -2.288  -1.112  0.00  0.00     0.086 A 
ATOM      9  N   UNL d   1       3.110  -1.105   0.214  0.00  0.00    -0.238 N 
ATOM     10  N   UNL d   1       5.274  -1.771  -0.141  0.00  0.00    -0.239 N 
ATOM     11  C   UNL d   1       4.896  -3.090  -2.204  0.00  0.00     0.034 A 
ATOM     12  O   UNL d   1       4.414  -1.060   0.674  0.00  0.00    -0.156 OA
ATOM     13  HN  UNL d   1       6.281  -1.879  -0.026  1.00  0.00     0.197 HD
ATOM     14  C   UNL d   1       3.845  -3.460  -3.063  0.00  0.00     0.004 A 
ATOM     15  C   UNL d   1       2.501  -3.060  -2.854  0.00  0.00     0.028 A 
ATOM     16  HN  UNL d   1       2.298  -0.649   0.628  1.00  0.00     0.197 HD
ENDBRANCH   3   6
ENDBRANCH   1   3
BRANCH   1  17
ATOM     17  C   UNL d   1       0.859   0.599  -2.783  0.00  0.00     0.042 A 
ATOM     18  C   UNL d   1      -0.092   0.928  -3.739  0.00  0.00     0.032 A 
ATOM     19  C   UNL d   1       0.285   1.687  -4.853  0.00  0.00     0.031 A 
ATOM     20  C   UNL d   1       1.604   2.127  -5.046  0.00  0.00     0.030 A 
ATOM     21  C   UNL d   1       2.541   1.770  -4.066  0.00  0.00     0.031 A 
ATOM     22  C   UNL d   1       2.172   1.027  -2.938  0.00  0.00     0.032 A 
BRANCH  20  23
ATOM     23  N   UNL d   1       1.944   2.822  -6.197  0.00  0.00    -0.378 N 
ATOM     24  C   UNL d   1       3.339   2.898  -6.659  0.00  0.00     0.153 C 
ATOM     25  C   UNL d   1       3.353   3.104  -8.192  0.00  0.00     0.291 C 
ATOM     26  N   UNL d   1       2.599   4.307  -8.617  0.00  0.00     0.087 N 
ATOM     27  C   UNL d   1       1.212   4.219  -8.097  0.00  0.00     0.291 C 
ATOM     28  C   UNL d   1       2.594   4.418 -10.073  0.00  0.00     0.310 C 
ATOM     29  C   UNL d   1       1.158   4.018  -6.563  0.00  0.00     0.153 C 
ENDBRANCH  20  23
ENDBRANCH   1  17
TORSDOF 4
