REMARK  9 active torsions:
REMARK  status: ('A' for Active; 'I' for Inactive)
REMARK    1  A    between atoms: N_6  and  C_1 
REMARK    2  A    between atoms: C_10  and  C_2 
REMARK    3  A    between atoms: C_8  and  N_6 
REMARK       I    between atoms: C_9  and  N_7 
REMARK    4  A    between atoms: N_13  and  C_8 
REMARK    5  A    between atoms: O_19  and  C_9 
REMARK    6  A    between atoms: O_20  and  C_10 
REMARK    7  A    between atoms: C_18  and  N_13 
REMARK    8  A    between atoms: C_27  and  O_19 
REMARK    9  A    between atoms: C_28  and  O_20 
ROOT
ATOM      1  C   UNL d   1       1.921   1.093  -0.281  0.00  0.00     0.093 A 
ATOM      2  C   UNL d   1       0.755   1.846  -0.279  0.00  0.00     0.080 A 
ATOM      3  C   UNL d   1      -0.024  -0.412  -0.253  0.00  0.00     0.010 A 
ATOM      4  C   UNL d   1      -0.392   0.920  -0.208  0.00  0.00    -0.023 A 
ATOM      5  S   UNL d   1       1.643  -0.602  -0.268  0.00  0.00    -0.074 SA
ATOM      6  N   UNL d   1      -2.308  -1.144  -0.404  0.00  0.00    -0.323 N 
ATOM      7  C   UNL d   1      -3.156  -1.634  -1.379  0.00  0.00     0.363 C 
ATOM      8  C   UNL d   1      -0.938  -1.607  -0.237  0.00  0.00     0.174 C 
ATOM      9  C   UNL d   1      -1.861   1.274  -0.105  0.00  0.00     0.061 C 
ATOM     10  C   UNL d   1      -2.684   0.053   0.352  0.00  0.00     0.133 C 
ATOM     11  O   UNL d   1      -4.234  -1.128  -1.656  0.00  0.00    -0.238 OA
ENDROOT
BRANCH   1  12
ATOM     12  N   UNL d   1       3.284   1.219  -0.221  0.00  0.00    -0.327 N 
ATOM     13  H   UNL d   1       3.738   0.339   0.001  0.00  0.00     0.169 HD
BRANCH  12  14
ATOM     14  C   UNL d   1       4.169   2.251  -0.335  0.00  0.00     0.177 C 
ATOM     15  S   UNL d   1       4.310   3.258  -1.655  0.00  0.00    -0.040 SA
BRANCH  14  16
ATOM     16  N   UNL d   1       5.205   2.162   0.591  0.00  0.00    -0.333 N 
ATOM     17  H   UNL d   1       6.118   2.463   0.265  0.00  0.00     0.168 HD
BRANCH  16  18
ATOM     18  C   UNL d   1       5.099   1.571   1.871  0.00  0.00     0.034 A 
ATOM     19  C   UNL d   1       6.196   0.911   2.427  0.00  0.00     0.031 A 
ATOM     20  C   UNL d   1       6.063   0.259   3.661  0.00  0.00     0.026 A 
ATOM     21  C   UNL d   1       4.851   0.303   4.351  0.00  0.00     0.034 A 
ATOM     22  C   UNL d   1       3.770   1.004   3.827  0.00  0.00     0.026 A 
ATOM     23 CL   UNL d   1       4.684  -0.510   5.857  0.00  0.00    -0.084 Cl
ATOM     24  C   UNL d   1       3.899   1.639   2.593  0.00  0.00     0.031 A 
ENDBRANCH  16  18
ENDBRANCH  14  16
ENDBRANCH  12  14
ENDBRANCH   1  12
BRANCH   2  25
ATOM     25  C   UNL d   1       0.558   3.308  -0.295  0.00  0.00     0.296 C 
ATOM     26  O   UNL d   1      -0.550   3.798  -0.496  0.00  0.00    -0.259 OA
BRANCH  25  27
ATOM     27  O   UNL d   1       1.662   4.066  -0.056  0.00  0.00    -0.318 OA
BRANCH  27  28
ATOM     28  C   UNL d   1       1.534   5.463  -0.402  0.00  0.00     0.174 C 
ATOM     29  C   UNL d   1       1.676   6.351   0.818  0.00  0.00     0.034 C 
ENDBRANCH  27  28
ENDBRANCH  25  27
ENDBRANCH   2  25
BRANCH   7  30
ATOM     30  O   UNL d   1      -2.658  -2.739  -1.996  0.00  0.00    -0.304 OA
BRANCH  30  31
ATOM     31  C   UNL d   1      -3.417  -3.238  -3.108  0.00  0.00     0.176 C 
ATOM     32  C   UNL d   1      -4.558  -4.126  -2.647  0.00  0.00     0.034 C 
ENDBRANCH  30  31
ENDBRANCH   7  30
TORSDOF 9
