REMARK  7 active torsions:
REMARK  status: ('A' for Active; 'I' for Inactive)
REMARK    1  A    between atoms: N_6  and  C_1 
REMARK    2  A    between atoms: C_10  and  C_2 
REMARK       I    between atoms: C_8  and  N_6 
REMARK       I    between atoms: C_9  and  N_7 
REMARK       I    between atoms: N_13  and  C_8 
REMARK    3  A    between atoms: O_20  and  C_9 
REMARK    4  A    between atoms: O_22  and  C_10 
REMARK    5  A    between atoms: C_17  and  N_13 
REMARK    6  A    between atoms: C_27  and  O_20 
REMARK    7  A    between atoms: C_28  and  O_22 
ROOT
ATOM      1  C   UNL d   1       1.957   0.605   0.029  0.00  0.00     0.095 C 
ATOM      2  C   UNL d   1       0.891   1.482   0.232  0.00  0.00     0.080 C 
ATOM      3  C   UNL d   1      -0.172  -0.605   0.000  0.00  0.00     0.010 C 
ATOM      4  C   UNL d   1      -0.375   0.758   0.107  0.00  0.00    -0.023 C 
ATOM      5  S   UNL d   1       1.450  -1.024   0.084  0.00  0.00    -0.073 SA
ATOM      6  N   UNL d   1      -2.472  -1.033  -0.510  0.00  0.00    -0.323 N 
ATOM      7  C   UNL d   1      -3.293  -1.532  -1.495  0.00  0.00     0.363 C 
ATOM      8  C   UNL d   1      -1.210  -1.669  -0.146  0.00  0.00     0.174 C 
ATOM      9  C   UNL d   1      -1.785   1.298   0.046  0.00  0.00     0.061 C 
ATOM     10  C   UNL d   1      -2.828   0.178   0.233  0.00  0.00     0.133 C 
ATOM     11  O   UNL d   1      -4.338  -0.996  -1.852  0.00  0.00    -0.238 OA
ENDROOT
BRANCH   1  12
ATOM     12  N   UNL d   1       3.323   0.868  -0.096  0.00  0.00    -0.302 N 
ATOM     13  C   UNL d   1       4.221  -0.047  -0.635  0.00  0.00     0.325 C 
ATOM     14  N   UNL d   1       5.550   0.347  -0.518  0.00  0.00    -0.309 N 
ATOM     15  O   UNL d   1       3.925  -1.109  -1.173  0.00  0.00    -0.247 OA
ATOM     16  H   UNL d   1       5.738   1.283  -0.850  0.00  0.00     0.170 HD
ATOM     17  H   UNL d   1       3.623   1.825   0.051  0.00  0.00     0.171 HD
BRANCH  14  18
ATOM     18  C   UNL d   1       6.561  -0.629  -0.734  0.00  0.00     0.037 A 
ATOM     19  C   UNL d   1       6.463  -1.890  -0.128  0.00  0.00     0.053 A 
ATOM     20  C   UNL d   1       7.400  -2.880  -0.411  0.00  0.00     0.036 A 
ATOM     21 CL   UNL d   1       7.263  -4.428   0.330  0.00  0.00    -0.084 Cl
ATOM     22  C   UNL d   1       8.439  -2.626  -1.300  0.00  0.00     0.024 A 
ATOM     23  C   UNL d   1       8.557  -1.361  -1.882  0.00  0.00     0.004 A 
ATOM     24  C   UNL d   1       7.632  -0.353  -1.581  0.00  0.00     0.029 A 
ENDBRANCH  14  18
ENDBRANCH   1  12
BRANCH   2  25
ATOM     25  C   UNL d   1       1.074   2.908   0.526  0.00  0.00     0.296 C 
ATOM     26  O   UNL d   1       2.175   3.433   0.649  0.00  0.00    -0.259 OA
BRANCH  25  27
ATOM     27  O   UNL d   1      -0.108   3.540   0.776  0.00  0.00    -0.318 OA
BRANCH  27  28
ATOM     28  C   UNL d   1      -0.082   4.629   1.710  0.00  0.00     0.174 C 
ATOM     29  C   UNL d   1      -0.064   5.974   1.016  0.00  0.00     0.034 C 
ENDBRANCH  27  28
ENDBRANCH  25  27
ENDBRANCH   2  25
BRANCH   7  30
ATOM     30  O   UNL d   1      -2.812  -2.683  -2.032  0.00  0.00    -0.304 OA
BRANCH  30  31
ATOM     31  C   UNL d   1      -3.539  -3.243  -3.133  0.00  0.00     0.176 C 
ATOM     32  C   UNL d   1      -4.642  -4.153  -2.626  0.00  0.00     0.034 C 
ENDBRANCH  30  31
ENDBRANCH   7  30
TORSDOF 7
