REMARK  5 active torsions:
REMARK  status: ('A' for Active; 'I' for Inactive)
REMARK    1  A    between atoms: N_2  and  S_1 
REMARK    2  A    between atoms: C_11  and  S_1 
REMARK       I    between atoms: C_3  and  N_2 
REMARK       I    between atoms: N_5  and  C_3 
REMARK    3  A    between atoms: C_4  and  N_6 
REMARK    4  A    between atoms: C_27  and  C_19 
REMARK    5  A    between atoms: C_29  and  C_27 
ROOT
ATOM      1  N   UNL d   1       1.243   0.767   2.004  0.00  0.00    -0.232 N 
ATOM      2  C   UNL d   1       0.766  -0.328   2.710  0.00  0.00     0.332 C 
ATOM      3  N   UNL d   1       1.637  -1.381   2.904  0.00  0.00    -0.330 N 
ATOM      4  N   UNL d   1       2.421  -4.045   2.340  0.00  0.00    -0.214 N 
ATOM      5  O   UNL d   1      -0.366  -0.335   3.170  0.00  0.00    -0.246 OA
ATOM      6  C   UNL d   1       2.895  -1.638   2.181  0.00  0.00     0.148 C 
ATOM      7  C   UNL d   1       1.217  -2.482   3.784  0.00  0.00     0.148 C 
ATOM      8  C   UNL d   1       2.855  -2.989   1.429  0.00  0.00     0.161 C 
ATOM      9  C   UNL d   1       1.157  -3.828   3.041  0.00  0.00     0.161 C 
ATOM     10  H   UNL d   1       2.215   0.880   1.764  0.00  0.00     0.183 HD
ENDROOT
BRANCH   1  11
ATOM     11  S   UNL d   1       0.322   2.090   1.594  0.00  0.00     0.266 S 
ATOM     12  O   UNL d   1      -0.843   1.651   0.860  0.00  0.00    -0.200 OA
ATOM     13  O   UNL d   1       1.255   3.024   0.992  0.00  0.00    -0.200 OA
BRANCH  11  14
ATOM     14  C   UNL d   1      -0.193   2.796   3.143  0.00  0.00     0.080 A 
ATOM     15  C   UNL d   1       0.644   3.704   3.798  0.00  0.00     0.026 A 
ATOM     16  C   UNL d   1       0.174   4.393   4.920  0.00  0.00     0.008 A 
ATOM     17  C   UNL d   1      -1.134   4.190   5.383  0.00  0.00    -0.062 A 
ATOM     18  C   UNL d   1      -1.951   3.252   4.738  0.00  0.00     0.008 A 
ATOM     19  C   UNL d   1      -1.660   5.010   6.525  0.00  0.00     0.048 C 
ATOM     20  C   UNL d   1      -1.486   2.561   3.616  0.00  0.00     0.026 A 
ENDBRANCH  11  14
ENDBRANCH   1  11
BRANCH   4  21
ATOM     21  C   UNL d   1       3.104  -5.226   2.451  0.00  0.00     0.679 A 
ATOM     22  N   UNL d   1       2.612  -6.190   3.245  0.00  0.00    -0.201 N 
ATOM     23  C   UNL d   1       3.323  -7.329   3.374  0.00  0.00     0.114 A 
ATOM     24  HN  UNL d   1       1.728  -6.065   3.737  1.00  0.00     0.183 HD
ATOM     25  C   UNL d   1       4.525  -7.557   2.748  0.00  0.00    -0.026 A 
ATOM     26  C   UNL d   1       4.944  -6.520   1.948  0.00  0.00     0.114 A 
ATOM     27  N   UNL d   1       4.264  -5.367   1.791  0.00  0.00    -0.201 N 
ATOM     28  HN  UNL d   1       4.620  -4.624   1.188  1.00  0.00     0.183 HD
BRANCH  25  29
ATOM     29  C   UNL d   1       5.301  -8.825   2.921  0.00  0.00     0.041 C 
BRANCH  29  30
ATOM     30  C   UNL d   1       6.710  -8.627   3.491  0.00  0.00     0.000 C 
ATOM     31  C   UNL d   1       6.711  -8.043   4.898  0.00  0.00     0.005 C 
ENDBRANCH  29  30
ENDBRANCH  25  29
ENDBRANCH   4  21
TORSDOF 5
