REMARK  2 active torsions:
REMARK  status: ('A' for Active; 'I' for Inactive)
REMARK       I    between atoms: C_9  and  N_12 
REMARK       I    between atoms: N_14  and  C_9 
REMARK    1  A    between atoms: N_12  and  C_10 
REMARK    2  A    between atoms: C_16  and  N_14 
ROOT
ATOM      1  C   UNL d   1      -5.054  -0.482  -0.360  0.00  0.00     0.325 C 
ATOM      2  N   UNL d   1      -3.864  -1.180  -0.229  0.00  0.00    -0.309 N 
ATOM      3  N   UNL d   1      -4.877   0.883  -0.196  0.00  0.00    -0.309 N 
ATOM      4  O   UNL d   1      -6.137  -1.001  -0.607  0.00  0.00    -0.247 OA
ATOM      5  H   UNL d   1      -3.041  -0.641  -0.013  0.00  0.00     0.170 HD
ATOM      6  H   UNL d   1      -3.951   1.247  -0.360  0.00  0.00     0.170 HD
ENDROOT
BRANCH   2   7
ATOM      7  C   UNL d   1      -3.688  -2.575  -0.431  0.00  0.00     0.038 A 
ATOM      8  C   UNL d   1      -4.773  -3.444  -0.666  0.00  0.00     0.062 A 
ATOM      9  C   UNL d   1      -4.469  -4.786  -0.994  0.00  0.00     0.069 A 
ATOM     10  C   UNL d   1      -3.048  -5.263  -1.035  0.00  0.00     0.067 A 
ATOM     11  N   UNL d   1      -5.359  -5.743  -1.300  0.00  0.00    -0.310 N 
ATOM     12  N   UNL d   1      -2.933  -6.551  -1.394  0.00  0.00    -0.310 N 
ATOM     13  C   UNL d   1      -1.986  -4.386  -0.723  0.00  0.00     0.035 A 
ATOM     14  S   UNL d   1      -4.479  -7.103  -1.659  0.00  0.00     0.068 SA
ATOM     15  HN  UNL d   1      -2.069  -7.085  -1.487  1.00  0.00     0.176 HD
ATOM     16  C   UNL d   1      -2.348  -3.053  -0.425  0.00  0.00     0.032 A 
ATOM     17  HN  UNL d   1      -6.375  -5.653  -1.309  1.00  0.00     0.176 HD
ENDBRANCH   2   7
BRANCH   3  18
ATOM     18  C   UNL d   1      -5.925   1.830  -0.104  0.00  0.00     0.036 A 
ATOM     19  C   UNL d   1      -7.250   1.478   0.184  0.00  0.00     0.031 A 
ATOM     20  C   UNL d   1      -8.244   2.452   0.299  0.00  0.00     0.026 A 
ATOM     21  C   UNL d   1      -7.919   3.791   0.130  0.00  0.00     0.034 A 
ATOM     22  C   UNL d   1      -6.606   4.163  -0.161  0.00  0.00     0.026 A 
ATOM     23 CL   UNL d   1      -9.137   4.995   0.297  0.00  0.00    -0.084 Cl
ATOM     24  C   UNL d   1      -5.611   3.184  -0.274  0.00  0.00     0.031 A 
ENDBRANCH   3  18
TORSDOF 2
