REMARK  3 active torsions:
REMARK  status: ('A' for Active; 'I' for Inactive)
REMARK    1  A    between atoms: C_4  and  C_3 
REMARK       I    between atoms: N_7  and  C_4 
REMARK    2  A    between atoms: C_12  and  N_7 
REMARK    3  A    between atoms: C_16  and  C_10 
ROOT
ATOM      1  C   UNL d   1       5.221   1.095  -0.304  0.00  0.00     0.270 C 
ATOM      2  N   UNL d   1       4.004   1.321   0.311  0.00  0.00    -0.322 N 
ATOM      3  O   UNL d   1       6.005   1.932  -0.739  0.00  0.00    -0.266 OA
ATOM      4  H   UNL d   1       3.538   0.503   0.695  0.00  0.00     0.169 HD
ENDROOT
BRANCH   1   5
ATOM      5  C   UNL d   1       5.640  -0.366  -0.427  0.00  0.00     0.094 C 
ATOM      6  N   UNL d   1       4.839  -1.303  -0.012  0.00  0.00    -0.297 N 
ATOM      7  N   UNL d   1       5.263  -2.594  -0.156  0.00  0.00    -0.270 N 
ATOM      8  HN  UNL d   1       3.933  -1.084   0.403  1.00  0.00     0.187 HD
ATOM      9  C   UNL d   1       6.531  -3.016  -0.463  0.00  0.00     0.236 C 
ATOM     10  H   UNL d   1       4.603  -3.324   0.101  0.00  0.00     0.190 HD
ATOM     11  O   UNL d   1       6.829  -4.209  -0.437  0.00  0.00    -0.272 OA
ATOM     12  C   UNL d   1       7.553  -1.955  -0.753  0.00  0.00     0.111 C 
ATOM     13  C   UNL d   1       6.949  -0.624  -1.126  0.00  0.00     0.073 C 
ENDBRANCH   1   5
BRANCH   2  14
ATOM     14  C   UNL d   1       3.366   2.579   0.442  0.00  0.00     0.035 A 
ATOM     15  C   UNL d   1       3.798   3.721  -0.236  0.00  0.00     0.030 A 
ATOM     16  C   UNL d   1       3.101   4.929  -0.141  0.00  0.00     0.010 A 
ATOM     17  C   UNL d   1       1.944   5.036   0.635  0.00  0.00    -0.055 A 
ATOM     18  C   UNL d   1       1.531   3.903   1.352  0.00  0.00     0.010 A 
ATOM     19  C   UNL d   1       2.232   2.687   1.253  0.00  0.00     0.030 A 
BRANCH  17  20
ATOM     20  C   UNL d   1       1.137   6.324   0.669  0.00  0.00     0.010 C 
ATOM     21  C   UNL d   1       1.945   7.503   1.222  0.00  0.00     0.015 C 
ATOM     22  C   UNL d   1       0.590   6.673  -0.722  0.00  0.00     0.015 C 
ENDBRANCH  17  20
ENDBRANCH   2  14
TORSDOF 3
