REMARK  5 active torsions:
REMARK  status: ('A' for Active; 'I' for Inactive)
REMARK    1  A    between atoms: C_2  and  S_1 
REMARK    2  A    between atoms: N_3  and  S_1 
REMARK    3  A    between atoms: C_4  and  N_3 
REMARK    4  A    between atoms: O_19  and  C_9 
REMARK    5  A    between atoms: O_20  and  C_14 
ROOT
ATOM      1  S   UNL d   1       0.629  -0.255   0.131  0.00  0.00     0.266 S 
ATOM      2  O   UNL d   1      -0.661  -0.902   0.258  0.00  0.00    -0.200 OA
ATOM      3  O   UNL d   1       1.534  -0.236   1.258  0.00  0.00    -0.200 OA
ENDROOT
BRANCH   1   4
ATOM      4  C   UNL d   1       0.336   1.379  -0.499  0.00  0.00     0.115 A 
ATOM      5  C   UNL d   1      -0.772   1.480  -1.375  0.00  0.00     0.065 A 
ATOM      6  C   UNL d   1      -1.170   2.704  -1.906  0.00  0.00     0.069 A 
ATOM      7  C   UNL d   1      -0.440   3.840  -1.583  0.00  0.00     0.039 A 
ATOM      8  C   UNL d   1       0.643   3.755  -0.695  0.00  0.00     0.041 A 
ATOM      9  C   UNL d   1       1.029   2.531  -0.127  0.00  0.00     0.091 A 
BRANCH   6  10
ATOM     10  O   UNL d   1      -2.248   2.915  -2.719  0.00  0.00    -0.356 OA
ATOM     11  C   UNL d   1      -3.125   1.812  -2.933  0.00  0.00     0.210 C 
ENDBRANCH   6  10
BRANCH   9  12
ATOM     12  O   UNL d   1       1.933   2.667   0.888  0.00  0.00    -0.354 OA
ATOM     13  C   UNL d   1       3.181   2.006   0.733  0.00  0.00     0.210 C 
ENDBRANCH   9  12
ENDBRANCH   1   4
BRANCH   1  14
ATOM     14  N   UNL d   1       1.373  -1.029  -1.167  0.00  0.00    -0.279 N 
ATOM     15  H   UNL d   1       0.892  -1.865  -1.497  0.00  0.00     0.179 HD
BRANCH  14  16
ATOM     16  C   UNL d   1       2.755  -0.866  -1.454  0.00  0.00     0.059 A 
ATOM     17  C   UNL d   1       3.192  -0.261  -2.648  0.00  0.00     0.035 A 
ATOM     18  C   UNL d   1       4.562  -0.152  -2.919  0.00  0.00     0.038 A 
ATOM     19  I   UNL d   1       1.867   0.506  -4.074  0.00  0.00    -0.042 I 
ATOM     20  C   UNL d   1       5.492  -0.676  -2.024  0.00  0.00     0.007 A 
ATOM     21  C   UNL d   1       5.068  -1.316  -0.863  0.00  0.00     0.020 A 
ATOM     22  I   UNL d   1       7.524  -0.514  -2.433  0.00  0.00    -0.045 I 
ATOM     23  C   UNL d   1       3.702  -1.421  -0.586  0.00  0.00     0.033 A 
ENDBRANCH  14  16
ENDBRANCH   1  14
TORSDOF 5
