REMARK  3 active torsions:
REMARK  status: ('A' for Active; 'I' for Inactive)
REMARK       I    between atoms: N_2  and  C_1 
REMARK       I    between atoms: N_5  and  C_1 
REMARK    1  A    between atoms: C_3  and  C_4 
REMARK    2  A    between atoms: C_7  and  N_5 
REMARK    3  A    between atoms: C_8  and  C_6 
ROOT
ATOM      1  C   UNL d   1       0.851  -0.017   0.014  0.00  0.00     0.323 C 
ATOM      2  N   UNL d   1       0.418  -0.612  -1.156  0.00  0.00    -0.325 N 
ATOM      3  N   UNL d   1       0.561   1.334   0.099  0.00  0.00    -0.308 N 
ATOM      4  C   UNL d   1       0.726  -2.010  -1.467  0.00  0.00     0.123 C 
ATOM      5  O   UNL d   1       1.500  -0.642   0.855  0.00  0.00    -0.247 OA
ATOM      6  C   UNL d   1      -0.691  -0.137  -1.977  0.00  0.00     0.128 C 
ATOM      7  C   UNL d   1       0.201  -2.157  -2.901  0.00  0.00     0.032 C 
ATOM      8  C   UNL d   1      -1.062  -1.308  -2.880  0.00  0.00     0.022 C 
ATOM      9  H   UNL d   1       0.351   1.760  -0.793  0.00  0.00     0.170 HD
ENDROOT
BRANCH   3  10
ATOM     10  C   UNL d   1       1.108   2.182   1.096  0.00  0.00     0.051 A 
ATOM     11  C   UNL d   1       1.530   3.485   0.773  0.00  0.00     0.074 A 
ATOM     12  C   UNL d   1       2.211   4.242   1.751  0.00  0.00     0.018 A 
ATOM     13  C   UNL d   1       2.415   3.744   3.036  0.00  0.00     0.001 A 
ATOM     14  C   UNL d   1       1.921   2.491   3.373  0.00  0.00     0.002 A 
ATOM     15  C   UNL d   1       1.274   1.718   2.409  0.00  0.00     0.030 A 
BRANCH  11  16
ATOM     16  C   UNL d   1       1.354   4.107  -0.586  0.00  0.00     0.419 C 
ATOM     17  F   UNL d   1       0.645   3.339  -1.467  0.00  0.00    -0.166 F 
ATOM     18  F   UNL d   1       0.692   5.297  -0.533  0.00  0.00    -0.166 F 
ATOM     19  F   UNL d   1       2.539   4.370  -1.204  0.00  0.00    -0.166 F 
ENDBRANCH  11  16
ENDBRANCH   3  10
BRANCH   4  20
ATOM     20  C   UNL d   1       2.169  -2.429  -1.350  0.00  0.00    -0.020 A 
ATOM     21  C   UNL d   1       2.499  -3.564  -0.608  0.00  0.00     0.096 A 
ATOM     22  N   UNL d   1       3.756  -4.036  -0.437  0.00  0.00    -0.375 N 
ATOM     23  C   UNL d   1       4.747  -3.324  -1.010  0.00  0.00     0.087 A 
ATOM     24  HN  UNL d   1       3.943  -4.885   0.096  1.00  0.00     0.164 HD
ATOM     25  C   UNL d   1       4.536  -2.182  -1.766  0.00  0.00     0.018 A 
ATOM     26  C   UNL d   1       3.228  -1.734  -1.942  0.00  0.00     0.012 A 
ENDBRANCH   4  20
TORSDOF 3
