REMARK  1 active torsions:
REMARK  status: ('A' for Active; 'I' for Inactive)
REMARK    1  A    between atoms: N_12  and  N_4 
ROOT
ATOM      1  C   UNL d   1      -0.375   0.506  -0.008  0.00  0.00     0.074 A 
ATOM      2  C   UNL d   1       0.013  -0.818  -0.032  0.00  0.00     0.092 A 
ATOM      3  C   UNL d   1       0.690   1.498   0.032  0.00  0.00     0.277 A 
ATOM      4  N   UNL d   1       1.991   0.950   0.086  0.00  0.00    -0.232 N 
ATOM      5  N   UNL d   1       1.273  -1.310  -0.022  0.00  0.00    -0.338 N 
ATOM      6  HN  UNL d   1       1.467  -2.310  -0.068  1.00  0.00     0.168 HD
ATOM      7  C   UNL d   1       2.221  -0.421   0.048  0.00  0.00     0.099 A 
ATOM      8  S   UNL d   1      -1.318  -1.874  -0.064  0.00  0.00    -0.076 SA
ATOM      9  C   UNL d   1      -1.813   0.660  -0.017  0.00  0.00    -0.031 A 
ATOM     10  C   UNL d   1      -2.438  -0.583  -0.032  0.00  0.00    -0.012 A 
ATOM     11  O   UNL d   1       0.491   2.717   0.010  0.00  0.00    -0.266 OA
ATOM     12  C   UNL d   1       3.639  -0.944   0.075  0.00  0.00     0.091 C 
ATOM     13  C   UNL d   1      -2.560   1.957   0.003  0.00  0.00     0.050 C 
ATOM     14  C   UNL d   1      -3.894  -0.916  -0.020  0.00  0.00     0.057 C 
ENDROOT
BRANCH   4  15
ATOM     15  N   UNL d   1       3.084   1.871   0.212  0.00  0.00    -0.238 NA
ATOM     16  H   UNL d   1       2.670   2.812   0.168  0.00  0.00     0.143 HD
ATOM     17  H   UNL d   1       3.652   1.799  -0.633  0.00  0.00     0.143 HD
ENDBRANCH   4  15
TORSDOF 1
