REMARK  5 active torsions:
REMARK  status: ('A' for Active; 'I' for Inactive)
REMARK    1  A    between atoms: C_2  and  S_1 
REMARK    2  A    between atoms: N_6  and  S_1 
REMARK    3  A    between atoms: C_3  and  N_6 
REMARK    4  A    between atoms: C_17  and  C_4 
REMARK    5  A    between atoms: C_10  and  C_5 
ROOT
ATOM      1  C   UNL d   1       0.782   2.482  -0.615  0.00  0.00     0.041 C 
ATOM      2  C   UNL d   1       2.105   3.033  -0.345  0.00  0.00     0.019 C 
ATOM      3  C   UNL d   1       2.035   4.415  -0.146  0.00  0.00     0.101 C 
ATOM      4  S   UNL d   1       0.461   5.026  -0.478  0.00  0.00    -0.095 SA
ATOM      5  C   UNL d   1      -0.155   3.477  -0.788  0.00  0.00     0.075 C 
ENDROOT
BRANCH   1   6
ATOM      6  N   UNL d   1       0.501   1.120  -0.861  0.00  0.00    -0.180 NA
ATOM      7  H   UNL d   1       0.023   0.941  -1.745  0.00  0.00     0.146 HD
BRANCH   6   8
ATOM      8  S   UNL d   1      -0.261   0.136   0.305  0.00  0.00     0.250 S 
ATOM      9  O   UNL d   1      -0.770  -1.007  -0.430  0.00  0.00    -0.205 OA
ATOM     10  O   UNL d   1       0.597  -0.030   1.451  0.00  0.00    -0.205 OA
BRANCH   8  11
ATOM     11  C   UNL d   1      -1.683   0.852   0.923  0.00  0.00     0.130 A 
ATOM     12  C   UNL d   1      -2.841   1.130   0.235  0.00  0.00     0.097 A 
ATOM     13  O   UNL d   1      -3.751   1.646   1.103  0.00  0.00    -0.241 OA
ATOM     14  C   UNL d   1      -3.312   0.960  -1.151  0.00  0.00     0.081 C 
ATOM     15  N   UNL d   1      -3.217   1.679   2.374  0.00  0.00    -0.264 N 
ATOM     16  C   UNL d   1      -1.981   1.167   2.271  0.00  0.00     0.054 A 
ATOM     17  HN  UNL d   1      -3.669   2.023   3.221  1.00  0.00     0.194 HD
ATOM     18  C   UNL d   1      -1.170   0.986   3.500  0.00  0.00     0.072 C 
ENDBRANCH   8  11
ENDBRANCH   6   8
ENDBRANCH   1   6
BRANCH   2  19
ATOM     19  C   UNL d   1       3.389   2.306  -0.271  0.00  0.00    -0.023 A 
ATOM     20  C   UNL d   1       4.546   2.781  -0.909  0.00  0.00     0.012 A 
ATOM     21  C   UNL d   1       5.770   2.110  -0.777  0.00  0.00     0.001 A 
ATOM     22  C   UNL d   1       5.847   0.926  -0.051  0.00  0.00     0.000 A 
ATOM     23  C   UNL d   1       4.703   0.418   0.550  0.00  0.00     0.001 A 
ATOM     24  C   UNL d   1       3.495   1.115   0.453  0.00  0.00     0.012 A 
ENDBRANCH   2  19
BRANCH   3  25
ATOM     25  C   UNL d   1       3.079   5.419   0.247  0.00  0.00     0.424 C 
ATOM     26  F   UNL d   1       4.119   4.885   0.934  0.00  0.00    -0.166 F 
ATOM     27  F   UNL d   1       3.606   6.036  -0.845  0.00  0.00    -0.166 F 
ATOM     28  F   UNL d   1       2.578   6.404   1.041  0.00  0.00    -0.166 F 
ENDBRANCH   3  25
TORSDOF 5
