REMARK  8 active torsions:
REMARK  status: ('A' for Active; 'I' for Inactive)
REMARK    1  A    between atoms: C_2  and  C_1 
REMARK    2  A    between atoms: C_28  and  N_3 
REMARK    3  A    between atoms: N_22  and  C_4 
REMARK    4  A    between atoms: S_19  and  C_10 
REMARK    5  A    between atoms: C_18  and  C_11 
REMARK    6  A    between atoms: C_25  and  C_16 
REMARK    7  A    between atoms: C_29  and  S_19 
REMARK    8  A    between atoms: C_21  and  C_29 
REMARK       I    between atoms: N_30  and  C_21 
ROOT
ATOM      1  C   UNL d   1       2.398  -0.001  -0.067  0.00  0.00     0.150 A 
ATOM      2  C   UNL d   1       1.672   1.168  -0.255  0.00  0.00     0.079 A 
ATOM      3  C   UNL d   1       0.286   0.850  -0.137  0.00  0.00     0.058 A 
ATOM      4  C   UNL d   1       0.253  -0.537  -0.037  0.00  0.00     0.162 A 
ATOM      5  O   UNL d   1       1.513  -1.038   0.047  0.00  0.00    -0.287 OA
ATOM      6  C   UNL d   1      -0.959   1.510  -0.099  0.00  0.00     0.017 A 
ATOM      7  N   UNL d   1      -0.828  -1.334  -0.003  0.00  0.00    -0.335 N 
ATOM      8  HN  UNL d   1      -0.761  -2.350   0.061  1.00  0.00     0.168 HD
ATOM      9  C   UNL d   1      -2.011  -0.683  -0.059  0.00  0.00     0.045 A 
ATOM     10  C   UNL d   1      -2.111   0.710  -0.072  0.00  0.00     0.045 A 
ENDROOT
BRANCH   1  11
ATOM     11  C   UNL d   1       3.808  -0.157   0.128  0.00  0.00     0.161 A 
ATOM     12  N   UNL d   1       4.655  -1.144  -0.328  0.00  0.00    -0.309 N 
ATOM     13  C   UNL d   1       5.861  -0.870   0.284  0.00  0.00     0.163 A 
ATOM     14  N   UNL d   1       5.766   0.201   1.031  0.00  0.00    -0.278 N 
ATOM     15  N   UNL d   1       4.488   0.668   0.909  0.00  0.00    -0.281 N 
ATOM     16  HN  UNL d   1       6.508   0.609   1.600  1.00  0.00     0.189 HD
ATOM     17  HN  UNL d   1       4.119   1.512   1.346  1.00  0.00     0.188 HD
BRANCH  12  18
ATOM     18  C   UNL d   1       4.468  -2.142  -1.362  0.00  0.00     0.128 C 
ATOM     19  C   UNL d   1       3.126  -2.835  -1.502  0.00  0.00     0.027 C 
ENDBRANCH  12  18
BRANCH  13  20
ATOM     20  S   UNL d   1       7.303  -1.808   0.094  0.00  0.00    -0.083 SA
BRANCH  20  21
ATOM     21  C   UNL d   1       7.786  -2.021   1.831  0.00  0.00     0.184 C 
BRANCH  21  22
ATOM     22  C   UNL d   1       6.765  -2.874   2.559  0.00  0.00     0.225 C 
ATOM     23  O   UNL d   1       6.689  -4.092   2.447  0.00  0.00    -0.273 OA
ATOM     24  N   UNL d   1       5.891  -2.193   3.365  0.00  0.00    -0.369 N 
ATOM     25  H   UNL d   1       5.721  -1.203   3.222  0.00  0.00     0.159 HD
ATOM     26  H   UNL d   1       5.146  -2.735   3.780  0.00  0.00     0.159 HD
ENDBRANCH  21  22
ENDBRANCH  20  21
ENDBRANCH  13  20
ENDBRANCH   1  11
BRANCH   2  27
ATOM     27  N   UNL d   1       2.194   2.394  -0.489  0.00  0.00    -0.396 N 
ATOM     28  H   UNL d   1       3.172   2.576  -0.265  0.00  0.00     0.156 HD
ATOM     29  H   UNL d   1       1.607   3.214  -0.332  0.00  0.00     0.156 HD
ENDBRANCH   2  27
BRANCH   6  30
ATOM     30  C   UNL d   1      -1.055   2.959  -0.028  0.00  0.00     0.086 A 
ATOM     31  O   UNL d   1      -0.057   3.608   0.642  0.00  0.00    -0.322 OA
ATOM     32  C   UNL d   1      -0.364   4.929   0.665  0.00  0.00     0.142 A 
ATOM     33  C   UNL d   1      -1.553   5.152   0.017  0.00  0.00     0.027 A 
ATOM     34  C   UNL d   1      -2.006   3.881  -0.422  0.00  0.00     0.040 A 
ENDBRANCH   6  30
BRANCH   9  35
ATOM     35  C   UNL d   1      -3.210  -1.555  -0.106  0.00  0.00    -0.009 A 
ATOM     36  C   UNL d   1      -3.222  -2.809   0.533  0.00  0.00     0.013 A 
ATOM     37  C   UNL d   1      -4.342  -3.646   0.478  0.00  0.00     0.001 A 
ATOM     38  C   UNL d   1      -5.477  -3.249  -0.223  0.00  0.00     0.000 A 
ATOM     39  C   UNL d   1      -5.493  -2.017  -0.867  0.00  0.00     0.001 A 
ATOM     40  C   UNL d   1      -4.371  -1.182  -0.811  0.00  0.00     0.013 A 
ENDBRANCH   9  35
TORSDOF 8
