REMARK  3 active torsions:
REMARK  status: ('A' for Active; 'I' for Inactive)
REMARK    1  A    between atoms: N_2  and  C_1 
REMARK    2  A    between atoms: N_6  and  C_1 
REMARK    3  A    between atoms: C_8  and  N_2 
ROOT
ATOM      1  C   UNL d   1       2.656  -3.473   2.544  0.00  0.00     0.104 A 
ATOM      2  C   UNL d   1       2.083  -2.300   2.046  0.00  0.00     0.069 A 
ATOM      3  C   UNL d   1       2.170  -4.719   2.139  0.00  0.00     0.102 A 
ATOM      4  C   UNL d   1       1.067  -2.383   1.094  0.00  0.00     0.037 A 
ATOM      5  O   UNL d   1       3.717  -3.324   3.396  0.00  0.00    -0.346 OA
ATOM      6  O   UNL d   1       2.722  -5.910   2.534  0.00  0.00    -0.346 OA
ATOM      7  C   UNL d   1       1.093  -4.797   1.263  0.00  0.00     0.042 A 
ATOM      8  C   UNL d   1       0.530  -3.627   0.752  0.00  0.00     0.032 A 
ATOM      9  C   UNL d   1       4.522  -4.508   3.404  0.00  0.00     0.202 C 
ATOM     10  C   UNL d   1       3.659  -5.743   3.603  0.00  0.00     0.202 C 
ENDROOT
BRANCH   4  11
ATOM     11  N   UNL d   1       0.564  -1.259   0.418  0.00  0.00    -0.333 N 
ATOM     12  H   UNL d   1      -0.426  -1.306   0.192  0.00  0.00     0.168 HD
BRANCH  11  13
ATOM     13  C   UNL d   1       1.107  -0.047   0.113  0.00  0.00     0.173 C 
ATOM     14  S   UNL d   1      -0.029   1.188  -0.047  0.00  0.00    -0.041 SA
BRANCH  13  15
ATOM     15  N   UNL d   1       2.464   0.079  -0.160  0.00  0.00    -0.367 N 
ATOM     16  C   UNL d   1       3.380  -1.043  -0.377  0.00  0.00     0.151 C 
ATOM     17  C   UNL d   1       3.096   1.373  -0.432  0.00  0.00     0.151 C 
ENDBRANCH  13  15
ENDBRANCH  11  13
ENDBRANCH   4  11
TORSDOF 3
