REMARK  8 active torsions:
REMARK  status: ('A' for Active; 'I' for Inactive)
REMARK    1  A    between atoms: C_3  and  S_1 
REMARK    2  A    between atoms: N_5  and  S_1 
REMARK    3  A    between atoms: C_2  and  C_10 
REMARK       I    between atoms: N_4  and  C_2 
REMARK    4  A    between atoms: C_13  and  N_4 
REMARK    5  A    between atoms: C_23  and  N_5 
REMARK    6  A    between atoms: C_24  and  N_5 
REMARK    7  A    between atoms: C_25  and  C_23 
REMARK    8  A    between atoms: C_26  and  C_24 
ROOT
ATOM      1  C   UNL d   1       0.789  -1.021   1.620  0.00  0.00     0.079 A 
ATOM      2  C   UNL d   1       0.276  -2.380   4.030  0.00  0.00     0.032 A 
ATOM      3  C   UNL d   1       0.452  -2.377   1.596  0.00  0.00     0.026 A 
ATOM      4  C   UNL d   1       0.917  -0.364   2.853  0.00  0.00     0.026 A 
ATOM      5  C   UNL d   1       0.198  -3.051   2.800  0.00  0.00     0.018 A 
ATOM      6  C   UNL d   1       0.631  -1.028   4.049  0.00  0.00     0.018 A 
ENDROOT
BRANCH   2   7
ATOM      7  C   UNL d   1      -0.131  -3.089   5.284  0.00  0.00     0.256 C 
ATOM      8  N   UNL d   1       0.366  -2.565   6.467  0.00  0.00    -0.323 N 
ATOM      9  H   UNL d   1       1.217  -2.020   6.422  0.00  0.00     0.169 HD
ATOM     10  O   UNL d   1      -0.875  -4.057   5.190  0.00  0.00    -0.267 OA
BRANCH   8  11
ATOM     11  C   UNL d   1      -0.228  -2.697   7.742  0.00  0.00     0.037 A 
ATOM     12  C   UNL d   1      -1.540  -3.156   7.914  0.00  0.00     0.069 A 
ATOM     13  C   UNL d   1      -2.095  -3.074   9.174  0.00  0.00     0.107 A 
ATOM     14  O   UNL d   1      -3.382  -3.382   9.496  0.00  0.00    -0.323 OA
ATOM     15  C   UNL d   1      -1.386  -2.607  10.255  0.00  0.00     0.105 A 
ATOM     16  C   UNL d   1      -3.432  -2.920  10.860  0.00  0.00     0.352 C 
ATOM     17  O   UNL d   1      -2.135  -2.569  11.389  0.00  0.00    -0.323 OA
ATOM     18  C   UNL d   1      -0.075  -2.203  10.136  0.00  0.00     0.042 A 
ATOM     19  C   UNL d   1       0.501  -2.232   8.859  0.00  0.00     0.032 A 
ENDBRANCH   8  11
ENDBRANCH   2   7
BRANCH   1  20
ATOM     20  S   UNL d   1       1.254  -0.159   0.121  0.00  0.00     0.260 S 
ATOM     21  O   UNL d   1       1.258  -1.140  -0.950  0.00  0.00    -0.200 OA
ATOM     22  O   UNL d   1       2.474   0.565   0.443  0.00  0.00    -0.200 OA
BRANCH  20  23
ATOM     23  N   UNL d   1      -0.002   0.978  -0.201  0.00  0.00    -0.307 N 
BRANCH  23  24
ATOM     24  C   UNL d   1      -1.151   0.425  -0.994  0.00  0.00     0.135 C 
BRANCH  24  25
ATOM     25  C   UNL d   1      -2.138   1.498  -1.474  0.00  0.00     0.016 C 
ATOM     26  C   UNL d   1      -3.159   0.951  -2.462  0.00  0.00     0.006 C 
ENDBRANCH  24  25
ENDBRANCH  23  24
BRANCH  23  27
ATOM     27  C   UNL d   1      -0.364   1.974   0.847  0.00  0.00     0.135 C 
BRANCH  27  28
ATOM     28  C   UNL d   1       0.763   2.903   1.294  0.00  0.00     0.016 C 
ATOM     29  C   UNL d   1       1.283   3.803   0.186  0.00  0.00     0.006 C 
ENDBRANCH  27  28
ENDBRANCH  23  27
ENDBRANCH  20  23
ENDBRANCH   1  20
TORSDOF 8
