REMARK  7 active torsions:
REMARK  status: ('A' for Active; 'I' for Inactive)
REMARK    1  A    between atoms: C_11  and  C_1 
REMARK    2  A    between atoms: N_16  and  C_3 
REMARK    3  A    between atoms: S_18  and  C_6 
REMARK    4  A    between atoms: N_20  and  C_10 
REMARK    5  A    between atoms: C_14  and  C_11 
REMARK    6  A    between atoms: C_15  and  O_19 
REMARK    7  A    between atoms: O_19  and  C_23 
ROOT
ATOM      1  C   UNL d   1      -2.369  -0.562   0.047  0.00  0.00     0.085 A 
ATOM      2  C   UNL d   1      -0.291   0.600  -0.005  0.00  0.00     0.044 A 
ATOM      3  C   UNL d   1      -1.749   0.680   0.046  0.00  0.00     0.061 A 
ATOM      4  C   UNL d   1       0.087  -0.736  -0.033  0.00  0.00     0.090 A 
ATOM      5  S   UNL d   1      -1.206  -1.822   0.007  0.00  0.00    -0.065 SA
ATOM      6  C   UNL d   1       0.790   1.540  -0.037  0.00  0.00     0.039 A 
ATOM      7  C   UNL d   1       2.112   1.040  -0.076  0.00  0.00     0.100 A 
ATOM      8  N   UNL d   1       1.334  -1.234  -0.086  0.00  0.00    -0.339 N 
ATOM      9  HN  UNL d   1       1.515  -2.237  -0.111  1.00  0.00     0.167 HD
ATOM     10  C   UNL d   1       2.320  -0.338  -0.104  0.00  0.00     0.101 A 
ATOM     11  C   UNL d   1       3.255   1.903  -0.042  0.00  0.00     0.104 C 
ATOM     12  N   UNL d   1       4.192   2.584  -0.002  0.00  0.00    -0.191 NA
ENDROOT
BRANCH   6  13
ATOM     13  S   UNL d   1       0.396   3.285   0.088  0.00  0.00    -0.132 SA
ATOM     14  C   UNL d   1       1.068   3.944  -1.470  0.00  0.00     0.095 C 
ENDBRANCH   6  13
BRANCH  10  15
ATOM     15  N   UNL d   1       3.587  -0.910  -0.224  0.00  0.00    -0.287 NA
ATOM     16  H   UNL d   1       3.478  -1.921  -0.168  0.00  0.00     0.125 HD
ATOM     17  H   UNL d   1       4.270  -0.566   0.443  0.00  0.00     0.125 HD
ENDBRANCH  10  15
BRANCH   3  18
ATOM     18  N   UNL d   1      -2.410   1.859   0.054  0.00  0.00    -0.397 N 
ATOM     19  H   UNL d   1      -1.905   2.747   0.043  0.00  0.00     0.156 HD
ATOM     20  H   UNL d   1      -3.418   1.973   0.003  0.00  0.00     0.156 HD
ENDBRANCH   3  18
BRANCH   1  21
ATOM     21  C   UNL d   1      -3.759  -1.000   0.026  0.00  0.00     0.201 C 
ATOM     22  O   UNL d   1      -4.120  -2.037  -0.536  0.00  0.00    -0.286 OA
BRANCH  21  23
ATOM     23  C   UNL d   1      -4.846  -0.238   0.702  0.00  0.00     0.016 A 
ATOM     24  C   UNL d   1      -4.648   0.502   1.872  0.00  0.00     0.018 A 
ATOM     25  C   UNL d   1      -5.729   1.153   2.488  0.00  0.00     0.038 A 
ATOM     26  C   UNL d   1      -7.017   1.035   1.956  0.00  0.00     0.074 A 
ATOM     27  C   UNL d   1      -7.213   0.298   0.788  0.00  0.00     0.038 A 
ATOM     28  C   UNL d   1      -6.140  -0.344   0.172  0.00  0.00     0.018 A 
BRANCH  26  29
ATOM     29  O   UNL d   1      -8.144   1.608   2.465  0.00  0.00    -0.290 OA
BRANCH  29  30
ATOM     30  C   UNL d   1      -8.147   1.815   3.867  0.00  0.00     0.505 C 
ATOM     31  F   UNL d   1      -7.532   2.992   4.136  0.00  0.00    -0.184 F 
ATOM     32  F   UNL d   1      -9.441   1.952   4.252  0.00  0.00    -0.184 F 
ENDBRANCH  29  30
ENDBRANCH  26  29
ENDBRANCH  21  23
ENDBRANCH   1  21
TORSDOF 7
