REMARK  3 active torsions:
REMARK  status: ('A' for Active; 'I' for Inactive)
REMARK    1  A    between atoms: C_3  and  C_1 
REMARK    2  A    between atoms: N_10  and  C_3 
REMARK    3  A    between atoms: O_12  and  N_8 
ROOT
ATOM      1  C   UNL d   1      -1.317  -1.095  -0.061  0.00  0.00     0.106 A 
ATOM      2  C   UNL d   1      -0.420   0.018  -0.116  0.00  0.00     0.059 A 
ATOM      3  N   UNL d   1      -2.575  -0.613   0.050  0.00  0.00    -0.297 N 
ATOM      4  HN  UNL d   1      -3.436  -1.156   0.122  1.00  0.00     0.187 HD
ATOM      5  N   UNL d   1      -2.463   0.716   0.044  0.00  0.00    -0.310 N 
ATOM      6  C   UNL d   1      -1.183   1.155  -0.047  0.00  0.00     0.128 A 
ATOM      7 BR   UNL d   1       1.452   0.029  -0.243  0.00  0.00    -0.047 Br
ATOM      8  H   UNL d   1      -3.314   1.265   0.111  0.00  0.00     0.186 HD
ENDROOT
BRANCH   1   9
ATOM      9  C   UNL d   1      -1.034  -2.555  -0.100  0.00  0.00     0.128 C 
ATOM     10  N   UNL d   1      -1.887  -3.544  -0.014  0.00  0.00    -0.254 N 
ATOM     11  HN  UNL d   1      -1.607  -4.524  -0.040  1.00  0.00     0.195 HD
BRANCH  10  12
ATOM     12  O   UNL d   1      -3.216  -3.134   0.117  0.00  0.00    -0.284 OA
ATOM     13  C   UNL d   1      -4.051  -4.280   0.163  0.00  0.00     0.237 C 
ENDBRANCH  10  12
BRANCH   9  14
ATOM     14  N   UNL d   1       0.288  -2.892  -0.233  0.00  0.00    -0.285 NA
ATOM     15  H   UNL d   1       0.965  -2.252   0.163  0.00  0.00     0.125 HD
ATOM     16  H   UNL d   1       0.454  -3.861   0.016  0.00  0.00     0.125 HD
ENDBRANCH   9  14
ENDBRANCH   1   9
TORSDOF 3
