REMARK  2 active torsions:
REMARK  status: ('A' for Active; 'I' for Inactive)
REMARK    1  A    between atoms: C_7  and  N_1 
REMARK    2  A    between atoms: O_17  and  C_13 
ROOT
ATOM      1  N   UNL d   1       2.450  -0.605  -0.038  0.00  0.00    -0.254 N 
ATOM      2  C   UNL d   1       2.414   0.795   0.009  0.00  0.00     0.186 A 
ATOM      3  C   UNL d   1       1.289  -1.407  -0.042  0.00  0.00     0.267 A 
ATOM      4  C   UNL d   1      -0.009  -0.711  -0.018  0.00  0.00     0.059 A 
ATOM      5  N   UNL d   1       1.171   1.379   0.056  0.00  0.00    -0.332 N 
ATOM      6  C   UNL d   1      -0.026   0.674   0.022  0.00  0.00     0.050 A 
ATOM      7  S   UNL d   1       3.704   1.875  -0.063  0.00  0.00    -0.040 SA
ATOM      8  O   UNL d   1       1.271  -2.638  -0.038  0.00  0.00    -0.267 OA
ATOM      9  C   UNL d   1      -1.212  -1.429  -0.044  0.00  0.00     0.019 A 
ATOM     10  C   UNL d   1      -1.240   1.363   0.016  0.00  0.00     0.030 A 
ATOM     11  C   UNL d   1      -2.428  -0.746  -0.050  0.00  0.00     0.001 A 
ATOM     12  C   UNL d   1      -2.441   0.649  -0.025  0.00  0.00     0.002 A 
ATOM     13  H   UNL d   1       1.156   2.394   0.064  0.00  0.00     0.168 HD
ENDROOT
BRANCH   1  14
ATOM     14  C   UNL d   1       3.695  -1.319  -0.093  0.00  0.00     0.045 A 
ATOM     15  C   UNL d   1       3.940  -2.206  -1.147  0.00  0.00     0.033 A 
ATOM     16  C   UNL d   1       5.118  -2.954  -1.183  0.00  0.00     0.039 A 
ATOM     17  C   UNL d   1       6.068  -2.834  -0.168  0.00  0.00     0.068 A 
ATOM     18  C   UNL d   1       5.829  -1.954   0.889  0.00  0.00     0.039 A 
ATOM     19  C   UNL d   1       4.648  -1.198   0.925  0.00  0.00     0.033 A 
BRANCH  17  20
ATOM     20  O   UNL d   1       7.144  -3.666  -0.289  0.00  0.00    -0.356 OA
ATOM     21  C   UNL d   1       8.334  -3.265   0.378  0.00  0.00     0.210 C 
ENDBRANCH  17  20
ENDBRANCH   1  14
TORSDOF 2
