REMARK  5 active torsions:
REMARK  status: ('A' for Active; 'I' for Inactive)
REMARK    1  A    between atoms: C_2  and  C_1 
REMARK       I    between atoms: N_6  and  C_2 
REMARK    2  A    between atoms: O_15  and  C_3 
REMARK       I    between atoms: C_5  and  N_7 
REMARK    3  A    between atoms: C_10  and  C_5 
REMARK    4  A    between atoms: N_7  and  N_6 
REMARK    5  A    between atoms: C_20  and  O_15 
ROOT
ATOM      1  C   UNL d   1      -0.425   2.808  -0.030  0.00  0.00     0.279 C 
ATOM      2  N   UNL d   1      -1.738   2.996   0.375  0.00  0.00    -0.262 N 
ATOM      3  O   UNL d   1       0.231   3.783  -0.401  0.00  0.00    -0.265 OA
ATOM      4  H   UNL d   1      -2.268   2.274   0.860  0.00  0.00     0.190 HD
ENDROOT
BRANCH   2   5
ATOM      5  N   UNL d   1      -2.262   4.297   0.386  0.00  0.00    -0.263 N 
ATOM      6  C   UNL d   1      -3.324   4.575   1.220  0.00  0.00     0.270 C 
ATOM      7  O   UNL d   1      -3.874   3.716   1.907  0.00  0.00    -0.266 OA
ATOM      8  H   UNL d   1      -1.852   4.957  -0.268  0.00  0.00     0.190 HD
BRANCH   6   9
ATOM      9  C   UNL d   1      -3.809   5.983   1.236  0.00  0.00     0.033 A 
ATOM     10  C   UNL d   1      -5.157   6.218   1.542  0.00  0.00     0.019 A 
ATOM     11  C   UNL d   1      -5.650   7.526   1.611  0.00  0.00     0.025 A 
ATOM     12  C   UNL d   1      -4.791   8.600   1.385  0.00  0.00     0.034 A 
ATOM     13  C   UNL d   1      -3.448   8.379   1.083  0.00  0.00     0.025 A 
ATOM     14 CL   UNL d   1      -5.389  10.210   1.495  0.00  0.00    -0.084 Cl
ATOM     15  C   UNL d   1      -2.953   7.071   1.008  0.00  0.00     0.019 A 
ENDBRANCH   6   9
ENDBRANCH   2   5
BRANCH   1  16
ATOM     16  C   UNL d   1       0.064   1.429  -0.028  0.00  0.00     0.107 A 
ATOM     17  C   UNL d   1       1.122   0.825  -0.702  0.00  0.00     0.091 A 
ATOM     18  C   UNL d   1       1.277  -0.553  -0.343  0.00  0.00     0.045 A 
ATOM     19  C   UNL d   1       0.335  -0.980   0.561  0.00  0.00     0.053 A 
ATOM     20  S   UNL d   1      -0.733   0.275   0.990  0.00  0.00    -0.094 SA
BRANCH  17  21
ATOM     21  O   UNL d   1       2.018   1.364  -1.570  0.00  0.00    -0.350 OA
BRANCH  21  22
ATOM     22  C   UNL d   1       1.539   2.372  -2.452  0.00  0.00     0.171 C 
ATOM     23  C   UNL d   1       2.273   2.252  -3.777  0.00  0.00     0.034 C 
ENDBRANCH  21  22
ENDBRANCH  17  21
ENDBRANCH   1  16
TORSDOF 5
