REMARK  1 active torsions:
REMARK  status: ('A' for Active; 'I' for Inactive)
REMARK    1  A    between atoms: C_2  and  N_1 
ROOT
ATOM      1  N   UNL d   1       0.001   0.901  -0.015  0.00  0.00    -0.245 N 
ATOM      2  C   UNL d   1      -0.906   0.112   0.641  0.00  0.00     0.255 A 
ATOM      3  C   UNL d   1       0.909   0.100  -0.657  0.00  0.00     0.255 A 
ATOM      4  C   UNL d   1      -0.540  -1.287   0.391  0.00  0.00     0.080 A 
ATOM      5  C   UNL d   1       0.541  -1.294  -0.382  0.00  0.00     0.080 A 
ATOM      6  O   UNL d   1      -1.893   0.397   1.296  0.00  0.00    -0.268 OA
ATOM      7  O   UNL d   1       1.896   0.372  -1.319  0.00  0.00    -0.268 OA
ENDROOT
BRANCH   1   8
ATOM      8  C   UNL d   1       0.002   2.324  -0.027  0.00  0.00     0.048 A 
ATOM      9  C   UNL d   1      -0.701   3.060   0.939  0.00  0.00     0.072 A 
ATOM     10  C   UNL d   1      -0.680   4.454   0.924  0.00  0.00     0.118 A 
ATOM     11  F   UNL d   1      -1.336   5.130   1.877  0.00  0.00    -0.206 F 
ATOM     12  C   UNL d   1       0.016   5.154  -0.049  0.00  0.00     0.042 A 
ATOM     13  C   UNL d   1       0.710   4.447  -1.023  0.00  0.00     0.005 A 
ATOM     14  C   UNL d   1       0.709   3.046  -1.005  0.00  0.00     0.030 A 
ENDBRANCH   1   8
TORSDOF 1
