REMARK  4 active torsions:
REMARK  status: ('A' for Active; 'I' for Inactive)
REMARK    1  A    between atoms: C_2  and  S_1 
REMARK    2  A    between atoms: N_4  and  S_1 
REMARK    3  A    between atoms: C_5  and  C_3 
REMARK    4  A    between atoms: C_6  and  C_7 
ROOT
ATOM      1  S   UNL d   1       0.950   0.038  -0.167  0.00  0.00     0.265 S 
ATOM      2  O   UNL d   1       0.625  -1.352   0.044  0.00  0.00    -0.200 OA
ATOM      3  O   UNL d   1       2.316   0.449  -0.431  0.00  0.00    -0.200 OA
ENDROOT
BRANCH   1   4
ATOM      4  C   UNL d   1       0.422   0.890   1.326  0.00  0.00     0.095 A 
ATOM      5  C   UNL d   1      -0.902   0.872   1.802  0.00  0.00     0.071 A 
ATOM      6  C   UNL d   1      -1.177   1.551   3.012  0.00  0.00     0.018 A 
ATOM      7  C   UNL d   1      -0.174   2.186   3.743  0.00  0.00     0.001 A 
ATOM      8  C   UNL d   1       1.131   2.173   3.274  0.00  0.00     0.002 A 
ATOM      9  C   UNL d   1       1.429   1.538   2.068  0.00  0.00     0.026 A 
BRANCH   5  10
ATOM     10  C   UNL d   1      -2.083   0.181   1.172  0.00  0.00     0.419 C 
ATOM     11  F   UNL d   1      -1.849  -0.571   0.078  0.00  0.00    -0.166 F 
ATOM     12  F   UNL d   1      -2.707  -0.655   2.051  0.00  0.00    -0.166 F 
ATOM     13  F   UNL d   1      -3.038   1.082   0.794  0.00  0.00    -0.166 F 
ENDBRANCH   5  10
ENDBRANCH   1   4
BRANCH   1  14
ATOM     14  N   UNL d   1      -0.023   0.719  -1.396  0.00  0.00    -0.281 N 
ATOM     15  C   UNL d   1       0.213   2.091  -1.695  0.00  0.00     0.105 C 
ATOM     16  C   UNL d   1      -0.326   2.704  -2.753  0.00  0.00     0.052 C 
ATOM     17  C   UNL d   1      -1.153   2.190  -3.899  0.00  0.00     0.114 C 
ATOM     18  N   UNL d   1      -1.948   1.168  -3.898  0.00  0.00    -0.384 N 
ATOM     19  C   UNL d   1      -2.060   0.347  -2.702  0.00  0.00     0.141 C 
ATOM     20  HN  UNL d   1      -2.492   0.941  -4.730  1.00  0.00     0.159 HD
ATOM     21  C   UNL d   1      -0.695  -0.225  -2.319  0.00  0.00     0.160 C 
BRANCH  17  22
ATOM     22  C   UNL d   1      -1.032   2.998  -5.208  0.00  0.00     0.432 C 
ATOM     23  F   UNL d   1      -0.184   4.061  -5.099  0.00  0.00    -0.165 F 
ATOM     24  F   UNL d   1      -0.556   2.243  -6.236  0.00  0.00    -0.165 F 
ATOM     25  F   UNL d   1      -2.225   3.509  -5.615  0.00  0.00    -0.165 F 
ENDBRANCH  17  22
ENDBRANCH   1  14
TORSDOF 4
