REMARK  7 active torsions:
REMARK  status: ('A' for Active; 'I' for Inactive)
REMARK    1  A    between atoms: C_24  and  N_3 
REMARK    2  A    between atoms: C_19  and  C_6 
REMARK    3  A    between atoms: C_18  and  C_7 
REMARK    4  A    between atoms: C_12  and  S_22 
REMARK       I    between atoms: C_17  and  N_25 
REMARK    5  A    between atoms: C_27  and  C_17 
REMARK    6  A    between atoms: N_25  and  N_20 
REMARK    7  A    between atoms: S_22  and  C_27 
ROOT
ATOM      1  C   UNL d   1       2.974   2.951  -0.130  0.00  0.00     0.139 C 
ATOM      2  N   UNL d   1       4.132   2.621  -0.608  0.00  0.00    -0.307 N 
ATOM      3  HN  UNL d   1       4.313   1.653  -0.872  1.00  0.00     0.186 HD
ENDROOT
BRANCH   2   4
ATOM      4  N   UNL d   1       5.119   3.566  -0.763  0.00  0.00    -0.270 N 
ATOM      5  C   UNL d   1       5.263   4.804  -0.117  0.00  0.00     0.245 C 
ATOM      6  O   UNL d   1       4.536   5.219   0.781  0.00  0.00    -0.271 OA
ATOM      7  H   UNL d   1       5.912   3.206  -1.285  0.00  0.00     0.190 HD
BRANCH   5   8
ATOM      8  C   UNL d   1       6.508   5.526  -0.647  0.00  0.00     0.185 C 
BRANCH   8   9
ATOM      9  S   UNL d   1       6.677   7.295  -0.252  0.00  0.00    -0.102 SA
BRANCH   9  10
ATOM     10  C   UNL d   1       5.277   8.002  -1.075  0.00  0.00     0.084 C 
ATOM     11  C   UNL d   1       5.054   9.395  -1.073  0.00  0.00     0.039 C 
ATOM     12  C   UNL d   1       3.758   9.757  -1.418  0.00  0.00     0.089 C 
ATOM     13  C   UNL d   1       5.851  10.594  -0.846  0.00  0.00    -0.029 C 
ATOM     14  S   UNL d   1       3.437  11.415  -1.204  0.00  0.00    -0.075 SA
ATOM     15  N   UNL d   1       2.780   8.945  -1.865  0.00  0.00    -0.346 N 
ATOM     16  C   UNL d   1       5.060  11.732  -0.834  0.00  0.00    -0.008 C 
ATOM     17  C   UNL d   1       5.558  13.123  -0.612  0.00  0.00     0.047 C 
ATOM     18  C   UNL d   1       6.974  13.231  -1.182  0.00  0.00     0.005 C 
ATOM     19  C   UNL d   1       7.880  12.142  -0.592  0.00  0.00     0.005 C 
ATOM     20  C   UNL d   1       7.355  10.700  -0.777  0.00  0.00     0.040 C 
ATOM     21  C   UNL d   1       3.175   7.679  -1.960  0.00  0.00     0.182 C 
ATOM     22  HN  UNL d   1       1.841   9.266  -2.103  1.00  0.00     0.167 HD
ATOM     23  N   UNL d   1       4.353   7.166  -1.593  0.00  0.00    -0.346 N 
ATOM     24  HN  UNL d   1       4.548   6.171  -1.701  1.00  0.00     0.167 HD
ENDBRANCH   9  10
ENDBRANCH   8   9
ENDBRANCH   5   8
ENDBRANCH   2   4
BRANCH   1  25
ATOM     25  C   UNL d   1       1.904   1.950  -0.011  0.00  0.00     0.078 A 
ATOM     26  C   UNL d   1       0.640   2.137   0.618  0.00  0.00     0.021 A 
ATOM     27  C   UNL d   1      -0.037   0.959   0.417  0.00  0.00     0.131 A 
ATOM     28  N   UNL d   1       0.783   0.128  -0.308  0.00  0.00    -0.266 N 
ATOM     29  N   UNL d   1       1.988   0.713  -0.547  0.00  0.00    -0.292 N 
ATOM     30  HN  UNL d   1       2.787   0.303  -1.030  1.00  0.00     0.187 HD
BRANCH  26  31
ATOM     31  C   UNL d   1       0.069   3.232   1.376  0.00  0.00    -0.022 A 
ATOM     32  C   UNL d   1      -1.247   3.650   1.127  0.00  0.00     0.014 A 
ATOM     33  C   UNL d   1      -1.831   4.655   1.902  0.00  0.00     0.024 A 
ATOM     34  C   UNL d   1      -1.098   5.247   2.927  0.00  0.00     0.034 A 
ATOM     35  C   UNL d   1       0.214   4.850   3.177  0.00  0.00     0.024 A 
ATOM     36 CL   UNL d   1      -1.825   6.464   3.900  0.00  0.00    -0.084 Cl
ATOM     37  C   UNL d   1       0.798   3.843   2.404  0.00  0.00     0.014 A 
ENDBRANCH  26  31
BRANCH  28  38
ATOM     38  C   UNL d   1       0.467  -1.182  -0.780  0.00  0.00     0.056 A 
ATOM     39  C   UNL d   1       1.449  -1.956  -1.413  0.00  0.00     0.031 A 
ATOM     40  C   UNL d   1       1.142  -3.243  -1.871  0.00  0.00     0.002 A 
ATOM     41  C   UNL d   1      -0.142  -3.760  -1.713  0.00  0.00     0.000 A 
ATOM     42  C   UNL d   1      -1.127  -2.995  -1.095  0.00  0.00     0.002 A 
ATOM     43  C   UNL d   1      -0.825  -1.713  -0.627  0.00  0.00     0.031 A 
ENDBRANCH  28  38
ENDBRANCH   1  25
TORSDOF 7
