REMARK  4 active torsions:
REMARK  status: ('A' for Active; 'I' for Inactive)
REMARK    1  A    between atoms: C_2  and  C_1 
REMARK       I    between atoms: N_3  and  C_2 
REMARK    2  A    between atoms: C_9  and  N_3 
REMARK    3  A    between atoms: C_4  and  C_9 
REMARK    4  A    between atoms: O_12  and  C_4 
ROOT
ATOM      1  C   UNL d   1      -0.144   2.359  -0.047  0.00  0.00     0.258 C 
ATOM      2  N   UNL d   1      -1.329   3.060  -0.005  0.00  0.00    -0.347 N 
ATOM      3  O   UNL d   1       0.938   2.934  -0.118  0.00  0.00    -0.267 OA
ATOM      4  H   UNL d   1      -2.223   2.587   0.114  0.00  0.00     0.163 HD
ENDROOT
BRANCH   1   5
ATOM      5  C   UNL d   1      -0.218   0.881   0.002  0.00  0.00     0.108 A 
ATOM      6  C   UNL d   1       0.812   0.114  -0.547  0.00  0.00     0.135 A 
ATOM      7  F   UNL d   1       1.855   0.686  -1.165  0.00  0.00    -0.205 F 
ATOM      8  C   UNL d   1       0.779  -1.282  -0.495  0.00  0.00     0.043 A 
ATOM      9  C   UNL d   1      -0.290  -1.933   0.118  0.00  0.00     0.006 A 
ATOM     10  C   UNL d   1      -1.322  -1.181   0.675  0.00  0.00     0.043 A 
ATOM     11  C   UNL d   1      -1.281   0.214   0.613  0.00  0.00     0.135 A 
ATOM     12  F   UNL d   1      -2.292   0.896   1.172  0.00  0.00    -0.205 F 
ENDBRANCH   1   5
BRANCH   2  13
ATOM     13  C   UNL d   1      -1.323   4.510   0.014  0.00  0.00     0.232 C 
BRANCH  13  14
ATOM     14  C   UNL d   1      -2.728   5.093   0.015  0.00  0.00     0.158 C 
ATOM     15  O   UNL d   1      -3.755   4.427   0.013  0.00  0.00    -0.649 OA
BRANCH  14  16
ATOM     16  O   UNL d   1      -2.740   6.448   0.026  0.00  0.00    -0.775 OA
ATOM     17  H   UNL d   1      -1.851   6.854   0.027  0.00  0.00     0.167 HD
ENDBRANCH  14  16
ENDBRANCH  13  14
ENDBRANCH   2  13
TORSDOF 4
