REMARK  3 active torsions:
REMARK  status: ('A' for Active; 'I' for Inactive)
REMARK    1  A    between atoms: N_17  and  C_15 
REMARK    2  A    between atoms: O_20  and  C_18 
REMARK    3  A    between atoms: C_24  and  O_20 
ROOT
ATOM      1  C   UNL d   1      -0.757  -0.797  -0.416  0.00  0.00     0.021 C 
ATOM      2  C   UNL d   1      -0.174   0.274  -1.390  0.00  0.00     0.006 C 
ATOM      3  C   UNL d   1      -0.761   0.117  -2.859  0.00  0.00    -0.000 C 
ATOM      4  C   UNL d   1      -0.192  -1.212  -3.439  0.00  0.00     0.024 C 
ATOM      5  C   UNL d   1      -1.038  -1.948  -4.466  0.00  0.00    -0.047 C 
ATOM      6  C   UNL d   1      -2.426  -1.874  -4.345  0.00  0.00    -0.049 C 
ATOM      7  C   UNL d   1      -1.966  -0.032   0.112  0.00  0.00     0.135 C 
ATOM      8  C   UNL d   1      -1.006  -2.107  -1.173  0.00  0.00     0.018 C 
ATOM      9  C   UNL d   1       0.047  -2.244  -2.288  0.00  0.00     0.011 C 
ATOM     10  C   UNL d   1      -0.430   1.605  -0.692  0.00  0.00     0.013 C 
ATOM     11  C   UNL d   1      -2.306   0.262  -2.969  0.00  0.00     0.010 C 
ATOM     12  C   UNL d   1      -0.444  -3.034  -5.124  0.00  0.00     0.011 C 
ATOM     13  C   UNL d   1      -3.164  -3.055  -4.490  0.00  0.00     0.044 C 
ATOM     14  C   UNL d   1      -3.038  -0.540  -4.047  0.00  0.00     0.039 C 
ATOM     15  C   UNL d   1      -1.778   1.471   0.001  0.00  0.00     0.079 C 
ATOM     16  C   UNL d   1      -2.513  -4.231  -4.888  0.00  0.00     0.076 C 
ATOM     17  O   UNL d   1      -2.969  -0.551   0.586  0.00  0.00    -0.297 OA
ATOM     18  C   UNL d   1      -1.185  -4.190  -5.308  0.00  0.00     0.038 C 
ATOM     19  C   UNL d   1       0.081  -1.105   0.833  0.00  0.00     0.024 C 
ENDROOT
BRANCH  16  20
ATOM     20  O   UNL d   1      -3.006  -5.506  -4.741  0.00  0.00    -0.311 OA
BRANCH  20  21
ATOM     21  C   UNL d   1      -4.325  -5.771  -4.957  0.00  0.00     0.076 A 
ATOM     22  C   UNL d   1      -5.058  -5.208  -5.987  0.00  0.00     0.039 A 
ATOM     23  C   UNL d   1      -6.377  -5.617  -6.205  0.00  0.00     0.032 A 
ATOM     24  C   UNL d   1      -7.000  -6.604  -5.425  0.00  0.00     0.029 A 
ATOM     25  C   UNL d   1      -6.210  -7.181  -4.413  0.00  0.00     0.032 A 
ATOM     26  C   UNL d   1      -4.901  -6.769  -4.180  0.00  0.00     0.039 A 
BRANCH  24  27
ATOM     27  N   UNL d   1      -8.299  -7.064  -5.686  0.00  0.00    -0.390 N 
ATOM     28  C   UNL d   1      -9.159  -7.358  -4.540  0.00  0.00     0.149 C 
ATOM     29  C   UNL d   1      -9.013  -6.498  -6.831  0.00  0.00     0.149 C 
ENDBRANCH  24  27
ENDBRANCH  20  21
ENDBRANCH  16  20
TORSDOF 3
