REMARK  4 active torsions:
REMARK  status: ('A' for Active; 'I' for Inactive)
REMARK    1  A    between atoms: C_2  and  C_1 
REMARK       I    between atoms: N_3  and  C_1 
REMARK    2  A    between atoms: C_4  and  N_5 
REMARK    3  A    between atoms: C_7  and  C_6 
REMARK    4  A    between atoms: O_18  and  C_7 
ROOT
ATOM      1  C   UNL d   1       0.695   0.204  -0.094  0.00  0.00     0.255 C 
ATOM      2  N   UNL d   1       0.054   1.153   0.687  0.00  0.00    -0.345 N 
ATOM      3  N   UNL d   1      -0.341   2.985   2.857  0.00  0.00    -0.214 N 
ATOM      4  O   UNL d   1       1.655   0.475  -0.820  0.00  0.00    -0.267 OA
ATOM      5  C   UNL d   1       0.457   2.568   0.562  0.00  0.00     0.146 C 
ATOM      6  C   UNL d   1      -1.038   0.927   1.657  0.00  0.00     0.146 C 
ATOM      7  C   UNL d   1       0.773   3.197   1.930  0.00  0.00     0.161 C 
ATOM      8  C   UNL d   1      -0.769   1.597   3.020  0.00  0.00     0.161 C 
ENDROOT
BRANCH   1   9
ATOM      9  C   UNL d   1       0.267  -1.213  -0.107  0.00  0.00     0.049 A 
ATOM     10  C   UNL d   1       1.165  -2.293   0.013  0.00  0.00     0.053 A 
ATOM     11  C   UNL d   1       0.634  -3.603  -0.053  0.00  0.00     0.019 A 
ATOM     12  C   UNL d   1      -0.730  -3.836  -0.244  0.00  0.00     0.001 A 
ATOM     13  C   UNL d   1      -1.595  -2.764  -0.405  0.00  0.00     0.001 A 
ATOM     14  C   UNL d   1      -1.096  -1.464  -0.363  0.00  0.00     0.018 A 
BRANCH  10  15
ATOM     15  C   UNL d   1       2.645  -2.245   0.260  0.00  0.00     0.177 C 
ATOM     16  O   UNL d   1       3.248  -3.252   0.616  0.00  0.00    -0.646 OA
BRANCH  15  17
ATOM     17  O   UNL d   1       3.309  -1.091   0.084  0.00  0.00    -0.773 OA
ATOM     18  H   UNL d   1       2.835  -0.375  -0.399  0.00  0.00     0.167 HD
ENDBRANCH  15  17
ENDBRANCH  10  15
ENDBRANCH   1   9
BRANCH   3  19
ATOM     19  C   UNL d   1      -1.231   4.012   3.089  0.00  0.00     0.679 A 
ATOM     20  N   UNL d   1      -2.417   3.734   3.659  0.00  0.00    -0.202 N 
ATOM     21  C   UNL d   1      -3.217   4.769   3.984  0.00  0.00     0.107 A 
ATOM     22  HN  UNL d   1      -2.702   2.772   3.839  1.00  0.00     0.183 HD
ATOM     23  C   UNL d   1      -2.893   6.080   3.759  0.00  0.00     0.035 A 
ATOM     24  C   UNL d   1      -1.682   6.274   3.151  0.00  0.00     0.107 A 
ATOM     25  N   UNL d   1      -0.855   5.269   2.803  0.00  0.00    -0.202 N 
ATOM     26  HN  UNL d   1       0.032   5.458   2.336  1.00  0.00     0.183 HD
ENDBRANCH   3  19
TORSDOF 4
