REMARK  3 active torsions:
REMARK  status: ('A' for Active; 'I' for Inactive)
REMARK    1  A    between atoms: C_6  and  C_1 
REMARK    2  A    between atoms: O_10  and  C_1 
REMARK    3  A    between atoms: C_11  and  C_6 
ROOT
ATOM      1  C   UNL d   1      -1.915   0.978   0.040  0.00  0.00     0.173 A 
ATOM      2  C   UNL d   1      -2.488  -0.480   0.065  0.00  0.00     0.262 A 
ATOM      3  N   UNL d   1      -1.399  -1.349   0.034  0.00  0.00    -0.324 N 
ATOM      4  C   UNL d   1      -0.430   0.720   0.022  0.00  0.00     0.012 A 
ATOM      5  C   UNL d   1      -0.198  -0.656   0.006  0.00  0.00     0.044 A 
ATOM      6  O   UNL d   1      -3.654  -0.819   0.158  0.00  0.00    -0.269 OA
ATOM      7  C   UNL d   1       0.630   1.611   0.021  0.00  0.00     0.013 A 
ATOM      8  C   UNL d   1       1.071  -1.193  -0.015  0.00  0.00     0.030 A 
ATOM      9  C   UNL d   1       1.927   1.090   0.002  0.00  0.00     0.001 A 
ATOM     10  C   UNL d   1       2.146  -0.300  -0.015  0.00  0.00     0.002 A 
ATOM     11  H   UNL d   1      -1.499  -2.352   0.046  0.00  0.00     0.169 HD
ENDROOT
BRANCH   1  12
ATOM     12  C   UNL d   1      -2.474   1.766  -1.145  0.00  0.00     0.110 C 
BRANCH  12  13
ATOM     13  C   UNL d   1      -2.173   1.198  -2.507  0.00  0.00     0.012 A 
ATOM     14  N   UNL d   1      -1.020   1.599  -3.096  0.00  0.00    -0.369 N 
ATOM     15  C   UNL d   1      -0.784   1.179  -4.357  0.00  0.00     0.088 A 
ATOM     16  HN  UNL d   1      -0.355   2.197  -2.604  1.00  0.00     0.165 HD
ATOM     17  C   UNL d   1      -1.654   0.379  -5.075  0.00  0.00     0.017 A 
ATOM     18  C   UNL d   1      -2.816  -0.053  -4.447  0.00  0.00     0.003 A 
ATOM     19  C   UNL d   1      -3.077   0.350  -3.141  0.00  0.00     0.025 A 
ENDBRANCH  12  13
ENDBRANCH   1  12
BRANCH   1  20
ATOM     20  O   UNL d   1      -2.251   1.669   1.247  0.00  0.00    -0.375 OA
ATOM     21  H   UNL d   1      -1.961   1.103   1.983  0.00  0.00     0.211 HD
ENDBRANCH   1  20
TORSDOF 3
