REMARK  6 active torsions:
REMARK  status: ('A' for Active; 'I' for Inactive)
REMARK    1  A    between atoms: C_2  and  S_1 
REMARK    2  A    between atoms: N_11  and  S_1 
REMARK    3  A    between atoms: C_15  and  N_11 
REMARK    4  A    between atoms: O_24  and  C_12 
REMARK    5  A    between atoms: O_25  and  C_13 
REMARK    6  A    between atoms: O_26  and  C_14 
ROOT
ATOM      1  S   UNL d   1       0.474   2.358   0.028  0.00  0.00     0.249 S 
ATOM      2  O   UNL d   1       0.088   1.961  -1.308  0.00  0.00    -0.205 OA
ATOM      3  O   UNL d   1      -0.262   3.376   0.743  0.00  0.00    -0.205 OA
ENDROOT
BRANCH   1   4
ATOM      4  C   UNL d   1       2.070   2.952  -0.164  0.00  0.00     0.120 A 
ATOM      5  C   UNL d   1       3.158   2.193  -0.681  0.00  0.00     0.068 A 
ATOM      6  C   UNL d   1       4.245   3.058  -0.696  0.00  0.00     0.132 A 
ATOM      7  C   UNL d   1       3.368   0.876  -1.137  0.00  0.00     0.172 A 
ATOM      8  C   UNL d   1       5.516   2.700  -1.144  0.00  0.00     0.192 A 
ATOM      9  O   UNL d   1       3.882   4.277  -0.215  0.00  0.00    -0.310 OA
ATOM     10  F   UNL d   1       6.533   3.572  -1.147  0.00  0.00    -0.200 F 
ATOM     11  C   UNL d   1       5.692   1.393  -1.586  0.00  0.00     0.199 A 
ATOM     12  C   UNL d   1       4.636   0.492  -1.581  0.00  0.00     0.197 A 
ATOM     13  F   UNL d   1       6.899   0.999  -2.019  0.00  0.00    -0.199 F 
ATOM     14  F   UNL d   1       4.835  -0.766  -1.999  0.00  0.00    -0.199 F 
ATOM     15  C   UNL d   1       2.557   4.215   0.115  0.00  0.00     0.073 A 
ATOM     16  C   UNL d   1       2.002   5.473   0.660  0.00  0.00     0.078 C 
ATOM     17  F   UNL d   1       2.371  -0.016  -1.132  0.00  0.00    -0.202 F 
ENDBRANCH   1   4
BRANCH   1  18
ATOM     18  N   UNL d   1       0.515   0.956   0.973  0.00  0.00    -0.181 NA
ATOM     19  H   UNL d   1      -0.333   0.417   0.792  0.00  0.00     0.146 HD
BRANCH  18  20
ATOM     20  C   UNL d   1       0.821   1.117   2.358  0.00  0.00     0.028 A 
ATOM     21  C   UNL d   1      -0.164   1.478   3.269  0.00  0.00     0.064 A 
ATOM     22  C   UNL d   1       0.139   1.598   4.635  0.00  0.00     0.106 A 
ATOM     23  C   UNL d   1       1.453   1.324   5.098  0.00  0.00     0.135 A 
ATOM     24  C   UNL d   1       2.452   1.008   4.147  0.00  0.00     0.106 A 
ATOM     25  C   UNL d   1       2.121   0.915   2.788  0.00  0.00     0.064 A 
BRANCH  22  26
ATOM     26  O   UNL d   1      -0.839   1.914   5.545  0.00  0.00    -0.353 OA
ATOM     27  C   UNL d   1      -1.897   2.761   5.104  0.00  0.00     0.210 C 
ENDBRANCH  22  26
BRANCH  23  28
ATOM     28  O   UNL d   1       1.859   1.361   6.407  0.00  0.00    -0.351 OA
ATOM     29  C   UNL d   1       0.898   1.411   7.452  0.00  0.00     0.210 C 
ENDBRANCH  23  28
BRANCH  24  30
ATOM     30  O   UNL d   1       3.784   0.739   4.336  0.00  0.00    -0.353 OA
ATOM     31  C   UNL d   1       4.340   0.757   5.639  0.00  0.00     0.210 C 
ENDBRANCH  24  30
ENDBRANCH  18  20
ENDBRANCH   1  18
TORSDOF 6
