REMARK  4 active torsions:
REMARK  status: ('A' for Active; 'I' for Inactive)
REMARK    1  A    between atoms: C_13  and  C_2 
REMARK    2  A    between atoms: S_10  and  C_7 
REMARK    3  A    between atoms: C_15  and  S_10 
REMARK    4  A    between atoms: C_11  and  C_15 
ROOT
ATOM      1  C   UNL d   1       0.459  -0.263   0.142  0.00  0.00     0.135 A 
ATOM      2  C   UNL d   1      -0.296  -1.384   0.016  0.00  0.00     0.042 A 
ATOM      3  N   UNL d   1      -1.594   0.957   0.162  0.00  0.00    -0.302 N 
ATOM      4  C   UNL d   1      -0.242   1.031   0.209  0.00  0.00     0.270 A 
ATOM      5  N   UNL d   1      -1.693  -1.378  -0.002  0.00  0.00    -0.338 N 
ATOM      6  HN  UNL d   1      -2.233  -2.242  -0.063  1.00  0.00     0.168 HD
ATOM      7  C   UNL d   1      -2.267  -0.219   0.063  0.00  0.00     0.147 A 
ATOM      8  C   UNL d   1       1.879  -0.230   0.128  0.00  0.00     0.107 C 
ATOM      9  N   UNL d   1       3.045  -0.261   0.109  0.00  0.00    -0.191 NA
ATOM     10  O   UNL d   1       0.342   2.105   0.273  0.00  0.00    -0.266 OA
ATOM     11  H   UNL d   1      -2.115   1.821   0.178  0.00  0.00     0.171 HD
ENDROOT
BRANCH   2  12
ATOM     12  C   UNL d   1       0.411  -2.721  -0.240  0.00  0.00     0.037 C 
ATOM     13  C   UNL d   1       0.059  -3.948   0.613  0.00  0.00     0.011 C 
ATOM     14  C   UNL d   1       1.146  -5.018   0.383  0.00  0.00     0.001 C 
ATOM     15  C   UNL d   1       1.354  -5.360  -1.098  0.00  0.00     0.000 C 
ATOM     16  C   UNL d   1       1.448  -4.136  -2.011  0.00  0.00     0.001 C 
ATOM     17  C   UNL d   1       0.348  -3.116  -1.723  0.00  0.00     0.011 C 
ENDBRANCH   2  12
BRANCH   7  18
ATOM     18  S   UNL d   1      -3.962   0.131   0.016  0.00  0.00    -0.089 SA
BRANCH  18  19
ATOM     19  C   UNL d   1      -4.760  -1.485   0.086  0.00  0.00     0.121 C 
BRANCH  19  20
ATOM     20  C   UNL d   1      -6.272  -1.332  -0.018  0.00  0.00    -0.042 A 
ATOM     21  C   UNL d   1      -6.958  -1.262  -1.250  0.00  0.00    -0.055 A 
ATOM     22  C   UNL d   1      -8.359  -1.119  -1.253  0.00  0.00     0.008 A 
ATOM     23  C   UNL d   1      -6.285  -1.332  -2.595  0.00  0.00     0.049 C 
ATOM     24  C   UNL d   1      -9.079  -1.024  -0.064  0.00  0.00     0.007 A 
ATOM     25  C   UNL d   1      -8.415  -1.059   1.162  0.00  0.00    -0.061 A 
ATOM     26  C   UNL d   1      -7.020  -1.208   1.175  0.00  0.00     0.015 A 
ATOM     27  C   UNL d   1      -9.204  -0.943   2.433  0.00  0.00     0.048 C 
ENDBRANCH  19  20
ENDBRANCH  18  19
ENDBRANCH   7  18
TORSDOF 4
