REMARK  3 active torsions:
REMARK  status: ('A' for Active; 'I' for Inactive)
REMARK    1  A    between atoms: N_3  and  S_1 
REMARK    2  A    between atoms: C_4  and  S_1 
REMARK    3  A    between atoms: N_2  and  C_7 
ROOT
ATOM      1  C   UNL d   1       0.569  -1.254  -1.220  0.00  0.00     0.074 A 
ATOM      2  C   UNL d   1      -0.453  -3.095  -3.034  0.00  0.00     0.102 A 
ATOM      3  C   UNL d   1       1.409  -1.791  -2.202  0.00  0.00     0.027 A 
ATOM      4  C   UNL d   1      -0.770  -1.647  -1.122  0.00  0.00     0.027 A 
ATOM      5  C   UNL d   1      -1.287  -2.569  -2.035  0.00  0.00     0.037 A 
ATOM      6  C   UNL d   1       0.896  -2.715  -3.115  0.00  0.00     0.037 A 
ENDROOT
BRANCH   1   7
ATOM      7  S   UNL d   1       1.206  -0.074  -0.054  0.00  0.00     0.243 S 
ATOM      8  O   UNL d   1       0.889  -0.578   1.266  0.00  0.00    -0.206 OA
ATOM      9  O   UNL d   1       2.565   0.249  -0.431  0.00  0.00    -0.206 OA
BRANCH   7  10
ATOM     10  N   UNL d   1       0.244   1.308  -0.343  0.00  0.00    -0.206 NA
ATOM     11  C   UNL d   1       0.401   1.967  -1.664  0.00  0.00     0.107 C 
ATOM     12  C   UNL d   1       1.378   3.098  -1.413  0.00  0.00     0.017 C 
ATOM     13  C   UNL d   1       1.014   3.583  -0.023  0.00  0.00     0.017 C 
ATOM     14  C   UNL d   1       0.405   2.377   0.687  0.00  0.00     0.107 C 
ENDBRANCH   7  10
ENDBRANCH   1   7
BRANCH   2  15
ATOM     15  N   UNL d   1      -0.998  -4.046  -4.011  0.00  0.00    -0.116 N 
ATOM     16  O   UNL d   1      -2.197  -4.343  -3.918  0.00  0.00    -0.532 OA
ATOM     17  O   UNL d   1      -0.230  -4.486  -4.878  0.00  0.00    -0.532 OA
ENDBRANCH   2  15
TORSDOF 3
