REMARK  5 active torsions:
REMARK  status: ('A' for Active; 'I' for Inactive)
REMARK    1  A    between atoms: C_2  and  C_1 
REMARK    2  A    between atoms: C_11  and  N_3 
REMARK    3  A    between atoms: C_12  and  C_6 
REMARK    4  A    between atoms: C_15  and  N_7 
REMARK    5  A    between atoms: C_13  and  C_11 
ROOT
ATOM      1  C   UNL d   1      -0.344   1.224   0.227  0.00  0.00     0.021 C 
ATOM      2  N   UNL d   1       0.879  -0.655   0.673  0.00  0.00    -0.293 N 
ATOM      3  HN  UNL d   1       1.647  -1.287   0.898  1.00  0.00     0.187 HD
ATOM      4  C   UNL d   1       0.958   0.669   0.474  0.00  0.00     0.069 C 
ATOM      5  N   UNL d   1      -0.420  -0.981   0.514  0.00  0.00    -0.267 N 
ATOM      6  C   UNL d   1      -1.198   0.142   0.377  0.00  0.00     0.129 C 
ENDROOT
BRANCH   1   7
ATOM      7  C   UNL d   1      -0.677   2.634  -0.133  0.00  0.00     0.187 C 
ATOM      8  N   UNL d   1      -1.850   2.799  -0.975  0.00  0.00    -0.328 N 
ATOM      9  C   UNL d   1      -2.495   4.027  -0.838  0.00  0.00     0.230 C 
ATOM     10  O   UNL d   1      -3.319   4.475  -1.629  0.00  0.00    -0.272 OA
ATOM     11  C   UNL d   1      -2.043   4.784   0.391  0.00  0.00     0.179 C 
ATOM     12  S   UNL d   1      -1.058   3.619   1.344  0.00  0.00    -0.129 SA
BRANCH   8  13
ATOM     13  C   UNL d   1      -2.030   2.047  -2.208  0.00  0.00     0.192 C 
BRANCH  13  14
ATOM     14  C   UNL d   1      -1.045   2.459  -3.236  0.00  0.00     0.070 A 
ATOM     15  O   UNL d   1       0.062   1.675  -3.366  0.00  0.00    -0.325 OA
ATOM     16  C   UNL d   1       0.791   2.187  -4.391  0.00  0.00     0.142 A 
ATOM     17  C   UNL d   1       0.175   3.302  -4.909  0.00  0.00     0.027 A 
ATOM     18  C   UNL d   1      -1.010   3.485  -4.157  0.00  0.00     0.036 A 
ENDBRANCH  13  14
ENDBRANCH   8  13
ENDBRANCH   1   7
BRANCH   4  19
ATOM     19  C   UNL d   1       2.278   1.317   0.496  0.00  0.00    -0.007 A 
ATOM     20  C   UNL d   1       3.399   0.627   0.006  0.00  0.00     0.015 A 
ATOM     21  C   UNL d   1       4.668   1.216   0.010  0.00  0.00     0.024 A 
ATOM     22  C   UNL d   1       4.829   2.507   0.503  0.00  0.00     0.034 A 
ATOM     23  C   UNL d   1       3.737   3.201   1.014  0.00  0.00     0.024 A 
ATOM     24 CL   UNL d   1       6.382   3.244   0.495  0.00  0.00    -0.084 Cl
ATOM     25  C   UNL d   1       2.473   2.600   1.024  0.00  0.00     0.015 A 
ENDBRANCH   4  19
BRANCH   5  26
ATOM     26  C   UNL d   1      -0.820  -2.347   0.443  0.00  0.00     0.056 A 
ATOM     27  C   UNL d   1      -2.143  -2.707   0.151  0.00  0.00     0.031 A 
ATOM     28  C   UNL d   1      -2.487  -4.056   0.017  0.00  0.00     0.002 A 
ATOM     29  C   UNL d   1      -1.522  -5.050   0.176  0.00  0.00     0.000 A 
ATOM     30  C   UNL d   1      -0.209  -4.701   0.479  0.00  0.00     0.002 A 
ATOM     31  C   UNL d   1       0.144  -3.357   0.611  0.00  0.00     0.031 A 
ENDBRANCH   5  26
TORSDOF 5
