REMARK  5 active torsions:
REMARK  status: ('A' for Active; 'I' for Inactive)
REMARK    1  A    between atoms: C_9  and  N_1 
REMARK    2  A    between atoms: C_4  and  C_10 
REMARK    3  A    between atoms: C_21  and  C_8 
REMARK    4  A    between atoms: C_12  and  S_15 
REMARK    5  A    between atoms: S_15  and  C_21 
ROOT
ATOM      1  N   UNL d   1      -2.721   4.241   3.385  0.00  0.00    -0.277 N 
ATOM      2  HN  UNL d   1      -2.588   4.781   2.531  1.00  0.00     0.189 HD
ATOM      3  C   UNL d   1      -2.289   3.018   3.618  0.00  0.00     0.174 A 
ATOM      4  O   UNL d   1      -2.656   2.561   4.861  0.00  0.00    -0.277 OA
ATOM      5  N   UNL d   1      -3.388   4.650   4.519  0.00  0.00    -0.281 N 
ATOM      6  HN  UNL d   1      -3.847   5.549   4.666  1.00  0.00     0.189 HD
ATOM      7  C   UNL d   1      -3.318   3.652   5.375  0.00  0.00     0.150 A 
ENDROOT
BRANCH   3   8
ATOM      8  C   UNL d   1      -1.506   2.131   2.763  0.00  0.00     0.017 A 
ATOM      9  C   UNL d   1      -1.125   0.843   3.169  0.00  0.00     0.018 A 
ATOM     10  C   UNL d   1      -0.385   0.019   2.316  0.00  0.00     0.037 A 
ATOM     11  C   UNL d   1      -0.020   0.486   1.044  0.00  0.00     0.108 A 
ATOM     12  C   UNL d   1      -0.360   1.773   0.607  0.00  0.00    -0.028 A 
ATOM     13  C   UNL d   1      -1.110   2.579   1.486  0.00  0.00     0.025 A 
ATOM     14  C   UNL d   1       0.044   2.363  -0.715  0.00  0.00     0.050 C 
BRANCH  11  15
ATOM     15  N   UNL d   1       0.715  -0.434   0.190  0.00  0.00    -0.115 N 
ATOM     16  O   UNL d   1       0.176  -0.773  -0.872  0.00  0.00    -0.532 OA
ATOM     17  O   UNL d   1       1.810  -0.835   0.605  0.00  0.00    -0.532 OA
ENDBRANCH  11  15
ENDBRANCH   3   8
BRANCH   7  18
ATOM     18  C   UNL d   1      -3.891   3.568   6.747  0.00  0.00     0.165 C 
BRANCH  18  19
ATOM     19  S   UNL d   1      -2.740   2.798   7.942  0.00  0.00    -0.120 SA
BRANCH  19  20
ATOM     20  C   UNL d   1      -3.691   2.917   9.460  0.00  0.00     0.024 A 
ATOM     21  C   UNL d   1      -4.146   1.710  10.020  0.00  0.00     0.044 A 
ATOM     22  C   UNL d   1      -4.811   1.703  11.248  0.00  0.00     0.035 A 
ATOM     23 CL   UNL d   1      -5.336   0.213  11.928  0.00  0.00    -0.084 Cl
ATOM     24  C   UNL d   1      -5.036   2.891  11.938  0.00  0.00     0.025 A 
ATOM     25  C   UNL d   1      -4.592   4.097  11.394  0.00  0.00     0.027 A 
ATOM     26  C   UNL d   1      -3.915   4.113  10.167  0.00  0.00     0.051 A 
ATOM     27 CL   UNL d   1      -3.347   5.647   9.610  0.00  0.00    -0.083 Cl
ENDBRANCH  19  20
ENDBRANCH  18  19
ENDBRANCH   7  18
TORSDOF 5
