REMARK  7 active torsions:
REMARK  status: ('A' for Active; 'I' for Inactive)
REMARK    1  A    between atoms: C_8  and  N_1 
REMARK    2  A    between atoms: S_9  and  C_2 
REMARK    3  A    between atoms: O_17  and  C_3 
REMARK    4  A    between atoms: C_10  and  C_8 
REMARK    5  A    between atoms: C_12  and  S_9 
REMARK    6  A    between atoms: C_15  and  C_12 
REMARK    7  A    between atoms: C_19  and  C_18 
ROOT
ATOM      1  N   UNL d   1      -0.692  -1.117  -1.891  0.00  0.00    -0.285 N 
ATOM      2  C   UNL d   1       0.284  -1.936  -1.396  0.00  0.00     0.165 A 
ATOM      3  C   UNL d   1      -1.736  -1.237  -1.012  0.00  0.00     0.240 A 
ATOM      4  N   UNL d   1      -0.170  -2.576  -0.342  0.00  0.00    -0.277 N 
ATOM      5  HN  UNL d   1       0.340  -3.269   0.206  1.00  0.00     0.189 HD
ATOM      6  N   UNL d   1      -1.457  -2.145  -0.110  0.00  0.00    -0.263 N 
ATOM      7  HN  UNL d   1      -2.079  -2.473   0.629  1.00  0.00     0.190 HD
ENDROOT
BRANCH   2   8
ATOM      8  S   UNL d   1       1.876  -2.071  -2.059  0.00  0.00    -0.088 SA
BRANCH   8   9
ATOM      9  C   UNL d   1       2.589  -3.302  -0.920  0.00  0.00     0.121 C 
BRANCH   9  10
ATOM     10  C   UNL d   1       4.050  -3.691  -1.101  0.00  0.00    -0.042 A 
ATOM     11  C   UNL d   1       4.608  -4.710  -0.284  0.00  0.00    -0.051 A 
ATOM     12  C   UNL d   1       5.951  -5.096  -0.466  0.00  0.00     0.007 A 
ATOM     13  C   UNL d   1       6.754  -4.476  -1.417  0.00  0.00     0.001 A 
ATOM     14  C   UNL d   1       6.228  -3.456  -2.197  0.00  0.00     0.001 A 
ATOM     15  C   UNL d   1       4.894  -3.068  -2.041  0.00  0.00     0.008 A 
BRANCH  11  16
ATOM     16  C   UNL d   1       3.821  -5.436   0.790  0.00  0.00     0.034 C 
ATOM     17  C   UNL d   1       3.175  -6.712   0.272  0.00  0.00     0.010 C 
ENDBRANCH  11  16
ENDBRANCH   9  10
ENDBRANCH   8   9
ENDBRANCH   2   8
BRANCH   1  18
ATOM     18  C   UNL d   1      -0.712  -0.378  -3.131  0.00  0.00     0.200 C 
BRANCH  18  19
ATOM     19  C   UNL d   1      -0.443   1.059  -2.883  0.00  0.00     0.070 A 
ATOM     20  O   UNL d   1      -1.483   1.797  -2.391  0.00  0.00    -0.325 OA
ATOM     21  C   UNL d   1      -1.025   3.067  -2.239  0.00  0.00     0.142 A 
ATOM     22  C   UNL d   1       0.291   3.155  -2.629  0.00  0.00     0.027 A 
ATOM     23  C   UNL d   1       0.669   1.857  -3.046  0.00  0.00     0.036 A 
ENDBRANCH  18  19
ENDBRANCH   1  18
BRANCH   3  24
ATOM     24  O   UNL d   1      -2.866  -0.551  -1.052  0.00  0.00    -0.331 OA
ATOM     25  H   UNL d   1      -2.684   0.313  -1.462  0.00  0.00     0.221 HD
ENDBRANCH   3  24
TORSDOF 7
