REMARK  6 active torsions:
REMARK  status: ('A' for Active; 'I' for Inactive)
REMARK    1  A    between atoms: C_7  and  C_2 
REMARK    2  A    between atoms: C_10  and  C_3 
REMARK    3  A    between atoms: S_15  and  C_6 
REMARK    4  A    between atoms: C_14  and  C_19 
REMARK    5  A    between atoms: C_16  and  C_14 
REMARK    6  A    between atoms: C_19  and  S_15 
ROOT
ATOM      1  N   UNL d   1      -1.036  -3.107  -0.848  0.00  0.00    -0.336 N 
ATOM      2  HN  UNL d   1      -1.415  -2.466  -1.546  1.00  0.00     0.168 HD
ATOM      3  C   UNL d   1      -1.370  -4.407  -0.831  0.00  0.00     0.144 A 
ATOM      4  C   UNL d   1      -0.174  -2.688   0.103  0.00  0.00     0.052 A 
ATOM      5  N   UNL d   1      -0.914  -5.299   0.063  0.00  0.00    -0.347 N 
ATOM      6  HN  UNL d   1      -1.191  -6.280   0.029  1.00  0.00     0.167 HD
ATOM      7  C   UNL d   1       0.331  -3.528   1.076  0.00  0.00     0.048 A 
ATOM      8  C   UNL d   1      -0.075  -4.837   1.003  0.00  0.00     0.092 A 
ENDROOT
BRANCH   3   9
ATOM      9  S   UNL d   1      -2.495  -5.027  -2.055  0.00  0.00    -0.086 SA
BRANCH   9  10
ATOM     10  C   UNL d   1      -2.910  -3.483  -2.916  0.00  0.00     0.166 C 
BRANCH  10  11
ATOM     11  C   UNL d   1      -3.967  -3.683  -3.991  0.00  0.00     0.169 C 
ATOM     12  O   UNL d   1      -4.539  -4.748  -4.209  0.00  0.00    -0.291 OA
BRANCH  11  13
ATOM     13  C   UNL d   1      -4.323  -2.503  -4.845  0.00  0.00     0.011 A 
ATOM     14  C   UNL d   1      -3.810  -1.220  -4.606  0.00  0.00     0.016 A 
ATOM     15  C   UNL d   1      -4.119  -0.165  -5.471  0.00  0.00     0.020 A 
ATOM     16  C   UNL d   1      -4.942  -0.386  -6.574  0.00  0.00     0.011 A 
ATOM     17  C   UNL d   1      -5.486  -1.647  -6.805  0.00  0.00     0.020 A 
ATOM     18 BR   UNL d   1      -5.302   1.029  -7.774  0.00  0.00    -0.051 Br
ATOM     19  C   UNL d   1      -5.179  -2.702  -5.940  0.00  0.00     0.016 A 
ENDBRANCH  11  13
ENDBRANCH  10  11
ENDBRANCH   9  10
ENDBRANCH   3   9
BRANCH   4  20
ATOM     20  C   UNL d   1       0.164  -1.260   0.013  0.00  0.00     0.032 A 
ATOM     21  S   UNL d   1       1.652  -0.657   0.616  0.00  0.00    -0.087 SA
ATOM     22  C   UNL d   1       1.306   0.957   0.152  0.00  0.00     0.022 A 
ATOM     23  C   UNL d   1       0.075   1.029  -0.473  0.00  0.00     0.021 A 
ATOM     24  C   UNL d   1      -0.574  -0.238  -0.559  0.00  0.00     0.023 A 
BRANCH  22  25
ATOM     25  C   UNL d   1       2.231   2.033   0.429  0.00  0.00     0.021 A 
ATOM     26  S   UNL d   1       1.693   3.655   0.624  0.00  0.00    -0.101 SA
ATOM     27  C   UNL d   1       3.272   4.221   0.945  0.00  0.00     0.050 A 
ATOM     28  C   UNL d   1       4.204   3.211   0.890  0.00  0.00     0.008 A 
ATOM     29  C   UNL d   1       3.604   1.953   0.591  0.00  0.00     0.021 A 
ENDBRANCH  22  25
ENDBRANCH   4  20
TORSDOF 6
