REMARK  2 active torsions:
REMARK  status: ('A' for Active; 'I' for Inactive)
REMARK    1  A    between atoms: C_14  and  N_3 
REMARK    2  A    between atoms: C_13  and  C_4 
ROOT
ATOM      1  C   UNL d   1       0.270  -0.653   0.019  0.00  0.00     0.046 A 
ATOM      2  C   UNL d   1       0.255   0.715   0.072  0.00  0.00     0.143 A 
ATOM      3  N   UNL d   1       1.567   1.151   0.035  0.00  0.00    -0.239 N 
ATOM      4  C   UNL d   1      -0.959  -1.403   0.017  0.00  0.00     0.018 A 
ATOM      5  N   UNL d   1      -0.932   1.417   0.064  0.00  0.00    -0.306 N 
ATOM      6  C   UNL d   1      -2.156  -0.755   0.024  0.00  0.00     0.124 A 
ATOM      7  N   UNL d   1       2.417   0.107  -0.132  0.00  0.00    -0.296 N 
ATOM      8  HN  UNL d   1       3.425   0.146  -0.278  1.00  0.00     0.187 HD
ATOM      9  C   UNL d   1      -2.188   0.736   0.033  0.00  0.00     0.268 A 
ATOM     10  C   UNL d   1       1.646  -0.990  -0.063  0.00  0.00     0.037 A 
ATOM     11  C   UNL d   1      -3.423  -1.409   0.012  0.00  0.00     0.106 C 
ATOM     12  N   UNL d   1      -4.443  -1.968   0.007  0.00  0.00    -0.191 NA
ATOM     13  O   UNL d   1      -3.180   1.440   0.018  0.00  0.00    -0.266 OA
ATOM     14  C   UNL d   1       2.296  -2.333  -0.101  0.00  0.00     0.070 C 
ATOM     15  H   UNL d   1      -0.948   2.429   0.019  0.00  0.00     0.170 HD
ENDROOT
BRANCH   4  16
ATOM     16  C   UNL d   1      -0.970  -2.877   0.008  0.00  0.00    -0.008 A 
ATOM     17  C   UNL d   1      -0.979  -3.604  -1.182  0.00  0.00     0.100 A 
ATOM     18  N   UNL d   1      -0.985  -4.952  -1.240  0.00  0.00    -0.374 N 
ATOM     19  C   UNL d   1      -0.999  -5.616  -0.065  0.00  0.00     0.087 A 
ATOM     20  HN  UNL d   1      -0.978  -5.447  -2.132  1.00  0.00     0.164 HD
ATOM     21  C   UNL d   1      -0.999  -4.989   1.170  0.00  0.00     0.018 A 
ATOM     22  C   UNL d   1      -0.983  -3.597   1.206  0.00  0.00     0.015 A 
ENDBRANCH   4  16
BRANCH   3  23
ATOM     23  C   UNL d   1       2.013   2.494   0.053  0.00  0.00     0.058 A 
ATOM     24  C   UNL d   1       1.278   3.472   0.740  0.00  0.00     0.031 A 
ATOM     25  C   UNL d   1       1.638   4.813   0.639  0.00  0.00     0.002 A 
ATOM     26  C   UNL d   1       2.737   5.179  -0.134  0.00  0.00     0.000 A 
ATOM     27  C   UNL d   1       3.502   4.203  -0.775  0.00  0.00     0.002 A 
ATOM     28  C   UNL d   1       3.157   2.854  -0.668  0.00  0.00     0.031 A 
ENDBRANCH   3  23
TORSDOF 2
