REMARK  2 active torsions:
REMARK  status: ('A' for Active; 'I' for Inactive)
REMARK    1  A    between atoms: C_7  and  N_1 
REMARK    2  A    between atoms: N_10  and  C_9 
ROOT
ATOM      1  N   UNL d   1       2.389  -0.599   0.130  0.00  0.00    -0.265 N 
ATOM      2  C   UNL d   1       1.452  -1.160   0.997  0.00  0.00     0.266 C 
ATOM      3  C   UNL d   1       2.167   0.628  -0.470  0.00  0.00     0.087 C 
ATOM      4  C   UNL d   1       0.101  -0.579   0.921  0.00  0.00     0.060 A 
ATOM      5  N   UNL d   1       1.027   1.246  -0.415  0.00  0.00    -0.345 N 
ATOM      6  HN  UNL d   1       0.919   2.178  -0.816  1.00  0.00     0.167 HD
ATOM      7  C   UNL d   1      -0.051   0.606   0.205  0.00  0.00     0.049 A 
ATOM      8  O   UNL d   1       1.645  -2.105   1.757  0.00  0.00    -0.267 OA
ATOM      9  C   UNL d   1      -1.002  -1.255   1.456  0.00  0.00     0.038 A 
ATOM     10  C   UNL d   1      -1.331   1.142   0.056  0.00  0.00     0.032 A 
ATOM     11  C   UNL d   1      -2.274  -0.725   1.265  0.00  0.00     0.012 A 
ATOM     12  C   UNL d   1       3.291   1.343  -1.191  0.00  0.00     0.089 C 
ATOM     13  C   UNL d   1      -2.445   0.476   0.578  0.00  0.00     0.021 A 
ATOM     14 BR   UNL d   1      -3.785  -1.663   1.903  0.00  0.00    -0.051 Br
ENDROOT
BRANCH   1  15
ATOM     15  C   UNL d   1       3.601  -1.315  -0.065  0.00  0.00     0.070 A 
ATOM     16  C   UNL d   1       3.814  -2.132  -1.208  0.00  0.00     0.058 A 
ATOM     17  C   UNL d   1       5.099  -2.705  -1.323  0.00  0.00     0.031 A 
ATOM     18  C   UNL d   1       6.110  -2.494  -0.379  0.00  0.00     0.002 A 
ATOM     19  C   UNL d   1       5.865  -1.704   0.735  0.00  0.00     0.002 A 
ATOM     20  C   UNL d   1       4.614  -1.119   0.896  0.00  0.00     0.032 A 
BRANCH  16  21
ATOM     21  N   UNL d   1       2.868  -2.459  -2.174  0.00  0.00    -0.375 N 
ATOM     22  C   UNL d   1       1.419  -2.492  -1.925  0.00  0.00     0.149 C 
ATOM     23  C   UNL d   1       0.737  -3.542  -2.819  0.00  0.00     0.187 C 
ATOM     24  O   UNL d   1       1.061  -3.368  -4.206  0.00  0.00    -0.388 OA
ATOM     25  C   UNL d   1       2.484  -3.455  -4.388  0.00  0.00     0.187 C 
ATOM     26  C   UNL d   1       3.208  -2.346  -3.607  0.00  0.00     0.149 C 
ENDBRANCH  16  21
ENDBRANCH   1  15
TORSDOF 2
