REMARK  5 active torsions:
REMARK  status: ('A' for Active; 'I' for Inactive)
REMARK    1  A    between atoms: C_3  and  C_1 
REMARK       I    between atoms: N_4  and  C_3 
REMARK    2  A    between atoms: C_6  and  N_4 
REMARK    3  A    between atoms: S_12  and  C_5 
REMARK    4  A    between atoms: O_16  and  C_10 
REMARK    5  A    between atoms: O_17  and  C_14 
ROOT
ATOM      1  C   UNL d   1      -0.138   2.703   0.632  0.00  0.00     0.263 C 
ATOM      2  N   UNL d   1      -1.376   3.067   0.102  0.00  0.00    -0.320 N 
ATOM      3  O   UNL d   1       0.050   1.679   1.287  0.00  0.00    -0.267 OA
ATOM      4  H   UNL d   1      -1.397   3.909  -0.455  0.00  0.00     0.169 HD
ENDROOT
BRANCH   2   5
ATOM      5  C   UNL d   1      -2.567   2.293   0.155  0.00  0.00     0.071 A 
ATOM      6  C   UNL d   1      -2.695   1.236   1.073  0.00  0.00     0.069 A 
ATOM      7  C   UNL d   1      -3.827   0.423   1.130  0.00  0.00     0.070 A 
ATOM      8  C   UNL d   1      -4.880   0.677   0.261  0.00  0.00     0.039 A 
ATOM      9  C   UNL d   1      -4.805   1.757  -0.624  0.00  0.00     0.042 A 
ATOM     10  C   UNL d   1      -3.662   2.565  -0.686  0.00  0.00     0.095 A 
BRANCH   7  11
ATOM     11  O   UNL d   1      -4.002  -0.627   1.994  0.00  0.00    -0.356 OA
ATOM     12  C   UNL d   1      -2.924  -0.905   2.884  0.00  0.00     0.210 C 
ENDBRANCH   7  11
BRANCH  10  13
ATOM     13  O   UNL d   1      -3.776   3.651  -1.516  0.00  0.00    -0.354 OA
ATOM     14  C   UNL d   1      -2.770   3.796  -2.510  0.00  0.00     0.210 C 
ENDBRANCH  10  13
ENDBRANCH   2   5
BRANCH   1  15
ATOM     15  C   UNL d   1       0.987   3.575   0.342  0.00  0.00     0.074 A 
ATOM     16  S   UNL d   1       0.936   4.899  -0.732  0.00  0.00    -0.078 SA
ATOM     17  C   UNL d   1       2.618   5.209  -0.550  0.00  0.00     0.041 A 
ATOM     18  C   UNL d   1       3.190   4.349   0.362  0.00  0.00     0.027 A 
ATOM     19  C   UNL d   1       2.255   3.408   0.867  0.00  0.00     0.026 A 
BRANCH  17  20
ATOM     20  S   UNL d   1       3.407   6.491  -1.460  0.00  0.00    -0.127 SA
ATOM     21  C   UNL d   1       5.161   6.123  -1.218  0.00  0.00     0.096 C 
ENDBRANCH  17  20
ENDBRANCH   1  15
TORSDOF 5
