REMARK  3 active torsions:
REMARK  status: ('A' for Active; 'I' for Inactive)
REMARK    1  A    between atoms: O_2  and  C_1 
REMARK    2  A    between atoms: C_5  and  C_1 
REMARK    3  A    between atoms: C_3  and  O_2 
ROOT
ATOM      1  C   UNL d   1       2.538  -2.445  -0.220  0.00  0.00     0.107 A 
ATOM      2  C   UNL d   1       1.390  -2.867   0.467  0.00  0.00     0.076 A 
ATOM      3  N   UNL d   1       0.876  -2.148   1.492  0.00  0.00    -0.363 N 
ATOM      4  HN  UNL d   1       1.321  -1.281   1.794  1.00  0.00     0.165 HD
ATOM      5  C   UNL d   1       0.812  -4.088   0.063  0.00  0.00    -0.007 A 
ATOM      6  C   UNL d   1       3.140  -3.205  -1.225  0.00  0.00     0.040 A 
ATOM      7  C   UNL d   1       2.562  -4.412  -1.602  0.00  0.00     0.004 A 
ATOM      8  C   UNL d   1      -0.236  -2.599   2.107  0.00  0.00     0.088 A 
ATOM      9  C   UNL d   1       1.397  -4.848  -0.968  0.00  0.00     0.014 A 
ATOM     10  C   UNL d   1      -0.341  -4.527   0.729  0.00  0.00     0.015 A 
ATOM     11  C   UNL d   1      -0.877  -3.770   1.764  0.00  0.00     0.018 A 
ENDROOT
BRANCH   1  12
ATOM     12  O   UNL d   1       3.225  -1.288   0.200  0.00  0.00    -0.273 OA
BRANCH  12  13
ATOM     13  C   UNL d   1       2.444  -0.146   0.182  0.00  0.00     0.298 C 
ATOM     14  O   UNL d   1       1.679   0.186  -0.710  0.00  0.00    -0.259 OA
BRANCH  13  15
ATOM     15  C   UNL d   1       2.665   0.629   1.440  0.00  0.00     0.040 A 
ATOM     16  C   UNL d   1       1.866   1.753   1.686  0.00  0.00     0.018 A 
ATOM     17  C   UNL d   1       1.951   2.426   2.911  0.00  0.00     0.007 A 
ATOM     18  C   UNL d   1       2.829   1.979   3.907  0.00  0.00    -0.062 A 
ATOM     19  C   UNL d   1       3.665   0.890   3.639  0.00  0.00     0.007 A 
ATOM     20  C   UNL d   1       2.879   2.666   5.240  0.00  0.00     0.048 C 
ATOM     21  C   UNL d   1       3.582   0.217   2.417  0.00  0.00     0.018 A 
ENDBRANCH  13  15
ENDBRANCH  12  13
ENDBRANCH   1  12
TORSDOF 3
