REMARK  6 active torsions:
REMARK  status: ('A' for Active; 'I' for Inactive)
REMARK    1  A    between atoms: C_6  and  N_1 
REMARK    2  A    between atoms: C_3  and  C_2 
REMARK       I    between atoms: N_5  and  C_3 
REMARK    3  A    between atoms: C_4  and  N_10 
REMARK    4  A    between atoms: N_11  and  C_4 
REMARK    5  A    between atoms: N_10  and  N_5 
REMARK    6  A    between atoms: C_15  and  N_11 
ROOT
ATOM      1  C   UNL d   1       1.989  -1.335   0.665  0.00  0.00     0.287 C 
ATOM      2  N   UNL d   1       3.228  -0.790   0.972  0.00  0.00    -0.262 N 
ATOM      3  O   UNL d   1       1.823  -2.555   0.725  0.00  0.00    -0.264 OA
ATOM      4  H   UNL d   1       3.337   0.176   1.245  0.00  0.00     0.190 HD
ENDROOT
BRANCH   2   5
ATOM      5  N   UNL d   1       4.326  -1.640   1.248  0.00  0.00    -0.273 N 
ATOM      6  H   UNL d   1       4.285  -2.066   2.171  0.00  0.00     0.189 HD
BRANCH   5   7
ATOM      7  C   UNL d   1       4.817  -2.501   0.269  0.00  0.00     0.191 C 
ATOM      8  S   UNL d   1       4.571  -2.411  -1.382  0.00  0.00    -0.039 SA
BRANCH   7   9
ATOM      9  N   UNL d   1       5.533  -3.557   0.792  0.00  0.00    -0.332 N 
ATOM     10  H   UNL d   1       5.496  -4.412   0.244  0.00  0.00     0.168 HD
BRANCH   9  11
ATOM     11  C   UNL d   1       6.626  -3.450   1.677  0.00  0.00     0.036 A 
ATOM     12  C   UNL d   1       7.356  -2.265   1.811  0.00  0.00     0.055 A 
ATOM     13  C   UNL d   1       8.515  -2.238   2.596  0.00  0.00     0.058 A 
ATOM     14 CL   UNL d   1       9.421  -0.766   2.637  0.00  0.00    -0.082 Cl
ATOM     15  C   UNL d   1       8.919  -3.386   3.285  0.00  0.00     0.055 A 
ATOM     16  C   UNL d   1       8.173  -4.562   3.170  0.00  0.00     0.028 A 
ATOM     17 CL   UNL d   1      10.333  -3.423   4.276  0.00  0.00    -0.083 Cl
ATOM     18  C   UNL d   1       7.043  -4.600   2.348  0.00  0.00     0.031 A 
ENDBRANCH   9  11
ENDBRANCH   7   9
ENDBRANCH   5   7
ENDBRANCH   2   5
BRANCH   1  19
ATOM     19  C   UNL d   1       0.884  -0.445   0.312  0.00  0.00     0.109 A 
ATOM     20  N   UNL d   1       0.769   0.950   0.266  0.00  0.00    -0.318 N 
ATOM     21  C   UNL d   1      -0.566   1.271   0.087  0.00  0.00     0.098 A 
ATOM     22  C   UNL d   1      -1.290   0.124  -0.123  0.00  0.00     0.020 A 
ATOM     23  C   UNL d   1      -0.385  -0.941   0.015  0.00  0.00     0.037 A 
BRANCH  20  24
ATOM     24  C   UNL d   1       1.768   1.956   0.400  0.00  0.00     0.039 A 
ATOM     25  C   UNL d   1       2.983   1.862  -0.291  0.00  0.00     0.033 A 
ATOM     26  C   UNL d   1       3.963   2.839  -0.097  0.00  0.00     0.044 A 
ATOM     27  C   UNL d   1       3.707   3.919   0.743  0.00  0.00     0.116 A 
ATOM     28  C   UNL d   1       2.479   4.053   1.381  0.00  0.00     0.044 A 
ATOM     29  F   UNL d   1       4.654   4.845   0.938  0.00  0.00    -0.206 F 
ATOM     30  C   UNL d   1       1.500   3.076   1.201  0.00  0.00     0.033 A 
ENDBRANCH  20  24
ENDBRANCH   1  19
TORSDOF 6
