REMARK  2 active torsions:
REMARK  status: ('A' for Active; 'I' for Inactive)
REMARK       I    between atoms: C_12  and  N_10 
REMARK    1  A    between atoms: O_18  and  C_12 
REMARK    2  A    between atoms: C_20  and  O_18 
ROOT
ATOM      1  C   UNL d   1       0.682   0.427   0.030  0.00  0.00     0.073 A 
ATOM      2  C   UNL d   1       1.232  -0.838  -0.002  0.00  0.00     0.091 A 
ATOM      3  C   UNL d   1      -0.748   0.395   0.030  0.00  0.00    -0.023 A 
ATOM      4  C   UNL d   1       1.587   1.564   0.062  0.00  0.00     0.261 A 
ATOM      5  C   UNL d   1      -1.222  -0.908   0.019  0.00  0.00     0.010 A 
ATOM      6  N   UNL d   1       2.553  -1.145  -0.018  0.00  0.00    -0.346 N 
ATOM      7  HN  UNL d   1       2.899  -2.104  -0.047  1.00  0.00     0.167 HD
ATOM      8  S   UNL d   1       0.035  -2.056  -0.019  0.00  0.00    -0.074 SA
ATOM      9  N   UNL d   1       2.934   1.210   0.050  0.00  0.00    -0.314 N 
ATOM     10  N   UNL d   1      -3.487  -0.131   0.321  0.00  0.00    -0.323 N 
ATOM     11  C   UNL d   1       3.336  -0.114   0.008  0.00  0.00     0.186 A 
ATOM     12  C   UNL d   1      -4.336  -0.072   1.407  0.00  0.00     0.363 C 
ATOM     13  C   UNL d   1      -2.671  -1.313   0.014  0.00  0.00     0.174 C 
ATOM     14  C   UNL d   1      -1.695   1.561   0.069  0.00  0.00     0.061 C 
ATOM     15  C   UNL d   1      -3.107   1.115  -0.352  0.00  0.00     0.133 C 
ATOM     16  O   UNL d   1       1.181   2.723   0.094  0.00  0.00    -0.267 OA
ATOM     17  O   UNL d   1      -4.851   0.963   1.815  0.00  0.00    -0.238 OA
ATOM     18  C   UNL d   1       3.946   2.244   0.084  0.00  0.00     0.160 C 
ENDROOT
BRANCH  12  19
ATOM     19  O   UNL d   1      -4.504  -1.284   1.999  0.00  0.00    -0.304 OA
BRANCH  19  20
ATOM     20  C   UNL d   1      -5.056  -1.258   3.322  0.00  0.00     0.176 C 
ATOM     21  C   UNL d   1      -3.914  -1.077   4.305  0.00  0.00     0.034 C 
ENDBRANCH  19  20
ENDBRANCH  12  19
TORSDOF 2
