REMARK  4 active torsions:
REMARK  status: ('A' for Active; 'I' for Inactive)
REMARK    1  A    between atoms: C_5  and  C_1 
REMARK    2  A    between atoms: O_12  and  C_5 
REMARK    3  A    between atoms: N_10  and  N_8 
REMARK    4  A    between atoms: C_13  and  N_10 
ROOT
ATOM      1  C   UNL d   1      -1.593   1.304  -0.004  0.00  0.00     0.074 A 
ATOM      2  C   UNL d   1      -0.231   0.879  -0.015  0.00  0.00     0.036 A 
ATOM      3  C   UNL d   1      -2.329   0.129   0.046  0.00  0.00     0.161 A 
ATOM      4  C   UNL d   1      -0.262  -0.497   0.055  0.00  0.00     0.066 A 
ATOM      5  O   UNL d   1      -1.527  -0.966   0.090  0.00  0.00    -0.325 OA
ATOM      6  C   UNL d   1       1.055   1.544  -0.105  0.00  0.00     0.039 C 
ATOM      7  N   UNL d   1       1.034   2.802  -0.436  0.00  0.00    -0.303 N 
ATOM      8  HN  UNL d   1       0.153   3.296  -0.571  1.00  0.00     0.186 HD
ATOM      9  C   UNL d   1       0.871  -1.450   0.092  0.00  0.00     0.066 C 
ATOM     10  C   UNL d   1       2.285   0.687   0.203  0.00  0.00     0.060 C 
ATOM     11  C   UNL d   1       2.144  -0.729  -0.384  0.00  0.00     0.013 C 
ENDROOT
BRANCH   7  12
ATOM     12  N   UNL d   1       2.223   3.435  -0.594  0.00  0.00    -0.301 N 
ATOM     13  H   UNL d   1       3.027   3.190  -0.019  0.00  0.00     0.187 HD
BRANCH  12  14
ATOM     14  C   UNL d   1       2.269   4.769  -1.055  0.00  0.00     0.048 A 
ATOM     15  C   UNL d   1       1.135   5.491  -1.445  0.00  0.00     0.031 A 
ATOM     16  C   UNL d   1       1.238   6.803  -1.918  0.00  0.00     0.002 A 
ATOM     17  C   UNL d   1       2.487   7.398  -2.061  0.00  0.00     0.000 A 
ATOM     18  C   UNL d   1       3.632   6.676  -1.743  0.00  0.00     0.002 A 
ATOM     19  C   UNL d   1       3.522   5.371  -1.249  0.00  0.00     0.031 A 
ENDBRANCH  12  14
ENDBRANCH   7  12
BRANCH   1  20
ATOM     20  C   UNL d   1      -2.228   2.611  -0.015  0.00  0.00     0.179 C 
ATOM     21  O   UNL d   1      -3.446   2.751  -0.012  0.00  0.00    -0.646 OA
BRANCH  20  22
ATOM     22  O   UNL d   1      -1.407   3.684   0.009  0.00  0.00    -0.773 OA
ATOM     23  H   UNL d   1      -0.453   3.456  -0.076  0.00  0.00     0.167 HD
ENDBRANCH  20  22
ENDBRANCH   1  20
TORSDOF 4
