REMARK  0 active torsions:
REMARK  status: ('A' for Active; 'I' for Inactive)
REMARK       I    between atoms: C_6  and  N_1 
ROOT
ATOM      1  N   UNL d   1       0.787  -1.514  -0.066  0.00  0.00    -0.245 N 
ATOM      2  C   UNL d   1       1.783  -0.523  -0.001  0.00  0.00     0.306 A 
ATOM      3  C   UNL d   1      -0.491  -0.879  -0.046  0.00  0.00     0.060 A 
ATOM      4  C   UNL d   1       1.043   0.823   0.023  0.00  0.00     0.252 A 
ATOM      5  C   UNL d   1      -0.373   0.507   0.022  0.00  0.00     0.047 A 
ATOM      6  C   UNL d   1       0.949  -2.898  -0.131  0.00  0.00     0.227 C 
ATOM      7  O   UNL d   1       2.992  -0.597   0.050  0.00  0.00    -0.263 OA
ATOM      8  O   UNL d   1       1.540   1.927   0.023  0.00  0.00    -0.281 OA
ATOM      9  O   UNL d   1       0.006  -3.694  -0.185  0.00  0.00    -0.273 OA
ATOM     10  C   UNL d   1      -1.763  -1.433  -0.076  0.00  0.00     0.031 A 
ATOM     11  C   UNL d   1      -1.448   1.377   0.080  0.00  0.00     0.018 A 
ATOM     12  C   UNL d   1       2.343  -3.481  -0.142  0.00  0.00     0.118 C 
ATOM     13  C   UNL d   1      -2.876  -0.580  -0.019  0.00  0.00     0.002 A 
ATOM     14  C   UNL d   1      -2.721   0.814   0.064  0.00  0.00     0.001 A 
ENDROOT
TORSDOF 0
