REMARK  4 active torsions:
REMARK  status: ('A' for Active; 'I' for Inactive)
REMARK    1  A    between atoms: N_3  and  S_1 
REMARK    2  A    between atoms: C_9  and  S_1 
REMARK    3  A    between atoms: C_2  and  C_8 
REMARK    4  A    between atoms: N_6  and  N_3 
ROOT
ATOM      1  N   UNL d   1       0.558   1.606  -0.087  0.00  0.00    -0.223 N 
ATOM      2  H   UNL d   1      -0.251   1.765  -0.690  0.00  0.00     0.200 HD
ENDROOT
BRANCH   1   3
ATOM      3  S   UNL d   1       1.030  -0.025   0.127  0.00  0.00     0.276 S 
ATOM      4  O   UNL d   1       0.317  -0.551   1.272  0.00  0.00    -0.199 OA
ATOM      5  O   UNL d   1       2.474  -0.106   0.028  0.00  0.00    -0.199 OA
BRANCH   3   6
ATOM      6  C   UNL d   1       0.353  -0.812  -1.317  0.00  0.00     0.081 A 
ATOM      7  C   UNL d   1       1.134  -0.913  -2.472  0.00  0.00     0.026 A 
ATOM      8  C   UNL d   1       0.673  -1.671  -3.550  0.00  0.00     0.008 A 
ATOM      9  C   UNL d   1      -0.559  -2.337  -3.477  0.00  0.00    -0.062 A 
ATOM     10  C   UNL d   1      -1.339  -2.212  -2.320  0.00  0.00     0.008 A 
ATOM     11  C   UNL d   1      -1.004  -3.210  -4.615  0.00  0.00     0.048 C 
ATOM     12  C   UNL d   1      -0.885  -1.455  -1.237  0.00  0.00     0.026 A 
ENDBRANCH   3   6
ENDBRANCH   1   3
BRANCH   1  13
ATOM     13  N   UNL d   1       0.920   2.515   0.973  0.00  0.00    -0.300 N 
ATOM     14  C   UNL d   1       0.460   3.723   0.909  0.00  0.00     0.144 C 
ATOM     15  HN  UNL d   1       1.516   2.216   1.745  1.00  0.00     0.186 HD
BRANCH  14  16
ATOM     16  C   UNL d   1       0.755   4.705   1.927  0.00  0.00     0.090 A 
ATOM     17  N   UNL d   1       0.339   5.953   1.842  0.00  0.00    -0.359 N 
ATOM     18  C   UNL d   1       0.778   6.656   2.950  0.00  0.00     0.096 A 
ATOM     19  HN  UNL d   1      -0.218   6.339   1.080  1.00  0.00     0.166 HD
ATOM     20  C   UNL d   1       1.510   5.933   3.867  0.00  0.00     0.069 A 
ATOM     21  S   UNL d   1       1.667   4.314   3.328  0.00  0.00    -0.082 SA
ENDBRANCH  14  16
ENDBRANCH   1  13
TORSDOF 4
