REMARK  3 active torsions:
REMARK  status: ('A' for Active; 'I' for Inactive)
REMARK    1  A    between atoms: C_7  and  C_4 
REMARK    2  A    between atoms: S_10  and  C_7 
REMARK    3  A    between atoms: C_16  and  S_10 
ROOT
ATOM      1  C   UNL d   1      -0.760  -0.317  -0.199  0.00  0.00     0.024 A 
ATOM      2  S   UNL d   1      -1.502  -1.823  -0.475  0.00  0.00    -0.084 SA
ATOM      3  C   UNL d   1      -1.696   0.695  -0.079  0.00  0.00    -0.029 A 
ATOM      4  C   UNL d   1      -3.084  -1.203  -0.281  0.00  0.00     0.063 A 
ATOM      5  C   UNL d   1       0.700  -0.154  -0.126  0.00  0.00    -0.000 A 
ATOM      6  C   UNL d   1      -3.034   0.175  -0.128  0.00  0.00     0.033 A 
ATOM      7  S   UNL d   1       0.270   2.606  -0.556  0.00  0.00    -0.124 SA
ATOM      8  C   UNL d   1       1.256   1.138  -0.238  0.00  0.00     0.012 A 
ATOM      9  C   UNL d   1      -1.340   2.127   0.156  0.00  0.00     0.119 C 
ATOM     10  C   UNL d   1       1.562  -1.247   0.073  0.00  0.00     0.038 A 
ATOM     11  C   UNL d   1       2.648   1.308  -0.160  0.00  0.00     0.021 A 
ATOM     12  C   UNL d   1       2.942  -1.062   0.150  0.00  0.00     0.035 A 
ATOM     13  C   UNL d   1       3.489   0.211   0.037  0.00  0.00     0.025 A 
ATOM     14 CL   UNL d   1       3.972  -2.419   0.386  0.00  0.00    -0.084 Cl
ENDROOT
BRANCH   4  15
ATOM     15  C   UNL d   1      -4.295  -2.028  -0.274  0.00  0.00     0.230 C 
ATOM     16  O   UNL d   1      -5.416  -1.546  -0.160  0.00  0.00    -0.279 OA
BRANCH  15  17
ATOM     17  S   UNL d   1      -4.028  -3.770  -0.326  0.00  0.00    -0.047 SA
BRANCH  17  18
ATOM     18  C   UNL d   1      -5.506  -4.587  -0.876  0.00  0.00     0.008 A 
ATOM     19  C   UNL d   1      -6.663  -3.975  -1.361  0.00  0.00     0.019 A 
ATOM     20  C   UNL d   1      -7.763  -4.742  -1.764  0.00  0.00     0.001 A 
ATOM     21  C   UNL d   1      -7.713  -6.132  -1.707  0.00  0.00     0.000 A 
ATOM     22  C   UNL d   1      -6.562  -6.760  -1.247  0.00  0.00     0.001 A 
ATOM     23  C   UNL d   1      -5.471  -5.992  -0.835  0.00  0.00     0.019 A 
ENDBRANCH  17  18
ENDBRANCH  15  17
ENDBRANCH   4  15
TORSDOF 3
