REMARK  0 active torsions:
REMARK  status: ('A' for Active; 'I' for Inactive)
ROOT
ATOM      1  N   UNL d   1      -2.573   2.196  -0.208  0.00  0.00    -0.361 N 
ATOM      2  C   UNL d   1      -1.690   1.375   0.440  0.00  0.00     0.016 C 
ATOM      3  C   UNL d   1      -2.307   0.124   0.488  0.00  0.00    -0.023 C 
ATOM      4  C   UNL d   1      -3.692   0.511   0.428  0.00  0.00    -0.005 C 
ATOM      5  C   UNL d   1      -3.708   1.517  -0.525  0.00  0.00     0.023 C 
ATOM      6  C   UNL d   1      -1.679  -1.256   0.483  0.00  0.00     0.041 C 
ATOM      7  C   UNL d   1      -0.354   1.920   0.788  0.00  0.00     0.057 C 
ATOM      8  C   UNL d   1      -4.816   0.445   1.286  0.00  0.00     0.014 C 
ATOM      9  C   UNL d   1      -4.903   2.061  -1.036  0.00  0.00     0.085 C 
ATOM     10  C   UNL d   1      -0.178  -1.284   0.825  0.00  0.00     0.005 C 
ATOM     11  C   UNL d   1       0.451   2.138  -0.493  0.00  0.00     0.006 C 
ATOM     12  C   UNL d   1      -5.802   1.462   1.121  0.00  0.00    -0.003 C 
ATOM     13  C   UNL d   1      -5.811   2.262  -0.011  0.00  0.00    -0.021 C 
ATOM     14  C   UNL d   1       0.653  -2.454   0.292  0.00  0.00     0.000 C 
ATOM     15  C   UNL d   1       1.857   2.642  -0.209  0.00  0.00     0.000 C 
ATOM     16  C   UNL d   1       2.173  -2.140   0.252  0.00  0.00     0.000 C 
ATOM     17  C   UNL d   1       2.951   1.632  -0.571  0.00  0.00     0.000 C 
ATOM     18  C   UNL d   1       2.567  -0.910  -0.598  0.00  0.00     0.000 C 
ATOM     19  C   UNL d   1       2.910   0.331   0.249  0.00  0.00     0.000 C 
ATOM     20  H   UNL d   1      -2.407   3.171  -0.448  0.00  0.00     0.165 HD
ENDROOT
TORSDOF 0
