REMARK  5 active torsions:
REMARK  status: ('A' for Active; 'I' for Inactive)
REMARK    1  A    between atoms: C_7  and  N_1 
REMARK    2  A    between atoms: C_4  and  C_3 
REMARK    3  A    between atoms: O_10  and  C_5 
REMARK    4  A    between atoms: O_6  and  C_8 
REMARK    5  A    between atoms: C_9  and  O_6 
ROOT
ATOM      1  C   UNL d   1       2.341   0.080  -0.011  0.00  0.00     0.032 A 
ATOM      2  C   UNL d   1       5.148   0.105  -0.145  0.00  0.00     0.076 A 
ATOM      3  C   UNL d   1       3.069  -1.105   0.124  0.00  0.00     0.032 A 
ATOM      4  C   UNL d   1       3.031   1.264  -0.297  0.00  0.00     0.032 A 
ATOM      5  C   UNL d   1       4.426   1.278  -0.373  0.00  0.00     0.039 A 
ATOM      6  C   UNL d   1       4.466  -1.095   0.056  0.00  0.00     0.039 A 
ENDROOT
BRANCH   1   7
ATOM      7  N   UNL d   1       0.939   0.031   0.096  0.00  0.00    -0.365 N 
ATOM      8  C   UNL d   1       0.369   0.914   0.859  0.00  0.00     0.102 C 
ATOM      9  HN  UNL d   1       0.393  -0.669  -0.405  1.00  0.00     0.165 HD
BRANCH   8  10
ATOM     10  C   UNL d   1      -1.096   0.962   1.025  0.00  0.00     0.012 A 
ATOM     11  C   UNL d   1      -1.934  -0.037   0.519  0.00  0.00     0.077 A 
ATOM     12  C   UNL d   1      -3.311   0.044   0.703  0.00  0.00     0.037 A 
ATOM     13  C   UNL d   1      -3.861   1.133   1.384  0.00  0.00     0.003 A 
ATOM     14  C   UNL d   1      -3.028   2.136   1.885  0.00  0.00     0.001 A 
ATOM     15  C   UNL d   1      -1.645   2.051   1.712  0.00  0.00     0.015 A 
BRANCH  11  16
ATOM     16  O   UNL d   1      -1.463  -1.127  -0.162  0.00  0.00    -0.360 OA
ATOM     17  H   UNL d   1      -0.491  -1.005  -0.263  0.00  0.00     0.217 HD
ENDBRANCH  11  16
ENDBRANCH   8  10
ENDBRANCH   1   7
BRANCH   2  18
ATOM     18  O   UNL d   1       6.523   0.034  -0.166  0.00  0.00    -0.311 OA
BRANCH  18  19
ATOM     19  C   UNL d   1       7.253   1.093   0.328  0.00  0.00     0.076 A 
ATOM     20  C   UNL d   1       6.887   1.831   1.458  0.00  0.00     0.037 A 
ATOM     21  C   UNL d   1       7.674   2.906   1.875  0.00  0.00     0.003 A 
ATOM     22  C   UNL d   1       8.850   3.216   1.192  0.00  0.00     0.000 A 
ATOM     23  C   UNL d   1       9.247   2.444   0.100  0.00  0.00     0.003 A 
ATOM     24  C   UNL d   1       8.450   1.381  -0.329  0.00  0.00     0.037 A 
ENDBRANCH  18  19
ENDBRANCH   2  18
TORSDOF 5
