REMARK  3 active torsions:
REMARK  status: ('A' for Active; 'I' for Inactive)
REMARK    1  A    between atoms: N_3  and  C_10 
REMARK    2  A    between atoms: C_14  and  C_4 
REMARK    3  A    between atoms: C_13  and  C_6 
ROOT
ATOM      1  N   UNL d   1      -0.438   1.600  -0.800  0.00  0.00    -0.358 N 
ATOM      2  HN  UNL d   1      -0.257   2.158  -1.635  1.00  0.00     0.166 HD
ATOM      3  C   UNL d   1      -1.576   1.728  -0.185  0.00  0.00     0.021 C 
ATOM      4  S   UNL d   1      -1.186  -1.510  -0.430  0.00  0.00    -0.118 SA
ATOM      5  C   UNL d   1      -2.363  -0.547   0.619  0.00  0.00     0.091 C 
ATOM      6  C   UNL d   1      -1.970   0.881   1.012  0.00  0.00     0.078 C 
ATOM      7  C   UNL d   1       0.549   0.708  -0.339  0.00  0.00     0.049 A 
ATOM      8  C   UNL d   1       0.360  -0.672  -0.138  0.00  0.00     0.028 A 
ATOM      9  C   UNL d   1       1.825   1.250  -0.129  0.00  0.00     0.031 A 
ATOM     10  C   UNL d   1       1.447  -1.473   0.250  0.00  0.00     0.021 A 
ATOM     11  C   UNL d   1       2.707  -0.913   0.459  0.00  0.00     0.002 A 
ATOM     12  C   UNL d   1       2.896   0.451   0.273  0.00  0.00     0.002 A 
ENDROOT
BRANCH   5  13
ATOM     13  C   UNL d   1      -3.782  -0.624   0.051  0.00  0.00    -0.043 A 
ATOM     14  C   UNL d   1      -4.047  -0.478  -1.324  0.00  0.00     0.011 A 
ATOM     15  C   UNL d   1      -5.340  -0.635  -1.829  0.00  0.00     0.037 A 
ATOM     16  C   UNL d   1      -6.392  -0.913  -0.953  0.00  0.00     0.102 A 
ATOM     17  C   UNL d   1      -6.163  -1.005   0.425  0.00  0.00     0.037 A 
ATOM     18  C   UNL d   1      -4.863  -0.858   0.920  0.00  0.00     0.011 A 
BRANCH  16  19
ATOM     19  N   UNL d   1      -7.743  -1.130  -1.484  0.00  0.00    -0.116 N 
ATOM     20  O   UNL d   1      -7.903  -1.048  -2.709  0.00  0.00    -0.532 OA
ATOM     21  O   UNL d   1      -8.646  -1.390  -0.674  0.00  0.00    -0.532 OA
ENDBRANCH  16  19
ENDBRANCH   5  13
BRANCH   3  22
ATOM     22  C   UNL d   1      -2.531   2.766  -0.684  0.00  0.00    -0.014 A 
ATOM     23  C   UNL d   1      -2.555   3.057  -2.054  0.00  0.00     0.013 A 
ATOM     24  C   UNL d   1      -3.397   4.056  -2.548  0.00  0.00     0.001 A 
ATOM     25  C   UNL d   1      -4.210   4.776  -1.676  0.00  0.00     0.000 A 
ATOM     26  C   UNL d   1      -4.184   4.500  -0.309  0.00  0.00     0.001 A 
ATOM     27  C   UNL d   1      -3.344   3.499   0.188  0.00  0.00     0.013 A 
ENDBRANCH   3  22
TORSDOF 3
