REMARK  4 active torsions:
REMARK  status: ('A' for Active; 'I' for Inactive)
REMARK    1  A    between atoms: C_4  and  C_11 
REMARK    2  A    between atoms: O_12  and  C_4 
REMARK    3  A    between atoms: C_14  and  C_10 
REMARK    4  A    between atoms: C_11  and  C_14 
ROOT
ATOM      1  C   UNL d   1      -0.193  -0.679   0.014  0.00  0.00     0.105 A 
ATOM      2  C   UNL d   1      -0.213   0.695   0.011  0.00  0.00     0.105 A 
ATOM      3  O   UNL d   1      -1.442  -1.217   0.040  0.00  0.00    -0.323 OA
ATOM      4  O   UNL d   1      -1.477   1.195   0.039  0.00  0.00    -0.323 OA
ATOM      5  C   UNL d   1      -2.249  -0.022   0.086  0.00  0.00     0.352 A 
ATOM      6  C   UNL d   1       0.989  -1.390  -0.001  0.00  0.00     0.047 A 
ATOM      7  C   UNL d   1       0.948   1.435  -0.010  0.00  0.00     0.040 A 
ATOM      8  C   UNL d   1       2.196  -0.673  -0.030  0.00  0.00    -0.055 A 
ATOM      9  C   UNL d   1       2.163   0.741  -0.030  0.00  0.00     0.010 A 
ENDROOT
BRANCH   8  10
ATOM     10  C   UNL d   1       3.521  -1.402  -0.022  0.00  0.00     0.049 C 
BRANCH  10  11
ATOM     11  C   UNL d   1       3.713  -2.286  -1.254  0.00  0.00     0.114 C 
BRANCH  11  12
ATOM     12  C   UNL d   1       5.040  -3.002  -1.209  0.00  0.00     0.139 C 
ATOM     13  O   UNL d   1       5.874  -2.892  -0.325  0.00  0.00    -0.650 OA
BRANCH  12  14
ATOM     14  O   UNL d   1       5.224  -3.811  -2.279  0.00  0.00    -0.776 OA
ATOM     15  H   UNL d   1       4.479  -3.807  -2.910  0.00  0.00     0.167 HD
ENDBRANCH  12  14
ENDBRANCH  11  12
ENDBRANCH  10  11
ENDBRANCH   8  10
TORSDOF 4
