REMARK  8 active torsions:
REMARK  status: ('A' for Active; 'I' for Inactive)
REMARK    1  A    between atoms: N_4  and  C_1 
REMARK    2  A    between atoms: C_13  and  C_2 
REMARK    3  A    between atoms: O_18  and  C_3 
REMARK    4  A    between atoms: N_9  and  C_7 
REMARK    5  A    between atoms: C_14  and  C_11 
REMARK    6  A    between atoms: C_15  and  C_12 
REMARK    7  A    between atoms: O_19  and  C_16 
REMARK    8  A    between atoms: O_20  and  C_17 
ROOT
ATOM      1  C   UNL d   1      -1.160   1.314  -0.013  0.00  0.00     0.074 C 
ATOM      2  C   UNL d   1       0.893  -0.077   0.032  0.00  0.00    -0.013 C 
ATOM      3  C   UNL d   1       0.261   1.194   0.119  0.00  0.00     0.102 C 
ATOM      4  C   UNL d   1      -1.939   0.140  -0.224  0.00  0.00    -0.006 C 
ATOM      5  C   UNL d   1      -1.336  -1.125  -0.130  0.00  0.00     0.040 C 
ATOM      6  C   UNL d   1       0.055  -1.206  -0.021  0.00  0.00     0.040 C 
ATOM      7  C   UNL d   1      -3.418   0.227  -0.524  0.00  0.00     0.053 C 
ENDROOT
BRANCH   1   8
ATOM      8  N   UNL d   1      -1.805   2.588  -0.026  0.00  0.00    -0.362 N 
ATOM      9  C   UNL d   1      -2.725   2.798   0.867  0.00  0.00     0.102 C 
ATOM     10  HN  UNL d   1      -1.554   3.303  -0.709  1.00  0.00     0.165 HD
BRANCH   9  11
ATOM     11  C   UNL d   1      -3.564   4.018   0.851  0.00  0.00     0.012 A 
ATOM     12  C   UNL d   1      -3.183   5.181   0.174  0.00  0.00     0.077 A 
ATOM     13  C   UNL d   1      -3.997   6.312   0.201  0.00  0.00     0.037 A 
ATOM     14  C   UNL d   1      -5.225   6.267   0.861  0.00  0.00     0.003 A 
ATOM     15  C   UNL d   1      -5.633   5.096   1.500  0.00  0.00     0.001 A 
ATOM     16  C   UNL d   1      -4.797   3.975   1.509  0.00  0.00     0.015 A 
BRANCH  12  17
ATOM     17  O   UNL d   1      -2.026   5.267  -0.546  0.00  0.00    -0.360 OA
ATOM     18  H   UNL d   1      -1.706   4.344  -0.657  0.00  0.00     0.217 HD
ENDBRANCH  12  17
ENDBRANCH   9  11
ENDBRANCH   1   8
BRANCH   3  19
ATOM     19  O   UNL d   1       1.123   2.219   0.412  0.00  0.00    -0.353 OA
ATOM     20  C   UNL d   1       0.766   3.562   0.137  0.00  0.00     0.210 C 
ENDBRANCH   3  19
BRANCH   2  21
ATOM     21  C   UNL d   1       2.435  -0.298   0.003  0.00  0.00    -0.021 C 
ATOM     22  C   UNL d   1       2.934  -0.472   1.448  0.00  0.00     0.019 C 
ATOM     23  C   UNL d   1       2.823  -1.577  -0.798  0.00  0.00     0.019 C 
ATOM     24  C   UNL d   1       3.246   0.837  -0.674  0.00  0.00     0.019 C 
ENDBRANCH   2  21
BRANCH   5  25
ATOM     25  N   UNL d   1      -2.020  -2.351  -0.241  0.00  0.00    -0.364 N 
ATOM     26  C   UNL d   1      -2.946  -2.627   0.623  0.00  0.00     0.102 C 
ATOM     27  HN  UNL d   1      -1.792  -3.009  -0.987  1.00  0.00     0.165 HD
BRANCH  26  28
ATOM     28  C   UNL d   1      -3.663  -3.919   0.577  0.00  0.00     0.012 A 
ATOM     29  C   UNL d   1      -3.134  -5.026  -0.098  0.00  0.00     0.077 A 
ATOM     30  C   UNL d   1      -3.809  -6.244  -0.089  0.00  0.00     0.037 A 
ATOM     31  C   UNL d   1      -5.031  -6.353   0.575  0.00  0.00     0.003 A 
ATOM     32  C   UNL d   1      -5.573  -5.248   1.234  0.00  0.00     0.001 A 
ATOM     33  C   UNL d   1      -4.886  -4.031   1.245  0.00  0.00     0.015 A 
BRANCH  29  34
ATOM     34  O   UNL d   1      -1.946  -4.983  -0.777  0.00  0.00    -0.360 OA
ATOM     35  H   UNL d   1      -1.667  -4.039  -0.804  0.00  0.00     0.217 HD
ENDBRANCH  29  34
ENDBRANCH  26  28
ENDBRANCH   5  25
TORSDOF 8
