REMARK  6 active torsions:
REMARK  status: ('A' for Active; 'I' for Inactive)
REMARK    1  A    between atoms: C_2  and  C_1 
REMARK       I    between atoms: N_9  and  C_2 
REMARK    2  A    between atoms: O_15  and  C_3 
REMARK    3  A    between atoms: O_16  and  C_6 
REMARK    4  A    between atoms: C_17  and  N_9 
REMARK    5  A    between atoms: C_11  and  C_21 
REMARK    6  A    between atoms: C_21  and  C_17 
ROOT
ATOM      1  C   UNL d   1      -1.172   2.130  -1.153  0.00  0.00     0.255 C 
ATOM      2  O   UNL d   1      -1.121   2.672  -2.248  0.00  0.00    -0.268 OA
ATOM      3  N   UNL d   1      -1.219   2.869   0.013  0.00  0.00    -0.356 N 
ATOM      4  H   UNL d   1      -1.170   2.401   0.909  0.00  0.00     0.162 HD
ENDROOT
BRANCH   3   5
ATOM      5  C   UNL d   1      -1.214   4.323  -0.004  0.00  0.00     0.127 C 
BRANCH   5   6
ATOM      6  C   UNL d   1      -2.636   4.883  -0.018  0.00  0.00     0.058 C 
BRANCH   6   7
ATOM      7  C   UNL d   1      -2.664   6.391  -0.029  0.00  0.00    -0.054 A 
ATOM      8  C   UNL d   1      -2.660   7.115   1.175  0.00  0.00     0.046 A 
ATOM      9  C   UNL d   1      -2.721   8.519   1.189  0.00  0.00     0.102 A 
ATOM     10  C   UNL d   1      -2.756   9.206  -0.037  0.00  0.00     0.101 A 
ATOM     11  C   UNL d   1      -2.759   8.481  -1.237  0.00  0.00     0.040 A 
ATOM     12  C   UNL d   1      -2.705   7.089  -1.237  0.00  0.00     0.010 A 
BRANCH   9  13
ATOM     13  O   UNL d   1      -2.788   9.258   2.340  0.00  0.00    -0.353 OA
ATOM     14  C   UNL d   1      -2.783   8.565   3.582  0.00  0.00     0.210 C 
ENDBRANCH   9  13
BRANCH  10  15
ATOM     15  O   UNL d   1      -2.853  10.561  -0.230  0.00  0.00    -0.353 OA
ATOM     16  C   UNL d   1      -2.225  11.394   0.737  0.00  0.00     0.210 C 
ENDBRANCH  10  15
ENDBRANCH   6   7
ENDBRANCH   5   6
ENDBRANCH   3   5
BRANCH   1  17
ATOM     17  C   UNL d   1      -1.184   0.635  -1.039  0.00  0.00     0.075 A 
ATOM     18  C   UNL d   1      -0.549  -0.053   0.013  0.00  0.00     0.051 A 
ATOM     19 CL   UNL d   1       0.302   0.721   1.310  0.00  0.00    -0.083 Cl
ATOM     20  C   UNL d   1      -0.546  -1.458   0.058  0.00  0.00     0.025 A 
ATOM     21  C   UNL d   1      -1.158  -2.200  -0.944  0.00  0.00     0.003 A 
ATOM     22  C   UNL d   1      -1.787  -1.540  -1.991  0.00  0.00     0.025 A 
ATOM     23  C   UNL d   1      -1.810  -0.137  -2.042  0.00  0.00     0.051 A 
ATOM     24 CL   UNL d   1      -2.703   0.530  -3.371  0.00  0.00    -0.083 Cl
ENDBRANCH   1  17
TORSDOF 6
