REMARK  4 active torsions:
REMARK  status: ('A' for Active; 'I' for Inactive)
REMARK    1  A    between atoms: C_7  and  C_1 
REMARK    2  A    between atoms: N_11  and  C_4 
REMARK    3  A    between atoms: C_8  and  C_6 
REMARK    4  A    between atoms: C_10  and  C_7 
ROOT
ATOM      1  C   UNL d   1      -1.155   0.015  -0.294  0.00  0.00     0.164 A 
ATOM      2  N   UNL d   1       1.159  -0.621   0.132  0.00  0.00    -0.361 N 
ATOM      3  HN  UNL d   1       2.038  -1.129   0.230  1.00  0.00     0.162 HD
ATOM      4  C   UNL d   1       0.986   0.658   0.073  0.00  0.00     0.125 A 
ATOM      5  N   UNL d   1      -0.240   1.156  -0.207  0.00  0.00    -0.255 NA
ATOM      6  C   UNL d   1      -0.232  -1.192   0.024  0.00  0.00     0.142 A 
ATOM      7  H   UNL d   1      -0.536   1.895   0.420  0.00  0.00     0.131 HD
ENDROOT
BRANCH   1   8
ATOM      8  C   UNL d   1      -1.956   0.005  -1.595  0.00  0.00     0.179 C 
ATOM      9  O   UNL d   1      -3.193  -0.012  -1.530  0.00  0.00    -0.290 OA
BRANCH   8  10
ATOM     10  C   UNL d   1      -1.323   0.016  -2.957  0.00  0.00     0.011 A 
ATOM     11  C   UNL d   1       0.048   0.148  -3.190  0.00  0.00     0.015 A 
ATOM     12  C   UNL d   1       0.562   0.121  -4.489  0.00  0.00     0.001 A 
ATOM     13  C   UNL d   1      -0.290  -0.035  -5.576  0.00  0.00     0.000 A 
ATOM     14  C   UNL d   1      -1.660  -0.155  -5.366  0.00  0.00     0.001 A 
ATOM     15  C   UNL d   1      -2.173  -0.127  -4.067  0.00  0.00     0.015 A 
ENDBRANCH   8  10
ENDBRANCH   1   8
BRANCH   6  16
ATOM     16  C   UNL d   1      -0.331  -2.452  -0.815  0.00  0.00    -0.033 A 
ATOM     17  C   UNL d   1       0.793  -2.988  -1.464  0.00  0.00     0.011 A 
ATOM     18  C   UNL d   1       0.725  -4.218  -2.126  0.00  0.00     0.024 A 
ATOM     19  C   UNL d   1      -0.472  -4.926  -2.145  0.00  0.00     0.034 A 
ATOM     20  C   UNL d   1      -1.606  -4.404  -1.528  0.00  0.00     0.024 A 
ATOM     21 CL   UNL d   1      -0.542  -6.468  -2.907  0.00  0.00    -0.084 Cl
ATOM     22  C   UNL d   1      -1.537  -3.174  -0.867  0.00  0.00     0.011 A 
ENDBRANCH   6  16
BRANCH   4  23
ATOM     23  N   UNL d   1       1.955   1.582   0.169  0.00  0.00    -0.279 NA
ATOM     24  H   UNL d   1       1.848   2.350  -0.481  0.00  0.00     0.126 HD
ATOM     25  H   UNL d   1       2.877   1.160   0.104  0.00  0.00     0.126 HD
ENDBRANCH   4  23
TORSDOF 4
