REMARK  4 active torsions:
REMARK  status: ('A' for Active; 'I' for Inactive)
REMARK    1  A    between atoms: C_7  and  N_1 
REMARK    2  A    between atoms: N_12  and  C_2 
REMARK    3  A    between atoms: C_9  and  C_4 
REMARK    4  A    between atoms: O_22  and  C_18 
ROOT
ATOM      1  N   UNL d   1      -0.045  -1.310   0.018  0.00  0.00    -0.221 N 
ATOM      2  C   UNL d   1       1.261  -0.800   0.082  0.00  0.00     0.148 A 
ATOM      3  N   UNL d   1      -0.918  -0.278  -0.114  0.00  0.00    -0.013 NA
ATOM      4  C   UNL d   1       1.083   0.569  -0.048  0.00  0.00     0.101 A 
ATOM      5  N   UNL d   1      -0.245   0.863  -0.128  0.00  0.00    -0.279 N 
ATOM      6  HN  UNL d   1      -0.650   1.797  -0.188  1.00  0.00     0.184 HD
ENDROOT
BRANCH   1   7
ATOM      7  C   UNL d   1      -0.487  -2.657   0.146  0.00  0.00     0.078 A 
ATOM      8  C   UNL d   1      -1.662  -3.128  -0.469  0.00  0.00     0.064 A 
ATOM      9  C   UNL d   1      -2.043  -4.468  -0.308  0.00  0.00     0.050 A 
ATOM     10 CL   UNL d   1      -2.649  -2.203  -1.548  0.00  0.00    -0.082 Cl
ATOM     11  C   UNL d   1      -1.270  -5.338   0.453  0.00  0.00     0.035 A 
ATOM     12  C   UNL d   1      -0.110  -4.885   1.070  0.00  0.00     0.026 A 
ATOM     13 CL   UNL d   1      -1.742  -6.981   0.630  0.00  0.00    -0.084 Cl
ATOM     14  C   UNL d   1       0.273  -3.551   0.927  0.00  0.00     0.034 A 
ENDBRANCH   1   7
BRANCH   2  15
ATOM     15  N   UNL d   1       2.397  -1.549   0.203  0.00  0.00    -0.382 N 
ATOM     16  H   UNL d   1       2.446  -2.502  -0.151  0.00  0.00     0.157 HD
ATOM     17  H   UNL d   1       3.307  -1.092   0.223  0.00  0.00     0.157 HD
ENDBRANCH   2  15
BRANCH   4  18
ATOM     18  C   UNL d   1       2.136   1.563  -0.123  0.00  0.00    -0.004 A 
ATOM     19  C   UNL d   1       3.295   1.310  -0.873  0.00  0.00     0.016 A 
ATOM     20  C   UNL d   1       4.364   2.205  -0.870  0.00  0.00     0.037 A 
ATOM     21  C   UNL d   1       4.280   3.389  -0.140  0.00  0.00     0.068 A 
ATOM     22  C   UNL d   1       3.098   3.683   0.545  0.00  0.00     0.037 A 
ATOM     23  C   UNL d   1       2.028   2.778   0.555  0.00  0.00     0.016 A 
BRANCH  21  24
ATOM     24  O   UNL d   1       5.271   4.324  -0.032  0.00  0.00    -0.356 OA
ATOM     25  C   UNL d   1       6.526   3.982  -0.611  0.00  0.00     0.210 C 
ENDBRANCH  21  24
ENDBRANCH   4  18
TORSDOF 4
