REMARK  6 active torsions:
REMARK  status: ('A' for Active; 'I' for Inactive)
REMARK    1  A    between atoms: C_2  and  C_1 
REMARK    2  A    between atoms: N_3  and  C_1 
REMARK       I    between atoms: N_8  and  C_2 
REMARK       I    between atoms: C_4  and  N_3 
REMARK    3  A    between atoms: C_11  and  C_4 
REMARK    4  A    between atoms: C_13  and  C_5 
REMARK    5  A    between atoms: N_6  and  N_8 
REMARK    6  A    between atoms: C_14  and  C_12 
ROOT
ATOM      1  C   UNL d   1       0.667   0.036  -0.229  0.00  0.00     0.100 C 
ATOM      2  C   UNL d   1       2.017   0.125  -0.173  0.00  0.00     0.046 C 
ENDROOT
BRANCH   1   3
ATOM      3  C   UNL d   1      -0.088  -0.816  -1.283  0.00  0.00     0.265 C 
ATOM      4  N   UNL d   1       0.713  -1.527  -2.170  0.00  0.00    -0.169 NA
ATOM      5  H   UNL d   1       1.663  -1.587  -1.827  0.00  0.00     0.156 HD
ATOM      6  O   UNL d   1      -1.317  -0.854  -1.228  0.00  0.00    -0.271 OA
BRANCH   4   7
ATOM      7  N   UNL d   1       0.425  -2.767  -2.669  0.00  0.00    -0.325 N 
ATOM      8  C   UNL d   1      -0.387  -3.122  -3.615  0.00  0.00     0.113 C 
ATOM      9  HN  UNL d   1       0.930  -3.535  -2.226  1.00  0.00     0.180 HD
BRANCH   8  10
ATOM     10  C   UNL d   1      -1.431  -2.569  -4.513  0.00  0.00    -0.020 A 
ATOM     11  C   UNL d   1      -2.401  -1.653  -4.146  0.00  0.00     0.013 A 
ATOM     12  C   UNL d   1      -3.533  -1.451  -4.958  0.00  0.00     0.001 A 
ATOM     13  C   UNL d   1      -3.688  -2.163  -6.148  0.00  0.00     0.000 A 
ATOM     14  C   UNL d   1      -2.712  -3.064  -6.545  0.00  0.00     0.001 A 
ATOM     15  C   UNL d   1      -1.588  -3.266  -5.729  0.00  0.00     0.013 A 
ENDBRANCH   8  10
ENDBRANCH   4   7
ENDBRANCH   1   3
BRANCH   1  16
ATOM     16  N   UNL d   1      -0.149   0.658   0.711  0.00  0.00    -0.319 N 
ATOM     17  C   UNL d   1      -0.098   2.038   0.908  0.00  0.00     0.256 C 
ATOM     18  O   UNL d   1       0.527   2.824   0.211  0.00  0.00    -0.267 OA
ATOM     19  H   UNL d   1      -1.099   0.287   0.762  0.00  0.00     0.169 HD
BRANCH  17  20
ATOM     20  C   UNL d   1      -0.922   2.582   2.009  0.00  0.00     0.032 A 
ATOM     21  C   UNL d   1      -0.868   2.021   3.288  0.00  0.00     0.017 A 
ATOM     22  C   UNL d   1      -1.558   2.634   4.340  0.00  0.00     0.001 A 
ATOM     23  C   UNL d   1      -2.307   3.793   4.112  0.00  0.00     0.000 A 
ATOM     24  C   UNL d   1      -2.360   4.349   2.834  0.00  0.00     0.001 A 
ATOM     25  C   UNL d   1      -1.659   3.751   1.785  0.00  0.00     0.017 A 
ENDBRANCH  17  20
ENDBRANCH   1  16
BRANCH   2  26
ATOM     26  C   UNL d   1       2.826   0.582   0.972  0.00  0.00    -0.034 A 
ATOM     27  C   UNL d   1       3.171  -0.339   1.975  0.00  0.00     0.011 A 
ATOM     28  C   UNL d   1       4.037   0.028   3.012  0.00  0.00     0.001 A 
ATOM     29  C   UNL d   1       4.559   1.319   3.059  0.00  0.00     0.000 A 
ATOM     30  C   UNL d   1       4.213   2.243   2.075  0.00  0.00     0.001 A 
ATOM     31  C   UNL d   1       3.359   1.875   1.027  0.00  0.00     0.011 A 
ENDBRANCH   2  26
TORSDOF 6
