REMARK  2 active torsions:
REMARK  status: ('A' for Active; 'I' for Inactive)
REMARK    1  A    between atoms: C_14  and  C_5 
REMARK    2  A    between atoms: N_9  and  C_17 
ROOT
ATOM      1  C   UNL d   1       1.242   1.538  -0.178  0.00  0.00     0.065 A 
ATOM      2  C   UNL d   1      -1.237   1.539  -0.124  0.00  0.00     0.065 C 
ATOM      3  C   UNL d   1       1.202   0.202  -0.046  0.00  0.00     0.102 A 
ATOM      4  C   UNL d   1      -1.195   0.203  -0.005  0.00  0.00     0.102 C 
ATOM      5  C   UNL d   1      -0.005   2.325  -0.488  0.00  0.00     0.102 C 
ATOM      6  C   UNL d   1       2.486   2.309  -0.007  0.00  0.00     0.298 A 
ATOM      7  C   UNL d   1      -2.477   2.311   0.074  0.00  0.00     0.298 C 
ATOM      8  O   UNL d   1       0.002  -0.517  -0.096  0.00  0.00    -0.307 OA
ATOM      9  C   UNL d   1      -2.445  -0.544   0.140  0.00  0.00     0.033 A 
ATOM     10  C   UNL d   1       2.452  -0.544   0.100  0.00  0.00     0.033 A 
ATOM     11  O   UNL d   1      -3.628   1.588   0.329  0.00  0.00    -0.274 OA
ATOM     12  O   UNL d   1       3.637   1.587   0.259  0.00  0.00    -0.274 OA
ATOM     13  C   UNL d   1      -3.628   0.182   0.300  0.00  0.00     0.092 A 
ATOM     14  C   UNL d   1       3.635   0.181   0.253  0.00  0.00     0.092 A 
ATOM     15  O   UNL d   1      -2.487   3.536   0.045  0.00  0.00    -0.259 OA
ATOM     16  O   UNL d   1       2.499   3.533  -0.059  0.00  0.00    -0.259 OA
ATOM     17  C   UNL d   1      -2.542  -1.936   0.061  0.00  0.00     0.017 A 
ATOM     18  C   UNL d   1       2.545  -1.939   0.045  0.00  0.00     0.017 A 
ATOM     19  C   UNL d   1       4.881  -0.432   0.376  0.00  0.00     0.038 A 
ATOM     20  C   UNL d   1      -4.876  -0.430   0.405  0.00  0.00     0.038 A 
ATOM     21  C   UNL d   1       3.793  -2.570   0.146  0.00  0.00     0.001 A 
ATOM     22  C   UNL d   1      -3.792  -2.565   0.147  0.00  0.00     0.001 A 
ATOM     23  C   UNL d   1       4.959  -1.818   0.318  0.00  0.00     0.003 A 
ATOM     24  C   UNL d   1      -4.957  -1.814   0.323  0.00  0.00     0.003 A 
ENDROOT
BRANCH   5  25
ATOM     25  C   UNL d   1      -0.051   2.690  -1.980  0.00  0.00    -0.042 A 
ATOM     26  C   UNL d   1      -0.104   1.696  -2.980  0.00  0.00     0.044 A 
ATOM     27  C   UNL d   1      -0.193   2.051  -4.331  0.00  0.00     0.103 A 
ATOM     28  C   UNL d   1      -0.221   3.396  -4.709  0.00  0.00     0.036 A 
ATOM     29  C   UNL d   1      -0.157   4.384  -3.725  0.00  0.00     0.003 A 
ATOM     30  C   UNL d   1      -0.074   4.035  -2.374  0.00  0.00     0.008 A 
BRANCH  27  31
ATOM     31  N   UNL d   1      -0.272   0.999  -5.354  0.00  0.00    -0.116 N 
ATOM     32  O   UNL d   1      -0.239  -0.179  -4.973  0.00  0.00    -0.532 OA
ATOM     33  O   UNL d   1      -0.368   1.352  -6.538  0.00  0.00    -0.532 OA
ENDBRANCH  27  31
ENDBRANCH   5  25
TORSDOF 2
