REMARK  5 active torsions:
REMARK  status: ('A' for Active; 'I' for Inactive)
REMARK    1  A    between atoms: C_12  and  N_1 
REMARK    2  A    between atoms: C_7  and  C_4 
REMARK    3  A    between atoms: C_9  and  C_5 
REMARK    4  A    between atoms: O_14  and  C_9 
REMARK    5  A    between atoms: C_18  and  O_14 
ROOT
ATOM      1  C   UNL d   1      -1.910  -2.759  -0.778  0.00  0.00     0.120 C 
ATOM      2  C   UNL d   1      -0.768  -2.635  -0.068  0.00  0.00     0.043 C 
ATOM      3  C   UNL d   1      -2.180  -3.866  -1.628  0.00  0.00     0.105 C 
ATOM      4  N   UNL d   1      -2.393  -4.795  -2.295  0.00  0.00    -0.191 NA
ENDROOT
BRANCH   1   5
ATOM      5  C   UNL d   1      -2.968  -1.730  -0.598  0.00  0.00     0.303 C 
ATOM      6  O   UNL d   1      -2.881  -0.768   0.148  0.00  0.00    -0.258 OA
BRANCH   5   7
ATOM      7  O   UNL d   1      -4.070  -2.095  -1.301  0.00  0.00    -0.317 OA
BRANCH   7   8
ATOM      8  C   UNL d   1      -5.313  -1.488  -0.922  0.00  0.00     0.174 C 
ATOM      9  C   UNL d   1      -5.921  -2.316   0.196  0.00  0.00     0.034 C 
ENDBRANCH   7   8
ENDBRANCH   5   7
ENDBRANCH   1   5
BRANCH   2  10
ATOM     10  C   UNL d   1       0.292  -3.592  -0.004  0.00  0.00     0.007 A 
ATOM     11  C   UNL d   1       0.135  -4.957   0.009  0.00  0.00     0.130 A 
ATOM     12  N   UNL d   1       1.389  -5.521   0.031  0.00  0.00    -0.267 N 
ATOM     13  N   UNL d   1       2.347  -4.565   0.165  0.00  0.00    -0.298 N 
ATOM     14  C   UNL d   1       1.689  -3.398   0.109  0.00  0.00     0.034 A 
ATOM     15  HN  UNL d   1       3.350  -4.706   0.281  1.00  0.00     0.187 HD
ATOM     16  C   UNL d   1       2.445  -2.120   0.146  0.00  0.00     0.070 C 
BRANCH  12  17
ATOM     17  C   UNL d   1       1.707  -6.904  -0.066  0.00  0.00     0.056 A 
ATOM     18  C   UNL d   1       3.022  -7.334   0.155  0.00  0.00     0.031 A 
ATOM     19  C   UNL d   1       3.336  -8.693   0.072  0.00  0.00     0.002 A 
ATOM     20  C   UNL d   1       2.348  -9.625  -0.246  0.00  0.00     0.000 A 
ATOM     21  C   UNL d   1       1.042  -9.202  -0.483  0.00  0.00     0.002 A 
ATOM     22  C   UNL d   1       0.718  -7.847  -0.393  0.00  0.00     0.031 A 
ENDBRANCH  12  17
ENDBRANCH   2  10
TORSDOF 5
