REMARK  6 active torsions:
REMARK  status: ('A' for Active; 'I' for Inactive)
REMARK    1  A    between atoms: C_4  and  C_2 
REMARK    2  A    between atoms: C_22  and  C_13 
REMARK    3  A    between atoms: C_17  and  C_24 
REMARK    4  A    between atoms: O_21  and  C_17 
REMARK    5  A    between atoms: C_23  and  C_22 
REMARK    6  A    between atoms: C_24  and  C_23 
ROOT
ATOM      1  C   UNL d   1       3.654  -0.842  -0.074  0.00  0.00     0.144 A 
ATOM      2  N   UNL d   1       4.548  -0.478   0.900  0.00  0.00    -0.323 N 
ATOM      3  HN  UNL d   1       4.419   0.181   1.667  1.00  0.00     0.169 HD
ATOM      4  N   UNL d   1       4.166  -1.675  -0.996  0.00  0.00    -0.242 N 
ATOM      5  HN  UNL d   1       3.714  -2.041  -1.834  1.00  0.00     0.196 HD
ATOM      6  C   UNL d   1       5.610  -1.186   0.601  0.00  0.00     0.148 A 
ATOM      7  O   UNL d   1       5.463  -1.921  -0.537  0.00  0.00    -0.223 OA
ENDROOT
BRANCH   1   8
ATOM      8  C   UNL d   1       2.324  -0.330  -0.038  0.00  0.00     0.093 A 
ATOM      9  C   UNL d   1       1.679  -0.023   1.275  0.00  0.00     0.265 A 
ATOM     10  N   UNL d   1       0.428   0.550   1.194  0.00  0.00    -0.293 N 
ATOM     11  O   UNL d   1       2.188  -0.313   2.357  0.00  0.00    -0.267 OA
ATOM     12  C   UNL d   1      -0.220   0.658   0.002  0.00  0.00     0.149 A 
ATOM     13  C   UNL d   1      -0.324   0.885   2.378  0.00  0.00     0.145 A 
ATOM     14  N   UNL d   1       0.271   0.339  -1.143  0.00  0.00    -0.345 N 
ATOM     15  S   UNL d   1      -1.830   1.270   0.200  0.00  0.00    -0.092 SA
ATOM     16  C   UNL d   1       1.560  -0.140  -1.128  0.00  0.00     0.111 A 
ATOM     17  HN  UNL d   1      -0.261   0.435  -2.008  1.00  0.00     0.167 HD
ATOM     18  C   UNL d   1      -1.683   1.445   1.995  0.00  0.00     0.103 A 
ENDBRANCH   1   8
BRANCH   6  19
ATOM     19  C   UNL d   1       6.871  -1.345   1.365  0.00  0.00     0.087 C 
BRANCH  19  20
ATOM     20  C   UNL d   1       6.654  -1.190   2.878  0.00  0.00     0.018 C 
BRANCH  20  21
ATOM     21  C   UNL d   1       5.692  -2.213   3.494  0.00  0.00     0.110 C 
BRANCH  21  22
ATOM     22  C   UNL d   1       6.189  -3.630   3.342  0.00  0.00     0.139 C 
ATOM     23  O   UNL d   1       7.368  -3.946   3.297  0.00  0.00    -0.650 OA
BRANCH  22  24
ATOM     24  O   UNL d   1       5.193  -4.540   3.277  0.00  0.00    -0.776 OA
ATOM     25  H   UNL d   1       4.297  -4.154   3.325  0.00  0.00     0.167 HD
ENDBRANCH  22  24
ENDBRANCH  21  22
ENDBRANCH  20  21
ENDBRANCH  19  20
ENDBRANCH   6  19
TORSDOF 6
