REMARK  5 active torsions:
REMARK  status: ('A' for Active; 'I' for Inactive)
REMARK       I    between atoms: C_2  and  N_1 
REMARK    1  A    between atoms: C_4  and  N_1 
REMARK    2  A    between atoms: C_5  and  N_1 
REMARK    3  A    between atoms: C_3  and  C_2 
REMARK    4  A    between atoms: C_9  and  C_4 
REMARK    5  A    between atoms: C_13  and  C_5 
ROOT
ATOM      1  N   UNL d   1       0.788  -0.055   0.134  0.00  0.00    -0.340 N 
ATOM      2  C   UNL d   1       0.019  -0.200   1.292  0.00  0.00     0.254 C 
ATOM      3  O   UNL d   1      -1.208  -0.075   1.287  0.00  0.00    -0.267 OA
ENDROOT
BRANCH   1   4
ATOM      4  C   UNL d   1       0.083   0.325  -1.095  0.00  0.00     0.166 C 
BRANCH   4   5
ATOM      5  C   UNL d   1      -0.037  -0.758  -2.134  0.00  0.00    -0.025 A 
ATOM      6  C   UNL d   1       0.109  -0.434  -3.483  0.00  0.00     0.096 A 
ATOM      7  N   UNL d   1      -0.074  -1.300  -4.505  0.00  0.00    -0.375 N 
ATOM      8  C   UNL d   1      -0.444  -2.554  -4.171  0.00  0.00     0.087 A 
ATOM      9  HN  UNL d   1       0.061  -1.020  -5.476  1.00  0.00     0.164 HD
ATOM     10  C   UNL d   1      -0.622  -2.981  -2.867  0.00  0.00     0.018 A 
ATOM     11  C   UNL d   1      -0.417  -2.067  -1.833  0.00  0.00     0.011 A 
ENDBRANCH   4   5
ENDBRANCH   1   4
BRANCH   1  12
ATOM     12  C   UNL d   1       2.253  -0.057   0.080  0.00  0.00     0.165 C 
BRANCH  12  13
ATOM     13  C   UNL d   1       2.927   1.224   0.527  0.00  0.00    -0.040 A 
ATOM     14  C   UNL d   1       4.212   1.153   1.090  0.00  0.00     0.009 A 
ATOM     15  C   UNL d   1       4.920   2.314   1.415  0.00  0.00     0.001 A 
ATOM     16  C   UNL d   1       4.359   3.564   1.170  0.00  0.00     0.000 A 
ATOM     17  C   UNL d   1       3.086   3.654   0.617  0.00  0.00     0.001 A 
ATOM     18  C   UNL d   1       2.374   2.495   0.305  0.00  0.00     0.009 A 
ENDBRANCH  12  13
ENDBRANCH   1  12
BRANCH   2  19
ATOM     19  C   UNL d   1       0.631  -0.488   2.612  0.00  0.00     0.032 A 
ATOM     20  C   UNL d   1       0.231   0.305   3.700  0.00  0.00     0.018 A 
ATOM     21  C   UNL d   1       0.671   0.009   4.993  0.00  0.00     0.025 A 
ATOM     22  C   UNL d   1       1.510  -1.083   5.201  0.00  0.00     0.034 A 
ATOM     23  C   UNL d   1       1.898  -1.889   4.130  0.00  0.00     0.025 A 
ATOM     24 CL   UNL d   1       2.042  -1.462   6.793  0.00  0.00    -0.084 Cl
ATOM     25  C   UNL d   1       1.440  -1.605   2.837  0.00  0.00     0.018 A 
ENDBRANCH   2  19
TORSDOF 5
