REMARK  2 active torsions:
REMARK  status: ('A' for Active; 'I' for Inactive)
REMARK    1  A    between atoms: C_2  and  N_1 
REMARK    2  A    between atoms: C_6  and  C_3 
ROOT
ATOM      1  C   UNL d   1      -1.795  -0.061   0.129  0.00  0.00    -0.034 A 
ATOM      2  C   UNL d   1      -3.206  -1.116   2.295  0.00  0.00     0.034 A 
ATOM      3 CL   UNL d   1      -4.054  -1.787   3.632  0.00  0.00    -0.084 Cl
ATOM      4  C   UNL d   1      -2.789  -1.024  -0.081  0.00  0.00     0.013 A 
ATOM      5  C   UNL d   1      -1.522   0.382   1.428  0.00  0.00     0.013 A 
ATOM      6  C   UNL d   1      -3.493  -1.552   1.003  0.00  0.00     0.024 A 
ATOM      7  C   UNL d   1      -2.228  -0.146   2.511  0.00  0.00     0.024 A 
ENDROOT
BRANCH   1   8
ATOM      8  C   UNL d   1      -1.024   0.460  -1.002  0.00  0.00     0.042 C 
ATOM      9  C   UNL d   1      -1.406   1.522  -1.732  0.00  0.00     0.077 C 
ATOM     10  C   UNL d   1      -2.612   2.383  -1.556  0.00  0.00     0.075 C 
BRANCH   9  11
ATOM     11  N   UNL d   1      -0.533   1.891  -2.847  0.00  0.00    -0.120 N 
ATOM     12  O   UNL d   1       0.674   1.626  -2.753  0.00  0.00    -0.532 OA
ATOM     13  O   UNL d   1      -1.061   2.446  -3.818  0.00  0.00    -0.532 OA
ENDBRANCH   9  11
ENDBRANCH   1   8
TORSDOF 2
