REMARK  2 active torsions:
REMARK  status: ('A' for Active; 'I' for Inactive)
REMARK    1  A    between atoms: C_7  and  C_2 
REMARK    2  A    between atoms: C_11  and  C_6 
ROOT
ATOM      1  C   UNL d   1      -0.469  -0.408   0.002  0.00  0.00     0.124 A 
ATOM      2  C   UNL d   1       0.281  -1.536  -0.037  0.00  0.00     0.009 A 
ATOM      3  C   UNL d   1       0.219   0.918   0.035  0.00  0.00     0.267 A 
ATOM      4  N   UNL d   1       1.591   0.902   0.068  0.00  0.00    -0.322 N 
ATOM      5  C   UNL d   1       1.740  -1.433   0.002  0.00  0.00     0.045 A 
ATOM      6  C   UNL d   1       2.346  -0.238   0.056  0.00  0.00     0.046 A 
ATOM      7  C   UNL d   1      -1.893  -0.403   0.010  0.00  0.00     0.106 C 
ATOM      8  N   UNL d   1      -3.053  -0.432   0.034  0.00  0.00    -0.191 NA
ATOM      9  O   UNL d   1      -0.395   1.980   0.031  0.00  0.00    -0.266 OA
ATOM     10  H   UNL d   1       2.044   1.809   0.088  0.00  0.00     0.169 HD
ENDROOT
BRANCH   2  11
ATOM     11  C   UNL d   1      -0.369  -2.813  -0.115  0.00  0.00     0.016 A 
ATOM     12  S   UNL d   1      -0.702  -3.522  -1.651  0.00  0.00    -0.101 SA
ATOM     13  C   UNL d   1      -1.391  -4.915  -0.941  0.00  0.00     0.050 A 
ATOM     14  C   UNL d   1      -1.375  -4.856   0.433  0.00  0.00     0.008 A 
ATOM     15  C   UNL d   1      -0.792  -3.644   0.909  0.00  0.00     0.020 A 
ENDBRANCH   2  11
BRANCH   6  16
ATOM     16  C   UNL d   1       3.806  -0.102   0.096  0.00  0.00    -0.009 A 
ATOM     17  C   UNL d   1       4.536   0.008  -1.096  0.00  0.00     0.017 A 
ATOM     18  C   UNL d   1       5.926   0.146  -1.059  0.00  0.00     0.043 A 
ATOM     19  C   UNL d   1       6.580   0.177   0.167  0.00  0.00     0.116 A 
ATOM     20  C   UNL d   1       5.872   0.070   1.359  0.00  0.00     0.043 A 
ATOM     21  F   UNL d   1       7.912   0.314   0.202  0.00  0.00    -0.206 F 
ATOM     22  C   UNL d   1       4.482  -0.071   1.325  0.00  0.00     0.017 A 
ENDBRANCH   6  16
TORSDOF 2
