REMARK  7 active torsions:
REMARK  status: ('A' for Active; 'I' for Inactive)
REMARK    1  A    between atoms: C_4  and  N_1 
REMARK    2  A    between atoms: C_8  and  C_4 
REMARK    3  A    between atoms: C_19  and  C_4 
REMARK    4  A    between atoms: N_5  and  C_9 
REMARK    5  A    between atoms: C_14  and  C_8 
REMARK    6  A    between atoms: O_20  and  C_8 
REMARK    7  A    between atoms: O_23  and  C_19 
ROOT
ATOM      1  C   UNL d   1       3.341   0.011  -0.116  0.00  0.00     0.153 C 
ENDROOT
BRANCH   1   2
ATOM      2  N   UNL d   1       1.867   0.012  -0.036  0.00  0.00    -0.270 N 
ATOM      3  C   UNL d   1       1.030   0.610  -0.936  0.00  0.00     0.262 A 
ATOM      4  C   UNL d   1      -0.336   0.330  -0.508  0.00  0.00     0.048 A 
ATOM      5  O   UNL d   1       1.328   1.231  -1.939  0.00  0.00    -0.267 OA
ATOM      6  C   UNL d   1      -1.543   0.704  -1.063  0.00  0.00     0.018 A 
ATOM      7  C   UNL d   1      -0.259  -0.459   0.624  0.00  0.00     0.048 A 
ATOM      8  C   UNL d   1      -2.703   0.242  -0.433  0.00  0.00     0.001 A 
ATOM      9  C   UNL d   1      -2.626  -0.571   0.718  0.00  0.00     0.001 A 
ATOM     10  C   UNL d   1      -1.389  -0.930   1.263  0.00  0.00     0.018 A 
ATOM     11  C   UNL d   1       1.157  -0.659   0.926  0.00  0.00     0.262 A 
ATOM     12  O   UNL d   1       1.571  -1.308   1.866  0.00  0.00    -0.267 OA
ENDBRANCH   1   2
BRANCH   1  13
ATOM     13  C   UNL d   1       3.892  -0.659  -1.411  0.00  0.00     0.176 C 
BRANCH  13  14
ATOM     14  C   UNL d   1       3.454  -2.097  -1.683  0.00  0.00    -0.028 A 
ATOM     15  C   UNL d   1       3.339  -2.573  -3.003  0.00  0.00     0.012 A 
ATOM     16  C   UNL d   1       3.034  -3.913  -3.271  0.00  0.00     0.037 A 
ATOM     17  C   UNL d   1       2.846  -4.802  -2.208  0.00  0.00     0.102 A 
ATOM     18  C   UNL d   1       2.957  -4.357  -0.888  0.00  0.00     0.037 A 
ATOM     19  C   UNL d   1       3.270  -3.017  -0.634  0.00  0.00     0.012 A 
BRANCH  17  20
ATOM     20  N   UNL d   1       2.558  -6.216  -2.477  0.00  0.00    -0.116 N 
ATOM     21  O   UNL d   1       2.485  -6.575  -3.661  0.00  0.00    -0.532 OA
ATOM     22  O   UNL d   1       2.406  -6.970  -1.504  0.00  0.00    -0.532 OA
ENDBRANCH  17  20
ENDBRANCH  13  14
BRANCH  13  23
ATOM     23  O   UNL d   1       3.700   0.158  -2.571  0.00  0.00    -0.389 OA
ATOM     24  H   UNL d   1       2.807   0.557  -2.541  0.00  0.00     0.210 HD
ENDBRANCH  13  23
ENDBRANCH   1  13
BRANCH   1  25
ATOM     25  C   UNL d   1       3.902   1.436   0.045  0.00  0.00     0.193 C 
BRANCH  25  26
ATOM     26  O   UNL d   1       3.686   1.916   1.374  0.00  0.00    -0.399 OA
ATOM     27  H   UNL d   1       2.747   1.788   1.595  0.00  0.00     0.209 HD
ENDBRANCH  25  26
ENDBRANCH   1  25
TORSDOF 7
