REMARK  6 active torsions:
REMARK  status: ('A' for Active; 'I' for Inactive)
REMARK    1  A    between atoms: C_6  and  S_1 
REMARK    2  A    between atoms: N_9  and  S_1 
REMARK    3  A    between atoms: C_2  and  C_13 
REMARK    4  A    between atoms: C_18  and  C_5 
REMARK    5  A    between atoms: C_13  and  N_9 
REMARK    6  A    between atoms: N_14  and  C_10 
ROOT
ATOM      1  S   UNL d   1       0.880   0.112  -0.150  0.00  0.00     0.260 S 
ATOM      2  O   UNL d   1       0.056   1.274   0.086  0.00  0.00    -0.200 OA
ATOM      3  O   UNL d   1       2.324   0.186  -0.113  0.00  0.00    -0.200 OA
ENDROOT
BRANCH   1   4
ATOM      4  C   UNL d   1       0.409  -0.544  -1.708  0.00  0.00     0.095 A 
ATOM      5  C   UNL d   1       1.362  -0.912  -2.636  0.00  0.00     0.115 A 
ATOM      6  N   UNL d   1       1.056  -1.431  -3.856  0.00  0.00    -0.351 N 
ATOM      7  C   UNL d   1      -0.248  -1.547  -4.193  0.00  0.00     0.103 A 
ATOM      8  HN  UNL d   1       1.791  -1.726  -4.498  1.00  0.00     0.166 HD
ATOM      9  C   UNL d   1      -1.255  -1.174  -3.293  0.00  0.00     0.050 A 
ATOM     10  C   UNL d   1      -0.930  -0.671  -2.037  0.00  0.00     0.030 A 
BRANCH   7  11
ATOM     11  N   UNL d   1      -0.616  -2.102  -5.413  0.00  0.00    -0.363 N 
ATOM     12  C   UNL d   1       0.366  -2.946  -6.114  0.00  0.00     0.150 C 
ATOM     13  C   UNL d   1       1.100  -2.196  -7.233  0.00  0.00     0.187 C 
ATOM     14  O   UNL d   1       0.179  -1.547  -8.124  0.00  0.00    -0.388 OA
ATOM     15  C   UNL d   1      -0.597  -0.586  -7.395  0.00  0.00     0.187 C 
ATOM     16  C   UNL d   1      -1.440  -1.259  -6.301  0.00  0.00     0.150 C 
ENDBRANCH   7  11
ENDBRANCH   1   4
BRANCH   1  17
ATOM     17  N   UNL d   1       0.359  -1.048   0.927  0.00  0.00    -0.311 N 
ATOM     18  H   UNL d   1      -0.443  -0.797   1.501  0.00  0.00     0.172 HD
BRANCH  17  19
ATOM     19  C   UNL d   1       0.903  -2.390   0.977  0.00  0.00     0.176 C 
BRANCH  19  20
ATOM     20  C   UNL d   1       2.293  -2.410   1.489  0.00  0.00     0.021 A 
ATOM     21  C   UNL d   1       2.830  -1.931   2.730  0.00  0.00     0.075 A 
ATOM     22  N   UNL d   1       4.159  -2.128   2.769  0.00  0.00    -0.260 N 
ATOM     23  O   UNL d   1       4.505  -2.726   1.581  0.00  0.00    -0.242 OA
ATOM     24  HN  UNL d   1       4.788  -1.882   3.533  1.00  0.00     0.195 HD
ATOM     25  C   UNL d   1       3.398  -2.901   0.822  0.00  0.00     0.083 A 
ATOM     26  C   UNL d   1       3.603  -3.530  -0.497  0.00  0.00     0.079 C 
BRANCH  21  27
ATOM     27  C   UNL d   1       2.149  -1.290   3.857  0.00  0.00    -0.007 A 
ATOM     28  C   UNL d   1       2.759  -0.217   4.527  0.00  0.00     0.014 A 
ATOM     29  C   UNL d   1       2.124   0.405   5.605  0.00  0.00     0.001 A 
ATOM     30  C   UNL d   1       0.871  -0.036   6.025  0.00  0.00     0.000 A 
ATOM     31  C   UNL d   1       0.260  -1.108   5.378  0.00  0.00     0.001 A 
ATOM     32  C   UNL d   1       0.900  -1.737   4.306  0.00  0.00     0.014 A 
ENDBRANCH  21  27
ENDBRANCH  19  20
ENDBRANCH  17  19
ENDBRANCH   1  17
TORSDOF 6
