REMARK  4 active torsions:
REMARK  status: ('A' for Active; 'I' for Inactive)
REMARK    1  A    between atoms: C_13  and  N_1 
REMARK    2  A    between atoms: C_9  and  C_5 
REMARK    3  A    between atoms: C_10  and  C_6 
REMARK    4  A    between atoms: C_15  and  C_13 
ROOT
ATOM      1  N   UNL d   1      -0.240  -1.065   0.033  0.00  0.00    -0.326 N 
ATOM      2  C   UNL d   1       1.009  -0.467  -0.027  0.00  0.00     0.126 A 
ATOM      3  N   UNL d   1       0.883   0.841  -0.053  0.00  0.00    -0.339 N 
ATOM      4  HN  UNL d   1       1.639   1.524  -0.101  1.00  0.00     0.167 HD
ATOM      5  C   UNL d   1      -0.460   1.112  -0.004  0.00  0.00     0.072 A 
ATOM      6  C   UNL d   1      -1.218  -0.060   0.009  0.00  0.00     0.074 A 
ATOM      7  C   UNL d   1       2.306  -1.103  -0.075  0.00  0.00     0.049 A 
ATOM      8  S   UNL d   1       3.574  -0.390  -1.000  0.00  0.00    -0.098 SA
ATOM      9  C   UNL d   1       2.763  -2.242   0.571  0.00  0.00     0.023 A 
ATOM     10  C   UNL d   1       4.700  -1.587  -0.531  0.00  0.00     0.050 A 
ATOM     11  C   UNL d   1       4.135  -2.522   0.302  0.00  0.00     0.009 A 
ENDROOT
BRANCH   5  12
ATOM     12  C   UNL d   1      -0.923   2.493  -0.029  0.00  0.00    -0.007 A 
ATOM     13  C   UNL d   1      -2.006   2.934   0.742  0.00  0.00     0.014 A 
ATOM     14  C   UNL d   1      -2.440   4.260   0.661  0.00  0.00     0.001 A 
ATOM     15  C   UNL d   1      -1.778   5.165  -0.166  0.00  0.00     0.000 A 
ATOM     16  C   UNL d   1      -0.674   4.750  -0.907  0.00  0.00     0.001 A 
ATOM     17  C   UNL d   1      -0.248   3.422  -0.836  0.00  0.00     0.014 A 
ENDBRANCH   5  12
BRANCH   6  18
ATOM     18  C   UNL d   1      -2.683  -0.268  -0.065  0.00  0.00    -0.007 A 
ATOM     19  C   UNL d   1      -3.474   0.542  -0.898  0.00  0.00     0.014 A 
ATOM     20  C   UNL d   1      -4.867   0.406  -0.942  0.00  0.00     0.001 A 
ATOM     21  C   UNL d   1      -5.495  -0.581  -0.192  0.00  0.00     0.000 A 
ATOM     22  C   UNL d   1      -4.733  -1.411   0.622  0.00  0.00     0.001 A 
ATOM     23  C   UNL d   1      -3.347  -1.234   0.703  0.00  0.00     0.014 A 
ENDBRANCH   6  18
BRANCH   1  24
ATOM     24  C   UNL d   1      -0.473  -2.504  -0.007  0.00  0.00     0.157 C 
BRANCH  24  25
ATOM     25  C   UNL d   1      -0.525  -3.182   1.345  0.00  0.00    -0.017 C 
ATOM     26  C   UNL d   1      -0.355  -2.625   2.554  0.00  0.00     0.008 C 
ENDBRANCH  24  25
ENDBRANCH   1  24
TORSDOF 4
