REMARK  9 active torsions:
REMARK  status: ('A' for Active; 'I' for Inactive)
REMARK    1  A    between atoms: C_4  and  C_1 
REMARK    2  A    between atoms: C_9  and  C_1 
REMARK    3  A    between atoms: C_2  and  C_7 
REMARK    4  A    between atoms: C_3  and  C_8 
REMARK    5  A    between atoms: C_11  and  C_4 
REMARK    6  A    between atoms: N_12  and  N_5 
REMARK    7  A    between atoms: O_24  and  C_9 
REMARK    8  A    between atoms: O_25  and  C_11 
REMARK    9  A    between atoms: C_13  and  N_12 
ROOT
ATOM      1  C   UNL d   1      -1.597  -2.288   4.090  0.00  0.00     0.050 A 
ATOM      2  C   UNL d   1      -3.420  -2.678   2.514  0.00  0.00     0.050 A 
ATOM      3  C   UNL d   1      -2.815  -2.902   3.761  0.00  0.00     0.032 A 
ATOM      4  C   UNL d   1      -1.556  -1.232   1.883  0.00  0.00     0.029 A 
ATOM      5  C   UNL d   1      -0.987  -1.450   3.146  0.00  0.00     0.041 A 
ATOM      6  C   UNL d   1      -2.794  -1.819   1.595  0.00  0.00     0.041 A 
ENDROOT
BRANCH   4   7
ATOM      7  N   UNL d   1      -0.926  -0.393   0.928  0.00  0.00    -0.206 NA
ATOM      8  H   UNL d   1      -1.365  -0.521   0.004  0.00  0.00     0.153 HD
BRANCH   7   9
ATOM      9  N   UNL d   1       0.437  -0.479   0.931  0.00  0.00    -0.315 N 
ATOM     10  C   UNL d   1       1.102   0.226   0.059  0.00  0.00     0.105 C 
ATOM     11  HN  UNL d   1       0.922  -1.079   1.598  1.00  0.00     0.181 HD
BRANCH  10  12
ATOM     12  C   UNL d   1       0.547   1.238  -0.904  0.00  0.00     0.175 C 
BRANCH  12  13
ATOM     13  C   UNL d   1      -0.335   0.652  -1.968  0.00  0.00     0.264 C 
ATOM     14  O   UNL d   1      -1.122  -0.269  -1.786  0.00  0.00    -0.265 OA
BRANCH  13  15
ATOM     15  O   UNL d   1      -0.211   1.349  -3.130  0.00  0.00    -0.326 OA
ATOM     16  C   UNL d   1      -1.065   0.897  -4.184  0.00  0.00     0.213 C 
ENDBRANCH  13  15
ENDBRANCH  12  13
ENDBRANCH  10  12
BRANCH  10  17
ATOM     17  C   UNL d   1       2.610   0.019   0.001  0.00  0.00     0.306 C 
ATOM     18  O   UNL d   1       3.223   0.098  -1.049  0.00  0.00    -0.258 OA
BRANCH  17  19
ATOM     19  O   UNL d   1       3.103  -0.230   1.229  0.00  0.00    -0.322 OA
ATOM     20  C   UNL d   1       4.498  -0.526   1.264  0.00  0.00     0.213 C 
ENDBRANCH  17  19
ENDBRANCH  10  17
ENDBRANCH   7   9
ENDBRANCH   4   7
BRANCH   1  21
ATOM     21  C   UNL d   1      -0.924  -2.528   5.418  0.00  0.00     0.417 C 
ATOM     22  F   UNL d   1      -1.617  -3.376   6.229  0.00  0.00    -0.166 F 
ATOM     23  F   UNL d   1       0.317  -3.074   5.285  0.00  0.00    -0.166 F 
ATOM     24  F   UNL d   1      -0.755  -1.383   6.136  0.00  0.00    -0.166 F 
ENDBRANCH   1  21
BRANCH   2  25
ATOM     25  C   UNL d   1      -4.708  -3.369   2.138  0.00  0.00     0.417 C 
ATOM     26  F   UNL d   1      -5.169  -4.219   3.097  0.00  0.00    -0.166 F 
ATOM     27  F   UNL d   1      -5.722  -2.493   1.897  0.00  0.00    -0.166 F 
ATOM     28  F   UNL d   1      -4.584  -4.118   1.007  0.00  0.00    -0.166 F 
ENDBRANCH   2  25
TORSDOF 9
