REMARK  1 active torsions:
REMARK  status: ('A' for Active; 'I' for Inactive)
REMARK    1  A    between atoms: C_8  and  C_1 
ROOT
ATOM      1  C   UNL d   1       2.085   0.022  -0.021  0.00  0.00     0.051 A 
ATOM      2  S   UNL d   1       0.727   1.080  -0.018  0.00  0.00    -0.076 SA
ATOM      3  C   UNL d   1      -0.388  -0.210  -0.004  0.00  0.00     0.086 A 
ATOM      4  C   UNL d   1       1.672  -1.298  -0.008  0.00  0.00     0.025 A 
ATOM      5  N   UNL d   1      -2.961   0.081   0.003  0.00  0.00    -0.191 NA
ATOM      6  C   UNL d   1      -1.805  -0.032   0.000  0.00  0.00     0.107 C 
ATOM      7  C   UNL d   1       0.251  -1.431   0.003  0.00  0.00     0.032 A 
ENDROOT
BRANCH   1   8
ATOM      8  C   UNL d   1       3.428   0.600  -0.037  0.00  0.00     0.162 C 
ATOM      9  O   UNL d   1       3.645   1.814  -0.047  0.00  0.00    -0.292 OA
ATOM     10  C   UNL d   1       4.615  -0.336  -0.042  0.00  0.00     0.097 C 
ENDBRANCH   1   8
TORSDOF 1
