REMARK  7 active torsions:
REMARK  status: ('A' for Active; 'I' for Inactive)
REMARK    1  A    between atoms: C_2  and  C_1 
REMARK    2  A    between atoms: N_3  and  C_6 
REMARK       I    between atoms: C_7  and  N_3 
REMARK    3  A    between atoms: C_19  and  C_7 
REMARK    4  A    between atoms: C_9  and  C_20 
REMARK    5  A    between atoms: O_18  and  C_9 
REMARK    6  A    between atoms: S_16  and  C_19 
REMARK    7  A    between atoms: C_20  and  S_16 
ROOT
ATOM      1  C   UNL d   1       0.237   0.832   1.098  0.00  0.00     0.063 A 
ATOM      2  N   UNL d   1      -0.621   1.034   3.347  0.00  0.00    -0.351 N 
ATOM      3  HN  UNL d   1      -1.126   0.622   4.132  1.00  0.00     0.166 HD
ATOM      4  C   UNL d   1      -0.121   2.279   3.427  0.00  0.00     0.107 A 
ATOM      5  C   UNL d   1      -0.440   0.339   2.200  0.00  0.00     0.106 A 
ATOM      6  C   UNL d   1       0.752   2.127   1.195  0.00  0.00     0.021 A 
ATOM      7  C   UNL d   1       0.563   2.863   2.367  0.00  0.00     0.049 A 
ENDROOT
BRANCH   4   8
ATOM      8  N   UNL d   1      -0.304   3.039   4.591  0.00  0.00    -0.312 N 
ATOM      9  C   UNL d   1      -0.843   2.554   5.763  0.00  0.00     0.232 C 
ATOM     10  O   UNL d   1      -1.151   1.387   6.013  0.00  0.00    -0.272 OA
ATOM     11  H   UNL d   1      -0.022   4.009   4.550  0.00  0.00     0.170 HD
BRANCH   9  12
ATOM     12  C   UNL d   1      -1.107   3.625   6.809  0.00  0.00     0.177 C 
BRANCH  12  13
ATOM     13  S   UNL d   1      -2.846   4.171   6.738  0.00  0.00    -0.149 SA
BRANCH  13  14
ATOM     14  C   UNL d   1      -3.734   2.584   6.937  0.00  0.00     0.184 C 
BRANCH  14  15
ATOM     15  C   UNL d   1      -3.419   1.894   8.246  0.00  0.00     0.149 C 
ATOM     16  O   UNL d   1      -3.962   2.168   9.307  0.00  0.00    -0.649 OA
BRANCH  15  17
ATOM     17  O   UNL d   1      -2.457   0.945   8.164  0.00  0.00    -0.776 OA
ATOM     18  H   UNL d   1      -2.044   0.846   7.268  0.00  0.00     0.167 HD
ENDBRANCH  15  17
ENDBRANCH  14  15
ENDBRANCH  13  14
ENDBRANCH  12  13
ENDBRANCH   9  12
ENDBRANCH   4   8
BRANCH   1  19
ATOM     19  C   UNL d   1       0.410  -0.002  -0.133  0.00  0.00     0.418 C 
ATOM     20  F   UNL d   1      -0.219  -1.207  -0.071  0.00  0.00    -0.166 F 
ATOM     21  F   UNL d   1       1.717  -0.275  -0.395  0.00  0.00    -0.166 F 
ATOM     22  F   UNL d   1      -0.073   0.614  -1.248  0.00  0.00    -0.166 F 
ENDBRANCH   1  19
TORSDOF 7
