REMARK  5 active torsions:
REMARK  status: ('A' for Active; 'I' for Inactive)
REMARK    1  A    between atoms: C_9  and  C_1 
REMARK    2  A    between atoms: C_6  and  N_2 
REMARK    3  A    between atoms: C_7  and  C_11 
REMARK    4  A    between atoms: C_8  and  C_10 
REMARK    5  A    between atoms: O_23  and  C_9 
ROOT
ATOM      1  C   UNL d   1       2.041  -1.540  -0.088  0.00  0.00     0.041 A 
ATOM      2  C   UNL d   1       3.124  -3.676   0.410  0.00  0.00     0.050 A 
ATOM      3  C   UNL d   1       4.224  -2.062  -1.053  0.00  0.00     0.050 A 
ATOM      4  C   UNL d   1       2.067  -2.768   0.588  0.00  0.00     0.046 A 
ATOM      5  C   UNL d   1       3.123  -1.199  -0.912  0.00  0.00     0.046 A 
ATOM      6  C   UNL d   1       4.207  -3.304  -0.398  0.00  0.00     0.032 A 
ENDROOT
BRANCH   1   7
ATOM      7  N   UNL d   1       0.903  -0.672   0.019  0.00  0.00    -0.319 N 
ATOM      8  C   UNL d   1       0.910   0.727   0.046  0.00  0.00     0.030 A 
ATOM      9  C   UNL d   1      -0.408   1.195   0.042  0.00  0.00     0.062 A 
ATOM     10  C   UNL d   1       2.142   1.579   0.146  0.00  0.00     0.070 C 
ATOM     11  C   UNL d   1      -1.230   0.044   0.082  0.00  0.00     0.045 A 
ATOM     12  C   UNL d   1      -0.431  -1.082   0.065  0.00  0.00     0.014 A 
ATOM     13  C   UNL d   1      -0.918  -2.491  -0.024  0.00  0.00     0.068 C 
BRANCH   9  14
ATOM     14  C   UNL d   1      -0.802   2.609   0.018  0.00  0.00     0.178 C 
ATOM     15  O   UNL d   1      -0.014   3.542  -0.027  0.00  0.00    -0.646 OA
BRANCH  14  16
ATOM     16  O   UNL d   1      -2.143   2.841   0.037  0.00  0.00    -0.773 OA
ATOM     17  H   UNL d   1      -2.674   2.029   0.060  0.00  0.00     0.167 HD
ENDBRANCH  14  16
ENDBRANCH   9  14
ENDBRANCH   1   7
BRANCH   2  18
ATOM     18  C   UNL d   1       3.088  -5.044   1.053  0.00  0.00     0.417 C 
ATOM     19  F   UNL d   1       1.930  -5.298   1.724  0.00  0.00    -0.166 F 
ATOM     20  F   UNL d   1       3.211  -6.043   0.136  0.00  0.00    -0.166 F 
ATOM     21  F   UNL d   1       4.093  -5.230   1.950  0.00  0.00    -0.166 F 
ENDBRANCH   2  18
BRANCH   3  22
ATOM     22  C   UNL d   1       5.407  -1.684  -1.915  0.00  0.00     0.417 C 
ATOM     23  F   UNL d   1       5.300  -0.449  -2.477  0.00  0.00    -0.166 F 
ATOM     24  F   UNL d   1       6.575  -1.679  -1.217  0.00  0.00    -0.166 F 
ATOM     25  F   UNL d   1       5.591  -2.553  -2.948  0.00  0.00    -0.166 F 
ENDBRANCH   3  22
TORSDOF 5
