REMARK  7 active torsions:
REMARK  status: ('A' for Active; 'I' for Inactive)
REMARK    1  A    between atoms: C_6  and  C_1 
REMARK    2  A    between atoms: C_11  and  C_2 
REMARK    3  A    between atoms: C_3  and  C_12 
REMARK       I    between atoms: C_4  and  N_7 
REMARK       I    between atoms: N_9  and  C_4 
REMARK    4  A    between atoms: N_7  and  C_15 
REMARK    5  A    between atoms: C_12  and  N_9 
REMARK    6  A    between atoms: O_19  and  C_11 
REMARK    7  A    between atoms: C_20  and  O_19 
ROOT
ATOM      1  C   UNL d   1       1.058  -5.153  -1.055  0.00  0.00     0.321 C 
ATOM      2  N   UNL d   1       0.152  -5.365  -0.056  0.00  0.00    -0.309 N 
ATOM      3  N   UNL d   1       1.652  -3.933  -1.135  0.00  0.00    -0.338 N 
ATOM      4  O   UNL d   1       1.406  -5.963  -1.913  0.00  0.00    -0.247 OA
ATOM      5  H   UNL d   1       0.207  -4.744   0.739  0.00  0.00     0.170 HD
ATOM      6  H   UNL d   1       2.314  -3.920  -1.900  0.00  0.00     0.164 HD
ENDROOT
BRANCH   3   7
ATOM      7  C   UNL d   1       1.307  -2.649  -0.567  0.00  0.00     0.171 C 
BRANCH   7   8
ATOM      8  C   UNL d   1       2.024  -2.342   0.724  0.00  0.00     0.009 A 
ATOM      9  C   UNL d   1       2.305  -1.087   1.275  0.00  0.00    -0.019 A 
ATOM     10  C   UNL d   1       2.966  -1.224   2.547  0.00  0.00     0.017 A 
ATOM     11  C   UNL d   1       3.166  -2.534   2.914  0.00  0.00     0.051 A 
ATOM     12  S   UNL d   1       2.564  -3.613   1.751  0.00  0.00    -0.104 SA
BRANCH   9  13
ATOM     13  C   UNL d   1       1.963   0.268   0.683  0.00  0.00     0.215 C 
BRANCH  13  14
ATOM     14  O   UNL d   1       3.152   1.017   0.383  0.00  0.00    -0.347 OA
BRANCH  14  15
ATOM     15  C   UNL d   1       3.031   2.195  -0.292  0.00  0.00     0.069 A 
ATOM     16  C   UNL d   1       4.172   3.006  -0.264  0.00  0.00     0.038 A 
ATOM     17  C   UNL d   1       4.224   4.209  -0.977  0.00  0.00     0.026 A 
ATOM     18  C   UNL d   1       3.126   4.605  -1.734  0.00  0.00     0.034 A 
ATOM     19  C   UNL d   1       1.976   3.823  -1.755  0.00  0.00     0.026 A 
ATOM     20 CL   UNL d   1       3.200   6.052  -2.663  0.00  0.00    -0.084 Cl
ATOM     21  C   UNL d   1       1.924   2.622  -1.028  0.00  0.00     0.038 A 
ENDBRANCH  14  15
ENDBRANCH  13  14
ENDBRANCH   9  13
ENDBRANCH   7   8
ENDBRANCH   3   7
BRANCH   2  22
ATOM     22  C   UNL d   1      -0.657  -6.534   0.087  0.00  0.00     0.037 A 
ATOM     23  C   UNL d   1      -0.812  -7.465  -0.943  0.00  0.00     0.045 A 
ATOM     24  C   UNL d   1      -1.720  -8.532  -0.851  0.00  0.00     0.050 A 
ATOM     25  C   UNL d   1      -2.413  -8.726   0.349  0.00  0.00     0.016 A 
ATOM     26  C   UNL d   1      -2.235  -7.838   1.411  0.00  0.00     0.003 A 
ATOM     27  C   UNL d   1      -1.378  -6.735   1.273  0.00  0.00     0.029 A 
BRANCH  24  28
ATOM     28  C   UNL d   1      -2.013  -9.368  -2.072  0.00  0.00     0.417 C 
ATOM     29  F   UNL d   1      -1.248  -9.052  -3.154  0.00  0.00    -0.166 F 
ATOM     30  F   UNL d   1      -3.305  -9.218  -2.486  0.00  0.00    -0.166 F 
ATOM     31  F   UNL d   1      -1.840 -10.703  -1.869  0.00  0.00    -0.166 F 
ENDBRANCH  24  28
ENDBRANCH   2  22
TORSDOF 7
