REMARK  3 active torsions:
REMARK  status: ('A' for Active; 'I' for Inactive)
REMARK    1  A    between atoms: C_8  and  C_1 
REMARK    2  A    between atoms: C_4  and  N_13 
REMARK    3  A    between atoms: C_15  and  C_5 
REMARK       I    between atoms: N_12  and  C_8 
ROOT
ATOM      1  C   UNL d   1       2.220   1.638  -0.159  0.00  0.00     0.271 C 
ATOM      2  N   UNL d   1       2.108   3.033  -0.305  0.00  0.00    -0.343 N 
ATOM      3  N   UNL d   1       2.518   5.976  -0.151  0.00  0.00     0.105 N 
ATOM      4  O   UNL d   1       2.695   0.942  -1.059  0.00  0.00    -0.266 OA
ATOM      5  C   UNL d   1       1.457   3.868   0.704  0.00  0.00     0.156 C 
ATOM      6  C   UNL d   1       3.091   3.666  -1.184  0.00  0.00     0.156 C 
ATOM      7  C   UNL d   1       3.054   5.215  -1.287  0.00  0.00     0.293 C 
ATOM      8  C   UNL d   1       1.276   5.327   0.296  0.00  0.00     0.293 C 
ENDROOT
BRANCH   1   9
ATOM      9  C   UNL d   1       1.811   1.019   1.122  0.00  0.00     0.108 A 
ATOM     10  N   UNL d   1       1.733   1.737   2.311  0.00  0.00    -0.345 N 
ATOM     11  C   UNL d   1       1.498   0.966   3.347  0.00  0.00     0.085 A 
ATOM     12  HN  UNL d   1       1.846   2.749   2.371  1.00  0.00     0.167 HD
ATOM     13  S   UNL d   1       1.247  -0.685   2.942  0.00  0.00    -0.081 SA
ATOM     14  C   UNL d   1       1.568  -0.333   1.292  0.00  0.00     0.087 A 
BRANCH  11  15
ATOM     15  C   UNL d   1       1.440   1.479   4.727  0.00  0.00    -0.002 A 
ATOM     16  C   UNL d   1       1.798   0.695   5.836  0.00  0.00     0.024 A 
ATOM     17  C   UNL d   1       1.764   1.269   7.098  0.00  0.00    -0.022 A 
ATOM     18  C   UNL d   1       2.158   0.696   8.404  0.00  0.00     0.068 C 
ATOM     19  C   UNL d   1       1.399   2.595   7.275  0.00  0.00     0.075 A 
ATOM     20  C   UNL d   1       1.558   1.764   9.319  0.00  0.00     0.180 C 
ATOM     21  O   UNL d   1       1.442   3.005   8.582  0.00  0.00    -0.350 OA
ATOM     22  C   UNL d   1       1.062   3.403   6.215  0.00  0.00     0.038 A 
ATOM     23  C   UNL d   1       1.082   2.836   4.933  0.00  0.00     0.017 A 
ENDBRANCH  11  15
ENDBRANCH   1   9
BRANCH   3  24
ATOM     24  C   UNL d   1       3.488   6.381   0.896  0.00  0.00     0.290 C 
ATOM     25  C   UNL d   1       2.798   7.143   2.039  0.00  0.00    -0.009 A 
ATOM     26  C   UNL d   1       2.954   6.447   3.258  0.00  0.00    -0.017 A 
ATOM     27  C   UNL d   1       2.059   8.316   1.973  0.00  0.00     0.010 A 
ATOM     28  C   UNL d   1       2.362   6.915   4.420  0.00  0.00     0.013 A 
ATOM     29  C   UNL d   1       3.798   5.294   3.034  0.00  0.00    -0.017 C 
ATOM     30  C   UNL d   1       1.607   8.089   4.356  0.00  0.00     0.001 A 
ATOM     31  C   UNL d   1       1.459   8.785   3.144  0.00  0.00     0.001 A 
ATOM     32  C   UNL d   1       4.209   5.284   1.681  0.00  0.00    -0.009 C 
ATOM     33  C   UNL d   1       4.211   4.301   3.908  0.00  0.00     0.013 C 
ATOM     34  C   UNL d   1       5.168   4.380   1.251  0.00  0.00     0.010 C 
ATOM     35  C   UNL d   1       5.573   3.368   2.124  0.00  0.00     0.001 C 
ATOM     36  C   UNL d   1       5.073   3.311   3.433  0.00  0.00     0.001 C 
ENDBRANCH   3  24
TORSDOF 3
