REMARK  6 active torsions:
REMARK  status: ('A' for Active; 'I' for Inactive)
REMARK    1  A    between atoms: N_2  and  C_1 
REMARK    2  A    between atoms: C_4  and  C_5 
REMARK    3  A    between atoms: C_17  and  N_8 
REMARK    4  A    between atoms: N_13  and  C_12 
REMARK    5  A    between atoms: C_24  and  N_13 
REMARK    6  A    between atoms: C_25  and  N_13 
ROOT
ATOM      1  N   UNL d   1      -2.061  -1.968   0.727  0.00  0.00    -0.298 N 
ATOM      2  HN  UNL d   1      -2.797  -2.603   1.034  1.00  0.00     0.187 HD
ATOM      3  N   UNL d   1      -0.997  -2.341   0.184  0.00  0.00    -0.300 N 
ATOM      4  HN  UNL d   1      -0.252  -1.724  -0.139  1.00  0.00     0.187 HD
ENDROOT
BRANCH   1   5
ATOM      5  C   UNL d   1      -2.121  -0.565   0.865  0.00  0.00     0.082 A 
ATOM      6  C   UNL d   1      -3.015   0.186   0.079  0.00  0.00     0.041 A 
ATOM      7  C   UNL d   1      -3.222   1.554   0.310  0.00  0.00     0.037 A 
ATOM      8 BR   UNL d   1      -4.025  -0.621  -1.319  0.00  0.00    -0.049 Br
ATOM      9  C   UNL d   1      -2.538   2.211   1.341  0.00  0.00     0.050 A 
ATOM     10  C   UNL d   1      -1.612   1.484   2.101  0.00  0.00     0.037 A 
ATOM     11  C   UNL d   1      -1.413   0.115   1.872  0.00  0.00     0.041 A 
ATOM     12 BR   UNL d   1      -0.191  -0.780   3.024  0.00  0.00    -0.049 Br
BRANCH   9  13
ATOM     13  C   UNL d   1      -2.805   3.661   1.668  0.00  0.00     0.417 C 
ATOM     14  F   UNL d   1      -3.780   4.221   0.902  0.00  0.00    -0.166 F 
ATOM     15  F   UNL d   1      -3.202   3.828   2.960  0.00  0.00    -0.166 F 
ATOM     16  F   UNL d   1      -1.703   4.442   1.510  0.00  0.00    -0.166 F 
ENDBRANCH   9  13
ENDBRANCH   1   5
BRANCH   3  17
ATOM     17  C   UNL d   1      -0.991  -3.747   0.090  0.00  0.00     0.048 A 
ATOM     18  C   UNL d   1      -1.871  -4.418  -0.760  0.00  0.00     0.033 A 
ATOM     19  C   UNL d   1      -1.854  -5.817  -0.849  0.00  0.00     0.031 A 
ATOM     20  C   UNL d   1      -0.944  -6.597  -0.121  0.00  0.00     0.030 A 
ATOM     21  C   UNL d   1      -0.062  -5.904   0.723  0.00  0.00     0.031 A 
ATOM     22  C   UNL d   1      -0.085  -4.503   0.831  0.00  0.00     0.033 A 
BRANCH  20  23
ATOM     23  N   UNL d   1      -0.913  -7.979  -0.255  0.00  0.00    -0.382 N 
BRANCH  23  24
ATOM     24  C   UNL d   1      -2.159  -8.734  -0.422  0.00  0.00     0.118 C 
ATOM     25  C   UNL d   1      -2.337  -9.203  -1.859  0.00  0.00     0.026 C 
ENDBRANCH  23  24
BRANCH  23  26
ATOM     26  C   UNL d   1       0.328  -8.743  -0.093  0.00  0.00     0.118 C 
ATOM     27  C   UNL d   1       1.320  -8.423  -1.204  0.00  0.00     0.026 C 
ENDBRANCH  23  26
ENDBRANCH  20  23
ENDBRANCH   3  17
TORSDOF 6
