REMARK  6 active torsions:
REMARK  status: ('A' for Active; 'I' for Inactive)
REMARK    1  A    between atoms: C_1  and  C_2 
REMARK    2  A    between atoms: C_8  and  C_12 
REMARK    3  A    between atoms: C_12  and  C_15 
REMARK       I    between atoms: C_15  and  N_16 
REMARK    4  A    between atoms: N_16  and  N_18 
REMARK       I    between atoms: N_18  and  C_19 
REMARK       I    between atoms: C_19  and  N_20 
REMARK    5  A    between atoms: N_20  and  C_22 
REMARK    6  A    between atoms: C_23  and  C_29 
ROOT
ATOM      1  C   UNL d   1       1.678  -2.894   0.161  0.00  0.00     0.241 C 
ATOM      2  N   UNL d   1       2.618  -1.888   0.166  0.00  0.00    -0.266 N 
ATOM      3  O   UNL d   1       0.533  -2.706  -0.263  0.00  0.00    -0.271 OA
ATOM      4  H   UNL d   1       3.569  -2.011   0.526  0.00  0.00     0.190 HD
ENDROOT
BRANCH   2   5
ATOM      5  N   UNL d   1       2.225  -0.603  -0.238  0.00  0.00    -0.249 N 
ATOM      6  C   UNL d   1       3.202   0.342  -0.520  0.00  0.00     0.339 C 
ATOM      7  N   UNL d   1       2.628   1.520  -0.990  0.00  0.00    -0.307 N 
ATOM      8  O   UNL d   1       4.396   0.137  -0.320  0.00  0.00    -0.245 OA
ATOM      9  H   UNL d   1       1.691   1.652  -0.662  0.00  0.00     0.171 HD
ATOM     10  H   UNL d   1       1.319  -0.558  -0.699  0.00  0.00     0.192 HD
BRANCH   7  11
ATOM     11  C   UNL d   1       3.358   2.684  -1.303  0.00  0.00     0.048 A 
ATOM     12  C   UNL d   1       2.937   3.922  -0.758  0.00  0.00    -0.031 A 
ATOM     13  C   UNL d   1       3.575   5.103  -1.205  0.00  0.00     0.009 A 
ATOM     14  C   UNL d   1       4.617   5.072  -2.124  0.00  0.00     0.001 A 
ATOM     15  C   UNL d   1       5.043   3.853  -2.626  0.00  0.00     0.009 A 
ATOM     16  C   UNL d   1       4.418   2.651  -2.244  0.00  0.00    -0.035 A 
ATOM     17  C   UNL d   1       4.913   1.409  -2.942  0.00  0.00     0.050 C 
BRANCH  12  18
ATOM     18  C   UNL d   1       1.837   4.140   0.268  0.00  0.00     0.036 C 
ATOM     19  C   UNL d   1       1.637   3.119   1.383  0.00  0.00     0.010 C 
ENDBRANCH  12  18
ENDBRANCH   7  11
ENDBRANCH   2   5
BRANCH   1  20
ATOM     20  C   UNL d   1       2.073  -4.209   0.808  0.00  0.00     0.162 C 
BRANCH  20  21
ATOM     21  C   UNL d   1       3.519  -4.570   0.678  0.00  0.00     0.031 A 
ATOM     22  N   UNL d   1       4.449  -3.778   1.344  0.00  0.00    -0.352 N 
ATOM     23  C   UNL d   1       5.663  -4.279   1.219  0.00  0.00     0.085 A 
ATOM     24  HN  UNL d   1       4.223  -2.927   1.859  1.00  0.00     0.166 HD
ATOM     25  S   UNL d   1       5.763  -5.662   0.199  0.00  0.00    -0.075 SA
ATOM     26  C   UNL d   1       4.058  -5.681   0.050  0.00  0.00     0.004 A 
ATOM     27  C   UNL d   1       3.384  -6.817  -0.637  0.00  0.00     0.058 C 
BRANCH  23  28
ATOM     28  C   UNL d   1       6.836  -3.854   1.995  0.00  0.00    -0.002 A 
ATOM     29  C   UNL d   1       6.659  -3.491   3.340  0.00  0.00     0.014 A 
ATOM     30  C   UNL d   1       7.757  -3.219   4.158  0.00  0.00     0.001 A 
ATOM     31  C   UNL d   1       9.046  -3.285   3.636  0.00  0.00     0.000 A 
ATOM     32  C   UNL d   1       9.237  -3.597   2.291  0.00  0.00     0.001 A 
ATOM     33  C   UNL d   1       8.139  -3.875   1.473  0.00  0.00     0.014 A 
ENDBRANCH  23  28
ENDBRANCH  20  21
ENDBRANCH   1  20
TORSDOF 6
