REMARK  4 active torsions:
REMARK  status: ('A' for Active; 'I' for Inactive)
REMARK    1  A    between atoms: C_2  and  S_1 
REMARK    2  A    between atoms: C_3  and  S_1 
REMARK    3  A    between atoms: C_7  and  C_3 
REMARK    4  A    between atoms: O_10  and  C_6 
ROOT
ATOM      1  S   UNL d   1       1.268   0.184  -0.130  0.00  0.00     0.155 S 
ATOM      2  O   UNL d   1       0.767  -0.781  -1.101  0.00  0.00    -0.227 OA
ATOM      3  O   UNL d   1       2.693   0.430  -0.033  0.00  0.00    -0.227 OA
ENDROOT
BRANCH   1   4
ATOM      4  C   UNL d   1       0.636  -0.366   1.476  0.00  0.00     0.137 C 
ATOM      5  C   UNL d   1       0.868   0.590   2.650  0.00  0.00     0.136 C 
ATOM      6  C   UNL d   1       2.329   0.685   3.082  0.00  0.00     0.033 C 
ATOM      7  C   UNL d   1       2.885  -0.695   3.424  0.00  0.00     0.002 C 
ATOM      8  C   UNL d   1       2.638  -1.728   2.325  0.00  0.00     0.001 C 
ATOM      9  C   UNL d   1       1.183  -1.753   1.845  0.00  0.00     0.022 C 
BRANCH   5  10
ATOM     10  O   UNL d   1       0.321   1.877   2.418  0.00  0.00    -0.394 OA
ATOM     11  H   UNL d   1      -0.578   1.902   2.791  0.00  0.00     0.210 HD
ENDBRANCH   5  10
ENDBRANCH   1   4
BRANCH   1  12
ATOM     12  C   UNL d   1       0.439   1.734  -0.443  0.00  0.00     0.179 C 
BRANCH  12  13
ATOM     13  C   UNL d   1       0.738   2.273  -1.822  0.00  0.00    -0.044 A 
ATOM     14  C   UNL d   1      -0.046   1.912  -2.928  0.00  0.00     0.010 A 
ATOM     15  C   UNL d   1       0.140   2.543  -4.160  0.00  0.00     0.024 A 
ATOM     16  C   UNL d   1       1.114   3.530  -4.297  0.00  0.00     0.034 A 
ATOM     17  C   UNL d   1       1.932   3.864  -3.222  0.00  0.00     0.024 A 
ATOM     18 CL   UNL d   1       1.291   4.360  -5.795  0.00  0.00    -0.084 Cl
ATOM     19  C   UNL d   1       1.751   3.231  -1.991  0.00  0.00     0.010 A 
ENDBRANCH  12  13
ENDBRANCH   1  12
TORSDOF 4
