REMARK  6 active torsions:
REMARK  status: ('A' for Active; 'I' for Inactive)
REMARK    1  A    between atoms: C_7  and  C_3 
REMARK    2  A    between atoms: C_19  and  C_7 
REMARK    3  A    between atoms: C_8  and  C_17 
REMARK    4  A    between atoms: O_13  and  C_8 
REMARK    5  A    between atoms: C_17  and  C_18 
REMARK    6  A    between atoms: C_18  and  C_19 
ROOT
ATOM      1  C   UNL d   1      -1.206  -0.540  -0.173  0.00  0.00    -0.041 C 
ATOM      2  C   UNL d   1      -0.076   1.627   0.103  0.00  0.00    -0.041 C 
ATOM      3  C   UNL d   1      -1.267   0.866  -0.025  0.00  0.00     0.023 C 
ATOM      4  C   UNL d   1       0.036  -1.202  -0.000  0.00  0.00    -0.049 C 
ATOM      5  C   UNL d   1       1.183   0.965   0.045  0.00  0.00    -0.049 C 
ATOM      6  C   UNL d   1       1.238  -0.450   0.075  0.00  0.00    -0.049 C 
ATOM      7  C   UNL d   1      -2.431  -1.347  -0.537  0.00  0.00     0.050 C 
ATOM      8  C   UNL d   1      -0.123   3.131   0.245  0.00  0.00     0.050 C 
ATOM      9  C   UNL d   1       2.448   1.797  -0.008  0.00  0.00     0.049 C 
ATOM     10  C   UNL d   1       0.093  -2.719   0.032  0.00  0.00     0.049 C 
ATOM     11  C   UNL d   1       2.553  -1.195   0.140  0.00  0.00     0.049 C 
ENDROOT
BRANCH   3  12
ATOM     12  C   UNL d   1      -2.598   1.571  -0.025  0.00  0.00     0.160 C 
ATOM     13  O   UNL d   1      -2.795   2.526  -0.775  0.00  0.00    -0.292 OA
BRANCH  12  14
ATOM     14  C   UNL d   1      -3.692   1.027   0.889  0.00  0.00     0.084 C 
BRANCH  14  15
ATOM     15  C   UNL d   1      -4.624   2.092   1.461  0.00  0.00     0.018 C 
BRANCH  15  16
ATOM     16  C   UNL d   1      -5.886   1.428   2.010  0.00  0.00     0.110 C 
BRANCH  16  17
ATOM     17  C   UNL d   1      -6.800   2.400   2.708  0.00  0.00     0.139 C 
ATOM     18  O   UNL d   1      -7.002   2.398   3.913  0.00  0.00    -0.650 OA
BRANCH  17  19
ATOM     19  O   UNL d   1      -7.410   3.266   1.870  0.00  0.00    -0.776 OA
ATOM     20  H   UNL d   1      -7.167   3.151   0.931  0.00  0.00     0.167 HD
ENDBRANCH  17  19
ENDBRANCH  16  17
ENDBRANCH  15  16
ENDBRANCH  14  15
ENDBRANCH  12  14
ENDBRANCH   3  12
TORSDOF 6
