REMARK  3 active torsions:
REMARK  status: ('A' for Active; 'I' for Inactive)
REMARK    1  A    between atoms: C_2  and  S_1 
REMARK    2  A    between atoms: C_13  and  S_1 
REMARK    3  A    between atoms: C_3  and  C_4 
ROOT
ATOM      1  C   UNL d   1       0.454  -0.904  -1.389  0.00  0.00     0.144 C 
ATOM      2  C   UNL d   1      -0.389  -1.950  -1.294  0.00  0.00     0.047 C 
ATOM      3  C   UNL d   1       0.953  -0.195  -0.268  0.00  0.00     0.112 C 
ATOM      4  N   UNL d   1       1.366   0.362   0.660  0.00  0.00    -0.191 NA
ENDROOT
BRANCH   1   5
ATOM      5  S   UNL d   1       0.865  -0.315  -2.966  0.00  0.00     0.216 S 
ATOM      6  O   UNL d   1       0.436   1.068  -3.086  0.00  0.00    -0.216 OA
ATOM      7  O   UNL d   1       0.458  -1.273  -3.982  0.00  0.00    -0.216 OA
BRANCH   5   8
ATOM      8  C   UNL d   1       2.647  -0.313  -2.990  0.00  0.00     0.065 A 
ATOM      9  C   UNL d   1       3.332  -1.462  -3.400  0.00  0.00     0.024 A 
ATOM     10  C   UNL d   1       4.723  -1.429  -3.513  0.00  0.00     0.002 A 
ATOM     11  C   UNL d   1       5.419  -0.252  -3.231  0.00  0.00     0.000 A 
ATOM     12  C   UNL d   1       4.730   0.894  -2.833  0.00  0.00     0.002 A 
ATOM     13  C   UNL d   1       3.340   0.871  -2.717  0.00  0.00     0.024 A 
ENDBRANCH   5   8
ENDBRANCH   1   5
BRANCH   2  14
ATOM     14  C   UNL d   1      -0.909  -2.472  -0.068  0.00  0.00    -0.020 A 
ATOM     15  C   UNL d   1      -0.328  -3.498   0.653  0.00  0.00    -0.011 A 
ATOM     16  S   UNL d   1      -1.236  -3.852   2.065  0.00  0.00    -0.099 SA
ATOM     17  C   UNL d   1       0.911  -4.288   0.386  0.00  0.00     0.057 C 
ATOM     18  C   UNL d   1      -2.371  -2.619   1.740  0.00  0.00    -0.020 A 
ATOM     19  C   UNL d   1      -2.093  -1.973   0.555  0.00  0.00     0.026 A 
ATOM     20  C   UNL d   1      -3.482  -2.367   2.701  0.00  0.00     0.056 C 
ENDBRANCH   2  14
TORSDOF 3
