REMARK  4 active torsions:
REMARK  status: ('A' for Active; 'I' for Inactive)
REMARK    1  A    between atoms: N_12  and  N_5 
REMARK    2  A    between atoms: C_17  and  N_7 
REMARK       I    between atoms: C_13  and  N_12 
REMARK    3  A    between atoms: C_18  and  C_13 
REMARK    4  A    between atoms: N_14  and  C_18 
ROOT
ATOM      1  C   UNL d   1       0.345  -0.642   0.121  0.00  0.00     0.147 A 
ATOM      2  C   UNL d   1       0.305   0.731   0.180  0.00  0.00     0.149 A 
ATOM      3  N   UNL d   1      -0.709  -1.487   0.041  0.00  0.00    -0.328 N 
ATOM      4  HN  UNL d   1      -0.601  -2.501   0.032  1.00  0.00     0.169 HD
ATOM      5  N   UNL d   1      -2.057   0.481   0.018  0.00  0.00    -0.203 N 
ATOM      6  C   UNL d   1      -0.982   1.397   0.095  0.00  0.00     0.298 A 
ATOM      7  N   UNL d   1       1.682  -1.003   0.171  0.00  0.00    -0.292 N 
ATOM      8  N   UNL d   1       1.570   1.254   0.280  0.00  0.00    -0.344 N 
ATOM      9  HN  UNL d   1       1.837   2.237   0.336  1.00  0.00     0.167 HD
ATOM     10  C   UNL d   1      -1.873  -0.905  -0.026  0.00  0.00     0.104 A 
ATOM     11  C   UNL d   1       2.365   0.198   0.286  0.00  0.00     0.191 A 
ATOM     12  O   UNL d   1      -1.134   2.618   0.025  0.00  0.00    -0.263 OA
ATOM     13  C   UNL d   1      -3.061  -1.832  -0.158  0.00  0.00     0.091 C 
ENDROOT
BRANCH   5  14
ATOM     14  N   UNL d   1      -3.333   1.049  -0.239  0.00  0.00    -0.258 N 
ATOM     15  C   UNL d   1      -4.369   0.877   0.651  0.00  0.00     0.265 C 
ATOM     16  O   UNL d   1      -4.292   0.169   1.655  0.00  0.00    -0.270 OA
ATOM     17  H   UNL d   1      -3.329   1.928  -0.762  0.00  0.00     0.190 HD
BRANCH  15  18
ATOM     18  C   UNL d   1      -5.675   1.597   0.292  0.00  0.00     0.376 C 
BRANCH  18  19
ATOM     19  N   UNL d   1      -5.666   2.290  -1.023  0.00  0.00     0.100 N 
ATOM     20  C   UNL d   1      -5.740   1.351  -2.170  0.00  0.00     0.303 C 
ATOM     21  C   UNL d   1      -5.799   2.115  -3.518  0.00  0.00     0.302 C 
ATOM     22  N   UNL d   1      -6.928   3.053  -3.647  0.00  0.00     0.087 N 
ATOM     23  C   UNL d   1      -6.999   3.911  -2.450  0.00  0.00     0.302 C 
ATOM     24  C   UNL d   1      -8.186   2.358  -3.903  0.00  0.00     0.310 C 
ATOM     25  C   UNL d   1      -6.861   3.173  -1.095  0.00  0.00     0.303 C 
ENDBRANCH  18  19
ENDBRANCH  15  18
ENDBRANCH   5  14
BRANCH   7  26
ATOM     26  C   UNL d   1       2.240  -2.317   0.117  0.00  0.00     0.042 A 
ATOM     27  C   UNL d   1       1.478  -3.396  -0.365  0.00  0.00     0.030 A 
ATOM     28  C   UNL d   1       1.990  -4.692  -0.372  0.00  0.00     0.002 A 
ATOM     29  C   UNL d   1       3.277  -4.931   0.101  0.00  0.00     0.000 A 
ATOM     30  C   UNL d   1       4.053  -3.869   0.555  0.00  0.00     0.002 A 
ATOM     31  C   UNL d   1       3.546  -2.563   0.557  0.00  0.00     0.030 A 
ENDBRANCH   7  26
TORSDOF 4
