REMARK  0 active torsions:
REMARK  status: ('A' for Active; 'I' for Inactive)
ROOT
ATOM      1  C   UNL d   1      -0.477   0.692  -0.000  0.00  0.00     0.066 A 
ATOM      2  C   UNL d   1      -0.221  -0.677  -0.001  0.00  0.00     0.132 A 
ATOM      3  C   UNL d   1      -1.894   0.818  -0.001  0.00  0.00     0.090 A 
ATOM      4  C   UNL d   1       0.627   1.561   0.002  0.00  0.00     0.172 A 
ATOM      5  O   UNL d   1      -1.389  -1.374  -0.003  0.00  0.00    -0.310 OA
ATOM      6  C   UNL d   1       1.060  -1.224  -0.001  0.00  0.00     0.192 A 
ATOM      7  C   UNL d   1       1.922   1.035   0.002  0.00  0.00     0.197 A 
ATOM      8  C   UNL d   1       2.133  -0.339   0.000  0.00  0.00     0.199 A 
ATOM      9  C   UNL d   1      -2.407  -0.465  -0.004  0.00  0.00     0.071 A 
ATOM     10  C   UNL d   1      -2.666   2.018  -0.001  0.00  0.00     0.103 C 
ATOM     11  N   UNL d   1      -3.312   2.982  -0.000  0.00  0.00    -0.191 NA
ATOM     12  F   UNL d   1       0.445   2.888   0.003  0.00  0.00    -0.202 F 
ATOM     13  F   UNL d   1       1.258  -2.548  -0.003  0.00  0.00    -0.200 F 
ATOM     14  F   UNL d   1       2.974   1.867   0.003  0.00  0.00    -0.199 F 
ATOM     15  F   UNL d   1       3.385  -0.818  -0.000  0.00  0.00    -0.199 F 
ATOM     16  C   UNL d   1      -3.769  -1.041  -0.007  0.00  0.00     0.078 C 
ENDROOT
TORSDOF 0
