REMARK  9 active torsions:
REMARK  status: ('A' for Active; 'I' for Inactive)
REMARK    1  A    between atoms: C_12  and  N_1 
REMARK    2  A    between atoms: C_16  and  C_2 
REMARK    3  A    between atoms: S_14  and  C_5 
REMARK    4  A    between atoms: C_11  and  C_8 
REMARK    5  A    between atoms: C_9  and  C_19 
REMARK    6  A    between atoms: O_33  and  C_11 
REMARK    7  A    between atoms: C_17  and  C_12 
REMARK    8  A    between atoms: C_32  and  S_14 
REMARK    9  A    between atoms: C_15  and  C_32 
ROOT
ATOM      1  N   UNL d   1      -0.202  -1.256  -0.151  0.00  0.00    -0.305 N 
ATOM      2  C   UNL d   1       1.008  -0.575  -0.156  0.00  0.00     0.135 A 
ATOM      3  N   UNL d   1       0.736   0.721  -0.153  0.00  0.00    -0.283 N 
ATOM      4  HN  UNL d   1       1.428   1.470  -0.119  1.00  0.00     0.188 HD
ATOM      5  C   UNL d   1      -1.174  -0.291  -0.218  0.00  0.00     0.163 A 
ATOM      6  N   UNL d   1      -0.625   0.898  -0.204  0.00  0.00    -0.278 N 
ATOM      7  HN  UNL d   1      -1.118   1.791  -0.227  1.00  0.00     0.189 HD
ENDROOT
BRANCH   5   8
ATOM      8  S   UNL d   1      -2.871  -0.625  -0.220  0.00  0.00    -0.086 SA
BRANCH   8   9
ATOM      9  C   UNL d   1      -3.474   0.640  -1.367  0.00  0.00     0.147 C 
BRANCH   9  10
ATOM     10  C   UNL d   1      -3.237   0.366  -2.816  0.00  0.00     0.063 A 
ATOM     11  O   UNL d   1      -2.744  -0.851  -3.194  0.00  0.00    -0.308 OA
ATOM     12  C   UNL d   1      -2.593  -0.835  -4.556  0.00  0.00     0.150 A 
ATOM     13  C   UNL d   1      -3.016   0.385  -5.048  0.00  0.00     0.046 A 
ATOM     14  C   UNL d   1      -3.464   1.139  -3.938  0.00  0.00     0.036 A 
BRANCH  12  15
ATOM     15  C   UNL d   1      -2.080  -2.009  -5.216  0.00  0.00     0.316 C 
ATOM     16  O   UNL d   1      -2.349  -3.168  -4.931  0.00  0.00    -0.257 OA
BRANCH  15  17
ATOM     17  O   UNL d   1      -1.235  -1.633  -6.222  0.00  0.00    -0.321 OA
ATOM     18  C   UNL d   1      -0.573  -2.689  -6.925  0.00  0.00     0.213 C 
ENDBRANCH  15  17
ENDBRANCH  12  15
ENDBRANCH   9  10
ENDBRANCH   8   9
ENDBRANCH   5   8
BRANCH   1  19
ATOM     19  C   UNL d   1      -0.425  -2.674   0.054  0.00  0.00     0.198 C 
BRANCH  19  20
ATOM     20  C   UNL d   1      -0.464  -3.462  -1.207  0.00  0.00     0.070 A 
ATOM     21  O   UNL d   1       0.022  -2.877  -2.344  0.00  0.00    -0.325 OA
ATOM     22  C   UNL d   1       0.061  -3.834  -3.302  0.00  0.00     0.142 A 
ATOM     23  C   UNL d   1      -0.467  -5.008  -2.826  0.00  0.00     0.027 A 
ATOM     24  C   UNL d   1      -0.813  -4.769  -1.477  0.00  0.00     0.036 A 
ENDBRANCH  19  20
ENDBRANCH   1  19
BRANCH   2  25
ATOM     25  C   UNL d   1       2.373  -1.132  -0.115  0.00  0.00     0.009 A 
ATOM     26  C   UNL d   1       2.736  -2.329  -0.738  0.00  0.00     0.016 A 
ATOM     27  C   UNL d   1       4.037  -2.825  -0.683  0.00  0.00     0.017 A 
ATOM     28  C   UNL d   1       5.039  -2.122  -0.013  0.00  0.00     0.048 A 
ATOM     29  C   UNL d   1       4.707  -0.898   0.582  0.00  0.00     0.017 A 
ATOM     30  C   UNL d   1       3.390  -0.413   0.529  0.00  0.00     0.016 A 
BRANCH  28  31
ATOM     31  C   UNL d   1       6.432  -2.695   0.044  0.00  0.00     0.417 C 
ATOM     32  F   UNL d   1       7.319  -1.921   0.728  0.00  0.00    -0.166 F 
ATOM     33  F   UNL d   1       6.460  -3.917   0.648  0.00  0.00    -0.166 F 
ATOM     34  F   UNL d   1       6.970  -2.882  -1.193  0.00  0.00    -0.166 F 
ENDBRANCH  28  31
ENDBRANCH   2  25
TORSDOF 9
