REMARK  0 active torsions:
REMARK  status: ('A' for Active; 'I' for Inactive)
ROOT
ATOM      1  C   UNL d   1       1.733  -0.579  -0.003  0.00  0.00     0.043 A 
ATOM      2  N   UNL d   1       2.834  -1.406   0.000  0.00  0.00    -0.365 N 
ATOM      3  C   UNL d   1       0.368  -0.892  -0.003  0.00  0.00     0.049 A 
ATOM      4  C   UNL d   1       3.985  -0.661  -0.008  0.00  0.00     0.089 A 
ATOM      5  C   UNL d   1       2.206   0.734  -0.005  0.00  0.00    -0.008 A 
ATOM      6  C   UNL d   1       3.626   0.668  -0.013  0.00  0.00     0.030 A 
ATOM      7  C   UNL d   1       1.275   1.792   0.001  0.00  0.00     0.015 A 
ATOM      8  C   UNL d   1      -0.533   0.178   0.002  0.00  0.00     0.013 A 
ATOM      9  C   UNL d   1      -0.095   1.500   0.006  0.00  0.00     0.020 A 
ATOM     10 BR   UNL d   1      -2.392  -0.184   0.001  0.00  0.00    -0.051 Br
ATOM     11  H   UNL d   1       2.795  -2.416   0.008  0.00  0.00     0.165 HD
ENDROOT
TORSDOF 0
