REMARK  4 active torsions:
REMARK  status: ('A' for Active; 'I' for Inactive)
REMARK    1  A    between atoms: C_7  and  N_1 
REMARK    2  A    between atoms: C_10  and  C_4 
REMARK    3  A    between atoms: C_9  and  C_8 
REMARK    4  A    between atoms: O_20  and  C_14 
ROOT
ATOM      1  N   UNL d   1      -0.306  -1.134   0.371  0.00  0.00    -0.179 N 
ATOM      2  N   UNL d   1       0.987  -0.712   0.587  0.00  0.00    -0.266 N 
ATOM      3  HN  UNL d   1       1.760  -1.214   1.023  1.00  0.00     0.190 HD
ATOM      4  C   UNL d   1       0.971   0.486   0.094  0.00  0.00     0.181 A 
ATOM      5  C   UNL d   1      -1.015  -0.193  -0.343  0.00  0.00     0.394 A 
ATOM      6  O   UNL d   1      -0.198   0.896  -0.453  0.00  0.00    -0.240 OA
ATOM      7  O   UNL d   1      -2.159  -0.230  -0.759  0.00  0.00    -0.236 OA
ENDROOT
BRANCH   1   8
ATOM      8  C   UNL d   1      -0.524  -2.515   0.281  0.00  0.00     0.147 A 
ATOM      9  C   UNL d   1      -0.560  -3.294   1.433  0.00  0.00     0.093 A 
ATOM     10  C   UNL d   1      -0.652  -4.689   1.277  0.00  0.00     0.021 A 
ATOM     11  C   UNL d   1      -0.698  -5.251   0.008  0.00  0.00     0.018 A 
ATOM     12  C   UNL d   1      -0.677  -4.397  -1.076  0.00  0.00     0.090 A 
ATOM     13  N   UNL d   1      -0.605  -3.054  -0.965  0.00  0.00    -0.350 N 
ATOM     14  HN  UNL d   1      -0.613  -2.459  -1.794  1.00  0.00     0.166 HD
BRANCH   9  15
ATOM     15  C   UNL d   1      -0.570  -2.712   2.813  0.00  0.00     0.421 C 
ATOM     16  F   UNL d   1      -0.664  -1.358   2.902  0.00  0.00    -0.166 F 
ATOM     17  F   UNL d   1      -1.631  -3.181   3.538  0.00  0.00    -0.166 F 
ATOM     18  F   UNL d   1       0.533  -3.062   3.533  0.00  0.00    -0.166 F 
ENDBRANCH   9  15
ENDBRANCH   1   8
BRANCH   4  19
ATOM     19  C   UNL d   1       2.053   1.475   0.005  0.00  0.00     0.050 A 
ATOM     20  C   UNL d   1       3.367   1.101  -0.318  0.00  0.00     0.082 A 
ATOM     21  C   UNL d   1       4.351   2.095  -0.401  0.00  0.00     0.038 A 
ATOM     22  C   UNL d   1       4.037   3.434  -0.149  0.00  0.00     0.003 A 
ATOM     23  C   UNL d   1       2.735   3.797   0.182  0.00  0.00     0.001 A 
ATOM     24  C   UNL d   1       1.742   2.821   0.255  0.00  0.00     0.018 A 
BRANCH  20  25
ATOM     25  O   UNL d   1       3.603  -0.214  -0.621  0.00  0.00    -0.355 OA
ATOM     26  C   UNL d   1       4.934  -0.681  -0.433  0.00  0.00     0.210 C 
ENDBRANCH  20  25
ENDBRANCH   4  19
TORSDOF 4
