REMARK  3 active torsions:
REMARK  status: ('A' for Active; 'I' for Inactive)
REMARK    1  A    between atoms: C_16  and  N_3 
REMARK    2  A    between atoms: C_15  and  C_10 
REMARK    3  A    between atoms: N_19  and  C_18 
ROOT
ATOM      1  C   UNL d   1      -1.482  -0.870   0.182  0.00  0.00     0.137 C 
ATOM      2  C   UNL d   1      -0.941   0.384  -0.013  0.00  0.00     0.040 C 
ATOM      3  N   UNL d   1      -2.857  -0.723   0.246  0.00  0.00    -0.239 N 
ATOM      4  C   UNL d   1       0.490   0.486  -0.100  0.00  0.00    -0.029 C 
ATOM      5  C   UNL d   1       1.212  -0.646  -0.301  0.00  0.00     0.022 C 
ATOM      6  N   UNL d   1      -3.212   0.551  -0.084  0.00  0.00    -0.296 N 
ATOM      7  HN  UNL d   1      -4.155   0.911  -0.233  1.00  0.00     0.187 HD
ATOM      8  N   UNL d   1      -0.768  -2.035   0.207  0.00  0.00    -0.361 N 
ATOM      9  C   UNL d   1      -2.055   1.234  -0.172  0.00  0.00     0.037 C 
ATOM     10  C   UNL d   1       0.540  -2.001  -0.478  0.00  0.00     0.154 C 
ATOM     11  C   UNL d   1       2.684  -0.534  -0.512  0.00  0.00     0.159 C 
ATOM     12  C   UNL d   1       1.093   1.852   0.053  0.00  0.00     0.049 C 
ATOM     13  C   UNL d   1       2.588   1.826   0.452  0.00  0.00    -0.037 C 
ATOM     14  C   UNL d   1       3.339   0.825  -0.431  0.00  0.00     0.092 C 
ATOM     15  O   UNL d   1       3.366  -1.504  -0.847  0.00  0.00    -0.293 OA
ATOM     16  C   UNL d   1      -2.136   2.685  -0.472  0.00  0.00     0.070 C 
ATOM     17  C   UNL d   1       2.747   1.461   1.941  0.00  0.00     0.015 C 
ATOM     18  C   UNL d   1       3.196   3.223   0.228  0.00  0.00     0.015 C 
ATOM     19  H   UNL d   1      -1.247  -2.919   0.061  0.00  0.00     0.162 HD
ENDROOT
BRANCH  10  20
ATOM     20  C   UNL d   1       1.290  -3.245  -0.047  0.00  0.00    -0.031 A 
ATOM     21  C   UNL d   1       1.748  -3.434   1.257  0.00  0.00     0.012 A 
ATOM     22  C   UNL d   1       2.479  -4.586   1.593  0.00  0.00     0.030 A 
ATOM     23  C   UNL d   1       2.756  -5.600   0.662  0.00  0.00     0.029 A 
ATOM     24  C   UNL d   1       2.232  -5.409  -0.625  0.00  0.00     0.030 A 
ATOM     25  C   UNL d   1       1.524  -4.256  -0.982  0.00  0.00     0.012 A 
BRANCH  23  26
ATOM     26  N   UNL d   1       3.452  -6.761   0.982  0.00  0.00    -0.390 N 
ATOM     27  C   UNL d   1       4.306  -7.407  -0.017  0.00  0.00     0.149 C 
ATOM     28  C   UNL d   1       3.763  -7.120   2.361  0.00  0.00     0.149 C 
ENDBRANCH  23  26
ENDBRANCH  10  20
BRANCH   3  29
ATOM     29  C   UNL d   1      -3.840  -1.699   0.564  0.00  0.00     0.058 A 
ATOM     30  C   UNL d   1      -3.517  -2.814   1.351  0.00  0.00     0.031 A 
ATOM     31  C   UNL d   1      -4.488  -3.769   1.654  0.00  0.00     0.002 A 
ATOM     32  C   UNL d   1      -5.791  -3.614   1.177  0.00  0.00     0.000 A 
ATOM     33  C   UNL d   1      -6.120  -2.501   0.404  0.00  0.00     0.002 A 
ATOM     34  C   UNL d   1      -5.154  -1.538   0.103  0.00  0.00     0.031 A 
ENDBRANCH   3  29
TORSDOF 3
