REMARK  6 active torsions:
REMARK  status: ('A' for Active; 'I' for Inactive)
REMARK    1  A    between atoms: C_2  and  C_1 
REMARK    2  A    between atoms: O_4  and  C_2 
REMARK    3  A    between atoms: C_9  and  O_4 
REMARK    4  A    between atoms: C_6  and  C_9 
REMARK    5  A    between atoms: C_7  and  C_6 
REMARK    6  A    between atoms: O_21  and  C_14 
ROOT
ATOM      1  C   UNL d   1       0.243  -2.518  -0.017  0.00  0.00     0.295 C 
ATOM      2  O   UNL d   1      -0.981  -2.512  -0.023  0.00  0.00    -0.259 OA
ENDROOT
BRANCH   1   3
ATOM      3  C   UNL d   1       1.044  -1.253  -0.035  0.00  0.00     0.059 A 
ATOM      4  C   UNL d   1       2.434  -1.125   0.128  0.00  0.00     0.027 A 
ATOM      5  C   UNL d   1       3.019   0.151   0.129  0.00  0.00     0.023 A 
ATOM      6 BR   UNL d   1       3.666  -2.552   0.390  0.00  0.00    -0.050 Br
ATOM      7  C   UNL d   1       2.238   1.296  -0.023  0.00  0.00     0.038 A 
ATOM      8  C   UNL d   1       0.861   1.192  -0.182  0.00  0.00     0.069 A 
ATOM      9  C   UNL d   1       0.274  -0.074  -0.192  0.00  0.00     0.055 A 
BRANCH   8  10
ATOM     10  O   UNL d   1       0.210   2.387  -0.313  0.00  0.00    -0.356 OA
ATOM     11  C   UNL d   1      -1.203   2.345  -0.466  0.00  0.00     0.210 C 
ENDBRANCH   8  10
ENDBRANCH   1   3
BRANCH   1  12
ATOM     12  O   UNL d   1       0.998  -3.630   0.042  0.00  0.00    -0.310 OA
BRANCH  12  13
ATOM     13  C   UNL d   1       0.319  -4.881   0.198  0.00  0.00     0.263 C 
BRANCH  13  14
ATOM     14  C   UNL d   1       0.723  -5.879  -0.881  0.00  0.00     0.183 C 
ATOM     15  O   UNL d   1       1.463  -5.588  -1.820  0.00  0.00    -0.290 OA
BRANCH  14  16
ATOM     16  C   UNL d   1       0.152  -7.258  -0.807  0.00  0.00     0.012 A 
ATOM     17  C   UNL d   1       0.070  -8.006  -1.992  0.00  0.00     0.016 A 
ATOM     18  C   UNL d   1      -0.472  -9.296  -1.978  0.00  0.00     0.020 A 
ATOM     19  C   UNL d   1      -0.919  -9.844  -0.779  0.00  0.00     0.011 A 
ATOM     20  C   UNL d   1      -0.830  -9.116   0.407  0.00  0.00     0.020 A 
ATOM     21 BR   UNL d   1      -1.647 -11.586  -0.756  0.00  0.00    -0.051 Br
ATOM     22  C   UNL d   1      -0.297  -7.822   0.393  0.00  0.00     0.016 A 
ENDBRANCH  14  16
ENDBRANCH  13  14
ENDBRANCH  12  13
ENDBRANCH   1  12
TORSDOF 6
