REMARK  8 active torsions:
REMARK  status: ('A' for Active; 'I' for Inactive)
REMARK    1  A    between atoms: C_2  and  C_1 
REMARK    2  A    between atoms: C_6  and  C_1 
REMARK    3  A    between atoms: C_7  and  C_1 
REMARK    4  A    between atoms: O_12  and  C_1 
REMARK    5  A    between atoms: O_13  and  C_6 
REMARK    6  A    between atoms: O_14  and  C_7 
REMARK    7  A    between atoms: C_18  and  O_13 
REMARK    8  A    between atoms: C_17  and  O_14 
ROOT
ATOM      1  C   UNL d   1       1.052  -0.082   0.006  0.00  0.00     0.244 C 
ENDROOT
BRANCH   1   2
ATOM      2  C   UNL d   1       0.315  -1.392  -0.304  0.00  0.00     0.119 A 
ATOM      3  C   UNL d   1       0.729  -2.444   0.707  0.00  0.00     0.168 A 
ATOM      4  C   UNL d   1       1.392  -3.551   0.035  0.00  0.00     0.017 A 
ATOM      5  O   UNL d   1       0.558  -2.386   1.911  0.00  0.00    -0.292 OA
ATOM      6  C   UNL d   1       2.001  -4.656   0.599  0.00  0.00     0.015 A 
ATOM      7  C   UNL d   1       1.339  -3.330  -1.332  0.00  0.00    -0.043 A 
ATOM      8  C   UNL d   1       2.558  -5.593  -0.271  0.00  0.00     0.001 A 
ATOM      9  C   UNL d   1       2.485  -5.405  -1.662  0.00  0.00     0.001 A 
ATOM     10  C   UNL d   1       1.875  -4.266  -2.201  0.00  0.00     0.008 A 
ATOM     11  C   UNL d   1       0.684  -2.030  -1.673  0.00  0.00     0.056 A 
ENDBRANCH   1   2
BRANCH   1  12
ATOM     12  C   UNL d   1       0.710   0.460   1.401  0.00  0.00     0.304 C 
ATOM     13  O   UNL d   1       1.569   0.677   2.248  0.00  0.00    -0.261 OA
BRANCH  12  14
ATOM     14  O   UNL d   1      -0.623   0.697   1.542  0.00  0.00    -0.319 OA
BRANCH  14  15
ATOM     15  C   UNL d   1      -1.025   1.205   2.824  0.00  0.00     0.174 C 
ATOM     16  C   UNL d   1      -1.159   0.072   3.824  0.00  0.00     0.034 C 
ENDBRANCH  14  15
ENDBRANCH  12  14
ENDBRANCH   1  12
BRANCH   1  17
ATOM     17  C   UNL d   1       0.701   0.997  -1.022  0.00  0.00     0.304 C 
ATOM     18  O   UNL d   1      -0.007   0.824  -2.011  0.00  0.00    -0.261 OA
BRANCH  17  19
ATOM     19  O   UNL d   1       1.367   2.157  -0.743  0.00  0.00    -0.319 OA
BRANCH  19  20
ATOM     20  C   UNL d   1       1.517   3.066  -1.843  0.00  0.00     0.174 C 
ATOM     21  C   UNL d   1       2.793   2.692  -2.576  0.00  0.00     0.034 C 
ENDBRANCH  19  20
ENDBRANCH  17  19
ENDBRANCH   1  17
BRANCH   1  22
ATOM     22  O   UNL d   1       2.473  -0.338  -0.077  0.00  0.00    -0.370 OA
ATOM     23  H   UNL d   1       2.838  -0.141   0.813  0.00  0.00     0.212 HD
ENDBRANCH   1  22
TORSDOF 8
