REMARK  6 active torsions:
REMARK  status: ('A' for Active; 'I' for Inactive)
REMARK    1  A    between atoms: C_2  and  S_1 
REMARK    2  A    between atoms: N_3  and  S_1 
REMARK    3  A    between atoms: C_4  and  C_6 
REMARK    4  A    between atoms: C_5  and  C_7 
REMARK    5  A    between atoms: C_13  and  C_16 
REMARK    6  A    between atoms: O_26  and  C_17 
ROOT
ATOM      1  S   UNL d   1       0.382   0.003   0.157  0.00  0.00     0.260 S 
ATOM      2  O   UNL d   1       0.497  -0.006   1.599  0.00  0.00    -0.200 OA
ATOM      3  O   UNL d   1      -0.580  -0.840  -0.525  0.00  0.00    -0.200 OA
ENDROOT
BRANCH   1   4
ATOM      4  C   UNL d   1       1.997  -0.438  -0.499  0.00  0.00     0.081 A 
ATOM      5  C   UNL d   1       3.168  -0.096   0.189  0.00  0.00     0.041 A 
ATOM      6  C   UNL d   1       4.418  -0.504  -0.309  0.00  0.00     0.050 A 
ATOM      7  C   UNL d   1       4.470  -1.279  -1.484  0.00  0.00     0.032 A 
ATOM      8  C   UNL d   1       3.298  -1.655  -2.161  0.00  0.00     0.050 A 
ATOM      9  C   UNL d   1       2.060  -1.221  -1.659  0.00  0.00     0.041 A 
BRANCH   6  10
ATOM     10  C   UNL d   1       5.707  -0.138   0.395  0.00  0.00     0.417 C 
ATOM     11  F   UNL d   1       5.520   0.621   1.509  0.00  0.00    -0.166 F 
ATOM     12  F   UNL d   1       6.409  -1.233   0.795  0.00  0.00    -0.166 F 
ATOM     13  F   UNL d   1       6.547   0.577  -0.404  0.00  0.00    -0.166 F 
ENDBRANCH   6  10
BRANCH   8  14
ATOM     14  C   UNL d   1       3.376  -2.541  -3.384  0.00  0.00     0.417 C 
ATOM     15  F   UNL d   1       2.167  -2.776  -3.965  0.00  0.00    -0.166 F 
ATOM     16  F   UNL d   1       4.163  -2.009  -4.359  0.00  0.00    -0.166 F 
ATOM     17  F   UNL d   1       3.902  -3.763  -3.102  0.00  0.00    -0.166 F 
ENDBRANCH   8  14
ENDBRANCH   1   4
BRANCH   1  18
ATOM     18  N   UNL d   1       0.131   1.616  -0.371  0.00  0.00    -0.307 N 
ATOM     19  C   UNL d   1       0.249   1.834  -1.830  0.00  0.00     0.136 C 
ATOM     20  C   UNL d   1      -0.035   3.267  -2.246  0.00  0.00     0.030 C 
ATOM     21  C   UNL d   1       0.809   4.287  -1.471  0.00  0.00     0.024 C 
ATOM     22  C   UNL d   1       0.516   4.089   0.024  0.00  0.00     0.030 C 
ATOM     23  C   UNL d   1       0.626   2.659   0.548  0.00  0.00     0.136 C 
BRANCH  21  24
ATOM     24  C   UNL d   1       2.281   4.338  -1.900  0.00  0.00    -0.021 A 
ATOM     25  C   UNL d   1       2.672   5.017  -3.078  0.00  0.00     0.074 A 
ATOM     26  C   UNL d   1       4.013   5.013  -3.492  0.00  0.00     0.037 A 
ATOM     27  C   UNL d   1       4.997   4.414  -2.710  0.00  0.00     0.003 A 
ATOM     28  C   UNL d   1       4.643   3.803  -1.521  0.00  0.00     0.001 A 
ATOM     29  C   UNL d   1       3.304   3.756  -1.131  0.00  0.00     0.010 A 
BRANCH  25  30
ATOM     30  O   UNL d   1       1.695   5.679  -3.787  0.00  0.00    -0.355 OA
ATOM     31  C   UNL d   1       2.152   6.808  -4.530  0.00  0.00     0.210 C 
ENDBRANCH  25  30
ENDBRANCH  21  24
ENDBRANCH   1  18
TORSDOF 6
