REMARK  4 active torsions:
REMARK  status: ('A' for Active; 'I' for Inactive)
REMARK    1  A    between atoms: C_16  and  C_3 
REMARK    2  A    between atoms: C_10  and  C_4 
REMARK    3  A    between atoms: N_6  and  C_5 
REMARK    4  A    between atoms: C_11  and  C_10 
ROOT
ATOM      1  N   UNL d   1       1.531  -0.112   0.052  0.00  0.00    -0.331 N 
ATOM      2  HN  UNL d   1       2.473  -0.503   0.073  1.00  0.00     0.168 HD
ATOM      3  C   UNL d   1       1.172   1.132   0.019  0.00  0.00     0.162 A 
ATOM      4  C   UNL d   1       0.328  -0.776   0.053  0.00  0.00     0.112 A 
ATOM      5  O   UNL d   1      -0.151   1.405   0.015  0.00  0.00    -0.256 OA
ATOM      6  C   UNL d   1      -0.794   0.204   0.041  0.00  0.00     0.316 A 
ATOM      7  O   UNL d   1      -1.997   0.032   0.053  0.00  0.00    -0.257 OA
ENDROOT
BRANCH   4   8
ATOM      8  C   UNL d   1       0.224  -2.110   0.034  0.00  0.00     0.054 C 
BRANCH   8   9
ATOM      9  C   UNL d   1      -1.015  -2.797  -0.016  0.00  0.00     0.009 A 
ATOM     10  S   UNL d   1      -1.625  -3.333  -1.535  0.00  0.00    -0.066 SA
ATOM     11  C   UNL d   1      -2.998  -4.021  -0.813  0.00  0.00     0.144 A 
ATOM     12  C   UNL d   1      -3.015  -3.870   0.556  0.00  0.00     0.045 A 
ATOM     13  C   UNL d   1      -1.863  -3.161   1.015  0.00  0.00     0.022 A 
BRANCH  11  14
ATOM     14  N   UNL d   1      -3.990  -4.690  -1.615  0.00  0.00    -0.108 N 
ATOM     15  O   UNL d   1      -4.944  -5.189  -1.002  0.00  0.00    -0.531 OA
ATOM     16  O   UNL d   1      -3.825  -4.734  -2.841  0.00  0.00    -0.531 OA
ENDBRANCH  11  14
ENDBRANCH   8   9
ENDBRANCH   4   8
BRANCH   3  17
ATOM     17  C   UNL d   1       2.051   2.310  -0.041  0.00  0.00     0.015 A 
ATOM     18  C   UNL d   1       3.438   2.126  -0.097  0.00  0.00     0.016 A 
ATOM     19  C   UNL d   1       4.284   3.230  -0.213  0.00  0.00     0.001 A 
ATOM     20  C   UNL d   1       3.750   4.518  -0.267  0.00  0.00     0.000 A 
ATOM     21  C   UNL d   1       2.371   4.706  -0.194  0.00  0.00     0.001 A 
ATOM     22  C   UNL d   1       1.520   3.606  -0.079  0.00  0.00     0.016 A 
ENDBRANCH   3  17
TORSDOF 4
