REMARK  1 active torsions:
REMARK  status: ('A' for Active; 'I' for Inactive)
REMARK    1  A    between atoms: S_9  and  C_2 
ROOT
ATOM      1  N   UNL d   1       1.961   0.213   0.084  0.00  0.00    -0.298 N 
ATOM      2  C   UNL d   1       1.523   1.527   0.038  0.00  0.00     0.149 A 
ATOM      3  C   UNL d   1       1.046  -0.840   0.020  0.00  0.00     0.261 A 
ATOM      4  N   UNL d   1       0.277   1.873  -0.010  0.00  0.00    -0.336 N 
ATOM      5  HN  UNL d   1       0.013   2.857  -0.049  1.00  0.00     0.168 HD
ATOM      6  C   UNL d   1      -0.378  -0.478  -0.004  0.00  0.00     0.059 A 
ATOM      7  C   UNL d   1      -0.700   0.874  -0.007  0.00  0.00     0.049 A 
ATOM      8  O   UNL d   1       1.367  -2.026  -0.020  0.00  0.00    -0.267 OA
ATOM      9  C   UNL d   1       3.358  -0.202   0.154  0.00  0.00     0.161 C 
ATOM     10  C   UNL d   1      -1.376  -1.461  -0.005  0.00  0.00     0.019 A 
ATOM     11  C   UNL d   1      -2.046   1.244  -0.004  0.00  0.00     0.030 A 
ATOM     12  C   UNL d   1      -2.717  -1.081   0.000  0.00  0.00     0.001 A 
ATOM     13  C   UNL d   1      -3.053   0.273   0.003  0.00  0.00     0.002 A 
ENDROOT
BRANCH   2  14
ATOM     14  S   UNL d   1       2.732   2.803   0.043  0.00  0.00    -0.098 SA
ATOM     15  C   UNL d   1       1.702   4.281  -0.053  0.00  0.00     0.099 C 
ENDBRANCH   2  14
TORSDOF 1
