REMARK  5 active torsions:
REMARK  status: ('A' for Active; 'I' for Inactive)
REMARK    1  A    between atoms: C_11  and  C_2 
REMARK    2  A    between atoms: C_3  and  O_10 
REMARK       I    between atoms: C_5  and  N_9 
REMARK       I    between atoms: N_8  and  C_5 
REMARK    3  A    between atoms: C_16  and  N_8 
REMARK    4  A    between atoms: N_9  and  C_11 
REMARK    5  A    between atoms: O_10  and  C_17 
ROOT
ATOM      1  C   UNL d   1      -2.694  -3.997   0.051  0.00  0.00     0.321 C 
ATOM      2  N   UNL d   1      -3.963  -4.160   0.534  0.00  0.00    -0.309 N 
ATOM      3  N   UNL d   1      -2.207  -2.723   0.022  0.00  0.00    -0.337 N 
ATOM      4  O   UNL d   1      -2.027  -4.986  -0.239  0.00  0.00    -0.247 OA
ATOM      5  H   UNL d   1      -4.091  -5.083   0.930  0.00  0.00     0.170 HD
ATOM      6  H   UNL d   1      -2.765  -1.974   0.401  0.00  0.00     0.164 HD
ENDROOT
BRANCH   2   7
ATOM      7  C   UNL d   1      -4.920  -3.179   0.815  0.00  0.00     0.036 A 
ATOM      8  C   UNL d   1      -5.249  -2.193  -0.119  0.00  0.00     0.032 A 
ATOM      9  C   UNL d   1      -6.193  -1.216   0.202  0.00  0.00     0.039 A 
ATOM     10  C   UNL d   1      -6.758  -1.185   1.476  0.00  0.00     0.078 A 
ATOM     11  C   UNL d   1      -6.482  -2.212   2.379  0.00  0.00     0.039 A 
ATOM     12  C   UNL d   1      -5.581  -3.228   2.038  0.00  0.00     0.032 A 
BRANCH  10  13
ATOM     13  O   UNL d   1      -7.669  -0.257   1.881  0.00  0.00    -0.255 OA
BRANCH  13  14
ATOM     14  C   UNL d   1      -7.364   1.114   1.636  0.00  0.00     0.530 C 
ATOM     15  F   UNL d   1      -6.330   1.317   0.792  0.00  0.00    -0.144 F 
ATOM     16  F   UNL d   1      -8.458   1.711   1.113  0.00  0.00    -0.144 F 
ATOM     17  F   UNL d   1      -7.075   1.720   2.809  0.00  0.00    -0.144 F 
ENDBRANCH  13  14
ENDBRANCH  10  13
ENDBRANCH   2   7
BRANCH   3  18
ATOM     18  C   UNL d   1      -0.843  -2.429  -0.329  0.00  0.00     0.181 C 
BRANCH  18  19
ATOM     19  C   UNL d   1      -0.118  -1.726   0.781  0.00  0.00     0.029 A 
ATOM     20  N   UNL d   1       1.202  -1.321   0.647  0.00  0.00    -0.357 N 
ATOM     21  C   UNL d   1       1.645  -0.754   1.826  0.00  0.00     0.007 A 
ATOM     22  C   UNL d   1       2.021  -1.480  -0.539  0.00  0.00     0.156 C 
ATOM     23  C   UNL d   1       0.586  -0.764   2.709  0.00  0.00     0.027 A 
ATOM     24  C   UNL d   1       3.034  -0.255   2.050  0.00  0.00     0.068 C 
ATOM     25  C   UNL d   1      -0.512  -1.373   2.061  0.00  0.00     0.029 A 
ENDBRANCH  18  19
ENDBRANCH   3  18
TORSDOF 5
