REMARK  4 active torsions:
REMARK  status: ('A' for Active; 'I' for Inactive)
REMARK    1  A    between atoms: C_9  and  C_3 
REMARK    2  A    between atoms: C_6  and  C_5 
REMARK    3  A    between atoms: C_8  and  C_6 
REMARK    4  A    between atoms: O_11  and  C_8 
ROOT
ATOM      1  N   UNL d   1       1.378  -0.596  -0.078  0.00  0.00    -0.352 N 
ATOM      2  HN  UNL d   1       2.243  -1.135  -0.121  1.00  0.00     0.166 HD
ATOM      3  C   UNL d   1       0.167  -1.127  -0.064  0.00  0.00     0.084 A 
ATOM      4  S   UNL d   1      -1.105   0.041  -0.040  0.00  0.00    -0.081 SA
ATOM      5  C   UNL d   1       1.322   0.791  -0.027  0.00  0.00     0.026 A 
ATOM      6  C   UNL d   1       0.041   1.306  -0.007  0.00  0.00     0.077 A 
ENDROOT
BRANCH   3   7
ATOM      7  C   UNL d   1      -0.108  -2.582  -0.063  0.00  0.00    -0.002 A 
ATOM      8  C   UNL d   1       0.967  -3.482   0.050  0.00  0.00     0.014 A 
ATOM      9  C   UNL d   1       0.759  -4.866   0.058  0.00  0.00     0.001 A 
ATOM     10  C   UNL d   1      -0.530  -5.378  -0.049  0.00  0.00     0.000 A 
ATOM     11  C   UNL d   1      -1.610  -4.508  -0.163  0.00  0.00     0.001 A 
ATOM     12  C   UNL d   1      -1.400  -3.124  -0.170  0.00  0.00     0.014 A 
ENDBRANCH   3   7
BRANCH   5  13
ATOM     13  C   UNL d   1       2.608   1.549   0.011  0.00  0.00     0.167 C 
BRANCH  13  14
ATOM     14  C   UNL d   1       2.546   2.854  -0.743  0.00  0.00     0.145 C 
ATOM     15  O   UNL d   1       2.752   3.946  -0.233  0.00  0.00    -0.650 OA
BRANCH  14  16
ATOM     16  O   UNL d   1       2.257   2.723  -2.059  0.00  0.00    -0.776 OA
ATOM     17  H   UNL d   1       2.118   1.797  -2.340  0.00  0.00     0.167 HD
ENDBRANCH  14  16
ENDBRANCH  13  14
ENDBRANCH   5  13
TORSDOF 4
