REMARK  5 active torsions:
REMARK  status: ('A' for Active; 'I' for Inactive)
REMARK    1  A    between atoms: N_2  and  S_1 
REMARK    2  A    between atoms: C_3  and  S_1 
REMARK    3  A    between atoms: C_9  and  N_2 
REMARK    4  A    between atoms: O_6  and  C_10 
REMARK    5  A    between atoms: C_11  and  O_6 
ROOT
ATOM      1  C   UNL d   1       0.943  -1.013   2.552  0.00  0.00     0.042 A 
ATOM      2  C   UNL d   1       1.757  -2.985   4.354  0.00  0.00     0.076 A 
ATOM      3  C   UNL d   1       2.240  -1.518   2.490  0.00  0.00     0.033 A 
ATOM      4  C   UNL d   1       0.058  -1.468   3.530  0.00  0.00     0.033 A 
ATOM      5  C   UNL d   1       0.463  -2.463   4.425  0.00  0.00     0.039 A 
ATOM      6  C   UNL d   1       2.659  -2.479   3.415  0.00  0.00     0.039 A 
ENDROOT
BRANCH   1   7
ATOM      7  N   UNL d   1       0.542  -0.023   1.621  0.00  0.00    -0.281 N 
ATOM      8  H   UNL d   1       0.268   0.898   1.962  0.00  0.00     0.179 HD
BRANCH   7   9
ATOM      9  S   UNL d   1      -0.101  -0.456   0.133  0.00  0.00     0.263 S 
ATOM     10  O   UNL d   1       0.812  -1.351  -0.541  0.00  0.00    -0.200 OA
ATOM     11  O   UNL d   1      -0.544   0.776  -0.489  0.00  0.00    -0.200 OA
BRANCH   9  12
ATOM     12  C   UNL d   1      -1.554  -1.384   0.573  0.00  0.00     0.080 A 
ATOM     13  C   UNL d   1      -2.781  -0.727   0.723  0.00  0.00     0.027 A 
ATOM     14  C   UNL d   1      -3.900  -1.452   1.139  0.00  0.00     0.025 A 
ATOM     15  C   UNL d   1      -3.788  -2.820   1.391  0.00  0.00     0.034 A 
ATOM     16  C   UNL d   1      -2.573  -3.481   1.200  0.00  0.00     0.025 A 
ATOM     17 CL   UNL d   1      -5.154  -3.698   1.957  0.00  0.00    -0.084 Cl
ATOM     18  C   UNL d   1      -1.454  -2.765   0.774  0.00  0.00     0.027 A 
ENDBRANCH   9  12
ENDBRANCH   7   9
ENDBRANCH   1   7
BRANCH   2  19
ATOM     19  O   UNL d   1       2.072  -3.947   5.289  0.00  0.00    -0.311 OA
BRANCH  19  20
ATOM     20  C   UNL d   1       2.952  -4.952   4.954  0.00  0.00     0.076 A 
ATOM     21  C   UNL d   1       3.779  -5.418   5.982  0.00  0.00     0.040 A 
ATOM     22  C   UNL d   1       4.708  -6.427   5.728  0.00  0.00     0.045 A 
ATOM     23  C   UNL d   1       4.800  -6.968   4.450  0.00  0.00     0.116 A 
ATOM     24  C   UNL d   1       3.956  -6.540   3.430  0.00  0.00     0.045 A 
ATOM     25  F   UNL d   1       5.708  -7.918   4.198  0.00  0.00    -0.206 F 
ATOM     26  C   UNL d   1       3.011  -5.546   3.689  0.00  0.00     0.040 A 
ENDBRANCH  19  20
ENDBRANCH   2  19
TORSDOF 5
