REMARK  4 active torsions:
REMARK  status: ('A' for Active; 'I' for Inactive)
REMARK    1  A    between atoms: C_2  and  N_1 
REMARK       I    between atoms: C_3  and  N_6 
REMARK    2  A    between atoms: C_15  and  C_3 
REMARK    3  A    between atoms: N_6  and  C_9 
REMARK    4  A    between atoms: C_7  and  C_15 
ROOT
ATOM      1  C   UNL d   1      -2.786  -1.766  -2.901  0.00  0.00     0.226 C 
ATOM      2  N   UNL d   1      -2.531  -2.573  -1.802  0.00  0.00    -0.327 N 
ATOM      3  O   UNL d   1      -2.089  -0.828  -3.282  0.00  0.00    -0.273 OA
ATOM      4  H   UNL d   1      -3.067  -3.429  -1.723  0.00  0.00     0.169 HD
ENDROOT
BRANCH   2   5
ATOM      5  C   UNL d   1      -1.472  -2.400  -0.882  0.00  0.00     0.037 A 
ATOM      6  C   UNL d   1      -0.726  -1.227  -0.800  0.00  0.00     0.066 A 
ATOM      7  C   UNL d   1       0.350  -1.141   0.094  0.00  0.00     0.111 A 
ATOM      8  C   UNL d   1       0.694  -2.196   0.951  0.00  0.00    -0.029 A 
ATOM      9  C   UNL d   1      -0.087  -3.358   0.881  0.00  0.00     0.011 A 
ATOM     10  C   UNL d   1       1.846  -2.158   1.916  0.00  0.00     0.050 C 
ATOM     11  C   UNL d   1      -1.163  -3.457  -0.019  0.00  0.00     0.030 A 
BRANCH   7  12
ATOM     12  N   UNL d   1       1.102   0.102   0.083  0.00  0.00    -0.115 N 
ATOM     13  O   UNL d   1       0.489   1.133   0.391  0.00  0.00    -0.532 OA
ATOM     14  O   UNL d   1       2.294   0.040  -0.246  0.00  0.00    -0.532 OA
ENDBRANCH   7  12
ENDBRANCH   2   5
BRANCH   1  15
ATOM     15  C   UNL d   1      -4.031  -2.154  -3.678  0.00  0.00     0.141 C 
BRANCH  15  16
ATOM     16  C   UNL d   1      -3.759  -3.115  -4.810  0.00  0.00    -0.044 A 
ATOM     17  C   UNL d   1      -4.474  -4.315  -4.909  0.00  0.00     0.050 A 
ATOM     18  C   UNL d   1      -4.251  -5.177  -5.983  0.00  0.00     0.119 A 
ATOM     19  F   UNL d   1      -4.948  -6.319  -6.059  0.00  0.00    -0.206 F 
ATOM     20  C   UNL d   1      -3.328  -4.873  -6.972  0.00  0.00     0.084 A 
ATOM     21  C   UNL d   1      -2.622  -3.684  -6.878  0.00  0.00     0.119 A 
ATOM     22  C   UNL d   1      -2.829  -2.804  -5.816  0.00  0.00     0.050 A 
ATOM     23  F   UNL d   1      -1.732  -3.371  -7.828  0.00  0.00    -0.206 F 
ENDBRANCH  15  16
ENDBRANCH   1  15
TORSDOF 4
