REMARK  4 active torsions:
REMARK  status: ('A' for Active; 'I' for Inactive)
REMARK    1  A    between atoms: C_6  and  C_1 
REMARK    2  A    between atoms: N_11  and  C_3 
REMARK    3  A    between atoms: N_5  and  C_4 
REMARK    4  A    between atoms: C_12  and  N_11 
ROOT
ATOM      1  C   UNL d   1       0.470   6.156   2.013  0.00  0.00     0.139 C 
ATOM      2  C   UNL d   1       0.588   6.800   3.272  0.00  0.00     0.112 C 
ATOM      3  C   UNL d   1       0.422   6.946   0.831  0.00  0.00     0.112 C 
ATOM      4  N   UNL d   1       0.696   7.300   4.314  0.00  0.00    -0.191 NA
ATOM      5  N   UNL d   1       0.369   7.573  -0.143  0.00  0.00    -0.191 NA
ATOM      6  C   UNL d   1       0.432   4.812   1.919  0.00  0.00     0.122 C 
ENDROOT
BRANCH   6   7
ATOM      7  N   UNL d   1       0.423   3.879   2.928  0.00  0.00    -0.362 N 
ATOM      8  H   UNL d   1       0.108   4.185   3.848  0.00  0.00     0.165 HD
BRANCH   7   9
ATOM      9  C   UNL d   1       0.424   2.464   2.840  0.00  0.00     0.059 A 
ATOM     10  C   UNL d   1       0.814   1.803   1.661  0.00  0.00     0.048 A 
ATOM     11  C   UNL d   1       0.711   0.412   1.533  0.00  0.00     0.050 A 
ATOM     12  C   UNL d   1       0.231  -0.325   2.618  0.00  0.00     0.018 A 
ATOM     13  C   UNL d   1      -0.122   0.313   3.812  0.00  0.00     0.032 A 
ATOM     14  C   UNL d   1      -0.025   1.706   3.963  0.00  0.00     0.057 A 
BRANCH  11  15
ATOM     15  C   UNL d   1       1.078  -0.280   0.244  0.00  0.00     0.417 C 
ATOM     16  F   UNL d   1       1.595   0.558  -0.697  0.00  0.00    -0.166 F 
ATOM     17  F   UNL d   1       0.006  -0.882  -0.344  0.00  0.00    -0.166 F 
ATOM     18  F   UNL d   1       2.006  -1.260   0.421  0.00  0.00    -0.166 F 
ENDBRANCH  11  15
BRANCH  14  19
ATOM     19  N   UNL d   1      -0.415   2.347   5.148  0.00  0.00    -0.379 N 
ATOM     20  C   UNL d   1      -1.575   1.843   5.896  0.00  0.00     0.123 C 
ATOM     21  C   UNL d   1      -1.157   1.052   7.134  0.00  0.00     0.020 C 
ATOM     22  C   UNL d   1      -0.208   1.866   8.004  0.00  0.00     0.003 C 
ATOM     23  C   UNL d   1       1.008   2.295   7.190  0.00  0.00     0.020 C 
ATOM     24  C   UNL d   1       0.607   3.063   5.933  0.00  0.00     0.123 C 
ENDBRANCH  14  19
ENDBRANCH   7   9
ENDBRANCH   6   7
TORSDOF 4
