REMARK  2 active torsions:
REMARK  status: ('A' for Active; 'I' for Inactive)
REMARK    1  A    between atoms: S_11  and  C_5 
REMARK    2  A    between atoms: C_9  and  N_8 
ROOT
ATOM      1  C   UNL d   1       3.571  -1.576  -0.600  0.00  0.00     0.166 A 
ATOM      2  S   UNL d   1       2.156  -2.459  -1.051  0.00  0.00    -0.027 SA
ATOM      3  N   UNL d   1       4.686  -2.240  -0.851  0.00  0.00    -0.278 N 
ATOM      4  HN  UNL d   1       5.615  -1.878  -0.636  1.00  0.00     0.189 HD
ATOM      5  C   UNL d   1       3.192  -3.693  -1.625  0.00  0.00     0.127 A 
ATOM      6  N   UNL d   1       4.469  -3.470  -1.431  0.00  0.00    -0.286 N 
ATOM      7  HN  UNL d   1       5.210  -4.125  -1.680  1.00  0.00     0.188 HD
ATOM      8  N   UNL d   1       3.478  -0.347  -0.045  0.00  0.00    -0.333 N 
ATOM      9  H   UNL d   1       2.610  -0.055   0.394  0.00  0.00     0.168 HD
ENDROOT
BRANCH   8  10
ATOM     10  C   UNL d   1       4.484   0.638  -0.047  0.00  0.00     0.073 A 
ATOM     11  C   UNL d   1       4.538   1.582   0.988  0.00  0.00     0.143 A 
ATOM     12  F   UNL d   1       3.599   1.559   1.949  0.00  0.00    -0.204 F 
ATOM     13  C   UNL d   1       5.546   2.542   1.058  0.00  0.00     0.044 A 
ATOM     14  C   UNL d   1       6.529   2.582   0.072  0.00  0.00     0.003 A 
ATOM     15  C   UNL d   1       6.503   1.652  -0.966  0.00  0.00     0.002 A 
ATOM     16  C   UNL d   1       5.499   0.679  -1.015  0.00  0.00     0.033 A 
ENDBRANCH   8  10
BRANCH   5  17
ATOM     17  S   UNL d   1       2.626  -5.137  -2.422  0.00  0.00    -0.117 SA
ATOM     18  H   UNL d   1       1.363  -4.739  -2.614  0.00  0.00     0.109 HD
ENDBRANCH   5  17
TORSDOF 2
