REMARK  6 active torsions:
REMARK  status: ('A' for Active; 'I' for Inactive)
REMARK    1  A    between atoms: C_9  and  C_1 
REMARK    2  A    between atoms: N_17  and  C_3 
REMARK    3  A    between atoms: C_12  and  C_6 
REMARK       I    between atoms: N_16  and  C_9 
REMARK    4  A    between atoms: C_21  and  C_10 
REMARK    5  A    between atoms: N_13  and  N_16 
REMARK    6  A    between atoms: C_26  and  C_25 
ROOT
ATOM      1  C   UNL d   1       2.412   0.080   0.011  0.00  0.00     0.174 A 
ATOM      2  C   UNL d   1       0.287   0.870   0.032  0.00  0.00     0.058 A 
ATOM      3  C   UNL d   1       1.657   1.232   0.079  0.00  0.00     0.081 A 
ATOM      4  C   UNL d   1       0.288  -0.526  -0.022  0.00  0.00     0.162 A 
ATOM      5  O   UNL d   1       1.577  -1.005  -0.042  0.00  0.00    -0.285 OA
ATOM      6  C   UNL d   1      -0.971   1.509   0.051  0.00  0.00     0.017 A 
ATOM      7  N   UNL d   1      -0.786  -1.341  -0.056  0.00  0.00    -0.335 N 
ATOM      8  HN  UNL d   1      -0.706  -2.358  -0.086  1.00  0.00     0.168 HD
ATOM      9  C   UNL d   1      -1.981  -0.699  -0.045  0.00  0.00     0.045 A 
ATOM     10  C   UNL d   1      -2.105   0.690   0.025  0.00  0.00     0.045 A 
ENDROOT
BRANCH   1  11
ATOM     11  C   UNL d   1       3.858  -0.049  -0.019  0.00  0.00     0.296 C 
ATOM     12  N   UNL d   1       4.357  -1.346  -0.079  0.00  0.00    -0.264 N 
ATOM     13  H   UNL d   1       3.727  -2.139  -0.098  0.00  0.00     0.190 HD
ATOM     14  O   UNL d   1       4.596   0.938  -0.004  0.00  0.00    -0.264 OA
BRANCH  12  15
ATOM     15  N   UNL d   1       5.713  -1.506  -0.089  0.00  0.00    -0.308 N 
ATOM     16  C   UNL d   1       6.180  -2.710  -0.151  0.00  0.00     0.120 C 
ATOM     17  HN  UNL d   1       6.338  -0.701  -0.050  1.00  0.00     0.186 HD
BRANCH  16  18
ATOM     18  C   UNL d   1       7.638  -2.940  -0.142  0.00  0.00    -0.004 A 
ATOM     19  C   UNL d   1       8.133  -4.235  -0.208  0.00  0.00     0.100 A 
ATOM     20  N   UNL d   1       9.454  -4.538  -0.175  0.00  0.00    -0.374 N 
ATOM     21  C   UNL d   1      10.315  -3.499  -0.072  0.00  0.00     0.087 A 
ATOM     22  HN  UNL d   1       9.783  -5.502  -0.225  1.00  0.00     0.164 HD
ATOM     23  C   UNL d   1       9.916  -2.172  -0.011  0.00  0.00     0.018 A 
ATOM     24  C   UNL d   1       8.553  -1.889  -0.050  0.00  0.00     0.015 A 
ENDBRANCH  16  18
ENDBRANCH  12  15
ENDBRANCH   1  11
BRANCH   3  25
ATOM     25  N   UNL d   1       2.172   2.474   0.171  0.00  0.00    -0.396 N 
ATOM     26  H   UNL d   1       1.598   3.284  -0.061  0.00  0.00     0.156 HD
ATOM     27  H   UNL d   1       3.173   2.626   0.022  0.00  0.00     0.156 HD
ENDBRANCH   3  25
BRANCH   6  28
ATOM     28  C   UNL d   1      -1.105   2.957   0.126  0.00  0.00     0.086 A 
ATOM     29  O   UNL d   1      -0.138   3.711  -0.477  0.00  0.00    -0.322 OA
ATOM     30  C   UNL d   1      -0.445   5.016  -0.271  0.00  0.00     0.142 A 
ATOM     31  C   UNL d   1      -1.625   5.125   0.422  0.00  0.00     0.027 A 
ATOM     32  C   UNL d   1      -2.062   3.799   0.661  0.00  0.00     0.040 A 
ENDBRANCH   6  28
BRANCH   9  33
ATOM     33  C   UNL d   1      -3.188  -1.560  -0.128  0.00  0.00    -0.009 A 
ATOM     34  C   UNL d   1      -3.241  -2.809   0.515  0.00  0.00     0.013 A 
ATOM     35  C   UNL d   1      -4.376  -3.626   0.427  0.00  0.00     0.001 A 
ATOM     36  C   UNL d   1      -5.483  -3.213  -0.307  0.00  0.00     0.000 A 
ATOM     37  C   UNL d   1      -5.464  -1.978  -0.947  0.00  0.00     0.001 A 
ATOM     38  C   UNL d   1      -4.329  -1.164  -0.858  0.00  0.00     0.013 A 
ENDBRANCH   9  33
TORSDOF 6
