REMARK  5 active torsions:
REMARK  status: ('A' for Active; 'I' for Inactive)
REMARK    1  A    between atoms: C_6  and  C_1 
REMARK    2  A    between atoms: C_7  and  C_2 
REMARK    3  A    between atoms: C_5  and  C_9 
REMARK    4  A    between atoms: O_16  and  C_6 
REMARK    5  A    between atoms: C_20  and  O_16 
ROOT
ATOM      1  C   UNL d   1      -0.816  -1.097   0.094  0.00  0.00     0.144 A 
ATOM      2  C   UNL d   1       0.571  -1.092   0.092  0.00  0.00     0.119 A 
ATOM      3  N   UNL d   1      -1.281   0.212   0.109  0.00  0.00    -0.340 N 
ATOM      4  HN  UNL d   1      -2.247   0.538   0.092  1.00  0.00     0.167 HD
ATOM      5  C   UNL d   1      -0.184   0.930   0.152  0.00  0.00     0.234 A 
ATOM      6  O   UNL d   1       0.974   0.219   0.154  0.00  0.00    -0.303 OA
ENDROOT
BRANCH   2   7
ATOM      7  C   UNL d   1       1.634  -2.082  -0.030  0.00  0.00     0.001 A 
ATOM      8  C   UNL d   1       2.869  -1.889   0.601  0.00  0.00     0.030 A 
ATOM      9  C   UNL d   1       3.903  -2.837   0.492  0.00  0.00     0.048 A 
ATOM     10  C   UNL d   1       3.682  -3.998  -0.268  0.00  0.00     0.016 A 
ATOM     11  C   UNL d   1       2.466  -4.197  -0.910  0.00  0.00     0.002 A 
ATOM     12  C   UNL d   1       1.454  -3.243  -0.798  0.00  0.00     0.014 A 
BRANCH   9  13
ATOM     13  C   UNL d   1       5.231  -2.629   1.170  0.00  0.00     0.417 C 
ATOM     14  F   UNL d   1       5.303  -1.475   1.889  0.00  0.00    -0.166 F 
ATOM     15  F   UNL d   1       5.536  -3.631   2.040  0.00  0.00    -0.166 F 
ATOM     16  F   UNL d   1       6.263  -2.579   0.282  0.00  0.00    -0.166 F 
ENDBRANCH   9  13
ENDBRANCH   2   7
BRANCH   1  17
ATOM     17  C   UNL d   1      -1.669  -2.271   0.028  0.00  0.00     0.312 C 
ATOM     18  O   UNL d   1      -1.337  -3.378   0.435  0.00  0.00    -0.258 OA
BRANCH  17  19
ATOM     19  O   UNL d   1      -2.822  -2.026  -0.663  0.00  0.00    -0.317 OA
BRANCH  19  20
ATOM     20  C   UNL d   1      -3.475  -3.193  -1.177  0.00  0.00     0.175 C 
ATOM     21  C   UNL d   1      -2.842  -3.558  -2.510  0.00  0.00     0.034 C 
ENDBRANCH  19  20
ENDBRANCH  17  19
ENDBRANCH   1  17
TORSDOF 5
