REMARK  3 active torsions:
REMARK  status: ('A' for Active; 'I' for Inactive)
REMARK    1  A    between atoms: S_8  and  C_2 
REMARK    2  A    between atoms: C_11  and  S_8 
REMARK    3  A    between atoms: C_10  and  C_11 
ROOT
ATOM      1  C   UNL d   1       4.002   4.677  -0.012  0.00  0.00    -0.019 A 
ATOM      2  C   UNL d   1       2.607   4.403  -0.211  0.00  0.00    -0.037 A 
ATOM      3  C   UNL d   1       4.438   6.030   0.027  0.00  0.00    -0.025 A 
ATOM      4  C   UNL d   1       2.163   6.805  -0.287  0.00  0.00     0.001 A 
ATOM      5  C   UNL d   1       1.714   5.489  -0.317  0.00  0.00     0.009 A 
ATOM      6  C   UNL d   1       5.000   3.686   0.164  0.00  0.00     0.013 A 
ATOM      7  C   UNL d   1       3.516   7.072  -0.118  0.00  0.00     0.012 A 
ATOM      8  C   UNL d   1       5.795   6.340   0.223  0.00  0.00     0.012 A 
ATOM      9  C   UNL d   1       6.348   4.009   0.353  0.00  0.00     0.001 A 
ATOM     10  C   UNL d   1       6.746   5.337   0.383  0.00  0.00     0.001 A 
ENDROOT
BRANCH   2  11
ATOM     11  C   UNL d   1       2.069   2.975  -0.182  0.00  0.00     0.121 C 
BRANCH  11  12
ATOM     12  S   UNL d   1       0.615   2.643  -1.240  0.00  0.00    -0.088 SA
BRANCH  12  13
ATOM     13  C   UNL d   1       0.375   0.960  -0.925  0.00  0.00     0.162 A 
ATOM     14  N   UNL d   1      -0.645   0.212  -1.442  0.00  0.00    -0.326 N 
ATOM     15  C   UNL d   1      -0.446  -1.055  -0.972  0.00  0.00     0.201 A 
ATOM     16  C   UNL d   1      -1.734   0.592  -2.299  0.00  0.00     0.159 C 
ATOM     17  N   UNL d   1       0.619  -1.079  -0.204  0.00  0.00    -0.294 N 
ATOM     18  N   UNL d   1       1.137   0.196  -0.174  0.00  0.00    -0.279 N 
ATOM     19  HN  UNL d   1       0.994  -1.894   0.282  1.00  0.00     0.187 HD
ATOM     20  HN  UNL d   1       1.965   0.495   0.340  1.00  0.00     0.189 HD
ENDBRANCH  12  13
ENDBRANCH  11  12
ENDBRANCH   2  11
TORSDOF 3
