REMARK  1 active torsions:
REMARK  status: ('A' for Active; 'I' for Inactive)
REMARK    1  A    between atoms: C_6  and  C_1 
ROOT
ATOM      1  C   UNL d   1      -1.660  -1.486  -0.775  0.00  0.00     0.095 C 
ATOM      2  S   UNL d   1      -0.443  -1.787   0.568  0.00  0.00    -0.117 SA
ATOM      3  N   UNL d   1      -0.679   1.377   0.478  0.00  0.00    -0.326 N 
ATOM      4  C   UNL d   1      -1.881   0.950  -0.029  0.00  0.00     0.223 C 
ATOM      5  C   UNL d   1      -1.843  -0.025  -1.183  0.00  0.00     0.123 C 
ATOM      6  C   UNL d   1       0.808  -0.578   0.163  0.00  0.00     0.028 A 
ATOM      7  C   UNL d   1       0.588   0.809   0.247  0.00  0.00     0.051 A 
ATOM      8  O   UNL d   1      -2.933   1.456   0.357  0.00  0.00    -0.273 OA
ATOM      9  C   UNL d   1       2.103  -1.057  -0.079  0.00  0.00     0.021 A 
ATOM     10  C   UNL d   1       1.672   1.688   0.141  0.00  0.00     0.031 A 
ATOM     11  C   UNL d   1       3.167  -0.171  -0.243  0.00  0.00     0.002 A 
ATOM     12  C   UNL d   1       2.953   1.200  -0.126  0.00  0.00     0.002 A 
ATOM     13  H   UNL d   1      -0.734   2.254   0.981  0.00  0.00     0.169 HD
ENDROOT
BRANCH   1  14
ATOM     14  C   UNL d   1      -1.351  -2.423  -1.953  0.00  0.00    -0.033 A 
ATOM     15  C   UNL d   1      -1.941  -3.723  -2.075  0.00  0.00    -0.018 A 
ATOM     16  C   UNL d   1      -1.549  -4.549  -3.166  0.00  0.00    -0.025 A 
ATOM     17  C   UNL d   1      -2.890  -4.270  -1.176  0.00  0.00     0.013 A 
ATOM     18  C   UNL d   1      -2.087  -5.838  -3.317  0.00  0.00     0.012 A 
ATOM     19  C   UNL d   1      -0.610  -4.095  -4.098  0.00  0.00     0.012 A 
ATOM     20  C   UNL d   1      -3.017  -6.339  -2.412  0.00  0.00     0.001 A 
ATOM     21  C   UNL d   1      -3.421  -5.553  -1.343  0.00  0.00     0.001 A 
ATOM     22  C   UNL d   1      -0.031  -2.841  -3.972  0.00  0.00     0.002 A 
ATOM     23  C   UNL d   1      -0.387  -2.023  -2.906  0.00  0.00     0.009 A 
ENDBRANCH   1  14
TORSDOF 1
