REMARK  4 active torsions:
REMARK  status: ('A' for Active; 'I' for Inactive)
REMARK    1  A    between atoms: C_5  and  C_1 
REMARK    2  A    between atoms: S_4  and  C_9 
REMARK    3  A    between atoms: C_18  and  S_4 
REMARK    4  A    between atoms: C_9  and  C_6 
ROOT
ATOM      1  C   UNL d   1       0.522  -1.018  -0.009  0.00  0.00     0.186 A 
ATOM      2  N   UNL d   1       1.210   0.057   0.322  0.00  0.00    -0.322 N 
ATOM      3  HN  UNL d   1       2.159   0.114   0.691  1.00  0.00     0.169 HD
ATOM      4  C   UNL d   1       0.339   1.078   0.049  0.00  0.00     0.118 A 
ATOM      5  N   UNL d   1      -0.844   0.682  -0.438  0.00  0.00    -0.246 N 
ATOM      6  HN  UNL d   1      -1.636   1.259  -0.721  1.00  0.00     0.196 HD
ATOM      7  O   UNL d   1      -0.733  -0.706  -0.465  0.00  0.00    -0.217 OA
ENDROOT
BRANCH   4   8
ATOM      8  C   UNL d   1       0.735   2.494   0.088  0.00  0.00     0.224 C 
BRANCH   8   9
ATOM      9  S   UNL d   1       1.157   3.065   1.707  0.00  0.00     0.182 S 
ATOM     10  O   UNL d   1       1.552   4.457   1.589  0.00  0.00    -0.222 OA
ATOM     11  O   UNL d   1       0.098   2.690   2.627  0.00  0.00    -0.222 OA
BRANCH   9  12
ATOM     12  C   UNL d   1       2.632   2.187   2.180  0.00  0.00     0.059 A 
ATOM     13  C   UNL d   1       3.802   2.353   1.433  0.00  0.00     0.023 A 
ATOM     14  C   UNL d   1       4.966   1.689   1.827  0.00  0.00     0.002 A 
ATOM     15  C   UNL d   1       4.960   0.883   2.967  0.00  0.00     0.000 A 
ATOM     16  C   UNL d   1       3.792   0.737   3.718  0.00  0.00     0.002 A 
ATOM     17  C   UNL d   1       2.622   1.387   3.326  0.00  0.00     0.023 A 
ENDBRANCH   9  12
ENDBRANCH   8   9
ENDBRANCH   4   8
BRANCH   1  18
ATOM     18  C   UNL d   1       1.068  -2.389   0.042  0.00  0.00     0.073 A 
ATOM     19  C   UNL d   1       0.457  -3.526  -0.425  0.00  0.00     0.089 A 
ATOM     20  O   UNL d   1       1.294  -4.582  -0.234  0.00  0.00    -0.242 OA
ATOM     21  C   UNL d   1      -0.834  -3.822  -1.075  0.00  0.00     0.080 C 
ATOM     22  N   UNL d   1       2.458  -4.148   0.376  0.00  0.00    -0.265 N 
ATOM     23  C   UNL d   1       2.312  -2.828   0.545  0.00  0.00     0.045 A 
ATOM     24  HN  UNL d   1       3.262  -4.717   0.642  1.00  0.00     0.194 HD
ATOM     25  C   UNL d   1       3.374  -2.038   1.209  0.00  0.00     0.071 C 
ENDBRANCH   1  18
TORSDOF 4
