REMARK  1 active torsions:
REMARK  status: ('A' for Active; 'I' for Inactive)
REMARK    1  A    between atoms: O_10  and  C_9 
ROOT
ATOM      1  O   UNL d   1       1.120   1.452  -0.026  0.00  0.00    -0.342 OA
ATOM      2  C   UNL d   1      -0.029   0.705  -0.007  0.00  0.00     0.112 A 
ATOM      3  C   UNL d   1       1.257  -1.418  -0.015  0.00  0.00     0.034 A 
ATOM      4  C   UNL d   1       2.421  -0.739   0.001  0.00  0.00     0.047 A 
ATOM      5  C   UNL d   1      -0.013  -0.694  -0.004  0.00  0.00     0.001 A 
ATOM      6  N   UNL d   1       4.715  -2.033   0.003  0.00  0.00    -0.192 NA
ATOM      7  C   UNL d   1       3.709  -1.457   0.002  0.00  0.00     0.097 C 
ATOM      8  C   UNL d   1       2.397   0.784   0.027  0.00  0.00     0.226 A 
ATOM      9  C   UNL d   1      -1.256   1.399  -0.003  0.00  0.00     0.102 A 
ATOM     10  C   UNL d   1      -1.221  -1.405   0.007  0.00  0.00     0.014 A 
ATOM     11  C   UNL d   1      -2.435  -0.722   0.013  0.00  0.00     0.004 A 
ATOM     12  C   UNL d   1      -2.453   0.673   0.008  0.00  0.00     0.040 A 
ENDROOT
BRANCH   9  13
ATOM     13  O   UNL d   1      -1.182   2.770  -0.010  0.00  0.00    -0.353 OA
ATOM     14  C   UNL d   1      -2.410   3.488  -0.006  0.00  0.00     0.210 C 
ENDBRANCH   9  13
TORSDOF 1
