REMARK  4 active torsions:
REMARK  status: ('A' for Active; 'I' for Inactive)
REMARK    1  A    between atoms: S_14  and  C_1 
REMARK    2  A    between atoms: C_12  and  C_15 
REMARK    3  A    between atoms: C_20  and  S_14 
REMARK    4  A    between atoms: C_15  and  C_20 
ROOT
ATOM      1  C   UNL d   1      -2.292  -0.412   0.827  0.00  0.00     0.145 A 
ATOM      2  N   UNL d   1      -1.666  -1.522   0.528  0.00  0.00    -0.335 N 
ATOM      3  HN  UNL d   1      -2.058  -2.366   0.110  1.00  0.00     0.168 HD
ATOM      4  N   UNL d   1      -1.458   0.534   1.347  0.00  0.00    -0.335 N 
ATOM      5  C   UNL d   1      -0.362  -1.298   0.903  0.00  0.00     0.062 A 
ATOM      6  C   UNL d   1      -0.205  -0.020   1.433  0.00  0.00     0.062 A 
ATOM      7  C   UNL d   1       0.745  -2.153   0.837  0.00  0.00     0.057 A 
ATOM      8  C   UNL d   1       1.008   0.466   1.923  0.00  0.00     0.057 A 
ATOM      9  C   UNL d   1       2.103  -0.410   1.875  0.00  0.00     0.058 A 
ATOM     10  C   UNL d   1       1.975  -1.700   1.336  0.00  0.00     0.058 A 
ATOM     11 CL   UNL d   1       3.307  -2.803   1.270  0.00  0.00    -0.082 Cl
ATOM     12 CL   UNL d   1       3.599   0.172   2.521  0.00  0.00    -0.082 Cl
ATOM     13  H   UNL d   1      -1.741   1.455   1.647  0.00  0.00     0.168 HD
ENDROOT
BRANCH   1  14
ATOM     14  S   UNL d   1      -3.962  -0.061   0.667  0.00  0.00    -0.086 SA
BRANCH  14  15
ATOM     15  C   UNL d   1      -4.649  -1.718   0.343  0.00  0.00     0.166 C 
BRANCH  15  16
ATOM     16  C   UNL d   1      -6.165  -1.691   0.424  0.00  0.00     0.169 C 
ATOM     17  O   UNL d   1      -6.811  -0.685   0.717  0.00  0.00    -0.291 OA
BRANCH  16  18
ATOM     18  C   UNL d   1      -6.936  -2.943   0.147  0.00  0.00     0.013 A 
ATOM     19  C   UNL d   1      -8.338  -2.871   0.238  0.00  0.00     0.055 A 
ATOM     20  C   UNL d   1      -9.071  -4.003  -0.031  0.00  0.00     0.105 A 
ATOM     21  O   UNL d   1     -10.426  -4.093  -0.007  0.00  0.00    -0.323 OA
ATOM     22  C   UNL d   1      -8.470  -5.190  -0.369  0.00  0.00     0.105 A 
ATOM     23  C   UNL d   1     -10.614  -5.444  -0.471  0.00  0.00     0.352 A 
ATOM     24  O   UNL d   1      -9.375  -6.177  -0.603  0.00  0.00    -0.323 OA
ATOM     25  C   UNL d   1      -7.098  -5.307  -0.456  0.00  0.00     0.040 A 
ATOM     26  C   UNL d   1      -6.321  -4.167  -0.199  0.00  0.00     0.018 A 
ENDBRANCH  16  18
ENDBRANCH  15  16
ENDBRANCH  14  15
ENDBRANCH   1  14
TORSDOF 4
