REMARK  4 active torsions:
REMARK  status: ('A' for Active; 'I' for Inactive)
REMARK       I    between atoms: N_2  and  C_1 
REMARK    1  A    between atoms: O_8  and  C_1 
REMARK    2  A    between atoms: C_5  and  N_2 
REMARK    3  A    between atoms: O_9  and  C_7 
REMARK    4  A    between atoms: C_10  and  O_8 
ROOT
ATOM      1  C   UNL d   1      -3.632   1.535  -0.269  0.00  0.00    -0.091 C 
ATOM      2  C   UNL d   1      -3.895   2.585  -0.789  0.00  0.00     0.014 C 
ATOM      3  C   UNL d   1      -3.262   0.257   0.336  0.00  0.00     0.273 C 
ENDROOT
BRANCH   3   4
ATOM      4  O   UNL d   1      -1.837   0.172   0.338  0.00  0.00    -0.292 OA
BRANCH   4   5
ATOM      5  C   UNL d   1      -1.359  -1.097   0.400  0.00  0.00     0.366 C 
ATOM      6  N   UNL d   1      -0.056  -1.020   0.792  0.00  0.00    -0.300 N 
ATOM      7  H   UNL d   1       0.291  -0.076   0.897  0.00  0.00     0.171 HD
ATOM      8  O   UNL d   1      -2.041  -2.094   0.245  0.00  0.00    -0.238 OA
BRANCH   6   9
ATOM      9  C   UNL d   1       0.593  -1.999   1.569  0.00  0.00     0.070 A 
ATOM     10  C   UNL d   1       1.565  -1.560   2.481  0.00  0.00     0.095 A 
ATOM     11  C   UNL d   1       2.174  -2.455   3.359  0.00  0.00     0.039 A 
ATOM     12  C   UNL d   1       1.799  -3.800   3.339  0.00  0.00     0.003 A 
ATOM     13  C   UNL d   1       0.849  -4.248   2.422  0.00  0.00     0.002 A 
ATOM     14  C   UNL d   1       0.251  -3.351   1.535  0.00  0.00     0.032 A 
BRANCH  10  15
ATOM     15  O   UNL d   1       1.945  -0.239   2.505  0.00  0.00    -0.354 OA
ATOM     16  C   UNL d   1       1.132   0.509   3.412  0.00  0.00     0.210 C 
ENDBRANCH  10  15
ENDBRANCH   6   9
ENDBRANCH   4   5
ENDBRANCH   3   4
TORSDOF 4
