REMARK  5 active torsions:
REMARK  status: ('A' for Active; 'I' for Inactive)
REMARK    1  A    between atoms: C_6  and  C_1 
REMARK    2  A    between atoms: C_7  and  C_2 
REMARK    3  A    between atoms: C_8  and  C_3 
REMARK    4  A    between atoms: C_9  and  C_4 
REMARK    5  A    between atoms: O_20  and  C_8 
ROOT
ATOM      1  C   UNL d   1       1.488   0.751   0.072  0.00  0.00     0.036 A 
ATOM      2  C   UNL d   1       1.504  -0.692  -0.083  0.00  0.00     0.033 A 
ATOM      3  C   UNL d   1       0.198   1.257   0.109  0.00  0.00     0.093 A 
ATOM      4  C   UNL d   1       0.223  -1.234  -0.116  0.00  0.00     0.065 A 
ATOM      5  S   UNL d   1      -0.958  -0.002   0.043  0.00  0.00    -0.078 SA
ENDROOT
BRANCH   1   6
ATOM      6  C   UNL d   1       2.725   1.610   0.119  0.00  0.00     0.087 A 
ATOM      7  O   UNL d   1       3.875   1.312  -0.558  0.00  0.00    -0.322 OA
ATOM      8  C   UNL d   1       4.778   2.287  -0.300  0.00  0.00     0.142 A 
ATOM      9  C   UNL d   1       4.229   3.236   0.524  0.00  0.00     0.027 A 
ATOM     10  C   UNL d   1       2.904   2.805   0.793  0.00  0.00     0.040 A 
ENDBRANCH   1   6
BRANCH   2  11
ATOM     11  C   UNL d   1       2.771  -1.507  -0.125  0.00  0.00     0.087 A 
ATOM     12  O   UNL d   1       3.916  -1.151   0.537  0.00  0.00    -0.322 OA
ATOM     13  C   UNL d   1       4.859  -2.087   0.278  0.00  0.00     0.142 A 
ATOM     14  C   UNL d   1       4.357  -3.049  -0.561  0.00  0.00     0.027 A 
ATOM     15  C   UNL d   1       3.011  -2.680  -0.816  0.00  0.00     0.040 A 
ENDBRANCH   2  11
BRANCH   3  16
ATOM     16  C   UNL d   1      -0.327   2.609   0.142  0.00  0.00     0.184 C 
ATOM     17  O   UNL d   1      -1.316   2.979   0.759  0.00  0.00    -0.646 OA
BRANCH  16  18
ATOM     18  O   UNL d   1       0.357   3.466  -0.660  0.00  0.00    -0.772 OA
ATOM     19  H   UNL d   1       1.074   3.055  -1.178  0.00  0.00     0.167 HD
ENDBRANCH  16  18
ENDBRANCH   3  16
BRANCH   4  20
ATOM     20  C   UNL d   1      -0.213  -2.633  -0.129  0.00  0.00     0.163 C 
ATOM     21  O   UNL d   1       0.489  -3.562   0.276  0.00  0.00    -0.292 OA
ATOM     22  C   UNL d   1      -1.607  -2.971  -0.616  0.00  0.00     0.097 C 
ENDBRANCH   4  20
TORSDOF 5
