REMARK  6 active torsions:
REMARK  status: ('A' for Active; 'I' for Inactive)
REMARK    1  A    between atoms: C_5  and  C_1 
REMARK       I    between atoms: N_13  and  C_5 
REMARK    2  A    between atoms: O_17  and  C_8 
REMARK    3  A    between atoms: O_18  and  C_10 
REMARK    4  A    between atoms: C_19  and  N_13 
REMARK    5  A    between atoms: C_15  and  C_22 
REMARK    6  A    between atoms: C_22  and  C_19 
ROOT
ATOM      1  C   UNL d   1      -2.915  -2.290  -0.209  0.00  0.00     0.257 C 
ATOM      2  O   UNL d   1      -2.651  -3.490  -0.243  0.00  0.00    -0.267 OA
ATOM      3  N   UNL d   1      -4.209  -1.828  -0.263  0.00  0.00    -0.356 N 
ATOM      4  H   UNL d   1      -4.378  -0.823  -0.219  0.00  0.00     0.162 HD
ENDROOT
BRANCH   3   5
ATOM      5  C   UNL d   1      -5.330  -2.743  -0.387  0.00  0.00     0.127 C 
BRANCH   5   6
ATOM      6  C   UNL d   1      -6.675  -2.017  -0.433  0.00  0.00     0.058 C 
BRANCH   6   7
ATOM      7  C   UNL d   1      -7.846  -2.968  -0.525  0.00  0.00    -0.054 A 
ATOM      8  C   UNL d   1      -8.446  -3.473   0.641  0.00  0.00     0.046 A 
ATOM      9  C   UNL d   1      -9.531  -4.366   0.584  0.00  0.00     0.102 A 
ATOM     10  C   UNL d   1     -10.030  -4.744  -0.675  0.00  0.00     0.101 A 
ATOM     11  C   UNL d   1      -9.413  -4.261  -1.837  0.00  0.00     0.040 A 
ATOM     12  C   UNL d   1      -8.333  -3.380  -1.767  0.00  0.00     0.010 A 
BRANCH   9  13
ATOM     13  O   UNL d   1     -10.112  -4.917   1.694  0.00  0.00    -0.353 OA
ATOM     14  C   UNL d   1      -9.589  -4.568   2.969  0.00  0.00     0.210 C 
ENDBRANCH   9  13
BRANCH  10  15
ATOM     15  O   UNL d   1     -11.061  -5.612  -0.935  0.00  0.00    -0.353 OA
ATOM     16  C   UNL d   1     -12.125  -5.649   0.008  0.00  0.00     0.210 C 
ENDBRANCH  10  15
ENDBRANCH   6   7
ENDBRANCH   5   6
ENDBRANCH   3   5
BRANCH   1  17
ATOM     17  C   UNL d   1      -1.836  -1.255  -0.117  0.00  0.00     0.108 A 
ATOM     18  C   UNL d   1      -2.107   0.199  -0.070  0.00  0.00     0.304 A 
ATOM     19  O   UNL d   1      -1.012   1.058  -0.056  0.00  0.00    -0.274 OA
ATOM     20  O   UNL d   1      -3.253   0.644  -0.049  0.00  0.00    -0.259 OA
ATOM     21  C   UNL d   1       0.307   0.572  -0.037  0.00  0.00     0.089 A 
ATOM     22  C   UNL d   1       0.556  -0.795  -0.034  0.00  0.00    -0.001 A 
ATOM     23  C   UNL d   1       1.343   1.504  -0.016  0.00  0.00     0.038 A 
ATOM     24  C   UNL d   1      -0.571  -1.712  -0.090  0.00  0.00     0.037 A 
ATOM     25  C   UNL d   1       1.879  -1.242   0.002  0.00  0.00     0.014 A 
ATOM     26  C   UNL d   1       2.929  -0.318   0.029  0.00  0.00     0.001 A 
ATOM     27  C   UNL d   1       2.662   1.052   0.015  0.00  0.00     0.003 A 
ENDBRANCH   1  17
TORSDOF 6
