REMARK  1 active torsions:
REMARK  status: ('A' for Active; 'I' for Inactive)
REMARK    1  A    between atoms: C_3  and  C_1 
REMARK       I    between atoms: N_4  and  C_3 
ROOT
ATOM      1  C   UNL d   1      -1.077  -2.732  -0.306  0.00  0.00     0.256 C 
ATOM      2  N   UNL d   1      -0.137  -3.686   0.075  0.00  0.00    -0.343 N 
ATOM      3  C   UNL d   1      -0.002  -4.846  -0.811  0.00  0.00     0.165 C 
ATOM      4  C   UNL d   1       0.993  -5.895  -0.363  0.00  0.00    -0.034 A 
ATOM      5  C   UNL d   1       0.530  -3.771   1.379  0.00  0.00     0.131 C 
ATOM      6  O   UNL d   1      -1.758  -2.850  -1.328  0.00  0.00    -0.267 OA
ATOM      7  C   UNL d   1       1.985  -5.589   0.587  0.00  0.00    -0.049 A 
ATOM      8  C   UNL d   1       1.983  -4.218   1.210  0.00  0.00     0.059 C 
ATOM      9  C   UNL d   1       0.948  -7.184  -0.910  0.00  0.00     0.009 A 
ATOM     10  C   UNL d   1       2.930  -6.553   0.953  0.00  0.00     0.008 A 
ATOM     11  C   UNL d   1       1.871  -8.153  -0.514  0.00  0.00     0.001 A 
ATOM     12  C   UNL d   1       2.865  -7.836   0.409  0.00  0.00     0.001 A 
ENDROOT
BRANCH   1  13
ATOM     13  C   UNL d   1      -1.367  -1.560   0.528  0.00  0.00     0.061 A 
ATOM     14  C   UNL d   1      -0.389  -0.620   0.939  0.00  0.00     0.082 A 
ATOM     15  N   UNL d   1       0.934  -0.636   0.697  0.00  0.00    -0.310 N 
ATOM     16  C   UNL d   1      -0.808   0.587   1.752  0.00  0.00     0.068 A 
ATOM     17  S   UNL d   1       1.582   0.693   1.447  0.00  0.00     0.068 SA
ATOM     18  HN  UNL d   1       1.443  -1.334   0.155  1.00  0.00     0.176 HD
ATOM     19  N   UNL d   1       0.221   1.372   2.107  0.00  0.00    -0.310 N 
ATOM     20  HN  UNL d   1       0.174   2.220   2.672  1.00  0.00     0.176 HD
ATOM     21  C   UNL d   1      -2.167   0.818   2.080  0.00  0.00     0.032 A 
ATOM     22  C   UNL d   1      -3.093  -0.123   1.603  0.00  0.00     0.003 A 
ATOM     23  C   UNL d   1      -2.712  -1.261   0.858  0.00  0.00     0.019 A 
ENDBRANCH   1  13
TORSDOF 1
