REMARK  6 active torsions:
REMARK  status: ('A' for Active; 'I' for Inactive)
REMARK    1  A    between atoms: C_2  and  C_1 
REMARK       I    between atoms: N_4  and  C_2 
REMARK    2  A    between atoms: C_10  and  C_6 
REMARK    3  A    between atoms: C_11  and  C_10 
REMARK       I    between atoms: N_15  and  C_11 
REMARK    4  A    between atoms: C_12  and  C_14 
REMARK    5  A    between atoms: O_25  and  C_12 
REMARK    6  A    between atoms: C_19  and  N_15 
ROOT
ATOM      1  C   UNL d   1       3.825   0.207  -0.329  0.00  0.00     0.263 C 
ATOM      2  N   UNL d   1       4.698  -0.887  -0.250  0.00  0.00    -0.332 N 
ATOM      3  C   UNL d   1       4.425  -2.182  -0.941  0.00  0.00     0.188 C 
ATOM      4  C   UNL d   1       3.968  -3.262   0.073  0.00  0.00     0.241 C 
ATOM      5  N   UNL d   1       4.556  -3.228   1.318  0.00  0.00    -0.358 N 
ATOM      6  O   UNL d   1       2.808   0.159  -1.024  0.00  0.00    -0.267 OA
ATOM      7  O   UNL d   1       3.272  -4.232  -0.221  0.00  0.00    -0.271 OA
ATOM      8  C   UNL d   1       5.660  -1.056   0.854  0.00  0.00     0.147 C 
ATOM      9  C   UNL d   1       5.084  -2.012   1.899  0.00  0.00     0.142 C 
ATOM     10  H   UNL d   1       4.238  -3.968   1.934  0.00  0.00     0.162 HD
ENDROOT
BRANCH   3  11
ATOM     11  C   UNL d   1       3.536  -2.224  -2.189  0.00  0.00     0.138 C 
BRANCH  11  12
ATOM     12  C   UNL d   1       4.238  -1.583  -3.361  0.00  0.00     0.224 C 
ATOM     13  N   UNL d   1       3.719  -0.350  -3.700  0.00  0.00    -0.327 N 
ATOM     14  H   UNL d   1       2.985   0.006  -3.088  0.00  0.00     0.169 HD
ATOM     15  O   UNL d   1       5.184  -2.152  -3.897  0.00  0.00    -0.273 OA
BRANCH  13  16
ATOM     16  C   UNL d   1       4.157   0.513  -4.725  0.00  0.00     0.035 A 
ATOM     17  C   UNL d   1       5.199   0.214  -5.609  0.00  0.00     0.047 A 
ATOM     18  C   UNL d   1       5.611   1.153  -6.569  0.00  0.00     0.041 A 
ATOM     19  C   UNL d   1       4.946   2.381  -6.669  0.00  0.00     0.018 A 
ATOM     20  C   UNL d   1       3.894   2.676  -5.806  0.00  0.00     0.003 A 
ATOM     21  C   UNL d   1       3.507   1.749  -4.836  0.00  0.00     0.029 A 
BRANCH  18  22
ATOM     22  C   UNL d   1       6.764   0.909  -7.479  0.00  0.00     0.293 C 
ATOM     23  O   UNL d   1       7.016   1.607  -8.447  0.00  0.00    -0.259 OA
BRANCH  22  24
ATOM     24  O   UNL d   1       7.509  -0.131  -7.031  0.00  0.00    -0.323 OA
ATOM     25  C   UNL d   1       8.726  -0.354  -7.745  0.00  0.00     0.213 C 
ENDBRANCH  22  24
ENDBRANCH  18  22
ENDBRANCH  13  16
ENDBRANCH  11  12
ENDBRANCH   3  11
BRANCH   1  26
ATOM     26  C   UNL d   1       4.150   1.423   0.405  0.00  0.00     0.096 C 
ATOM     27  S   UNL d   1       2.918   2.170   1.328  0.00  0.00    -0.082 SA
ATOM     28  C   UNL d   1       3.956   3.433   1.861  0.00  0.00     0.017 A 
ATOM     29  C   UNL d   1       3.620   4.507   2.709  0.00  0.00     0.020 A 
ATOM     30  C   UNL d   1       5.248   3.281   1.345  0.00  0.00     0.004 A 
ATOM     31  C   UNL d   1       4.613   5.417   3.081  0.00  0.00     0.001 A 
ATOM     32  C   UNL d   1       5.914   5.261   2.627  0.00  0.00     0.001 A 
ATOM     33  C   UNL d   1       6.234   4.215   1.757  0.00  0.00     0.014 A 
ATOM     34  C   UNL d   1       5.308   2.175   0.426  0.00  0.00     0.068 C 
ATOM     35 CL   UNL d   1       6.709   1.865  -0.525  0.00  0.00    -0.082 Cl
ENDBRANCH   1  26
TORSDOF 6
