REMARK  4 active torsions:
REMARK  status: ('A' for Active; 'I' for Inactive)
REMARK    1  A    between atoms: C_2  and  C_1 
REMARK       I    between atoms: N_5  and  C_1 
REMARK    2  A    between atoms: C_3  and  C_4 
REMARK    3  A    between atoms: O_14  and  C_3 
REMARK    4  A    between atoms: C_7  and  N_5 
ROOT
ATOM      1  C   UNL d   1       1.156  -0.363  -0.476  0.00  0.00     0.241 C 
ATOM      2  N   UNL d   1       0.363   0.753  -0.603  0.00  0.00    -0.353 N 
ATOM      3  O   UNL d   1       0.770  -1.524  -0.454  0.00  0.00    -0.269 OA
ATOM      4  H   UNL d   1       0.813   1.658  -0.627  0.00  0.00     0.163 HD
ENDROOT
BRANCH   2   5
ATOM      5  C   UNL d   1      -1.095   0.768  -0.720  0.00  0.00     0.085 C 
ATOM      6  C   UNL d   1      -1.792   0.182   0.516  0.00  0.00     0.034 C 
ATOM      7  C   UNL d   1      -3.337   0.217   0.425  0.00  0.00    -0.045 C 
ATOM      8  C   UNL d   1      -3.919  -0.580   1.609  0.00  0.00     0.015 C 
ATOM      9  C   UNL d   1      -3.877   1.658   0.527  0.00  0.00     0.015 C 
ATOM     10  C   UNL d   1      -3.791  -0.438  -0.899  0.00  0.00     0.013 C 
ATOM     11  C   UNL d   1      -3.122   0.174  -2.141  0.00  0.00    -0.016 C 
ATOM     12  C   UNL d   1      -1.589   0.131  -2.023  0.00  0.00     0.029 C 
ATOM     13  C   UNL d   1      -3.587  -0.548  -3.406  0.00  0.00     0.010 C 
ENDBRANCH   2   5
BRANCH   1  14
ATOM     14  C   UNL d   1       2.592  -0.007  -0.356  0.00  0.00     0.080 C 
ATOM     15  C   UNL d   1       3.548  -0.942  -0.235  0.00  0.00     0.086 C 
BRANCH  15  16
ATOM     16  C   UNL d   1       4.941  -0.477  -0.120  0.00  0.00     0.165 C 
ATOM     17  O   UNL d   1       5.276   0.696  -0.105  0.00  0.00    -0.647 OA
BRANCH  16  18
ATOM     18  O   UNL d   1       5.822  -1.491  -0.034  0.00  0.00    -0.773 OA
ATOM     19  H   UNL d   1       5.444  -2.388  -0.060  0.00  0.00     0.167 HD
ENDBRANCH  16  18
ENDBRANCH  15  16
ENDBRANCH   1  14
TORSDOF 4
