REMARK  2 active torsions:
REMARK  status: ('A' for Active; 'I' for Inactive)
REMARK    1  A    between atoms: C_2  and  C_1 
REMARK    2  A    between atoms: C_10  and  C_3 
ROOT
ATOM      1  C   UNL d   1       0.862   0.084  -0.756  0.00  0.00     0.062 C 
ATOM      2  C   UNL d   1       0.186   1.152  -0.277  0.00  0.00     0.035 C 
ATOM      3  C   UNL d   1       0.155  -1.049  -1.291  0.00  0.00     0.101 C 
ATOM      4  N   UNL d   1      -0.395  -1.972  -1.732  0.00  0.00    -0.191 NA
ENDROOT
BRANCH   1   5
ATOM      5  C   UNL d   1       2.306   0.071  -0.779  0.00  0.00     0.025 A 
ATOM      6  S   UNL d   1       3.267   0.914   0.388  0.00  0.00    -0.101 SA
ATOM      7  C   UNL d   1       4.734   0.380  -0.294  0.00  0.00     0.050 A 
ATOM      8  C   UNL d   1       4.530  -0.434  -1.381  0.00  0.00     0.008 A 
ATOM      9  C   UNL d   1       3.143  -0.612  -1.657  0.00  0.00     0.021 A 
ENDBRANCH   1   5
BRANCH   2  10
ATOM     10  C   UNL d   1      -1.277   1.255  -0.249  0.00  0.00    -0.032 A 
ATOM     11  C   UNL d   1      -1.950   1.814  -1.344  0.00  0.00     0.051 A 
ATOM     12  C   UNL d   1      -3.329   1.816  -1.318  0.00  0.00     0.105 A 
ATOM     13  O   UNL d   1      -4.139   2.292  -2.301  0.00  0.00    -0.323 OA
ATOM     14  C   UNL d   1      -4.036   1.300  -0.258  0.00  0.00     0.105 A 
ATOM     15  C   UNL d   1      -5.438   1.976  -1.757  0.00  0.00     0.352 A 
ATOM     16  O   UNL d   1      -5.380   1.376  -0.446  0.00  0.00    -0.323 OA
ATOM     17  C   UNL d   1      -3.405   0.768   0.846  0.00  0.00     0.040 A 
ATOM     18  C   UNL d   1      -2.005   0.749   0.849  0.00  0.00     0.014 A 
ENDBRANCH   2  10
TORSDOF 2
