REMARK  7 active torsions:
REMARK  status: ('A' for Active; 'I' for Inactive)
REMARK    1  A    between atoms: S_4  and  C_1 
REMARK    2  A    between atoms: C_8  and  C_2 
REMARK    3  A    between atoms: C_13  and  C_3 
REMARK    4  A    between atoms: C_10  and  S_4 
REMARK    5  A    between atoms: C_7  and  C_5 
REMARK    6  A    between atoms: O_26  and  C_8 
REMARK    7  A    between atoms: C_9  and  C_14 
ROOT
ATOM      1  C   UNL d   1       1.573   0.805   0.029  0.00  0.00     0.099 A 
ATOM      2  C   UNL d   1       0.302   1.365  -0.001  0.00  0.00     0.103 A 
ATOM      3  C   UNL d   1       1.528  -0.673   0.057  0.00  0.00     0.020 A 
ATOM      4  C   UNL d   1       0.205  -1.124  -0.049  0.00  0.00     0.102 A 
ATOM      5  S   UNL d   1      -0.914   0.169  -0.023  0.00  0.00    -0.077 SA
ENDROOT
BRANCH   1   6
ATOM      6  S   UNL d   1       3.035   1.777  -0.080  0.00  0.00     0.209 S 
ATOM      7  O   UNL d   1       3.632   1.364  -1.333  0.00  0.00    -0.217 OA
ATOM      8  O   UNL d   1       2.662   3.155   0.114  0.00  0.00    -0.217 OA
BRANCH   6   9
ATOM      9  C   UNL d   1       4.118   1.359   1.256  0.00  0.00     0.064 A 
ATOM     10  C   UNL d   1       5.487   1.236   1.002  0.00  0.00     0.024 A 
ATOM     11  C   UNL d   1       6.367   0.986   2.057  0.00  0.00     0.017 A 
ATOM     12  C   UNL d   1       5.888   0.859   3.370  0.00  0.00     0.048 A 
ATOM     13  C   UNL d   1       4.509   0.997   3.608  0.00  0.00     0.017 A 
ATOM     14  C   UNL d   1       3.622   1.251   2.557  0.00  0.00     0.024 A 
BRANCH  12  15
ATOM     15  C   UNL d   1       6.832   0.580   4.519  0.00  0.00     0.417 C 
ATOM     16  F   UNL d   1       8.139   0.497   4.143  0.00  0.00    -0.166 F 
ATOM     17  F   UNL d   1       6.781   1.542   5.482  0.00  0.00    -0.166 F 
ATOM     18  F   UNL d   1       6.549  -0.594   5.147  0.00  0.00    -0.166 F 
ENDBRANCH  12  15
ENDBRANCH   6   9
ENDBRANCH   1   6
BRANCH   2  19
ATOM     19  C   UNL d   1      -0.191   2.728  -0.064  0.00  0.00     0.301 C 
ATOM     20  O   UNL d   1      -1.032   3.131  -0.858  0.00  0.00    -0.259 OA
BRANCH  19  21
ATOM     21  O   UNL d   1       0.313   3.470   0.958  0.00  0.00    -0.322 OA
ATOM     22  C   UNL d   1       0.035   4.874   0.869  0.00  0.00     0.213 C 
ENDBRANCH  19  21
ENDBRANCH   2  19
BRANCH   3  23
ATOM     23  C   UNL d   1       2.631  -1.654   0.129  0.00  0.00    -0.023 A 
ATOM     24  C   UNL d   1       2.574  -2.728   1.037  0.00  0.00     0.012 A 
ATOM     25  C   UNL d   1       3.559  -3.724   1.048  0.00  0.00     0.001 A 
ATOM     26  C   UNL d   1       4.664  -3.622   0.212  0.00  0.00     0.000 A 
ATOM     27  C   UNL d   1       4.762  -2.548  -0.664  0.00  0.00     0.001 A 
ATOM     28  C   UNL d   1       3.732  -1.601  -0.733  0.00  0.00     0.012 A 
ENDBRANCH   3  23
BRANCH   4  29
ATOM     29  C   UNL d   1      -0.405  -2.499  -0.152  0.00  0.00     0.424 C 
ATOM     30  F   UNL d   1       0.462  -3.468  -0.532  0.00  0.00    -0.166 F 
ATOM     31  F   UNL d   1      -0.925  -2.889   1.044  0.00  0.00    -0.166 F 
ATOM     32  F   UNL d   1      -1.427  -2.545  -1.050  0.00  0.00    -0.166 F 
ENDBRANCH   4  29
TORSDOF 7
