REMARK  3 active torsions:
REMARK  status: ('A' for Active; 'I' for Inactive)
REMARK    1  A    between atoms: C_2  and  C_1 
REMARK       I    between atoms: N_3  and  C_1 
REMARK       I    between atoms: C_4  and  N_3 
REMARK       I    between atoms: N_7  and  C_4 
REMARK    2  A    between atoms: C_5  and  C_6 
REMARK    3  A    between atoms: C_8  and  N_7 
ROOT
ATOM      1  C   UNL d   1       0.689   0.678   0.314  0.00  0.00     0.261 C 
ATOM      2  N   UNL d   1       0.090  -0.166   1.229  0.00  0.00    -0.275 N 
ATOM      3  C   UNL d   1      -1.265  -0.331   1.392  0.00  0.00     0.327 C 
ATOM      4  N   UNL d   1      -2.037  -0.074   0.295  0.00  0.00    -0.307 N 
ATOM      5  O   UNL d   1       0.220   0.952  -0.783  0.00  0.00    -0.267 OA
ATOM      6  O   UNL d   1      -1.665  -0.665   2.505  0.00  0.00    -0.247 OA
ATOM      7  H   UNL d   1       0.576  -0.386   2.085  0.00  0.00     0.173 HD
ATOM      8  H   UNL d   1      -1.546  -0.032  -0.598  0.00  0.00     0.170 HD
ENDROOT
BRANCH   1   9
ATOM      9  C   UNL d   1       2.023   1.200   0.683  0.00  0.00     0.062 A 
ATOM     10  C   UNL d   1       3.072   1.280  -0.242  0.00  0.00     0.066 A 
ATOM     11  C   UNL d   1       4.276   1.877   0.170  0.00  0.00     0.034 A 
ATOM     12  C   UNL d   1       4.392   2.335   1.472  0.00  0.00     0.088 A 
ATOM     13  N   UNL d   1       3.399   2.247   2.380  0.00  0.00    -0.374 N 
ATOM     14  C   UNL d   1       2.234   1.700   1.964  0.00  0.00     0.105 A 
ATOM     15  HN  UNL d   1       3.522   2.577   3.337  1.00  0.00     0.164 HD
BRANCH  10  16
ATOM     16  C   UNL d   1       2.948   0.748  -1.646  0.00  0.00     0.418 C 
ATOM     17  F   UNL d   1       2.309  -0.452  -1.712  0.00  0.00    -0.166 F 
ATOM     18  F   UNL d   1       2.308   1.599  -2.488  0.00  0.00    -0.166 F 
ATOM     19  F   UNL d   1       4.169   0.524  -2.216  0.00  0.00    -0.166 F 
ENDBRANCH  10  16
ENDBRANCH   1   9
BRANCH   4  20
ATOM     20  C   UNL d   1      -3.449  -0.006   0.243  0.00  0.00     0.058 A 
ATOM     21  C   UNL d   1      -4.100  -0.104  -1.001  0.00  0.00     0.062 A 
ATOM     22  C   UNL d   1      -5.492  -0.024  -1.091  0.00  0.00     0.050 A 
ATOM     23 CL   UNL d   1      -3.206  -0.369  -2.459  0.00  0.00    -0.082 Cl
ATOM     24  C   UNL d   1      -6.243   0.182   0.062  0.00  0.00     0.035 A 
ATOM     25  C   UNL d   1      -5.615   0.302   1.299  0.00  0.00     0.026 A 
ATOM     26 CL   UNL d   1      -7.956   0.296  -0.039  0.00  0.00    -0.084 Cl
ATOM     27  C   UNL d   1      -4.224   0.202   1.389  0.00  0.00     0.033 A 
ENDBRANCH   4  20
TORSDOF 3
