REMARK  3 active torsions:
REMARK  status: ('A' for Active; 'I' for Inactive)
REMARK    1  A    between atoms: C_10  and  N_1 
REMARK    2  A    between atoms: C_7  and  C_2 
REMARK    3  A    between atoms: N_9  and  C_8 
ROOT
ATOM      1  N   UNL d   1       0.094  -0.849   1.077  0.00  0.00    -0.225 N 
ATOM      2  C   UNL d   1       1.123  -0.722   0.143  0.00  0.00     0.139 C 
ATOM      3  N   UNL d   1      -0.687   0.106  -0.680  0.00  0.00    -0.007 NA
ATOM      4  N   UNL d   1      -1.046  -0.409   0.483  0.00  0.00     0.001 NA
ATOM      5  N   UNL d   1       0.647  -0.086  -0.908  0.00  0.00    -0.270 N 
ATOM      6  HN  UNL d   1       1.172   0.206  -1.733  1.00  0.00     0.185 HD
ENDROOT
BRANCH   2   7
ATOM      7  C   UNL d   1       2.389  -1.331   0.303  0.00  0.00     0.068 C 
ATOM      8  C   UNL d   1       2.579  -2.586  -0.133  0.00  0.00     0.089 C 
BRANCH   8   9
ATOM      9  N   UNL d   1       3.723  -3.383  -0.093  0.00  0.00    -0.390 N 
ATOM     10  C   UNL d   1       4.986  -2.924   0.502  0.00  0.00     0.122 C 
ATOM     11  C   UNL d   1       5.925  -4.035   0.974  0.00  0.00     0.020 C 
ATOM     12  C   UNL d   1       5.257  -5.087   1.860  0.00  0.00     0.002 C 
ATOM     13  C   UNL d   1       4.603  -6.217   1.065  0.00  0.00     0.002 C 
ATOM     14  C   UNL d   1       3.414  -5.801   0.203  0.00  0.00     0.020 C 
ATOM     15  C   UNL d   1       3.735  -4.682  -0.784  0.00  0.00     0.122 C 
ENDBRANCH   8   9
ENDBRANCH   2   7
BRANCH   1  16
ATOM     16  C   UNL d   1       0.074  -1.266   2.435  0.00  0.00     0.056 A 
ATOM     17  C   UNL d   1       1.224  -1.229   3.235  0.00  0.00     0.032 A 
ATOM     18  C   UNL d   1       1.144  -1.555   4.594  0.00  0.00     0.021 A 
ATOM     19  C   UNL d   1      -0.074  -1.938   5.151  0.00  0.00     0.011 A 
ATOM     20  C   UNL d   1      -1.219  -2.002   4.362  0.00  0.00     0.021 A 
ATOM     21 BR   UNL d   1      -0.178  -2.345   6.993  0.00  0.00    -0.051 Br
ATOM     22  C   UNL d   1      -1.149  -1.655   3.010  0.00  0.00     0.032 A 
ENDBRANCH   1  16
TORSDOF 3
