REMARK  6 active torsions:
REMARK  status: ('A' for Active; 'I' for Inactive)
REMARK    1  A    between atoms: C_14  and  C_1 
REMARK    2  A    between atoms: C_2  and  N_13 
REMARK    3  A    between atoms: N_6  and  C_2 
REMARK    4  A    between atoms: O_21  and  C_4 
REMARK    5  A    between atoms: C_7  and  N_6 
REMARK    6  A    between atoms: N_13  and  N_8 
ROOT
ATOM      1  N   UNL d   1       0.463   5.544   0.111  0.00  0.00    -0.276 N 
ATOM      2  H   UNL d   1       0.675   4.624   0.479  0.00  0.00     0.189 HD
ENDROOT
BRANCH   1   3
ATOM      3  C   UNL d   1       1.486   6.468   0.068  0.00  0.00     0.191 C 
ATOM      4  S   UNL d   1       1.307   8.125  -0.086  0.00  0.00    -0.039 SA
BRANCH   3   5
ATOM      5  N   UNL d   1       2.751   5.959   0.256  0.00  0.00    -0.332 N 
ATOM      6  H   UNL d   1       3.436   6.643   0.560  0.00  0.00     0.168 HD
BRANCH   5   7
ATOM      7  C   UNL d   1       3.208   4.645   0.034  0.00  0.00     0.035 A 
ATOM      8  C   UNL d   1       2.600   3.788  -0.890  0.00  0.00     0.036 A 
ATOM      9  C   UNL d   1       3.052   2.476  -1.058  0.00  0.00    -0.059 A 
ATOM     10  C   UNL d   1       2.378   1.553  -2.030  0.00  0.00     0.048 C 
ATOM     11  C   UNL d   1       4.135   2.029  -0.294  0.00  0.00     0.013 A 
ATOM     12  C   UNL d   1       4.785   2.890   0.602  0.00  0.00    -0.059 A 
ATOM     13  C   UNL d   1       4.325   4.206   0.746  0.00  0.00     0.036 A 
ATOM     14  C   UNL d   1       5.916   2.375   1.442  0.00  0.00     0.048 C 
ENDBRANCH   5   7
ENDBRANCH   3   5
ENDBRANCH   1   3
BRANCH   1  15
ATOM     15  N   UNL d   1      -0.831   5.857  -0.159  0.00  0.00    -0.309 N 
ATOM     16  C   UNL d   1      -1.677   4.894   0.036  0.00  0.00     0.121 C 
ATOM     17  HN  UNL d   1      -1.116   6.779  -0.491  1.00  0.00     0.186 HD
BRANCH  16  18
ATOM     18  C   UNL d   1      -3.113   5.074  -0.245  0.00  0.00     0.017 A 
ATOM     19  C   UNL d   1      -4.025   4.061   0.061  0.00  0.00     0.099 A 
ATOM     20  C   UNL d   1      -5.384   4.251  -0.212  0.00  0.00     0.069 A 
ATOM     21 CL   UNL d   1      -6.529   3.017   0.168  0.00  0.00    -0.081 Cl
ATOM     22  C   UNL d   1      -5.831   5.436  -0.795  0.00  0.00     0.050 A 
ATOM     23  C   UNL d   1      -4.912   6.436  -1.104  0.00  0.00     0.036 A 
ATOM     24  C   UNL d   1      -3.557   6.265  -0.831  0.00  0.00     0.039 A 
ATOM     25 CL   UNL d   1      -5.456   7.895  -1.835  0.00  0.00    -0.084 Cl
BRANCH  19  26
ATOM     26  O   UNL d   1      -3.583   2.893   0.627  0.00  0.00    -0.358 OA
ATOM     27  H   UNL d   1      -4.362   2.319   0.771  0.00  0.00     0.217 HD
ENDBRANCH  19  26
ENDBRANCH  16  18
ENDBRANCH   1  15
TORSDOF 6
