REMARK  3 active torsions:
REMARK  status: ('A' for Active; 'I' for Inactive)
REMARK    1  A    between atoms: C_7  and  C_1 
REMARK    2  A    between atoms: O_9  and  C_2 
REMARK    3  A    between atoms: C_10  and  C_7 
ROOT
ATOM      1  C   UNL d   1      -1.776  -0.870   0.118  0.00  0.00     0.048 A 
ATOM      2  C   UNL d   1      -0.530  -1.381   0.036  0.00  0.00     0.090 A 
ATOM      3  C   UNL d   1      -1.945   0.617   0.198  0.00  0.00     0.255 A 
ATOM      4  N   UNL d   1      -0.823   1.391   0.148  0.00  0.00    -0.322 N 
ATOM      5  C   UNL d   1       0.659  -0.509   0.028  0.00  0.00     0.025 A 
ATOM      6  C   UNL d   1       0.472   0.879   0.064  0.00  0.00     0.048 A 
ATOM      7  O   UNL d   1      -3.053   1.139   0.297  0.00  0.00    -0.268 OA
ATOM      8  C   UNL d   1       1.966  -1.005  -0.026  0.00  0.00     0.016 A 
ATOM      9  C   UNL d   1       1.559   1.756   0.029  0.00  0.00     0.030 A 
ATOM     10  C   UNL d   1       3.059  -0.134  -0.051  0.00  0.00     0.001 A 
ATOM     11  C   UNL d   1       2.855   1.246  -0.030  0.00  0.00     0.002 A 
ATOM     12  H   UNL d   1      -0.975   2.390   0.195  0.00  0.00     0.169 HD
ENDROOT
BRANCH   1  13
ATOM     13  C   UNL d   1      -3.055  -1.666   0.036  0.00  0.00     0.085 C 
BRANCH  13  14
ATOM     14  C   UNL d   1      -3.521  -2.240   1.358  0.00  0.00    -0.054 A 
ATOM     15  C   UNL d   1      -3.951  -1.395   2.392  0.00  0.00     0.007 A 
ATOM     16  C   UNL d   1      -4.392  -1.923   3.607  0.00  0.00     0.001 A 
ATOM     17  C   UNL d   1      -4.416  -3.301   3.801  0.00  0.00     0.000 A 
ATOM     18  C   UNL d   1      -4.007  -4.154   2.778  0.00  0.00     0.001 A 
ATOM     19  C   UNL d   1      -3.564  -3.628   1.562  0.00  0.00     0.007 A 
ENDBRANCH  13  14
ENDBRANCH   1  13
BRANCH   2  20
ATOM     20  O   UNL d   1      -0.256  -2.732  -0.059  0.00  0.00    -0.359 OA
ATOM     21  H   UNL d   1      -1.059  -3.235   0.150  0.00  0.00     0.217 HD
ENDBRANCH   2  20
TORSDOF 3
