REMARK  5 active torsions:
REMARK  status: ('A' for Active; 'I' for Inactive)
REMARK    1  A    between atoms: C_6  and  N_1 
REMARK    2  A    between atoms: C_7  and  C_6 
REMARK    3  A    between atoms: C_11  and  C_7 
REMARK    4  A    between atoms: C_10  and  O_12 
REMARK    5  A    between atoms: O_12  and  C_16 
ROOT
ATOM      1  C   UNL d   1       3.277  -0.001  -0.281  0.00  0.00     0.219 C 
ENDROOT
BRANCH   1   2
ATOM      2  N   UNL d   1       1.836  -0.079  -0.127  0.00  0.00    -0.273 N 
ATOM      3  C   UNL d   1       0.974  -0.198  -1.180  0.00  0.00     0.262 A 
ATOM      4  C   UNL d   1      -0.367  -0.296  -0.624  0.00  0.00     0.048 A 
ATOM      5  O   UNL d   1       1.218  -0.255  -2.373  0.00  0.00    -0.267 OA
ATOM      6  C   UNL d   1      -1.591  -0.360  -1.263  0.00  0.00     0.018 A 
ATOM      7  C   UNL d   1      -0.242  -0.339   0.750  0.00  0.00     0.048 A 
ATOM      8  C   UNL d   1      -2.724  -0.476  -0.454  0.00  0.00     0.001 A 
ATOM      9  C   UNL d   1      -2.600  -0.536   0.950  0.00  0.00     0.001 A 
ATOM     10  C   UNL d   1      -1.345  -0.469   1.569  0.00  0.00     0.018 A 
ATOM     11  C   UNL d   1       1.185  -0.246   1.066  0.00  0.00     0.262 A 
ATOM     12  O   UNL d   1       1.643  -0.364   2.187  0.00  0.00    -0.267 OA
ENDBRANCH   1   2
BRANCH   1  13
ATOM     13  C   UNL d   1       3.803   1.423  -0.120  0.00  0.00     0.177 C 
ATOM     14  O   UNL d   1       3.938   1.968   0.973  0.00  0.00    -0.291 OA
BRANCH  13  15
ATOM     15  C   UNL d   1       4.174   2.189  -1.339  0.00  0.00     0.011 A 
ATOM     16  C   UNL d   1       3.318   2.251  -2.438  0.00  0.00     0.018 A 
ATOM     17  C   UNL d   1       3.670   2.977  -3.580  0.00  0.00     0.038 A 
ATOM     18  C   UNL d   1       4.885   3.657  -3.628  0.00  0.00     0.074 A 
ATOM     19  C   UNL d   1       5.735   3.611  -2.517  0.00  0.00     0.038 A 
ATOM     20  C   UNL d   1       5.378   2.895  -1.368  0.00  0.00     0.018 A 
BRANCH  18  21
ATOM     21  O   UNL d   1       5.359   4.377  -4.688  0.00  0.00    -0.290 OA
BRANCH  21  22
ATOM     22  C   UNL d   1       4.413   4.764  -5.671  0.00  0.00     0.505 C 
ATOM     23  F   UNL d   1       3.534   5.638  -5.120  0.00  0.00    -0.184 F 
ATOM     24  F   UNL d   1       5.086   5.443  -6.634  0.00  0.00    -0.184 F 
ENDBRANCH  21  22
ENDBRANCH  18  21
ENDBRANCH  13  15
ENDBRANCH   1  13
TORSDOF 5
