REMARK  4 active torsions:
REMARK  status: ('A' for Active; 'I' for Inactive)
REMARK    1  A    between atoms: C_8  and  C_1 
REMARK    2  A    between atoms: C_11  and  C_4 
REMARK    3  A    between atoms: O_10  and  C_8 
REMARK    4  A    between atoms: O_12  and  C_11 
ROOT
ATOM      1  C   UNL d   1       1.280  -0.899   0.086  0.00  0.00     0.140 A 
ATOM      2  N   UNL d   1       0.181   1.074   0.130  0.00  0.00    -0.269 N 
ATOM      3  HN  UNL d   1       0.046   2.084   0.176  1.00  0.00     0.195 HD
ATOM      4  C   UNL d   1      -0.022  -1.382  -0.016  0.00  0.00     0.058 A 
ATOM      5  N   UNL d   1       1.366   0.494   0.173  0.00  0.00    -0.288 N 
ATOM      6  HN  UNL d   1       2.245   1.004   0.259  1.00  0.00     0.188 HD
ATOM      7  S   UNL d   1      -1.070  -0.018  -0.008  0.00  0.00     0.002 SA
ENDROOT
BRANCH   1   8
ATOM      8  C   UNL d   1       2.489  -1.714   0.131  0.00  0.00     0.312 C 
ATOM      9  O   UNL d   1       2.502  -2.926  -0.049  0.00  0.00    -0.258 OA
BRANCH   8  10
ATOM     10  O   UNL d   1       3.600  -0.975   0.428  0.00  0.00    -0.321 OA
ATOM     11  C   UNL d   1       4.829  -1.693   0.550  0.00  0.00     0.213 C 
ENDBRANCH   8  10
ENDBRANCH   1   8
BRANCH   4  12
ATOM     12  C   UNL d   1      -0.577  -2.759  -0.076  0.00  0.00     0.217 C 
BRANCH  12  13
ATOM     13  O   UNL d   1      -1.237  -2.892  -1.332  0.00  0.00    -0.391 OA
ATOM     14  C   UNL d   1      -1.963  -4.112  -1.413  0.00  0.00     0.201 C 
ENDBRANCH  12  13
ENDBRANCH   4  12
TORSDOF 4
