REMARK  4 active torsions:
REMARK  status: ('A' for Active; 'I' for Inactive)
REMARK    1  A    between atoms: C_10  and  C_3 
REMARK    2  A    between atoms: C_9  and  C_4 
REMARK    3  A    between atoms: C_8  and  C_5 
REMARK    4  A    between atoms: O_16  and  C_13 
ROOT
ATOM      1  N   UNL d   1      -1.319  -0.043  -0.005  0.00  0.00    -0.355 N 
ATOM      2  HN  UNL d   1      -2.338  -0.076  -0.001  1.00  0.00     0.166 HD
ATOM      3  C   UNL d   1      -0.671   1.145  -0.063  0.00  0.00     0.043 A 
ATOM      4  C   UNL d   1      -0.593  -1.188   0.046  0.00  0.00     0.043 A 
ATOM      5  C   UNL d   1       1.498   0.050  -0.019  0.00  0.00    -0.022 A 
ATOM      6  C   UNL d   1       0.723   1.216  -0.066  0.00  0.00     0.042 A 
ATOM      7  C   UNL d   1       0.802  -1.163   0.033  0.00  0.00     0.042 A 
ENDROOT
BRANCH   5   8
ATOM      8  C   UNL d   1       2.980   0.097  -0.019  0.00  0.00    -0.026 A 
ATOM      9  C   UNL d   1       3.750  -0.919  -0.618  0.00  0.00     0.015 A 
ATOM     10  C   UNL d   1       5.152  -0.889  -0.605  0.00  0.00     0.037 A 
ATOM     11  C   UNL d   1       5.822   0.171  -0.003  0.00  0.00     0.068 A 
ATOM     12  C   UNL d   1       5.083   1.203   0.568  0.00  0.00     0.037 A 
ATOM     13  C   UNL d   1       3.684   1.158   0.576  0.00  0.00     0.015 A 
BRANCH  11  14
ATOM     14  O   UNL d   1       7.179   0.323   0.049  0.00  0.00    -0.356 OA
ATOM     15  C   UNL d   1       7.931  -0.885   0.051  0.00  0.00     0.210 C 
ENDBRANCH  11  14
ENDBRANCH   5   8
BRANCH   4  16
ATOM     16  C   UNL d   1      -1.365  -2.450   0.103  0.00  0.00    -0.009 A 
ATOM     17  C   UNL d   1      -2.651  -2.538  -0.463  0.00  0.00     0.013 A 
ATOM     18  C   UNL d   1      -3.382  -3.730  -0.438  0.00  0.00     0.001 A 
ATOM     19  C   UNL d   1      -2.844  -4.867   0.158  0.00  0.00     0.000 A 
ATOM     20  C   UNL d   1      -1.580  -4.809   0.736  0.00  0.00     0.001 A 
ATOM     21  C   UNL d   1      -0.854  -3.613   0.713  0.00  0.00     0.013 A 
ENDBRANCH   4  16
BRANCH   3  22
ATOM     22  C   UNL d   1      -1.526   2.355  -0.100  0.00  0.00    -0.009 A 
ATOM     23  C   UNL d   1      -2.802   2.355   0.497  0.00  0.00     0.013 A 
ATOM     24  C   UNL d   1      -3.611   3.496   0.495  0.00  0.00     0.001 A 
ATOM     25  C   UNL d   1      -3.165   4.667  -0.110  0.00  0.00     0.000 A 
ATOM     26  C   UNL d   1      -1.915   4.694  -0.720  0.00  0.00     0.001 A 
ATOM     27  C   UNL d   1      -1.110   3.551  -0.718  0.00  0.00     0.013 A 
ENDBRANCH   3  22
TORSDOF 4
