REMARK  1 active torsions:
REMARK  status: ('A' for Active; 'I' for Inactive)
REMARK    1  A    between atoms: C_13  and  C_7 
ROOT
ATOM      1  C   UNL d   1      -0.311  -1.050  -0.022  0.00  0.00     0.201 A 
ATOM      2  O   UNL d   1      -1.142   0.046  -0.050  0.00  0.00    -0.271 OA
ATOM      3  N   UNL d   1       0.961  -0.701   0.038  0.00  0.00    -0.275 N 
ATOM      4  HN  UNL d   1       1.762  -1.331   0.067  1.00  0.00     0.189 HD
ATOM      5  N   UNL d   1       0.999   0.677   0.056  0.00  0.00    -0.277 N 
ATOM      6  HN  UNL d   1       1.832   1.264   0.098  1.00  0.00     0.189 HD
ATOM      7  C   UNL d   1      -0.253   1.086   0.006  0.00  0.00     0.175 A 
ATOM      8  C   UNL d   1      -0.770  -2.400  -0.049  0.00  0.00     0.152 A 
ATOM      9  N   UNL d   1      -2.236  -4.112  -0.151  0.00  0.00    -0.272 N 
ATOM     10  HN  UNL d   1      -3.103  -4.645  -0.215  1.00  0.00     0.194 HD
ATOM     11  O   UNL d   1      -2.094  -2.734  -0.147  0.00  0.00    -0.234 OA
ATOM     12  C   UNL d   1      -0.040  -3.569   0.015  0.00  0.00     0.063 A 
ATOM     13  C   UNL d   1      -0.996  -4.594  -0.053  0.00  0.00     0.117 A 
ENDROOT
BRANCH   7  14
ATOM     14  C   UNL d   1      -0.795   2.438   0.021  0.00  0.00     0.018 A 
ATOM     15  C   UNL d   1      -2.174   2.685  -0.039  0.00  0.00     0.039 A 
ATOM     16  C   UNL d   1      -2.656   3.995  -0.003  0.00  0.00     0.035 A 
ATOM     17 CL   UNL d   1      -4.351   4.282  -0.068  0.00  0.00    -0.084 Cl
ATOM     18  C   UNL d   1      -1.778   5.073   0.089  0.00  0.00     0.024 A 
ATOM     19  C   UNL d   1      -0.406   4.842   0.143  0.00  0.00     0.003 A 
ATOM     20  C   UNL d   1       0.081   3.533   0.108  0.00  0.00     0.016 A 
ENDBRANCH   7  14
TORSDOF 1
