REMARK  2 active torsions:
REMARK  status: ('A' for Active; 'I' for Inactive)
REMARK    1  A    between atoms: N_9  and  C_6 
REMARK    2  A    between atoms: C_13  and  C_8 
ROOT
ATOM      1  C   UNL d   1       0.782  -0.422  -0.165  0.00  0.00     0.072 A 
ATOM      2  C   UNL d   1       1.307   0.850  -0.145  0.00  0.00     0.088 A 
ATOM      3  C   UNL d   1       1.697  -1.550  -0.259  0.00  0.00     0.256 C 
ATOM      4  N   UNL d   1       2.640   1.097  -0.170  0.00  0.00    -0.357 N 
ATOM      5  N   UNL d   1       3.031  -1.218  -0.258  0.00  0.00    -0.330 N 
ATOM      6  S   UNL d   1       0.112   2.051  -0.063  0.00  0.00    -0.076 SA
ATOM      7  C   UNL d   1       3.481   0.019   0.323  0.00  0.00     0.243 C 
ATOM      8  C   UNL d   1      -0.652  -0.409  -0.074  0.00  0.00    -0.026 A 
ATOM      9  C   UNL d   1      -1.133   0.882  -0.018  0.00  0.00    -0.008 A 
ATOM     10  O   UNL d   1       1.339  -2.720  -0.344  0.00  0.00    -0.267 OA
ATOM     11  C   UNL d   1      -1.538  -1.608  -0.050  0.00  0.00     0.041 C 
ATOM     12  C   UNL d   1      -2.560   1.283   0.106  0.00  0.00     0.047 C 
ATOM     13  C   UNL d   1      -3.033  -1.307   0.113  0.00  0.00     0.005 C 
ATOM     14  C   UNL d   1      -3.529   0.124  -0.142  0.00  0.00     0.005 C 
ATOM     15  H   UNL d   1       2.939   2.022   0.121  0.00  0.00     0.162 HD
ATOM     16  H   UNL d   1       3.639  -2.022  -0.193  0.00  0.00     0.165 HD
ENDROOT
BRANCH   7  17
ATOM     17  C   UNL d   1       4.936   0.173   0.017  0.00  0.00     0.098 A 
ATOM     18  O   UNL d   1       5.810  -0.374   0.920  0.00  0.00    -0.289 OA
ATOM     19  C   UNL d   1       7.059  -0.113   0.451  0.00  0.00     0.215 A 
ATOM     20  C   UNL d   1       7.020   0.584  -0.733  0.00  0.00     0.065 A 
ATOM     21  C   UNL d   1       5.642   0.764  -1.018  0.00  0.00     0.041 A 
BRANCH  19  22
ATOM     22  N   UNL d   1       8.149  -0.591   1.243  0.00  0.00    -0.090 N 
ATOM     23  O   UNL d   1       9.291  -0.334   0.826  0.00  0.00    -0.530 OA
ATOM     24  O   UNL d   1       7.881  -1.219   2.274  0.00  0.00    -0.530 OA
ENDBRANCH  19  22
ENDBRANCH   7  17
TORSDOF 2
