REMARK  4 active torsions:
REMARK  status: ('A' for Active; 'I' for Inactive)
REMARK    1  A    between atoms: N_14  and  N_9 
REMARK    2  A    between atoms: O_26  and  C_17 
REMARK    3  A    between atoms: C_24  and  C_20 
REMARK    4  A    between atoms: O_27  and  C_21 
ROOT
ATOM      1  C   UNL d   1       1.211   0.937  -0.019  0.00  0.00     0.104 A 
ATOM      2  C   UNL d   1       0.759  -0.355  -0.019  0.00  0.00     0.069 A 
ATOM      3  C   UNL d   1       2.604   1.297  -0.021  0.00  0.00     0.286 C 
ATOM      4  S   UNL d   1      -0.052   2.063  -0.013  0.00  0.00    -0.064 SA
ATOM      5  C   UNL d   1      -0.672  -0.465  -0.013  0.00  0.00     0.032 A 
ATOM      6  C   UNL d   1      -1.224   0.819  -0.009  0.00  0.00     0.088 A 
ATOM      7  N   UNL d   1       1.644  -1.444  -0.032  0.00  0.00    -0.349 N 
ATOM      8  HN  UNL d   1       1.329  -2.413  -0.081  1.00  0.00     0.167 HD
ATOM      9  N   UNL d   1       3.435   0.168   0.099  0.00  0.00    -0.215 N 
ATOM     10  C   UNL d   1       2.900  -1.113   0.025  0.00  0.00     0.211 C 
ATOM     11  N   UNL d   1      -2.532   1.145  -0.003  0.00  0.00    -0.354 N 
ATOM     12  HN  UNL d   1      -2.857   2.112   0.004  1.00  0.00     0.166 HD
ATOM     13  C   UNL d   1      -1.589  -1.550  -0.011  0.00  0.00    -0.045 A 
ATOM     14  O   UNL d   1       3.005   2.456  -0.138  0.00  0.00    -0.265 OA
ATOM     15  C   UNL d   1      -2.959  -1.229  -0.009  0.00  0.00     0.032 A 
ATOM     16  C   UNL d   1      -3.375   0.097  -0.007  0.00  0.00     0.006 A 
ATOM     17  C   UNL d   1      -1.215  -3.007  -0.011  0.00  0.00     0.049 C 
ATOM     18  C   UNL d   1      -4.845   0.407  -0.007  0.00  0.00     0.068 C 
ENDROOT
BRANCH   9  19
ATOM     19  N   UNL d   1       4.830   0.228   0.148  0.00  0.00    -0.301 N 
ATOM     20  C   UNL d   1       5.373   1.266   0.702  0.00  0.00     0.119 C 
ATOM     21  HN  UNL d   1       5.402  -0.522  -0.238  1.00  0.00     0.186 HD
BRANCH  20  22
ATOM     22  C   UNL d   1       6.838   1.451   0.800  0.00  0.00    -0.017 A 
ATOM     23  C   UNL d   1       7.742   0.553   0.228  0.00  0.00     0.052 A 
ATOM     24  C   UNL d   1       9.126   0.736   0.382  0.00  0.00     0.102 A 
ATOM     25  C   UNL d   1       9.585   1.818   1.148  0.00  0.00     0.099 A 
ATOM     26  C   UNL d   1       8.679   2.727   1.704  0.00  0.00     0.040 A 
ATOM     27  C   UNL d   1       7.308   2.552   1.519  0.00  0.00     0.016 A 
BRANCH  24  28
ATOM     28  O   UNL d   1       9.871  -0.217  -0.260  0.00  0.00    -0.353 OA
ATOM     29  C   UNL d   1      11.283  -0.056  -0.288  0.00  0.00     0.210 C 
ENDBRANCH  24  28
BRANCH  25  30
ATOM     30  O   UNL d   1      10.917   2.014   1.386  0.00  0.00    -0.358 OA
ATOM     31  H   UNL d   1      11.038   2.817   1.918  0.00  0.00     0.217 HD
ENDBRANCH  25  30
ENDBRANCH  20  22
ENDBRANCH   9  19
TORSDOF 4
