REMARK  4 active torsions:
REMARK  status: ('A' for Active; 'I' for Inactive)
REMARK       I    between atoms: C_4  and  N_1 
REMARK    1  A    between atoms: C_8  and  C_3 
REMARK    2  A    between atoms: C_7  and  C_4 
REMARK    3  A    between atoms: C_18  and  C_10 
REMARK    4  A    between atoms: O_25  and  C_18 
ROOT
ATOM      1  N   UNL d   1       3.439  -0.385  -0.258  0.00  0.00    -0.333 N 
ATOM      2  C   UNL d   1       1.095  -0.926   0.030  0.00  0.00     0.049 A 
ATOM      3  C   UNL d   1       2.499  -1.461   0.190  0.00  0.00     0.245 C 
ATOM      4  C   UNL d   1       4.748  -0.609  -0.680  0.00  0.00     0.226 C 
ATOM      5  C   UNL d   1       0.723   0.393  -0.140  0.00  0.00    -0.019 A 
ATOM      6  N   UNL d   1      -0.049  -1.681   0.064  0.00  0.00    -0.356 N 
ATOM      7  C   UNL d   1      -0.695   0.455  -0.116  0.00  0.00    -0.001 A 
ATOM      8  C   UNL d   1      -1.154  -0.858   0.005  0.00  0.00     0.043 A 
ATOM      9  C   UNL d   1       3.107   0.992   0.184  0.00  0.00     0.131 C 
ATOM     10  C   UNL d   1       1.728   1.477  -0.291  0.00  0.00     0.061 C 
ATOM     11  O   UNL d   1       5.497   0.342  -0.924  0.00  0.00    -0.273 OA
ATOM     12  C   UNL d   1      -1.637   1.500  -0.178  0.00  0.00     0.014 A 
ATOM     13  C   UNL d   1      -2.517  -1.176   0.056  0.00  0.00     0.030 A 
ATOM     14  C   UNL d   1      -3.002   1.199  -0.110  0.00  0.00     0.001 A 
ATOM     15  C   UNL d   1      -3.432  -0.124   0.001  0.00  0.00     0.002 A 
ATOM     16  H   UNL d   1      -0.103  -2.686   0.162  0.00  0.00     0.166 HD
ENDROOT
BRANCH   3  17
ATOM     17  C   UNL d   1       2.780  -2.013   1.622  0.00  0.00     0.413 C 
ATOM     18  F   UNL d   1       3.908  -1.495   2.158  0.00  0.00    -0.168 F 
ATOM     19  F   UNL d   1       1.774  -1.771   2.494  0.00  0.00    -0.168 F 
ATOM     20  F   UNL d   1       2.939  -3.360   1.570  0.00  0.00    -0.168 F 
ENDBRANCH   3  17
BRANCH   4  21
ATOM     21  C   UNL d   1       5.275  -2.044  -0.802  0.00  0.00     0.100 C 
ATOM     22  C   UNL d   1       4.757  -2.869  -2.011  0.00  0.00     0.022 C 
ATOM     23  C   UNL d   1       5.048  -2.131  -3.295  0.00  0.00    -0.025 C 
ATOM     24  C   UNL d   1       5.845  -3.947  -2.120  0.00  0.00     0.018 C 
ATOM     25  C   UNL d   1       6.376  -2.159  -3.474  0.00  0.00    -0.025 C 
ATOM     26  C   UNL d   1       6.973  -2.932  -2.318  0.00  0.00     0.023 C 
ATOM     27  C   UNL d   1       6.838  -2.065  -1.045  0.00  0.00     0.105 C 
BRANCH  27  28
ATOM     28  C   UNL d   1       7.594  -2.697   0.103  0.00  0.00     0.145 C 
ATOM     29  O   UNL d   1       7.082  -3.299   1.035  0.00  0.00    -0.650 OA
BRANCH  28  30
ATOM     30  O   UNL d   1       8.934  -2.560  -0.010  0.00  0.00    -0.776 OA
ATOM     31  H   UNL d   1       9.219  -2.032  -0.780  0.00  0.00     0.167 HD
ENDBRANCH  28  30
ENDBRANCH  27  28
ENDBRANCH   4  21
TORSDOF 4
