REMARK  3 active torsions:
REMARK  status: ('A' for Active; 'I' for Inactive)
REMARK    1  A    between atoms: N_2  and  C_1 
REMARK    2  A    between atoms: N_4  and  C_1 
REMARK    3  A    between atoms: C_5  and  N_2 
ROOT
ATOM      1  N   UNL d   1       0.579  -1.058  -0.528  0.00  0.00    -0.359 N 
ATOM      2  H   UNL d   1       0.346  -1.207   0.442  0.00  0.00     0.162 HD
ENDROOT
BRANCH   1   3
ATOM      3  C   UNL d   1       0.120   0.160  -0.994  0.00  0.00     0.169 C 
ATOM      4  S   UNL d   1      -0.593   0.361  -2.501  0.00  0.00    -0.041 SA
BRANCH   3   5
ATOM      5  N   UNL d   1       0.336   1.216  -0.084  0.00  0.00    -0.367 N 
ATOM      6  C   UNL d   1       0.002   2.610  -0.398  0.00  0.00     0.151 C 
ATOM      7  C   UNL d   1       1.090   1.088   1.170  0.00  0.00     0.151 C 
ENDBRANCH   3   5
ENDBRANCH   1   3
BRANCH   1   8
ATOM      8  C   UNL d   1       0.930  -2.314  -1.242  0.00  0.00     0.021 C 
ATOM      9  C   UNL d   1       1.835  -2.047  -2.458  0.00  0.00     0.037 C 
ATOM     10  C   UNL d   1       1.738  -3.177  -0.247  0.00  0.00     0.037 C 
ATOM     11  C   UNL d   1      -0.315  -3.114  -1.653  0.00  0.00     0.037 C 
ENDBRANCH   1   8
TORSDOF 3
