REMARK  1 active torsions:
REMARK  status: ('A' for Active; 'I' for Inactive)
REMARK    1  A    between atoms: O_10  and  N_6 
ROOT
ATOM      1  C   UNL d   1       9.269  -5.022  -0.133  0.00  0.00     0.026 C 
ATOM      2  C   UNL d   1      10.433  -5.176   0.850  0.00  0.00    -0.002 C 
ATOM      3  C   UNL d   1       8.258  -4.012   0.425  0.00  0.00    -0.003 C 
ATOM      4  C   UNL d   1       8.956  -3.792   1.817  0.00  0.00     0.000 C 
ATOM      5  C   UNL d   1      10.450  -3.776   1.469  0.00  0.00     0.021 C 
ATOM      6  N   UNL d   1       9.207  -5.729  -1.217  0.00  0.00    -0.276 N 
ATOM      7  HN  UNL d   1       9.921  -6.397  -1.505  1.00  0.00     0.193 HD
ATOM      8  C   UNL d   1       9.873  -6.035   1.996  0.00  0.00     0.015 C 
ATOM      9  C   UNL d   1       8.907  -5.062   2.703  0.00  0.00     0.007 C 
ATOM     10  C   UNL d   1      11.745  -5.633   0.262  0.00  0.00     0.021 C 
ATOM     11  C   UNL d   1       8.246  -2.722  -0.404  0.00  0.00     0.021 C 
ATOM     12  C   UNL d   1       6.837  -4.559   0.569  0.00  0.00     0.021 C 
ENDROOT
BRANCH   6  13
ATOM     13  O   UNL d   1       8.044  -5.465  -1.941  0.00  0.00    -0.290 OA
ATOM     14  H   UNL d   1       8.083  -6.136  -2.649  0.00  0.00     0.244 HD
ENDBRANCH   6  13
TORSDOF 1
