REMARK  3 active torsions:
REMARK  status: ('A' for Active; 'I' for Inactive)
REMARK    1  A    between atoms: C_2  and  C_1 
REMARK       I    between atoms: N_3  and  C_1 
REMARK    2  A    between atoms: C_5  and  N_4 
REMARK    3  A    between atoms: O_16  and  C_13 
ROOT
ATOM      1  C   UNL d   1       0.924   0.193  -0.060  0.00  0.00     0.258 C 
ATOM      2  N   UNL d   1       0.703  -0.817   0.897  0.00  0.00    -0.345 N 
ATOM      3  N   UNL d   1      -0.171  -2.355   3.180  0.00  0.00    -0.376 N 
ATOM      4  O   UNL d   1       1.599   1.197   0.177  0.00  0.00    -0.267 OA
ATOM      5  C   UNL d   1       1.255  -0.567   2.242  0.00  0.00     0.146 C 
ATOM      6  C   UNL d   1      -0.512  -1.637   0.864  0.00  0.00     0.146 C 
ATOM      7  C   UNL d   1       1.181  -1.773   3.216  0.00  0.00     0.143 C 
ATOM      8  C   UNL d   1      -0.533  -2.819   1.835  0.00  0.00     0.143 C 
ENDROOT
BRANCH   1   9
ATOM      9  C   UNL d   1       0.404   0.031  -1.436  0.00  0.00     0.092 A 
ATOM     10  C   UNL d   1      -0.971   0.012  -1.689  0.00  0.00     0.133 A 
ATOM     11  F   UNL d   1      -1.858   0.217  -0.706  0.00  0.00    -0.205 F 
ATOM     12  C   UNL d   1      -1.472  -0.249  -2.964  0.00  0.00     0.043 A 
ATOM     13  C   UNL d   1      -0.596  -0.414  -4.030  0.00  0.00     0.005 A 
ATOM     14  C   UNL d   1       0.777  -0.301  -3.814  0.00  0.00     0.025 A 
ATOM     15  C   UNL d   1       1.280  -0.085  -2.522  0.00  0.00     0.052 A 
ATOM     16 CL   UNL d   1       3.000  -0.004  -2.357  0.00  0.00    -0.083 Cl
ENDBRANCH   1   9
BRANCH   3  17
ATOM     17  C   UNL d   1      -0.798  -2.897   4.296  0.00  0.00     0.064 A 
ATOM     18  C   UNL d   1      -0.894  -2.252   5.551  0.00  0.00     0.094 A 
ATOM     19  C   UNL d   1      -1.683  -2.784   6.588  0.00  0.00     0.039 A 
ATOM     20  C   UNL d   1      -2.387  -3.972   6.416  0.00  0.00     0.003 A 
ATOM     21  C   UNL d   1      -2.260  -4.664   5.224  0.00  0.00     0.002 A 
ATOM     22  C   UNL d   1      -1.475  -4.134   4.194  0.00  0.00     0.032 A 
BRANCH  18  23
ATOM     23  O   UNL d   1      -0.193  -1.126   5.907  0.00  0.00    -0.354 OA
ATOM     24  C   UNL d   1      -0.602   0.057   5.229  0.00  0.00     0.210 C 
ENDBRANCH  18  23
ENDBRANCH   3  17
TORSDOF 3
