REMARK  5 active torsions:
REMARK  status: ('A' for Active; 'I' for Inactive)
REMARK    1  A    between atoms: N_2  and  C_1 
REMARK    2  A    between atoms: C_3  and  N_2 
REMARK    3  A    between atoms: C_11  and  N_7 
REMARK    4  A    between atoms: C_9  and  C_10 
REMARK    5  A    between atoms: C_10  and  C_11 
ROOT
ATOM      1  C   UNL d   1       1.262   0.058  -0.160  0.00  0.00     0.172 C 
ATOM      2  S   UNL d   1       0.357   0.788   1.035  0.00  0.00    -0.041 SA
ATOM      3  N   UNL d   1       2.612  -0.001  -0.029  0.00  0.00    -0.367 N 
ATOM      4  H   UNL d   1       2.941   0.380   0.854  0.00  0.00     0.161 HD
ENDROOT
BRANCH   1   5
ATOM      5  N   UNL d   1       0.663  -0.380  -1.295  0.00  0.00    -0.333 N 
ATOM      6  H   UNL d   1      -0.263   0.004  -1.442  0.00  0.00     0.168 HD
BRANCH   5   7
ATOM      7  C   UNL d   1       0.867  -1.616  -1.959  0.00  0.00     0.040 A 
ATOM      8  C   UNL d   1       0.325  -1.803  -3.244  0.00  0.00    -0.035 A 
ATOM      9  C   UNL d   1      -0.345  -0.705  -4.024  0.00  0.00     0.050 C 
ATOM     10  C   UNL d   1       0.424  -3.068  -3.854  0.00  0.00     0.009 A 
ATOM     11  C   UNL d   1       1.065  -4.124  -3.208  0.00  0.00     0.001 A 
ATOM     12  C   UNL d   1       1.621  -3.929  -1.946  0.00  0.00     0.002 A 
ATOM     13  C   UNL d   1       1.525  -2.682  -1.327  0.00  0.00     0.030 A 
ENDBRANCH   5   7
ENDBRANCH   1   5
BRANCH   3  14
ATOM     14  C   UNL d   1       3.582   0.051  -1.122  0.00  0.00     0.128 C 
BRANCH  14  15
ATOM     15  C   UNL d   1       3.842   1.484  -1.591  0.00  0.00     0.076 C 
BRANCH  15  16
ATOM     16  C   UNL d   1       4.831   1.485  -2.727  0.00  0.00     0.010 A 
ATOM     17  N   UNL d   1       6.145   1.526  -2.396  0.00  0.00    -0.369 N 
ATOM     18  C   UNL d   1       7.041   1.451  -3.405  0.00  0.00     0.088 A 
ATOM     19  HN  UNL d   1       6.445   1.611  -1.425  1.00  0.00     0.165 HD
ATOM     20  C   UNL d   1       6.692   1.325  -4.739  0.00  0.00     0.017 A 
ATOM     21  C   UNL d   1       5.341   1.286  -5.061  0.00  0.00     0.003 A 
ATOM     22  C   UNL d   1       4.394   1.368  -4.044  0.00  0.00     0.025 A 
ENDBRANCH  15  16
ENDBRANCH  14  15
ENDBRANCH   3  14
TORSDOF 5
