REMARK  9 active torsions:
REMARK  status: ('A' for Active; 'I' for Inactive)
REMARK    1  A    between atoms: N_2  and  C_1 
REMARK    2  A    between atoms: C_5  and  C_4 
REMARK    3  A    between atoms: N_16  and  C_5 
REMARK    4  A    between atoms: O_13  and  N_7 
REMARK    5  A    between atoms: C_10  and  O_13 
REMARK    6  A    between atoms: C_14  and  C_10 
REMARK    7  A    between atoms: C_19  and  C_14 
REMARK    8  A    between atoms: C_18  and  O_25 
REMARK    9  A    between atoms: O_25  and  C_19 
ROOT
ATOM      1  C   UNL d   1      -1.307  -0.254  -0.688  0.00  0.00     0.133 C 
ATOM      2  N   UNL d   1      -2.348  -0.910  -1.103  0.00  0.00    -0.244 N 
ATOM      3  HN  UNL d   1      -2.750  -0.800  -2.034  1.00  0.00     0.196 HD
ENDROOT
BRANCH   2   4
ATOM      4  O   UNL d   1      -2.865  -1.789  -0.131  0.00  0.00    -0.198 OA
BRANCH   4   5
ATOM      5  C   UNL d   1      -4.226  -1.790  -0.242  0.00  0.00     0.283 C 
ATOM      6  O   UNL d   1      -4.913  -0.781  -0.382  0.00  0.00    -0.263 OA
BRANCH   5   7
ATOM      7  C   UNL d   1      -4.839  -3.167  -0.164  0.00  0.00     0.140 C 
BRANCH   7   8
ATOM      8  C   UNL d   1      -3.871  -4.308   0.106  0.00  0.00     0.185 C 
BRANCH   8   9
ATOM      9  O   UNL d   1      -3.068  -4.550  -1.052  0.00  0.00    -0.351 OA
BRANCH   9  10
ATOM     10  C   UNL d   1      -2.242  -5.640  -0.992  0.00  0.00     0.069 A 
ATOM     11  C   UNL d   1      -1.770  -6.103  -2.226  0.00  0.00     0.040 A 
ATOM     12  C   UNL d   1      -0.939  -7.225  -2.291  0.00  0.00     0.045 A 
ATOM     13  C   UNL d   1      -0.568  -7.867  -1.119  0.00  0.00     0.116 A 
ATOM     14  C   UNL d   1      -1.006  -7.406   0.117  0.00  0.00     0.045 A 
ATOM     15  F   UNL d   1       0.219  -8.949  -1.174  0.00  0.00    -0.206 F 
ATOM     16  C   UNL d   1      -1.841  -6.287   0.181  0.00  0.00     0.040 A 
ENDBRANCH   9  10
ENDBRANCH   8   9
ENDBRANCH   7   8
ENDBRANCH   5   7
ENDBRANCH   4   5
ENDBRANCH   2   4
BRANCH   1  17
ATOM     17  C   UNL d   1      -0.674   0.580  -1.703  0.00  0.00     0.117 A 
ATOM     18  O   UNL d   1       0.410   1.344  -1.355  0.00  0.00    -0.285 OA
ATOM     19  C   UNL d   1       0.805   1.978  -2.495  0.00  0.00     0.215 A 
ATOM     20  C   UNL d   1       0.004   1.657  -3.563  0.00  0.00     0.066 A 
ATOM     21  C   UNL d   1      -0.960   0.758  -3.047  0.00  0.00     0.045 A 
BRANCH  19  22
ATOM     22  N   UNL d   1       1.947   2.829  -2.393  0.00  0.00    -0.090 N 
ATOM     23  O   UNL d   1       2.323   3.370  -3.443  0.00  0.00    -0.530 OA
ATOM     24  O   UNL d   1       2.470   2.964  -1.280  0.00  0.00    -0.530 OA
ENDBRANCH  19  22
ENDBRANCH   1  17
BRANCH   1  25
ATOM     25  N   UNL d   1      -0.830  -0.306   0.600  0.00  0.00    -0.285 NA
ATOM     26  H   UNL d   1      -0.288   0.506   0.878  0.00  0.00     0.125 HD
ATOM     27  H   UNL d   1      -1.535  -0.573   1.273  0.00  0.00     0.125 HD
ENDBRANCH   1  25
TORSDOF 9
