REMARK  4 active torsions:
REMARK  status: ('A' for Active; 'I' for Inactive)
REMARK    1  A    between atoms: C_4  and  C_1 
REMARK       I    between atoms: N_8  and  C_4 
REMARK    2  A    between atoms: C_6  and  N_8 
REMARK    3  A    between atoms: C_7  and  C_12 
REMARK    4  A    between atoms: N_11  and  C_10 
ROOT
ATOM      1  C   UNL d   1       4.207  -2.441  -0.312  0.00  0.00     0.057 A 
ATOM      2  C   UNL d   1       4.588  -3.393   0.669  0.00  0.00     0.037 A 
ATOM      3  C   UNL d   1       2.533  -3.970  -1.210  0.00  0.00     0.050 A 
ATOM      4  C   UNL d   1       3.184  -2.730  -1.225  0.00  0.00     0.047 A 
ATOM      5  C   UNL d   1       3.896  -4.613   0.698  0.00  0.00     0.027 A 
ATOM      6  C   UNL d   1       2.895  -4.905  -0.235  0.00  0.00     0.018 A 
ENDROOT
BRANCH   1   7
ATOM      7  N   UNL d   1       4.915  -1.220  -0.322  0.00  0.00    -0.321 N 
ATOM      8  C   UNL d   1       4.852  -0.189  -1.242  0.00  0.00     0.264 C 
ATOM      9  O   UNL d   1       4.244  -0.274  -2.305  0.00  0.00    -0.267 OA
ATOM     10  H   UNL d   1       5.598  -1.146   0.425  0.00  0.00     0.169 HD
BRANCH   8  11
ATOM     11  C   UNL d   1       5.573   1.022  -0.860  0.00  0.00     0.096 A 
ATOM     12  S   UNL d   1       5.980   1.327   0.774  0.00  0.00    -0.082 SA
ATOM     13  C   UNL d   1       6.630   2.879   0.426  0.00  0.00     0.017 A 
ATOM     14  C   UNL d   1       7.166   3.793   1.353  0.00  0.00     0.020 A 
ATOM     15  C   UNL d   1       6.571   3.160  -0.940  0.00  0.00     0.004 A 
ATOM     16  C   UNL d   1       7.660   5.014   0.890  0.00  0.00     0.001 A 
ATOM     17  C   UNL d   1       7.625   5.319  -0.460  0.00  0.00     0.001 A 
ATOM     18  C   UNL d   1       7.088   4.410  -1.375  0.00  0.00     0.014 A 
ATOM     19  C   UNL d   1       5.962   2.076  -1.668  0.00  0.00     0.068 A 
ATOM     20 CL   UNL d   1       5.766   2.155  -3.377  0.00  0.00    -0.082 Cl
ENDBRANCH   8  11
ENDBRANCH   1   7
BRANCH   2  21
ATOM     21  N   UNL d   1       5.647  -3.100   1.547  0.00  0.00    -0.281 NA
ATOM     22  C   UNL d   1       6.580  -4.185   1.918  0.00  0.00     0.096 C 
ATOM     23  C   UNL d   1       6.719  -4.087   3.437  0.00  0.00     0.016 C 
ATOM     24  C   UNL d   1       6.443  -2.621   3.704  0.00  0.00     0.016 C 
ATOM     25  C   UNL d   1       5.279  -2.345   2.758  0.00  0.00     0.096 C 
ENDBRANCH   2  21
BRANCH   3  26
ATOM     26  C   UNL d   1       1.476  -4.305  -2.233  0.00  0.00     0.417 C 
ATOM     27  F   UNL d   1       1.177  -3.281  -3.080  0.00  0.00    -0.166 F 
ATOM     28  F   UNL d   1       1.839  -5.351  -3.028  0.00  0.00    -0.166 F 
ATOM     29  F   UNL d   1       0.296  -4.669  -1.659  0.00  0.00    -0.166 F 
ENDBRANCH   3  26
TORSDOF 4
