REMARK  3 active torsions:
REMARK  status: ('A' for Active; 'I' for Inactive)
REMARK    1  A    between atoms: C_9  and  C_3 
REMARK    2  A    between atoms: C_8  and  C_4 
REMARK    3  A    between atoms: C_10  and  C_6 
ROOT
ATOM      1  N   UNL d   1      -1.078  -1.076   0.140  0.00  0.00    -0.354 N 
ATOM      2  HN  UNL d   1      -1.632  -1.930   0.209  1.00  0.00     0.166 HD
ATOM      3  C   UNL d   1       0.281  -1.147   0.100  0.00  0.00     0.049 C 
ATOM      4  C   UNL d   1       0.455   1.276   0.016  0.00  0.00    -0.016 C 
ATOM      5  C   UNL d   1       1.082   0.006  -0.051  0.00  0.00    -0.023 C 
ATOM      6  C   UNL d   1      -1.688   0.124   0.089  0.00  0.00     0.043 C 
ATOM      7  C   UNL d   1      -0.950   1.303   0.091  0.00  0.00     0.043 C 
ATOM      8  C   UNL d   1       2.561  -0.115  -0.318  0.00  0.00     0.051 C 
ENDROOT
BRANCH   4   9
ATOM      9  C   UNL d   1       1.190   2.572  -0.024  0.00  0.00    -0.025 A 
ATOM     10  C   UNL d   1       2.351   2.796   0.734  0.00  0.00     0.013 A 
ATOM     11  C   UNL d   1       3.069   3.994   0.641  0.00  0.00     0.007 A 
ATOM     12  C   UNL d   1       2.615   5.034  -0.172  0.00  0.00    -0.062 A 
ATOM     13  C   UNL d   1       1.428   4.857  -0.885  0.00  0.00     0.007 A 
ATOM     14  C   UNL d   1       3.408   6.302  -0.288  0.00  0.00     0.048 C 
ATOM     15  C   UNL d   1       0.735   3.642  -0.817  0.00  0.00     0.013 A 
ENDBRANCH   4   9
BRANCH   6  16
ATOM     16  C   UNL d   1      -3.165   0.102   0.010  0.00  0.00    -0.009 A 
ATOM     17  C   UNL d   1      -3.904  -0.954   0.575  0.00  0.00     0.013 A 
ATOM     18  C   UNL d   1      -5.301  -0.990   0.503  0.00  0.00     0.001 A 
ATOM     19  C   UNL d   1      -5.997   0.024  -0.149  0.00  0.00     0.000 A 
ATOM     20  C   UNL d   1      -5.292   1.073  -0.732  0.00  0.00     0.001 A 
ATOM     21  C   UNL d   1      -3.895   1.108  -0.657  0.00  0.00     0.013 A 
ENDBRANCH   6  16
BRANCH   3  22
ATOM     22  C   UNL d   1       0.796  -2.537   0.210  0.00  0.00    -0.009 A 
ATOM     23  C   UNL d   1       0.130  -3.599  -0.435  0.00  0.00     0.014 A 
ATOM     24  C   UNL d   1       0.596  -4.917  -0.351  0.00  0.00     0.001 A 
ATOM     25  C   UNL d   1       1.744  -5.205   0.379  0.00  0.00     0.000 A 
ATOM     26  C   UNL d   1       2.408  -4.183   1.050  0.00  0.00     0.001 A 
ATOM     27  C   UNL d   1       1.923  -2.871   0.983  0.00  0.00     0.014 A 
ENDBRANCH   3  22
TORSDOF 3
