REMARK  6 active torsions:
REMARK  status: ('A' for Active; 'I' for Inactive)
REMARK    1  A    between atoms: S_16  and  C_9 
REMARK    2  A    between atoms: C_22  and  C_10 
REMARK    3  A    between atoms: C_21  and  S_16 
REMARK    4  A    between atoms: C_18  and  C_21 
REMARK    5  A    between atoms: C_19  and  C_18 
REMARK    6  A    between atoms: C_28  and  C_20 
ROOT
ATOM      1  C   UNL d   1      -1.105   0.813  -0.180  0.00  0.00     0.139 A 
ATOM      2  C   UNL d   1       1.089   0.705  -0.130  0.00  0.00     0.162 A 
ATOM      3  C   UNL d   1       0.635  -0.611  -0.037  0.00  0.00     0.051 A 
ATOM      4  C   UNL d   1      -0.779  -0.527  -0.046  0.00  0.00     0.085 A 
ATOM      5  O   UNL d   1       0.030   1.568  -0.221  0.00  0.00    -0.288 OA
ATOM      6  N   UNL d   1       2.370   1.119  -0.154  0.00  0.00    -0.335 N 
ATOM      7  HN  UNL d   1       2.632   2.103  -0.208  1.00  0.00     0.168 HD
ATOM      8  C   UNL d   1       1.590  -1.644   0.031  0.00  0.00    -0.043 A 
ATOM      9  C   UNL d   1      -2.435   1.193  -0.264  0.00  0.00     0.107 A 
ATOM     10  C   UNL d   1       3.281   0.116  -0.099  0.00  0.00     0.044 A 
ATOM     11  N   UNL d   1      -3.373   0.215  -0.187  0.00  0.00    -0.345 N 
ATOM     12  HN  UNL d   1      -4.366   0.441  -0.244  1.00  0.00     0.167 HD
ATOM     13  N   UNL d   1      -1.709  -1.509   0.033  0.00  0.00    -0.349 N 
ATOM     14  HN  UNL d   1      -1.473  -2.496   0.134  1.00  0.00     0.166 HD
ATOM     15  C   UNL d   1       2.932  -1.237   0.005  0.00  0.00     0.038 A 
ATOM     16  C   UNL d   1      -2.966  -1.057  -0.035  0.00  0.00     0.182 A 
ATOM     17  C   UNL d   1       1.266  -3.108   0.090  0.00  0.00     0.049 C 
ENDROOT
BRANCH   9  18
ATOM     18  S   UNL d   1      -2.944   2.864  -0.530  0.00  0.00    -0.102 SA
BRANCH  18  19
ATOM     19  C   UNL d   1      -4.752   2.651  -0.430  0.00  0.00     0.164 C 
BRANCH  19  20
ATOM     20  C   UNL d   1      -5.460   3.952  -0.739  0.00  0.00     0.169 C 
ATOM     21  O   UNL d   1      -5.773   4.732   0.162  0.00  0.00    -0.291 OA
BRANCH  20  22
ATOM     22  C   UNL d   1      -5.815   4.296  -2.155  0.00  0.00     0.011 A 
ATOM     23  C   UNL d   1      -5.466   3.503  -3.250  0.00  0.00     0.016 A 
ATOM     24  C   UNL d   1      -5.814   3.898  -4.553  0.00  0.00     0.013 A 
ATOM     25  C   UNL d   1      -6.520   5.088  -4.803  0.00  0.00    -0.026 A 
ATOM     26  C   UNL d   1      -6.880   5.862  -3.687  0.00  0.00     0.013 A 
ATOM     27  C   UNL d   1      -6.530   5.477  -2.386  0.00  0.00     0.016 A 
BRANCH  25  28
ATOM     28  C   UNL d   1      -6.853   5.520  -6.182  0.00  0.00    -0.026 A 
ATOM     29  C   UNL d   1      -6.813   6.878  -6.552  0.00  0.00     0.012 A 
ATOM     30  C   UNL d   1      -7.120   7.293  -7.852  0.00  0.00     0.001 A 
ATOM     31  C   UNL d   1      -7.465   6.356  -8.820  0.00  0.00     0.000 A 
ATOM     32  C   UNL d   1      -7.508   5.006  -8.486  0.00  0.00     0.001 A 
ATOM     33  C   UNL d   1      -7.210   4.595  -7.181  0.00  0.00     0.012 A 
ENDBRANCH  25  28
ENDBRANCH  20  22
ENDBRANCH  19  20
ENDBRANCH  18  19
ENDBRANCH   9  18
BRANCH  10  34
ATOM     34  C   UNL d   1       4.703   0.527  -0.171  0.00  0.00    -0.009 A 
ATOM     35  C   UNL d   1       5.161   1.691   0.470  0.00  0.00     0.013 A 
ATOM     36  C   UNL d   1       6.509   2.065   0.423  0.00  0.00     0.001 A 
ATOM     37  C   UNL d   1       7.429   1.285  -0.273  0.00  0.00     0.000 A 
ATOM     38  C   UNL d   1       7.001   0.135  -0.928  0.00  0.00     0.001 A 
ATOM     39  C   UNL d   1       5.654  -0.237  -0.879  0.00  0.00     0.013 A 
ENDBRANCH  10  34
TORSDOF 6
