REMARK  3 active torsions:
REMARK  status: ('A' for Active; 'I' for Inactive)
REMARK    1  A    between atoms: S_6  and  C_1 
REMARK    2  A    between atoms: S_7  and  C_2 
REMARK    3  A    between atoms: C_9  and  C_3 
REMARK       I    between atoms: N_15  and  C_9 
ROOT
ATOM      1  C   UNL d   1      -0.375  -1.380  -0.036  0.00  0.00     0.134 A 
ATOM      2  C   UNL d   1      -1.444   0.666  -0.022  0.00  0.00     0.152 A 
ATOM      3  C   UNL d   1      -1.630  -0.772  -0.040  0.00  0.00     0.100 A 
ATOM      4  N   UNL d   1      -0.182   1.109   0.037  0.00  0.00    -0.315 N 
ATOM      5  HN  UNL d   1       0.103   2.087   0.081  1.00  0.00     0.175 HD
ATOM      6  S   UNL d   1       0.828  -0.183   0.025  0.00  0.00    -0.001 SA
ENDROOT
BRANCH   3   7
ATOM      7  C   UNL d   1      -2.915  -1.458  -0.107  0.00  0.00     0.254 C 
ATOM      8  O   UNL d   1      -3.947  -0.913  -0.474  0.00  0.00    -0.268 OA
ATOM      9  N   UNL d   1      -2.972  -2.765   0.273  0.00  0.00    -0.366 N 
ATOM     10  H   UNL d   1      -2.241  -3.275   0.759  0.00  0.00     0.159 HD
ATOM     11  H   UNL d   1      -3.885  -3.200   0.239  0.00  0.00     0.159 HD
ENDBRANCH   3   7
BRANCH   2  12
ATOM     12  S   UNL d   1      -2.758   1.827  -0.026  0.00  0.00     0.188 S 
ATOM     13  O   UNL d   1      -3.343   1.735  -1.348  0.00  0.00    -0.222 OA
ATOM     14  O   UNL d   1      -3.476   1.569   1.204  0.00  0.00    -0.222 OA
ATOM     15  C   UNL d   1      -1.967   3.409   0.104  0.00  0.00     0.168 C 
ENDBRANCH   2  12
BRANCH   1  16
ATOM     16  S   UNL d   1       0.172  -3.054  -0.112  0.00  0.00     0.180 S 
ATOM     17  O   UNL d   1      -0.422  -3.657   1.067  0.00  0.00    -0.222 OA
ATOM     18  O   UNL d   1      -0.193  -3.491  -1.442  0.00  0.00    -0.222 OA
ATOM     19  C   UNL d   1       1.935  -3.117   0.043  0.00  0.00     0.167 C 
ENDBRANCH   1  16
TORSDOF 3
