REMARK  4 active torsions:
REMARK  status: ('A' for Active; 'I' for Inactive)
REMARK    1  A    between atoms: C_10  and  C_1 
REMARK    2  A    between atoms: C_2  and  N_11 
REMARK    3  A    between atoms: C_15  and  C_9 
REMARK       I    between atoms: N_11  and  C_10 
REMARK    4  A    between atoms: C_18  and  C_12 
ROOT
ATOM      1  C   UNL d   1       0.685  -4.870   0.055  0.00  0.00     0.152 A 
ATOM      2  N   UNL d   1      -0.371  -5.601  -0.173  0.00  0.00    -0.335 N 
ATOM      3  HN  UNL d   1      -1.256  -5.249  -0.539  1.00  0.00     0.168 HD
ATOM      4  C   UNL d   1      -0.115  -6.927   0.154  0.00  0.00     0.057 A 
ATOM      5  S   UNL d   1       2.083  -5.705   0.551  0.00  0.00    -0.057 SA
ATOM      6  C   UNL d   1       1.181  -7.176   0.591  0.00  0.00     0.010 A 
ATOM      7  C   UNL d   1       1.847  -8.422   1.060  0.00  0.00     0.059 C 
ENDROOT
BRANCH   1   8
ATOM      8  N   UNL d   1       0.849  -3.513  -0.018  0.00  0.00    -0.302 N 
ATOM      9  C   UNL d   1      -0.210  -2.648  -0.181  0.00  0.00     0.275 C 
ATOM     10  O   UNL d   1      -1.381  -2.998  -0.297  0.00  0.00    -0.266 OA
ATOM     11  H   UNL d   1       1.768  -3.169   0.191  0.00  0.00     0.171 HD
BRANCH   9  12
ATOM     12  C   UNL d   1       0.173  -1.242  -0.157  0.00  0.00     0.120 A 
ATOM     13  N   UNL d   1      -0.688  -0.170  -0.073  0.00  0.00    -0.291 N 
ATOM     14  N   UNL d   1      -0.059   1.024   0.002  0.00  0.00    -0.302 N 
ATOM     15  C   UNL d   1      -2.133  -0.139  -0.063  0.00  0.00     0.178 C 
ATOM     16  C   UNL d   1       1.241   0.738  -0.089  0.00  0.00     0.036 A 
ATOM     17  HN  UNL d   1      -0.486   1.944   0.106  1.00  0.00     0.186 HD
ATOM     18  C   UNL d   1       1.431  -0.659  -0.227  0.00  0.00     0.064 A 
BRANCH  16  19
ATOM     19  C   UNL d   1       2.305   1.823  -0.046  0.00  0.00    -0.007 C 
ATOM     20  C   UNL d   1       2.991   1.939  -1.420  0.00  0.00     0.021 C 
ATOM     21  C   UNL d   1       1.722   3.206   0.319  0.00  0.00     0.021 C 
ATOM     22  C   UNL d   1       3.369   1.472   1.017  0.00  0.00     0.021 C 
ENDBRANCH  16  19
ENDBRANCH   9  12
ENDBRANCH   1   8
BRANCH   4  23
ATOM     23  C   UNL d   1      -1.201  -7.901   0.050  0.00  0.00    -0.007 A 
ATOM     24  C   UNL d   1      -2.146  -7.770  -0.977  0.00  0.00     0.038 A 
ATOM     25  C   UNL d   1      -3.262  -8.613  -1.038  0.00  0.00     0.040 A 
ATOM     26 CL   UNL d   1      -4.389  -8.379  -2.326  0.00  0.00    -0.084 Cl
ATOM     27  C   UNL d   1      -3.463  -9.605  -0.066  0.00  0.00    -0.040 A 
ATOM     28  C   UNL d   1      -2.500  -9.757   0.939  0.00  0.00     0.009 A 
ATOM     29  C   UNL d   1      -4.685 -10.480  -0.052  0.00  0.00     0.050 C 
ATOM     30  C   UNL d   1      -1.389  -8.909   1.001  0.00  0.00     0.014 A 
ENDBRANCH   4  23
TORSDOF 4
