REMARK  6 active torsions:
REMARK  status: ('A' for Active; 'I' for Inactive)
REMARK    1  A    between atoms: C_10  and  C_1 
REMARK    2  A    between atoms: C_17  and  N_2 
REMARK    3  A    between atoms: C_3  and  N_11 
REMARK    4  A    between atoms: C_15  and  C_9 
REMARK       I    between atoms: N_11  and  C_10 
REMARK    5  A    between atoms: C_19  and  C_12 
REMARK    6  A    between atoms: C_25  and  C_17 
ROOT
ATOM      1  C   UNL d   1      -0.143  -2.589   0.021  0.00  0.00     0.255 C 
ATOM      2  N   UNL d   1       0.429  -3.494  -0.864  0.00  0.00    -0.203 NA
ATOM      3  O   UNL d   1      -0.935  -3.058   0.842  0.00  0.00    -0.272 OA
ATOM      4  H   UNL d   1       0.230  -4.390  -0.432  0.00  0.00     0.139 HD
ENDROOT
BRANCH   1   5
ATOM      5  C   UNL d   1       0.006  -1.153  -0.139  0.00  0.00     0.115 C 
ATOM      6  N   UNL d   1       1.090  -0.356   0.150  0.00  0.00    -0.283 N 
ATOM      7  N   UNL d   1       0.889   0.944  -0.137  0.00  0.00    -0.301 N 
ATOM      8  C   UNL d   1      -0.439   1.057  -0.221  0.00  0.00     0.036 C 
ATOM      9  HN  UNL d   1       1.590   1.675  -0.262  1.00  0.00     0.187 HD
ATOM     10  C   UNL d   1      -1.025  -0.230  -0.312  0.00  0.00     0.063 C 
BRANCH   6  11
ATOM     11  C   UNL d   1       2.330  -0.677   0.828  0.00  0.00     0.188 C 
BRANCH  11  12
ATOM     12  C   UNL d   1       2.241  -0.549   2.321  0.00  0.00    -0.038 A 
ATOM     13  C   UNL d   1       1.791  -1.629   3.097  0.00  0.00     0.009 A 
ATOM     14  C   UNL d   1       1.762  -1.531   4.485  0.00  0.00     0.001 A 
ATOM     15  C   UNL d   1       2.181  -0.358   5.107  0.00  0.00     0.000 A 
ATOM     16  C   UNL d   1       2.615   0.722   4.341  0.00  0.00     0.001 A 
ATOM     17  C   UNL d   1       2.640   0.632   2.952  0.00  0.00     0.009 A 
ENDBRANCH  11  12
ENDBRANCH   6  11
BRANCH   8  18
ATOM     18  C   UNL d   1      -1.058   2.443  -0.158  0.00  0.00    -0.007 C 
ATOM     19  C   UNL d   1      -2.587   2.392   0.017  0.00  0.00     0.021 C 
ATOM     20  C   UNL d   1      -0.481   3.214   1.056  0.00  0.00     0.021 C 
ATOM     21  C   UNL d   1      -0.734   3.232  -1.440  0.00  0.00     0.021 C 
ENDBRANCH   8  18
ENDBRANCH   1   5
BRANCH   2  22
ATOM     22  C   UNL d   1       1.764  -3.412  -1.161  0.00  0.00     0.131 C 
ATOM     23  N   UNL d   1       2.752  -3.597  -0.324  0.00  0.00    -0.339 N 
ATOM     24  C   UNL d   1       3.938  -3.253  -0.960  0.00  0.00     0.057 C 
ATOM     25  HN  UNL d   1       2.666  -3.937   0.634  1.00  0.00     0.167 HD
ATOM     26  C   UNL d   1       3.850  -3.175  -2.342  0.00  0.00     0.009 C 
ATOM     27  S   UNL d   1       2.185  -3.247  -2.798  0.00  0.00    -0.062 SA
ATOM     28  C   UNL d   1       4.903  -2.958  -3.369  0.00  0.00     0.059 C 
BRANCH  24  29
ATOM     29  C   UNL d   1       5.072  -2.800  -0.159  0.00  0.00    -0.007 A 
ATOM     30  C   UNL d   1       5.465  -3.493   0.989  0.00  0.00     0.038 A 
ATOM     31  C   UNL d   1       6.379  -2.919   1.880  0.00  0.00     0.040 A 
ATOM     32 CL   UNL d   1       6.812  -3.825   3.291  0.00  0.00    -0.084 Cl
ATOM     33  C   UNL d   1       6.906  -1.636   1.657  0.00  0.00    -0.040 A 
ATOM     34  C   UNL d   1       6.527  -0.957   0.493  0.00  0.00     0.009 A 
ATOM     35  C   UNL d   1       7.819  -0.954   2.638  0.00  0.00     0.050 C 
ATOM     36  C   UNL d   1       5.625  -1.532  -0.404  0.00  0.00     0.014 A 
ENDBRANCH  24  29
ENDBRANCH   2  22
TORSDOF 6
