REMARK  1 active torsions:
REMARK  status: ('A' for Active; 'I' for Inactive)
REMARK    1  A    between atoms: C_7  and  C_4 
ROOT
ATOM      1  C   UNL d   1      -1.165  -0.724   0.123  0.00  0.00     0.045 A 
ATOM      2  C   UNL d   1      -1.774   0.659   0.188  0.00  0.00     0.257 A 
ATOM      3  N   UNL d   1      -0.695   1.526   0.155  0.00  0.00    -0.322 N 
ATOM      4  C   UNL d   1      -1.834  -1.885   0.057  0.00  0.00     0.030 C 
ATOM      5  C   UNL d   1       0.292  -0.545   0.091  0.00  0.00     0.006 A 
ATOM      6  C   UNL d   1       0.511   0.837   0.098  0.00  0.00     0.046 A 
ATOM      7  O   UNL d   1      -2.944   0.975   0.272  0.00  0.00    -0.267 OA
ATOM      8  C   UNL d   1       1.366  -1.418   0.036  0.00  0.00     0.015 A 
ATOM      9  C   UNL d   1       1.771   1.397   0.052  0.00  0.00     0.030 A 
ATOM     10  C   UNL d   1       2.655  -0.871  -0.009  0.00  0.00     0.001 A 
ATOM     11  C   UNL d   1       2.856   0.522  -0.002  0.00  0.00     0.002 A 
ATOM     12  H   UNL d   1      -0.808   2.527   0.182  0.00  0.00     0.169 HD
ENDROOT
BRANCH   4  13
ATOM     13  C   UNL d   1      -3.303  -1.960  -0.037  0.00  0.00    -0.021 A 
ATOM     14  C   UNL d   1      -3.969  -1.952  -1.288  0.00  0.00     0.001 A 
ATOM     15  C   UNL d   1      -5.380  -1.890  -1.267  0.00  0.00     0.043 A 
ATOM     16  C   UNL d   1      -3.305  -1.981  -2.540  0.00  0.00     0.014 A 
ATOM     17  C   UNL d   1      -6.064  -1.820  -2.474  0.00  0.00     0.030 A 
ATOM     18  N   UNL d   1      -6.094  -1.883  -0.128  0.00  0.00    -0.365 N 
ATOM     19  C   UNL d   1      -5.400  -1.825  -3.703  0.00  0.00     0.002 A 
ATOM     20  C   UNL d   1      -4.016  -1.918  -3.736  0.00  0.00     0.001 A 
ATOM     21  C   UNL d   1      -5.423  -1.900   1.042  0.00  0.00     0.089 A 
ATOM     22  HN  UNL d   1      -7.114  -1.864  -0.148  1.00  0.00     0.165 HD
ATOM     23  C   UNL d   1      -4.046  -1.941   1.143  0.00  0.00     0.029 A 
ENDBRANCH   4  13
TORSDOF 1
