REMARK  6 active torsions:
REMARK  status: ('A' for Active; 'I' for Inactive)
REMARK    1  A    between atoms: C_6  and  C_1 
REMARK    2  A    between atoms: C_11  and  C_3 
REMARK    3  A    between atoms: C_7  and  C_4 
REMARK    4  A    between atoms: O_10  and  C_7 
REMARK    5  A    between atoms: C_8  and  C_9 
REMARK    6  A    between atoms: C_14  and  O_10 
ROOT
ATOM      1  C   UNL d   1       0.230   1.171   0.200  0.00  0.00     0.100 A 
ATOM      2  S   UNL d   1      -0.930  -0.099   0.331  0.00  0.00    -0.079 SA
ATOM      3  C   UNL d   1       1.518   0.664   0.043  0.00  0.00    -0.002 A 
ATOM      4  C   UNL d   1       0.238  -1.327   0.174  0.00  0.00     0.082 A 
ATOM      5  C   UNL d   1       1.492  -0.779   0.008  0.00  0.00     0.038 A 
ENDROOT
BRANCH   4   6
ATOM      6  C   UNL d   1      -0.097  -2.745   0.196  0.00  0.00     0.305 C 
ATOM      7  O   UNL d   1       0.703  -3.650  -0.008  0.00  0.00    -0.258 OA
BRANCH   6   8
ATOM      8  O   UNL d   1      -1.451  -2.930   0.485  0.00  0.00    -0.275 OA
BRANCH   8   9
ATOM      9  C   UNL d   1      -2.073  -4.188   0.347  0.00  0.00     0.080 A 
ATOM     10  C   UNL d   1      -1.807  -5.038  -0.726  0.00  0.00     0.053 A 
ATOM     11  C   UNL d   1      -2.564  -6.208  -0.893  0.00  0.00     0.050 A 
ATOM     12  C   UNL d   1      -3.582  -6.501   0.032  0.00  0.00     0.016 A 
ATOM     13  C   UNL d   1      -3.840  -5.642   1.102  0.00  0.00     0.004 A 
ATOM     14  C   UNL d   1      -3.088  -4.479   1.258  0.00  0.00     0.037 A 
BRANCH  11  15
ATOM     15  C   UNL d   1      -2.329  -7.124  -2.068  0.00  0.00     0.417 C 
ATOM     16  F   UNL d   1      -1.286  -6.747  -2.858  0.00  0.00    -0.166 F 
ATOM     17  F   UNL d   1      -2.071  -8.406  -1.691  0.00  0.00    -0.166 F 
ATOM     18  F   UNL d   1      -3.412  -7.190  -2.893  0.00  0.00    -0.166 F 
ENDBRANCH  11  15
ENDBRANCH   8   9
ENDBRANCH   6   8
ENDBRANCH   4   6
BRANCH   1  19
ATOM     19  C   UNL d   1      -0.280   2.580   0.260  0.00  0.00     0.424 C 
ATOM     20  F   UNL d   1      -1.543   2.676   0.758  0.00  0.00    -0.166 F 
ATOM     21  F   UNL d   1       0.492   3.382   1.040  0.00  0.00    -0.166 F 
ATOM     22  F   UNL d   1      -0.320   3.145  -0.975  0.00  0.00    -0.166 F 
ENDBRANCH   1  19
BRANCH   3  23
ATOM     23  C   UNL d   1       2.749   1.469  -0.041  0.00  0.00    -0.025 A 
ATOM     24  C   UNL d   1       3.932   0.966   0.530  0.00  0.00     0.012 A 
ATOM     25  C   UNL d   1       5.134   1.675   0.456  0.00  0.00     0.001 A 
ATOM     26  C   UNL d   1       5.171   2.913  -0.175  0.00  0.00     0.000 A 
ATOM     27  C   UNL d   1       4.012   3.429  -0.747  0.00  0.00     0.001 A 
ATOM     28  C   UNL d   1       2.815   2.704  -0.697  0.00  0.00     0.012 A 
ENDBRANCH   3  23
TORSDOF 6
