REMARK  4 active torsions:
REMARK  status: ('A' for Active; 'I' for Inactive)
REMARK    1  A    between atoms: C_2  and  S_1 
REMARK    2  A    between atoms: C_5  and  S_1 
REMARK    3  A    between atoms: C_8  and  C_3 
REMARK    4  A    between atoms: C_4  and  C_7 
ROOT
ATOM      1  C   UNL d   1       0.516  -0.286   1.604  0.00  0.00     0.146 C 
ATOM      2  C   UNL d   1      -0.371   0.517   2.223  0.00  0.00     0.048 C 
ATOM      3  C   UNL d   1       1.016  -0.062   0.299  0.00  0.00     0.112 C 
ATOM      4  N   UNL d   1       1.399   0.124  -0.780  0.00  0.00    -0.191 NA
ENDROOT
BRANCH   1   5
ATOM      5  S   UNL d   1       0.944  -1.776   2.384  0.00  0.00     0.232 S 
ATOM      6  O   UNL d   1       0.102  -2.822   1.819  0.00  0.00    -0.215 OA
ATOM      7  O   UNL d   1       0.977  -1.601   3.827  0.00  0.00    -0.215 OA
BRANCH   5   8
ATOM      8  C   UNL d   1       2.619  -2.110   1.858  0.00  0.00     0.134 A 
ATOM      9  N   UNL d   1       3.502  -1.122   2.160  0.00  0.00    -0.356 N 
ATOM     10  C   UNL d   1       4.784  -1.355   1.805  0.00  0.00     0.089 A 
ATOM     11  HN  UNL d   1       3.215  -0.260   2.624  1.00  0.00     0.166 HD
ATOM     12  C   UNL d   1       5.206  -2.505   1.152  0.00  0.00     0.017 A 
ATOM     13  C   UNL d   1       4.263  -3.483   0.840  0.00  0.00     0.004 A 
ATOM     14  C   UNL d   1       2.935  -3.291   1.202  0.00  0.00     0.042 A 
ENDBRANCH   5   8
ENDBRANCH   1   5
BRANCH   2  15
ATOM     15  C   UNL d   1      -0.912   1.748   1.629  0.00  0.00    -0.012 A 
ATOM     16  C   UNL d   1      -0.286   2.997   1.760  0.00  0.00     0.045 A 
ATOM     17  C   UNL d   1      -0.833   4.132   1.154  0.00  0.00     0.040 A 
ATOM     18 CL   UNL d   1       1.178   3.185   2.659  0.00  0.00    -0.083 Cl
ATOM     19  C   UNL d   1      -2.016   4.040   0.402  0.00  0.00     0.049 A 
ATOM     20  C   UNL d   1      -2.635   2.788   0.266  0.00  0.00     0.017 A 
ATOM     21  C   UNL d   1      -2.091   1.655   0.876  0.00  0.00     0.014 A 
BRANCH  19  22
ATOM     22  C   UNL d   1      -2.623   5.258  -0.254  0.00  0.00     0.417 C 
ATOM     23  F   UNL d   1      -1.940   6.408  -0.002  0.00  0.00    -0.166 F 
ATOM     24  F   UNL d   1      -2.682   5.144  -1.609  0.00  0.00    -0.166 F 
ATOM     25  F   UNL d   1      -3.900   5.484   0.160  0.00  0.00    -0.166 F 
ENDBRANCH  19  22
ENDBRANCH   2  15
TORSDOF 4
