REMARK  1 active torsions:
REMARK  status: ('A' for Active; 'I' for Inactive)
REMARK    1  A    between atoms: C_2  and  N_1 
ROOT
ATOM      1  C   UNL d   1       0.004   2.315  -0.102  0.00  0.00     0.057 A 
ATOM      2  C   UNL d   1       0.687   3.030  -1.130  0.00  0.00     0.002 A 
ATOM      3  C   UNL d   1       0.640   4.447  -1.107  0.00  0.00    -0.024 A 
ATOM      4  C   UNL d   1      -0.718   3.010   0.882  0.00  0.00     0.031 A 
ATOM      5  C   UNL d   1       1.354   2.422  -2.225  0.00  0.00     0.014 A 
ATOM      6  C   UNL d   1      -0.727   4.400   0.904  0.00  0.00     0.003 A 
ATOM      7  C   UNL d   1      -0.048   5.111  -0.081  0.00  0.00     0.012 A 
ATOM      8  C   UNL d   1       1.256   5.191  -2.127  0.00  0.00     0.012 A 
ATOM      9  C   UNL d   1       1.954   3.175  -3.236  0.00  0.00     0.001 A 
ATOM     10  C   UNL d   1       1.906   4.560  -3.187  0.00  0.00     0.001 A 
ENDROOT
BRANCH   1  11
ATOM     11  N   UNL d   1       0.000   0.903  -0.056  0.00  0.00    -0.244 N 
ATOM     12  C   UNL d   1      -1.121   0.136   0.067  0.00  0.00     0.255 A 
ATOM     13  C   UNL d   1      -0.681  -1.264   0.088  0.00  0.00     0.080 A 
ATOM     14  O   UNL d   1      -2.297   0.451   0.119  0.00  0.00    -0.268 OA
ATOM     15  C   UNL d   1       0.651  -1.276   0.059  0.00  0.00     0.080 A 
ATOM     16  C   UNL d   1       1.112   0.118   0.000  0.00  0.00     0.255 A 
ATOM     17  O   UNL d   1       2.295   0.412   0.055  0.00  0.00    -0.268 OA
ENDBRANCH   1  11
TORSDOF 1
