REMARK  5 active torsions:
REMARK  status: ('A' for Active; 'I' for Inactive)
REMARK    1  A    between atoms: N_2  and  C_1 
REMARK    2  A    between atoms: N_4  and  C_1 
REMARK    3  A    between atoms: C_3  and  N_2 
REMARK    4  A    between atoms: C_8  and  N_4 
REMARK    5  A    between atoms: S_13  and  C_11 
ROOT
ATOM      1  C   UNL d   1       1.126   0.278  -0.283  0.00  0.00     0.176 C 
ATOM      2  S   UNL d   1       2.527   0.956  -0.921  0.00  0.00    -0.041 SA
ENDROOT
BRANCH   1   3
ATOM      3  N   UNL d   1       0.553  -0.921  -0.707  0.00  0.00    -0.333 N 
ATOM      4  H   UNL d   1      -0.452  -0.867  -0.818  0.00  0.00     0.168 HD
BRANCH   3   5
ATOM      5  C   UNL d   1       1.206  -2.012  -1.326  0.00  0.00     0.040 A 
ATOM      6  C   UNL d   1       0.567  -2.779  -2.316  0.00  0.00    -0.035 A 
ATOM      7  C   UNL d   1       1.230  -3.913  -2.823  0.00  0.00     0.009 A 
ATOM      8  C   UNL d   1      -0.773  -2.447  -2.912  0.00  0.00     0.050 C 
ATOM      9  C   UNL d   1       2.501  -4.272  -2.372  0.00  0.00     0.007 A 
ATOM     10  C   UNL d   1       3.140  -3.509  -1.397  0.00  0.00    -0.060 A 
ATOM     11  C   UNL d   1       2.479  -2.397  -0.871  0.00  0.00     0.037 A 
ATOM     12  C   UNL d   1       4.505  -3.888  -0.905  0.00  0.00     0.048 C 
ENDBRANCH   3   5
ENDBRANCH   1   3
BRANCH   1  13
ATOM     13  N   UNL d   1       0.351   0.817   0.747  0.00  0.00    -0.333 N 
ATOM     14  H   UNL d   1       0.025   0.112   1.400  0.00  0.00     0.168 HD
BRANCH  13  15
ATOM     15  C   UNL d   1       0.373   2.143   1.228  0.00  0.00     0.035 A 
ATOM     16  C   UNL d   1       0.477   3.231   0.355  0.00  0.00     0.048 A 
ATOM     17  C   UNL d   1       0.520   4.542   0.836  0.00  0.00     0.002 A 
ATOM     18  C   UNL d   1       0.404   4.756   2.213  0.00  0.00     0.018 A 
ATOM     19  C   UNL d   1       0.249   3.678   3.089  0.00  0.00     0.004 A 
ATOM     20  C   UNL d   1       0.218   2.373   2.595  0.00  0.00     0.029 A 
BRANCH  17  21
ATOM     21  S   UNL d   1       0.653   5.963  -0.241  0.00  0.00    -0.134 SA
ATOM     22  C   UNL d   1       1.679   5.314  -1.594  0.00  0.00     0.095 C 
ENDBRANCH  17  21
ENDBRANCH  13  15
ENDBRANCH   1  13
TORSDOF 5
