REMARK  4 active torsions:
REMARK  status: ('A' for Active; 'I' for Inactive)
REMARK    1  A    between atoms: C_3  and  C_11 
REMARK       I    between atoms: N_8  and  C_3 
REMARK    2  A    between atoms: O_6  and  C_4 
REMARK    3  A    between atoms: C_11  and  O_6 
REMARK    4  A    between atoms: N_12  and  N_8 
ROOT
ATOM      1  C   UNL d   1      -0.310   0.661  -0.018  0.00  0.00    -0.018 A 
ATOM      2  C   UNL d   1      -0.083  -0.720  -0.013  0.00  0.00    -0.043 A 
ATOM      3  C   UNL d   1       0.740   1.572   0.010  0.00  0.00     0.076 A 
ATOM      4  C   UNL d   1       1.212  -1.234   0.008  0.00  0.00    -0.055 A 
ATOM      5  C   UNL d   1       2.042   1.069   0.024  0.00  0.00     0.038 A 
ATOM      6  C   UNL d   1       2.273  -0.317   0.025  0.00  0.00     0.010 A 
ATOM      7  C   UNL d   1      -1.771   0.978  -0.044  0.00  0.00     0.042 A 
ATOM      8  C   UNL d   1      -1.365  -1.486  -0.042  0.00  0.00     0.040 A 
ATOM      9  C   UNL d   1      -2.446  -0.399  -0.027  0.00  0.00     0.009 A 
ATOM     10  C   UNL d   1       1.505  -2.704  -0.001  0.00  0.00     0.049 C 
ENDROOT
BRANCH   3  11
ATOM     11  O   UNL d   1       0.408   2.896  -0.034  0.00  0.00    -0.342 OA
BRANCH  11  12
ATOM     12  C   UNL d   1       1.332   3.787   0.589  0.00  0.00     0.279 C 
BRANCH  12  13
ATOM     13  C   UNL d   1       0.827   5.229   0.561  0.00  0.00     0.255 C 
ATOM     14  O   UNL d   1       1.434   6.154   1.102  0.00  0.00    -0.270 OA
ATOM     15  N   UNL d   1      -0.366   5.409  -0.125  0.00  0.00    -0.292 N 
ATOM     16  H   UNL d   1      -0.725   4.635  -0.686  0.00  0.00     0.183 HD
BRANCH  15  17
ATOM     17  N   UNL d   1      -0.899   6.706  -0.283  0.00  0.00    -0.247 NA
ATOM     18  H   UNL d   1      -0.190   7.366   0.068  0.00  0.00     0.143 HD
ATOM     19  H   UNL d   1      -1.675   6.807   0.377  0.00  0.00     0.143 HD
ENDBRANCH  15  17
ENDBRANCH  12  13
ENDBRANCH  11  12
ENDBRANCH   3  11
TORSDOF 4
