REMARK  3 active torsions:
REMARK  status: ('A' for Active; 'I' for Inactive)
REMARK    1  A    between atoms: C_6  and  N_1 
REMARK    2  A    between atoms: C_7  and  C_6 
REMARK       I    between atoms: N_10  and  C_7 
REMARK    3  A    between atoms: C_14  and  N_10 
ROOT
ATOM      1  N   UNL d   1       2.757  -0.632  -1.229  0.00  0.00    -0.271 N 
ATOM      2  C   UNL d   1       2.054  -0.019  -2.227  0.00  0.00     0.262 C 
ATOM      3  C   UNL d   1       2.956  -1.958  -1.504  0.00  0.00     0.262 C 
ATOM      4  C   UNL d   1       2.523  -2.161  -2.890  0.00  0.00     0.048 A 
ATOM      5  C   UNL d   1       2.022  -0.956  -3.345  0.00  0.00     0.048 A 
ATOM      6  O   UNL d   1       1.488   1.058  -2.214  0.00  0.00    -0.267 OA
ATOM      7  O   UNL d   1       3.350  -2.845  -0.776  0.00  0.00    -0.267 OA
ATOM      8  C   UNL d   1       1.596  -0.775  -4.646  0.00  0.00     0.018 A 
ATOM      9  C   UNL d   1       2.568  -3.279  -3.700  0.00  0.00     0.018 A 
ATOM     10  C   UNL d   1       1.677  -1.878  -5.498  0.00  0.00     0.001 A 
ATOM     11  C   UNL d   1       2.141  -3.124  -5.024  0.00  0.00     0.001 A 
ENDROOT
BRANCH   1  12
ATOM     12  C   UNL d   1       2.970  -0.025   0.068  0.00  0.00     0.238 C 
BRANCH  12  13
ATOM     13  C   UNL d   1       3.739   1.288  -0.102  0.00  0.00     0.236 C 
ATOM     14  N   UNL d   1       2.942   2.418  -0.050  0.00  0.00    -0.355 N 
ATOM     15  H   UNL d   1       1.938   2.290  -0.128  0.00  0.00     0.162 HD
ATOM     16  O   UNL d   1       4.943   1.317  -0.346  0.00  0.00    -0.272 OA
BRANCH  14  17
ATOM     17  C   UNL d   1       3.469   3.767  -0.230  0.00  0.00     0.084 C 
ATOM     18  C   UNL d   1       3.741   4.419   1.132  0.00  0.00     0.025 C 
ATOM     19  C   UNL d   1       2.461   4.854   1.847  0.00  0.00     0.002 C 
ATOM     20  C   UNL d   1       1.619   5.771   0.968  0.00  0.00     0.000 C 
ATOM     21  C   UNL d   1       1.278   5.102  -0.359  0.00  0.00     0.002 C 
ATOM     22  C   UNL d   1       2.532   4.626  -1.094  0.00  0.00     0.025 C 
ENDBRANCH  14  17
ENDBRANCH  12  13
ENDBRANCH   1  12
TORSDOF 3
