REMARK  5 active torsions:
REMARK  status: ('A' for Active; 'I' for Inactive)
REMARK    1  A    between atoms: C_10  and  S_1 
REMARK    2  A    between atoms: N_15  and  S_1 
REMARK    3  A    between atoms: C_2  and  C_3 
REMARK       I    between atoms: C_3  and  N_9 
REMARK    4  A    between atoms: C_6  and  C_8 
REMARK    5  A    between atoms: N_9  and  C_22 
ROOT
ATOM      1  C   UNL d   1      -0.943  -0.772   6.646  0.00  0.00     0.258 C 
ATOM      2  N   UNL d   1      -0.804   0.201   5.665  0.00  0.00    -0.323 N 
ATOM      3  O   UNL d   1      -1.095  -0.566   7.843  0.00  0.00    -0.267 OA
ATOM      4  H   UNL d   1      -0.677  -0.105   4.710  0.00  0.00     0.169 HD
ENDROOT
BRANCH   1   5
ATOM      5  C   UNL d   1      -0.887  -2.184   6.164  0.00  0.00     0.054 A 
ATOM      6  C   UNL d   1      -1.654  -3.192   6.760  0.00  0.00     0.021 A 
ATOM      7  N   UNL d   1      -1.640  -4.479   6.308  0.00  0.00    -0.355 N 
ATOM      8  C   UNL d   1      -2.557  -2.951   7.936  0.00  0.00     0.069 C 
ATOM      9  C   UNL d   1      -0.835  -4.811   5.261  0.00  0.00     0.117 A 
ATOM     10  HN  UNL d   1      -2.226  -5.187   6.751  1.00  0.00     0.166 HD
ATOM     11  C   UNL d   1      -0.012  -3.865   4.654  0.00  0.00     0.035 A 
ATOM     12  C   UNL d   1      -0.037  -2.547   5.111  0.00  0.00     0.021 A 
BRANCH   9  13
ATOM     13  C   UNL d   1      -0.836  -6.241   4.731  0.00  0.00     0.432 C 
ATOM     14  F   UNL d   1      -1.680  -7.087   5.385  0.00  0.00    -0.165 F 
ATOM     15  F   UNL d   1      -1.196  -6.300   3.415  0.00  0.00    -0.165 F 
ATOM     16  F   UNL d   1       0.399  -6.820   4.794  0.00  0.00    -0.165 F 
ENDBRANCH   9  13
ENDBRANCH   1   5
BRANCH   2  17
ATOM     17  C   UNL d   1      -0.811   1.602   5.854  0.00  0.00     0.035 A 
ATOM     18  C   UNL d   1      -1.124   2.222   7.067  0.00  0.00     0.031 A 
ATOM     19  C   UNL d   1      -1.092   3.615   7.187  0.00  0.00     0.027 A 
ATOM     20  C   UNL d   1      -0.746   4.396   6.084  0.00  0.00     0.074 A 
ATOM     21  C   UNL d   1      -0.442   3.797   4.862  0.00  0.00     0.027 A 
ATOM     22  C   UNL d   1      -0.484   2.402   4.749  0.00  0.00     0.031 A 
BRANCH  20  23
ATOM     23  S   UNL d   1      -0.674   6.154   6.258  0.00  0.00     0.239 S 
ATOM     24  O   UNL d   1      -0.470   6.752   4.961  0.00  0.00    -0.206 OA
ATOM     25  O   UNL d   1       0.147   6.474   7.402  0.00  0.00    -0.206 OA
BRANCH  23  26
ATOM     26  N   UNL d   1      -2.252   6.541   6.684  0.00  0.00    -0.225 NA
ATOM     27  H   UNL d   1      -2.676   7.113   5.952  0.00  0.00     0.136 HD
ATOM     28  H   UNL d   1      -2.262   6.980   7.605  0.00  0.00     0.136 HD
ENDBRANCH  23  26
ENDBRANCH  20  23
ENDBRANCH   2  17
TORSDOF 5
