REMARK  4 active torsions:
REMARK  status: ('A' for Active; 'I' for Inactive)
REMARK    1  A    between atoms: C_12  and  C_3 
REMARK    2  A    between atoms: O_11  and  C_4 
REMARK    3  A    between atoms: C_5  and  O_10 
REMARK    4  A    between atoms: O_10  and  C_12 
ROOT
ATOM      1  N   UNL d   1       6.445  -2.737   2.416  0.00  0.00    -0.197 NA
ATOM      2  C   UNL d   1       5.982  -1.986   1.663  0.00  0.00     0.061 C 
ATOM      3  C   UNL d   1       5.426  -1.043   0.686  0.00  0.00     0.150 C 
ENDROOT
BRANCH   3   4
ATOM      4  C   UNL d   1       6.299  -1.020  -0.561  0.00  0.00     0.189 C 
BRANCH   4   5
ATOM      5  O   UNL d   1       5.761  -0.107  -1.524  0.00  0.00    -0.350 OA
BRANCH   5   6
ATOM      6  C   UNL d   1       6.491   0.032  -2.678  0.00  0.00     0.069 A 
ATOM      7  C   UNL d   1       7.660  -0.669  -2.981  0.00  0.00     0.039 A 
ATOM      8  C   UNL d   1       8.335  -0.431  -4.180  0.00  0.00     0.039 A 
ATOM      9  C   UNL d   1       7.844   0.489  -5.103  0.00  0.00     0.068 A 
ATOM     10  C   UNL d   1       6.676   1.193  -4.812  0.00  0.00     0.039 A 
ATOM     11  C   UNL d   1       6.004   0.963  -3.602  0.00  0.00     0.039 A 
BRANCH   9  12
ATOM     12  O   UNL d   1       8.615   0.645  -6.220  0.00  0.00    -0.356 OA
ATOM     13  C   UNL d   1       7.919   1.006  -7.405  0.00  0.00     0.210 C 
ENDBRANCH   9  12
ENDBRANCH   5   6
ENDBRANCH   4   5
ENDBRANCH   3   4
TORSDOF 4
