REMARK  5 active torsions:
REMARK  status: ('A' for Active; 'I' for Inactive)
REMARK    1  A    between atoms: C_11  and  C_3 
REMARK    2  A    between atoms: C_15  and  N_6 
REMARK    3  A    between atoms: C_14  and  C_11 
REMARK    4  A    between atoms: C_17  and  C_12 
REMARK    5  A    between atoms: C_26  and  C_17 
ROOT
ATOM      1  N   UNL d   1      -0.251   0.544   0.028  0.00  0.00    -0.062 N 
ATOM      2  C   UNL d   1       0.069  -0.812   0.091  0.00  0.00     0.730 A 
ATOM      3  C   UNL d   1      -1.635   0.665  -0.090  0.00  0.00     0.212 A 
ATOM      4  N   UNL d   1       1.243  -1.329   0.211  0.00  0.00    -0.151 N 
ATOM      5  HN  UNL d   1       1.419  -2.334   0.224  1.00  0.00     0.188 HD
ATOM      6  N   UNL d   1      -1.184  -1.419  -0.037  0.00  0.00    -0.083 N 
ATOM      7  N   UNL d   1      -2.244  -0.515  -0.162  0.00  0.00    -0.259 N 
ATOM      8  HN  UNL d   1      -3.238  -0.712  -0.278  1.00  0.00     0.190 HD
ATOM      9  N   UNL d   1       0.700   1.538  -0.041  0.00  0.00    -0.276 N 
ATOM     10  HN  UNL d   1       0.467   2.521  -0.179  1.00  0.00     0.188 HD
ATOM     11  C   UNL d   1       1.927   1.106   0.087  0.00  0.00     0.099 C 
ATOM     12  C   UNL d   1       2.232  -0.384   0.320  0.00  0.00     0.284 C 
ATOM     13  O   UNL d   1       3.378  -0.679   0.633  0.00  0.00    -0.265 OA
ENDROOT
BRANCH   3  14
ATOM     14  C   UNL d   1      -2.401   1.964  -0.040  0.00  0.00     0.236 C 
ATOM     15  O   UNL d   1      -1.931   2.863   0.653  0.00  0.00    -0.283 OA
BRANCH  14  16
ATOM     16  C   UNL d   1      -3.678   2.016  -0.732  0.00  0.00     0.059 A 
ATOM     17  S   UNL d   1      -4.875   3.111  -0.161  0.00  0.00    -0.098 SA
ATOM     18  C   UNL d   1      -6.017   2.584  -1.317  0.00  0.00     0.050 A 
ATOM     19  C   UNL d   1      -5.494   1.627  -2.155  0.00  0.00     0.009 A 
ATOM     20  C   UNL d   1      -4.144   1.300  -1.821  0.00  0.00     0.023 A 
ENDBRANCH  14  16
ENDBRANCH   3  14
BRANCH   6  21
ATOM     21  C   UNL d   1      -1.412  -2.812  -0.014  0.00  0.00     0.074 A 
ATOM     22  C   UNL d   1      -0.613  -3.654   0.781  0.00  0.00     0.034 A 
ATOM     23  C   UNL d   1      -0.739  -5.043   0.728  0.00  0.00     0.026 A 
ATOM     24  C   UNL d   1      -1.671  -5.611  -0.131  0.00  0.00     0.034 A 
ATOM     25  C   UNL d   1      -2.506  -4.800  -0.898  0.00  0.00     0.026 A 
ATOM     26 CL   UNL d   1      -1.778  -7.323  -0.256  0.00  0.00    -0.084 Cl
ATOM     27  C   UNL d   1      -2.390  -3.405  -0.824  0.00  0.00     0.034 A 
ENDBRANCH   6  21
BRANCH  11  28
ATOM     28  C   UNL d   1       3.118   2.024  -0.015  0.00  0.00     0.103 C 
BRANCH  28  29
ATOM     29  C   UNL d   1       3.661   2.089  -1.422  0.00  0.00    -0.052 A 
ATOM     30  C   UNL d   1       3.253   3.117  -2.282  0.00  0.00     0.007 A 
ATOM     31  C   UNL d   1       3.739   3.181  -3.589  0.00  0.00     0.001 A 
ATOM     32  C   UNL d   1       4.627   2.213  -4.053  0.00  0.00     0.000 A 
ATOM     33  C   UNL d   1       5.033   1.181  -3.210  0.00  0.00     0.001 A 
ATOM     34  C   UNL d   1       4.554   1.119  -1.900  0.00  0.00     0.007 A 
ENDBRANCH  28  29
ENDBRANCH  11  28
TORSDOF 5
