REMARK  14 active torsions:
REMARK  status: ('A' for Active; 'I' for Inactive)
REMARK    1  A    between atoms: N_4  and  C_1 
REMARK    2  A    between atoms: N_12  and  C_1 
REMARK    3  A    between atoms: C_2  and  N_3 
REMARK    4  A    between atoms: N_11  and  C_2 
REMARK    5  A    between atoms: C_18  and  N_11 
REMARK    6  A    between atoms: C_17  and  N_12 
REMARK    7  A    between atoms: C_25  and  C_17 
REMARK    8  A    between atoms: C_24  and  C_18 
REMARK    9  A    between atoms: C_19  and  C_27 
REMARK   10  A    between atoms: C_26  and  C_20 
REMARK   11  A    between atoms: C_21  and  C_25 
REMARK   12  A    between atoms: C_22  and  C_24 
REMARK   13  A    between atoms: C_23  and  C_26 
REMARK   14  A    between atoms: C_27  and  C_23 
ROOT
ATOM      1  C   UNL d   1      -2.868  -4.097  -2.257  0.00  0.00     0.001 C 
ENDROOT
BRANCH   1   2
ATOM      2  C   UNL d   1      -1.809  -4.102  -1.149  0.00  0.00     0.005 C 
BRANCH   2   3
ATOM      3  C   UNL d   1      -2.076  -3.042  -0.051  0.00  0.00    -0.012 C 
ATOM      4  C   UNL d   1      -0.980  -3.070   1.032  0.00  0.00     0.024 C 
ATOM      5  C   UNL d   1       0.361  -2.499   0.544  0.00  0.00     0.125 C 
ATOM      6  N   UNL d   1       0.197  -1.193  -0.104  0.00  0.00    -0.358 N 
ATOM      7  C   UNL d   1      -0.857  -1.103  -1.116  0.00  0.00     0.125 C 
ATOM      8  C   UNL d   1      -2.192  -1.602  -0.580  0.00  0.00     0.024 C 
BRANCH   6   9
ATOM      9  C   UNL d   1       0.777  -0.056   0.459  0.00  0.00     0.169 C 
ATOM     10  S   UNL d   1      -0.087   1.304   0.913  0.00  0.00    -0.041 SA
BRANCH   9  11
ATOM     11  N   UNL d   1       2.146  -0.195   0.576  0.00  0.00    -0.367 N 
ATOM     12  H   UNL d   1       2.538  -1.004   0.114  0.00  0.00     0.161 HD
BRANCH  11  13
ATOM     13  C   UNL d   1       3.053   0.714   1.270  0.00  0.00     0.126 C 
BRANCH  13  14
ATOM     14  C   UNL d   1       4.517   0.506   0.876  0.00  0.00     0.058 C 
BRANCH  14  15
ATOM     15  C   UNL d   1       5.447   1.265   1.790  0.00  0.00    -0.057 A 
ATOM     16  C   UNL d   1       5.906   0.673   2.974  0.00  0.00     0.007 A 
ATOM     17  C   UNL d   1       6.740   1.381   3.843  0.00  0.00     0.001 A 
ATOM     18  C   UNL d   1       7.120   2.688   3.545  0.00  0.00     0.000 A 
ATOM     19  C   UNL d   1       6.664   3.287   2.369  0.00  0.00     0.001 A 
ATOM     20  C   UNL d   1       5.830   2.580   1.497  0.00  0.00     0.007 A 
ENDBRANCH  14  15
ENDBRANCH  13  14
ENDBRANCH  11  13
ENDBRANCH   9  11
ENDBRANCH   6   9
ENDBRANCH   2   3
ENDBRANCH   1   2
BRANCH   1  21
ATOM     21  C   UNL d   1      -2.627  -5.191  -3.305  0.00  0.00     0.005 C 
BRANCH  21  22
ATOM     22  C   UNL d   1      -3.689  -5.191  -4.430  0.00  0.00    -0.012 C 
ATOM     23  C   UNL d   1      -5.123  -5.436  -3.932  0.00  0.00     0.024 C 
ATOM     24  C   UNL d   1      -5.314  -6.872  -3.448  0.00  0.00     0.125 C 
ATOM     25  N   UNL d   1      -4.940  -7.855  -4.467  0.00  0.00    -0.358 N 
ATOM     26  C   UNL d   1      -3.601  -7.683  -5.042  0.00  0.00     0.125 C 
ATOM     27  C   UNL d   1      -3.367  -6.240  -5.515  0.00  0.00     0.024 C 
BRANCH  25  28
ATOM     28  C   UNL d   1      -5.901  -8.541  -5.218  0.00  0.00     0.169 C 
ATOM     29  S   UNL d   1      -7.280  -7.837  -5.853  0.00  0.00    -0.041 SA
BRANCH  28  30
ATOM     30  N   UNL d   1      -5.551  -9.870  -5.369  0.00  0.00    -0.367 N 
ATOM     31  H   UNL d   1      -4.926 -10.213  -4.650  0.00  0.00     0.161 HD
BRANCH  30  32
ATOM     32  C   UNL d   1      -6.243 -10.849  -6.208  0.00  0.00     0.126 C 
BRANCH  32  33
ATOM     33  C   UNL d   1      -5.781 -12.287  -5.960  0.00  0.00     0.058 C 
BRANCH  33  34
ATOM     34  C   UNL d   1      -6.313 -13.232  -7.011  0.00  0.00    -0.057 A 
ATOM     35  C   UNL d   1      -5.582 -13.463  -8.185  0.00  0.00     0.007 A 
ATOM     36  C   UNL d   1      -6.080 -14.311  -9.178  0.00  0.00     0.001 A 
ATOM     37  C   UNL d   1      -7.316 -14.933  -9.009  0.00  0.00     0.000 A 
ATOM     38  C   UNL d   1      -8.052 -14.708  -7.848  0.00  0.00     0.001 A 
ATOM     39  C   UNL d   1      -7.557 -13.859  -6.855  0.00  0.00     0.007 A 
ENDBRANCH  33  34
ENDBRANCH  32  33
ENDBRANCH  30  32
ENDBRANCH  28  30
ENDBRANCH  25  28
ENDBRANCH  21  22
ENDBRANCH   1  21
TORSDOF 14
