REMARK  6 active torsions:
REMARK  status: ('A' for Active; 'I' for Inactive)
REMARK    1  A    between atoms: C_6  and  C_1 
REMARK       I    between atoms: N_7  and  C_1 
REMARK    2  A    between atoms: O_11  and  C_2 
REMARK    3  A    between atoms: O_12  and  C_3 
REMARK    4  A    between atoms: C_13  and  N_7 
REMARK    5  A    between atoms: C_9  and  C_14 
REMARK    6  A    between atoms: C_14  and  C_13 
ROOT
ATOM      1  C   UNL d   1       3.148   1.042  -0.835  0.00  0.00     0.127 C 
ENDROOT
BRANCH   1   2
ATOM      2  N   UNL d   1       2.406   0.040  -0.093  0.00  0.00    -0.357 N 
ATOM      3  C   UNL d   1       2.090   0.220   1.237  0.00  0.00     0.251 C 
ATOM      4  O   UNL d   1       2.401   1.218   1.876  0.00  0.00    -0.268 OA
ATOM      5  H   UNL d   1       2.292  -0.872  -0.513  0.00  0.00     0.162 HD
BRANCH   3   6
ATOM      6  C   UNL d   1       1.373  -0.904   1.898  0.00  0.00     0.032 A 
ATOM      7  C   UNL d   1       0.514  -1.755   1.190  0.00  0.00     0.017 A 
ATOM      8  C   UNL d   1      -0.123  -2.811   1.848  0.00  0.00     0.001 A 
ATOM      9  C   UNL d   1       0.088  -3.013   3.212  0.00  0.00     0.000 A 
ATOM     10  C   UNL d   1       0.923  -2.154   3.926  0.00  0.00     0.001 A 
ATOM     11  C   UNL d   1       1.560  -1.097   3.273  0.00  0.00     0.017 A 
ENDBRANCH   3   6
ENDBRANCH   1   2
BRANCH   1  12
ATOM     12  C   UNL d   1       4.661   0.925  -0.620  0.00  0.00     0.058 C 
BRANCH  12  13
ATOM     13  C   UNL d   1       5.426   1.967  -1.403  0.00  0.00    -0.054 A 
ATOM     14  C   UNL d   1       6.310   1.594  -2.430  0.00  0.00     0.046 A 
ATOM     15  C   UNL d   1       7.013   2.558  -3.172  0.00  0.00     0.102 A 
ATOM     16  C   UNL d   1       6.798   3.918  -2.892  0.00  0.00     0.101 A 
ATOM     17  C   UNL d   1       5.948   4.287  -1.843  0.00  0.00     0.040 A 
ATOM     18  C   UNL d   1       5.270   3.323  -1.103  0.00  0.00     0.010 A 
BRANCH  15  19
ATOM     19  O   UNL d   1       7.923   2.250  -4.149  0.00  0.00    -0.353 OA
ATOM     20  C   UNL d   1       8.240   0.883  -4.365  0.00  0.00     0.210 C 
ENDBRANCH  15  19
BRANCH  16  21
ATOM     21  O   UNL d   1       7.393   4.988  -3.513  0.00  0.00    -0.353 OA
ATOM     22  C   UNL d   1       7.604   4.857  -4.914  0.00  0.00     0.210 C 
ENDBRANCH  16  21
ENDBRANCH  12  13
ENDBRANCH   1  12
TORSDOF 6
