REMARK  5 active torsions:
REMARK  status: ('A' for Active; 'I' for Inactive)
REMARK    1  A    between atoms: C_7  and  C_1 
REMARK    2  A    between atoms: N_12  and  C_2 
REMARK    3  A    between atoms: C_6  and  C_3 
REMARK    4  A    between atoms: N_16  and  C_7 
REMARK    5  A    between atoms: O_17  and  N_10 
ROOT
ATOM      1  C   UNL d   1      -0.743   3.601  -0.004  0.00  0.00     0.099 A 
ATOM      2  C   UNL d   1       0.667   3.657  -0.062  0.00  0.00     0.060 A 
ATOM      3  C   UNL d   1       0.370   6.111   0.042  0.00  0.00     0.065 A 
ATOM      4  N   UNL d   1      -1.569   4.706   0.046  0.00  0.00    -0.361 N 
ATOM      5  HN  UNL d   1      -2.584   4.604   0.062  1.00  0.00     0.165 HD
ATOM      6  C   UNL d   1       1.182   4.972  -0.030  0.00  0.00     0.049 A 
ATOM      7  C   UNL d   1      -0.992   5.921   0.074  0.00  0.00     0.104 A 
ENDROOT
BRANCH   1   8
ATOM      8  C   UNL d   1      -1.592   2.346   0.040  0.00  0.00     0.127 C 
ATOM      9  N   UNL d   1      -1.200   1.285   0.688  0.00  0.00    -0.256 N 
ATOM     10  HN  UNL d   1      -0.311   1.201   1.180  1.00  0.00     0.195 HD
BRANCH   9  11
ATOM     11  O   UNL d   1      -2.172   0.271   0.616  0.00  0.00    -0.288 OA
ATOM     12  H   UNL d   1      -1.714  -0.482   1.031  0.00  0.00     0.244 HD
ENDBRANCH   9  11
BRANCH   8  13
ATOM     13  N   UNL d   1      -2.833   2.417  -0.568  0.00  0.00    -0.285 NA
ATOM     14  H   UNL d   1      -3.214   3.361  -0.538  0.00  0.00     0.125 HD
ATOM     15  H   UNL d   1      -3.454   1.713  -0.183  0.00  0.00     0.125 HD
ENDBRANCH   8  13
ENDBRANCH   1   8
BRANCH   2  16
ATOM     16  N   UNL d   1       1.571   2.618  -0.249  0.00  0.00    -0.388 N 
ATOM     17  C   UNL d   1       1.205   1.376  -0.921  0.00  0.00     0.149 C 
ATOM     18  C   UNL d   1       2.845   2.584   0.471  0.00  0.00     0.149 C 
ENDBRANCH   2  16
BRANCH   3  19
ATOM     19  C   UNL d   1       0.928   7.501   0.053  0.00  0.00     0.418 C 
ATOM     20  F   UNL d   1       2.288   7.546   0.001  0.00  0.00    -0.166 F 
ATOM     21  F   UNL d   1       0.489   8.245  -1.000  0.00  0.00    -0.166 F 
ATOM     22  F   UNL d   1       0.576   8.195   1.171  0.00  0.00    -0.166 F 
ENDBRANCH   3  19
TORSDOF 5
