REMARK  3 active torsions:
REMARK  status: ('A' for Active; 'I' for Inactive)
REMARK    1  A    between atoms: C_16  and  C_1 
REMARK    2  A    between atoms: C_2  and  C_13 
REMARK       I    between atoms: C_13  and  N_17 
REMARK    3  A    between atoms: N_17  and  C_16 
ROOT
ATOM      1  C   UNL d   1      -2.788   3.735  -0.920  0.00  0.00     0.254 C 
ATOM      2  N   UNL d   1      -2.188   2.937   0.023  0.00  0.00    -0.352 N 
ATOM      3  O   UNL d   1      -2.173   4.249  -1.851  0.00  0.00    -0.268 OA
ATOM      4  H   UNL d   1      -2.748   2.560   0.783  0.00  0.00     0.163 HD
ENDROOT
BRANCH   1   5
ATOM      5  C   UNL d   1      -4.243   3.985  -0.792  0.00  0.00     0.061 A 
ATOM      6  C   UNL d   1      -5.052   3.494   0.268  0.00  0.00     0.082 A 
ATOM      7  N   UNL d   1      -4.669   2.740   1.318  0.00  0.00    -0.310 N 
ATOM      8  C   UNL d   1      -6.532   3.816   0.305  0.00  0.00     0.068 A 
ATOM      9  S   UNL d   1      -6.026   2.454   2.230  0.00  0.00     0.068 SA
ATOM     10  HN  UNL d   1      -3.725   2.408   1.514  1.00  0.00     0.176 HD
ATOM     11  N   UNL d   1      -7.166   3.284   1.361  0.00  0.00    -0.310 N 
ATOM     12  HN  UNL d   1      -8.157   3.373   1.584  1.00  0.00     0.176 HD
ATOM     13  C   UNL d   1      -7.140   4.607  -0.699  0.00  0.00     0.032 A 
ATOM     14  C   UNL d   1      -6.295   5.069  -1.719  0.00  0.00     0.003 A 
ATOM     15  C   UNL d   1      -4.912   4.772  -1.763  0.00  0.00     0.019 A 
ENDBRANCH   1   5
BRANCH   2  16
ATOM     16  C   UNL d   1      -0.765   2.690   0.045  0.00  0.00     0.165 C 
BRANCH  16  17
ATOM     17  C   UNL d   1      -0.527   1.220   0.107  0.00  0.00     0.007 A 
ATOM     18  C   UNL d   1      -0.485   0.399   1.228  0.00  0.00     0.034 A 
ATOM     19  N   UNL d   1      -0.217  -0.861   0.756  0.00  0.00    -0.300 N 
ATOM     20  C   UNL d   1      -0.656   0.759   2.659  0.00  0.00     0.070 C 
ATOM     21  C   UNL d   1      -0.060  -2.103   1.476  0.00  0.00     0.177 C 
ATOM     22  N   UNL d   1      -0.057  -0.906  -0.578  0.00  0.00    -0.303 N 
ATOM     23  C   UNL d   1      -0.236   0.354  -0.982  0.00  0.00     0.032 A 
ATOM     24  HN  UNL d   1       0.154  -1.721  -1.154  1.00  0.00     0.186 HD
ATOM     25  C   UNL d   1      -0.093   0.696  -2.419  0.00  0.00     0.070 C 
ENDBRANCH  16  17
ENDBRANCH   2  16
TORSDOF 3
