REMARK  5 active torsions:
REMARK  status: ('A' for Active; 'I' for Inactive)
REMARK       I    between atoms: N_2  and  C_1 
REMARK       I    between atoms: N_4  and  C_1 
REMARK    1  A    between atoms: C_7  and  N_2 
REMARK    2  A    between atoms: C_14  and  N_2 
REMARK    3  A    between atoms: C_3  and  C_5 
REMARK    4  A    between atoms: C_11  and  N_4 
REMARK    5  A    between atoms: C_15  and  C_7 
ROOT
ATOM      1  C   UNL d   1       1.000  -0.159   0.102  0.00  0.00     0.323 C 
ATOM      2  N   UNL d   1       0.088  -0.722  -0.812  0.00  0.00    -0.326 N 
ATOM      3  N   UNL d   1       0.430   0.179   1.311  0.00  0.00    -0.309 N 
ATOM      4  O   UNL d   1       2.202  -0.062  -0.139  0.00  0.00    -0.247 OA
ATOM      5  H   UNL d   1      -0.301  -0.452   1.586  0.00  0.00     0.170 HD
ENDROOT
BRANCH   2   6
ATOM      6  C   UNL d   1      -1.262  -0.153  -0.920  0.00  0.00     0.166 C 
BRANCH   6   7
ATOM      7  C   UNL d   1      -2.389  -0.876  -0.205  0.00  0.00    -0.040 A 
ATOM      8  C   UNL d   1      -2.210  -1.909   0.724  0.00  0.00     0.009 A 
ATOM      9  C   UNL d   1      -3.301  -2.427   1.433  0.00  0.00     0.001 A 
ATOM     10  C   UNL d   1      -4.589  -1.947   1.198  0.00  0.00     0.000 A 
ATOM     11  C   UNL d   1      -4.791  -0.954   0.246  0.00  0.00     0.001 A 
ATOM     12  C   UNL d   1      -3.701  -0.421  -0.444  0.00  0.00     0.009 A 
ENDBRANCH   6   7
ENDBRANCH   2   6
BRANCH   2  13
ATOM     13  C   UNL d   1       0.679  -1.359  -2.007  0.00  0.00     0.081 C 
ATOM     14  C   UNL d   1      -0.232  -2.405  -2.654  0.00  0.00     0.032 C 
ATOM     15  C   UNL d   1       1.137  -0.332  -3.049  0.00  0.00     0.032 C 
ENDBRANCH   2  13
BRANCH   3  16
ATOM     16  C   UNL d   1       1.162   0.761   2.362  0.00  0.00     0.036 A 
ATOM     17  C   UNL d   1       1.986   1.869   2.156  0.00  0.00     0.030 A 
ATOM     18  C   UNL d   1       2.658   2.452   3.235  0.00  0.00     0.018 A 
ATOM     19  C   UNL d   1       2.541   1.913   4.525  0.00  0.00     0.048 A 
ATOM     20  C   UNL d   1       1.724   0.787   4.716  0.00  0.00     0.018 A 
ATOM     21  C   UNL d   1       1.018   0.232   3.647  0.00  0.00     0.030 A 
BRANCH  19  22
ATOM     22  C   UNL d   1       3.263   2.521   5.702  0.00  0.00     0.417 C 
ATOM     23  F   UNL d   1       4.041   3.591   5.377  0.00  0.00    -0.166 F 
ATOM     24  F   UNL d   1       2.404   2.963   6.663  0.00  0.00    -0.166 F 
ATOM     25  F   UNL d   1       4.090   1.634   6.324  0.00  0.00    -0.166 F 
ENDBRANCH  19  22
ENDBRANCH   3  16
TORSDOF 5
