REMARK  0 active torsions:
REMARK  status: ('A' for Active; 'I' for Inactive)
ROOT
ATOM      1  N   UNL d   1      -0.029  -1.614  -0.000  0.00  0.00    -0.354 N 
ATOM      2  C   UNL d   1       1.111  -0.841  -0.000  0.00  0.00     0.050 A 
ATOM      3  C   UNL d   1       0.696   0.499   0.000  0.00  0.00     0.009 A 
ATOM      4  C   UNL d   1      -1.162  -0.845  -0.000  0.00  0.00     0.043 A 
ATOM      5  C   UNL d   1      -0.751   0.487   0.000  0.00  0.00     0.004 A 
ATOM      6  C   UNL d   1       2.458  -1.249  -0.000  0.00  0.00    -0.034 A 
ATOM      7  C   UNL d   1       1.694   1.514   0.000  0.00  0.00    -0.049 A 
ATOM      8  C   UNL d   1       3.417  -0.228  -0.001  0.00  0.00     0.009 A 
ATOM      9  C   UNL d   1       3.047   1.112  -0.000  0.00  0.00     0.008 A 
ATOM     10  C   UNL d   1      -1.764   1.475   0.000  0.00  0.00     0.014 A 
ATOM     11  C   UNL d   1      -2.507  -1.239  -0.001  0.00  0.00     0.030 A 
ATOM     12  C   UNL d   1       2.917  -2.679  -0.000  0.00  0.00     0.050 C 
ATOM     13  C   UNL d   1       1.439   2.997   0.001  0.00  0.00     0.049 C 
ATOM     14  C   UNL d   1      -3.115   1.103  -0.000  0.00  0.00     0.001 A 
ATOM     15  C   UNL d   1      -3.479  -0.238  -0.001  0.00  0.00     0.002 A 
ATOM     16  H   UNL d   1      -0.031  -2.622  -0.001  0.00  0.00     0.166 HD
ENDROOT
TORSDOF 0
