REMARK  6 active torsions:
REMARK  status: ('A' for Active; 'I' for Inactive)
REMARK    1  A    between atoms: C_2  and  S_1 
REMARK    2  A    between atoms: N_4  and  S_1 
REMARK    3  A    between atoms: C_5  and  C_3 
REMARK    4  A    between atoms: C_17  and  N_4 
REMARK    5  A    between atoms: O_22  and  C_5 
REMARK    6  A    between atoms: N_6  and  C_13 
ROOT
ATOM      1  N   UNL d   1       0.512  -1.475   0.067  0.00  0.00    -0.181 NA
ATOM      2  H   UNL d   1      -0.362  -1.066  -0.260  0.00  0.00     0.146 HD
ENDROOT
BRANCH   1   3
ATOM      3  S   UNL d   1       0.522  -1.497   1.750  0.00  0.00     0.247 S 
ATOM      4  O   UNL d   1       0.083  -0.200   2.214  0.00  0.00    -0.205 OA
ATOM      5  O   UNL d   1      -0.140  -2.705   2.202  0.00  0.00    -0.205 OA
BRANCH   3   6
ATOM      6  C   UNL d   1       2.145  -1.621   2.350  0.00  0.00     0.098 A 
ATOM      7  C   UNL d   1       3.147  -0.694   2.110  0.00  0.00     0.102 A 
ATOM      8  S   UNL d   1       4.602  -1.155   2.912  0.00  0.00    -0.094 SA
ATOM      9  C   UNL d   1       3.882  -2.536   3.604  0.00  0.00     0.052 A 
ATOM     10  C   UNL d   1       2.566  -2.670   3.231  0.00  0.00     0.033 A 
BRANCH   7  11
ATOM     11  C   UNL d   1       3.105   0.503   1.288  0.00  0.00     0.301 C 
ATOM     12  O   UNL d   1       2.347   0.695   0.347  0.00  0.00    -0.259 OA
BRANCH  11  13
ATOM     13  O   UNL d   1       4.052   1.403   1.690  0.00  0.00    -0.322 OA
ATOM     14  C   UNL d   1       4.107   2.599   0.914  0.00  0.00     0.213 C 
ENDBRANCH  11  13
ENDBRANCH   7  11
ENDBRANCH   3   6
ENDBRANCH   1   3
BRANCH   1  15
ATOM     15  C   UNL d   1       0.905  -2.655  -0.620  0.00  0.00     0.023 A 
ATOM     16  C   UNL d   1      -0.012  -3.663  -0.886  0.00  0.00     0.026 A 
ATOM     17  C   UNL d   1       0.397  -4.799  -1.593  0.00  0.00     0.031 A 
ATOM     18  C   UNL d   1       1.720  -4.965  -2.036  0.00  0.00     0.030 A 
ATOM     19  C   UNL d   1       2.625  -3.940  -1.727  0.00  0.00     0.031 A 
ATOM     20  C   UNL d   1       2.227  -2.796  -1.025  0.00  0.00     0.026 A 
BRANCH  18  21
ATOM     21  N   UNL d   1       2.096  -6.130  -2.679  0.00  0.00    -0.378 N 
ATOM     22  C   UNL d   1       3.495  -6.580  -2.724  0.00  0.00     0.153 C 
ATOM     23  C   UNL d   1       3.529  -8.128  -2.750  0.00  0.00     0.291 C 
ATOM     24  N   UNL d   1       2.742  -8.710  -3.863  0.00  0.00     0.087 N 
ATOM     25  C   UNL d   1       1.353  -8.194  -3.803  0.00  0.00     0.291 C 
ATOM     26  C   UNL d   1       2.747 -10.169  -3.783  0.00  0.00     0.310 C 
ATOM     27  C   UNL d   1       1.290  -6.648  -3.801  0.00  0.00     0.153 C 
ENDBRANCH  18  21
ENDBRANCH   1  15
TORSDOF 6
