REMARK  2 active torsions:
REMARK  status: ('A' for Active; 'I' for Inactive)
REMARK    1  A    between atoms: C_8  and  C_1 
REMARK    2  A    between atoms: C_9  and  C_7 
ROOT
ATOM      1  C   UNL d   1      -0.201  -1.056  -0.074  0.00  0.00     0.175 A 
ATOM      2  O   UNL d   1      -1.091  -0.008  -0.015  0.00  0.00    -0.273 OA
ATOM      3  N   UNL d   1       1.047  -0.648  -0.187  0.00  0.00    -0.277 N 
ATOM      4  HN  UNL d   1       1.875  -1.240  -0.263  1.00  0.00     0.189 HD
ATOM      5  N   UNL d   1       1.021   0.722  -0.181  0.00  0.00    -0.277 N 
ATOM      6  HN  UNL d   1       1.824   1.348  -0.244  1.00  0.00     0.189 HD
ATOM      7  C   UNL d   1      -0.245   1.074  -0.078  0.00  0.00     0.174 A 
ENDROOT
BRANCH   1   8
ATOM      8  C   UNL d   1      -0.736  -2.416  -0.013  0.00  0.00     0.028 A 
ATOM      9  C   UNL d   1       0.002  -3.485   0.585  0.00  0.00    -0.011 A 
ATOM     10  C   UNL d   1      -0.532  -4.800   0.525  0.00  0.00    -0.025 A 
ATOM     11  C   UNL d   1       1.245  -3.330   1.253  0.00  0.00     0.013 A 
ATOM     12  C   UNL d   1       0.176  -5.878   1.083  0.00  0.00     0.012 A 
ATOM     13  C   UNL d   1      -1.766  -5.026  -0.098  0.00  0.00     0.012 A 
ATOM     14  C   UNL d   1       1.404  -5.688   1.714  0.00  0.00     0.001 A 
ATOM     15  C   UNL d   1       1.937  -4.411   1.804  0.00  0.00     0.001 A 
ATOM     16  C   UNL d   1      -2.491  -3.978  -0.656  0.00  0.00     0.002 A 
ATOM     17  C   UNL d   1      -1.981  -2.683  -0.613  0.00  0.00     0.017 A 
ENDBRANCH   1   8
BRANCH   7  18
ATOM     18  C   UNL d   1      -0.812   2.413  -0.011  0.00  0.00     0.019 A 
ATOM     19  C   UNL d   1       0.061   3.514  -0.094  0.00  0.00     0.055 A 
ATOM     20  C   UNL d   1      -0.466   4.784  -0.015  0.00  0.00     0.105 A 
ATOM     21  O   UNL d   1       0.244   5.942  -0.075  0.00  0.00    -0.323 OA
ATOM     22  C   UNL d   1      -1.813   4.998   0.143  0.00  0.00     0.105 A 
ATOM     23  C   UNL d   1      -0.815   6.914   0.040  0.00  0.00     0.352 A 
ATOM     24  O   UNL d   1      -2.121   6.321   0.204  0.00  0.00    -0.323 OA
ATOM     25  C   UNL d   1      -2.706   3.952   0.225  0.00  0.00     0.041 A 
ATOM     26  C   UNL d   1      -2.198   2.647   0.145  0.00  0.00     0.019 A 
ENDBRANCH   7  18
TORSDOF 2
