REMARK  5 active torsions:
REMARK  status: ('A' for Active; 'I' for Inactive)
REMARK    1  A    between atoms: C_7  and  C_1 
REMARK    2  A    between atoms: N_19  and  C_3 
REMARK    3  A    between atoms: C_13  and  C_6 
REMARK    4  A    between atoms: C_12  and  C_7 
REMARK    5  A    between atoms: C_14  and  C_10 
ROOT
ATOM      1  C   UNL d   1       2.416   0.146  -0.043  0.00  0.00     0.156 A 
ATOM      2  C   UNL d   1       0.286   0.936  -0.048  0.00  0.00     0.058 A 
ATOM      3  C   UNL d   1       1.659   1.301   0.021  0.00  0.00     0.080 A 
ATOM      4  C   UNL d   1       0.293  -0.458  -0.129  0.00  0.00     0.162 A 
ATOM      5  O   UNL d   1       1.576  -0.931  -0.134  0.00  0.00    -0.286 OA
ATOM      6  C   UNL d   1      -0.976   1.566  -0.020  0.00  0.00     0.017 A 
ATOM      7  N   UNL d   1      -0.773  -1.281  -0.188  0.00  0.00    -0.335 N 
ATOM      8  HN  UNL d   1      -0.688  -2.296  -0.242  1.00  0.00     0.168 HD
ATOM      9  C   UNL d   1      -1.966  -0.642  -0.168  0.00  0.00     0.052 A 
ATOM     10  C   UNL d   1      -2.107   0.740  -0.073  0.00  0.00     0.046 A 
ENDROOT
BRANCH   1  11
ATOM     11  C   UNL d   1       3.861  -0.002   0.042  0.00  0.00     0.225 C 
ATOM     12  O   UNL d   1       4.534   0.815   0.672  0.00  0.00    -0.284 OA
BRANCH  11  13
ATOM     13  C   UNL d   1       4.472  -1.088  -0.728  0.00  0.00     0.057 A 
ATOM     14  S   UNL d   1       6.193  -1.237  -0.660  0.00  0.00    -0.098 SA
ATOM     15  C   UNL d   1       6.209  -2.529  -1.773  0.00  0.00     0.050 A 
ATOM     16  C   UNL d   1       4.942  -2.868  -2.179  0.00  0.00     0.009 A 
ATOM     17  C   UNL d   1       3.943  -2.042  -1.581  0.00  0.00     0.023 A 
ENDBRANCH  11  13
ENDBRANCH   1  11
BRANCH   3  18
ATOM     18  N   UNL d   1       2.160   2.543   0.128  0.00  0.00    -0.396 N 
ATOM     19  H   UNL d   1       1.569   3.370   0.061  0.00  0.00     0.156 HD
ATOM     20  H   UNL d   1       3.158   2.736   0.219  0.00  0.00     0.156 HD
ENDBRANCH   3  18
BRANCH   6  21
ATOM     21  C   UNL d   1      -1.123   3.007   0.104  0.00  0.00     0.086 A 
ATOM     22  O   UNL d   1      -0.188   3.788  -0.514  0.00  0.00    -0.322 OA
ATOM     23  C   UNL d   1      -0.523   5.085  -0.286  0.00  0.00     0.142 A 
ATOM     24  C   UNL d   1      -1.675   5.157   0.458  0.00  0.00     0.027 A 
ATOM     25  C   UNL d   1      -2.072   3.820   0.699  0.00  0.00     0.040 A 
ENDBRANCH   6  21
BRANCH   9  26
ATOM     26  C   UNL d   1      -3.137  -1.540  -0.223  0.00  0.00     0.031 A 
ATOM     27  S   UNL d   1      -4.623  -1.022  -0.928  0.00  0.00    -0.100 SA
ATOM     28  C   UNL d   1      -5.395  -2.506  -0.596  0.00  0.00     0.050 A 
ATOM     29  C   UNL d   1      -4.549  -3.400   0.017  0.00  0.00     0.008 A 
ATOM     30  C   UNL d   1      -3.248  -2.849   0.218  0.00  0.00     0.021 A 
ENDBRANCH   9  26
TORSDOF 5
