REMARK  4 active torsions:
REMARK  status: ('A' for Active; 'I' for Inactive)
REMARK    1  A    between atoms: O_5  and  S_1 
REMARK    2  A    between atoms: C_10  and  S_1 
REMARK    3  A    between atoms: C_3  and  O_5 
REMARK    4  A    between atoms: N_4  and  C_13 
ROOT
ATOM      1  C   UNL d   1       2.191   1.614   1.828  0.00  0.00     0.035 C 
ATOM      2  C   UNL d   1       1.069   2.226   0.948  0.00  0.00     0.152 C 
ATOM      3  C   UNL d   1       2.607   2.590   2.955  0.00  0.00     0.103 C 
ATOM      4  C   UNL d   1      -0.157   2.531   1.845  0.00  0.00     0.017 C 
ATOM      5  C   UNL d   1       1.371   2.922   3.823  0.00  0.00     0.004 C 
ATOM      6  C   UNL d   1       0.244   3.520   2.955  0.00  0.00     0.013 C 
ATOM      7  C   UNL d   1       3.249   3.809   2.426  0.00  0.00     0.065 C 
ATOM      8  N   UNL d   1       3.737   4.774   2.009  0.00  0.00    -0.197 NA
ATOM      9  C   UNL d   1       0.451   0.614   3.366  0.00  0.00    -0.013 C 
ATOM     10  C   UNL d   1       1.672   0.312   2.479  0.00  0.00     0.013 C 
ATOM     11  C   UNL d   1      -0.664   1.234   2.507  0.00  0.00     0.012 C 
ATOM     12  C   UNL d   1       0.858   1.615   4.463  0.00  0.00     0.010 C 
ENDROOT
BRANCH   2  13
ATOM     13  O   UNL d   1       0.662   1.335  -0.098  0.00  0.00    -0.266 OA
BRANCH  13  14
ATOM     14  S   UNL d   1       1.673   1.096  -1.359  0.00  0.00     0.298 S 
ATOM     15  O   UNL d   1       2.683   0.143  -0.945  0.00  0.00    -0.193 OA
ATOM     16  O   UNL d   1       2.027   2.389  -1.905  0.00  0.00    -0.193 OA
BRANCH  14  17
ATOM     17  C   UNL d   1       0.719   0.272  -2.616  0.00  0.00     0.086 A 
ATOM     18  C   UNL d   1      -0.630  -0.037  -2.424  0.00  0.00     0.028 A 
ATOM     19  C   UNL d   1      -1.337  -0.685  -3.445  0.00  0.00     0.037 A 
ATOM     20  C   UNL d   1      -0.686  -1.017  -4.646  0.00  0.00     0.102 A 
ATOM     21  C   UNL d   1       0.669  -0.711  -4.832  0.00  0.00     0.037 A 
ATOM     22  C   UNL d   1       1.371  -0.065  -3.812  0.00  0.00     0.028 A 
BRANCH  20  23
ATOM     23  N   UNL d   1      -1.433  -1.691  -5.719  0.00  0.00    -0.116 N 
ATOM     24  O   UNL d   1      -2.629  -1.939  -5.518  0.00  0.00    -0.532 OA
ATOM     25  O   UNL d   1      -0.822  -1.966  -6.761  0.00  0.00    -0.532 OA
ENDBRANCH  20  23
ENDBRANCH  14  17
ENDBRANCH  13  14
ENDBRANCH   2  13
TORSDOF 4
