REMARK  4 active torsions:
REMARK  status: ('A' for Active; 'I' for Inactive)
REMARK    1  A    between atoms: N_11  and  C_9 
REMARK    2  A    between atoms: N_12  and  N_11 
REMARK    3  A    between atoms: C_20  and  C_18 
REMARK    4  A    between atoms: C_21  and  C_20 
ROOT
ATOM      1  C   UNL d   1      -1.960  -2.548  -0.086  0.00  0.00     0.160 A 
ATOM      2  C   UNL d   1      -1.353  -1.329  -0.096  0.00  0.00     0.164 A 
ATOM      3  N   UNL d   1      -3.315  -2.441  -0.080  0.00  0.00    -0.172 N 
ATOM      4  HN  UNL d   1      -3.991  -3.205  -0.075  1.00  0.00     0.186 HD
ATOM      5  N   UNL d   1      -1.237  -3.717  -0.073  0.00  0.00    -0.287 N 
ATOM      6  N   UNL d   1       0.755  -2.399  -0.076  0.00  0.00    -0.269 N 
ATOM      7  C   UNL d   1       0.159  -3.672  -0.061  0.00  0.00     0.332 A 
ATOM      8  C   UNL d   1       0.065  -1.180  -0.086  0.00  0.00     0.282 A 
ATOM      9  C   UNL d   1      -3.578  -1.145  -0.083  0.00  0.00     0.701 A 
ATOM     10  N   UNL d   1      -2.387  -0.424  -0.108  0.00  0.00    -0.177 N 
ATOM     11  O   UNL d   1       0.835  -4.706  -0.037  0.00  0.00    -0.246 OA
ATOM     12  O   UNL d   1       0.635  -0.090  -0.078  0.00  0.00    -0.265 OA
ATOM     13  C   UNL d   1      -1.885  -5.013  -0.054  0.00  0.00     0.163 C 
ATOM     14  C   UNL d   1       2.205  -2.316  -0.057  0.00  0.00     0.164 C 
ATOM     15  C   UNL d   1      -2.258   1.013  -0.121  0.00  0.00     0.176 C 
ENDROOT
BRANCH   9  16
ATOM     16  N   UNL d   1      -4.801  -0.536  -0.056  0.00  0.00    -0.132 N 
ATOM     17  H   UNL d   1      -4.846   0.471  -0.135  0.00  0.00     0.205 HD
BRANCH  16  18
ATOM     18  N   UNL d   1      -5.963  -1.261  -0.054  0.00  0.00    -0.295 N 
ATOM     19  C   UNL d   1      -7.135  -0.678  -0.009  0.00  0.00     0.004 C 
ATOM     20  C   UNL d   1      -7.392   0.810   0.060  0.00  0.00     0.065 C 
ATOM     21  HN  UNL d   1      -5.915  -2.279  -0.089  1.00  0.00     0.186 HD
BRANCH  19  22
ATOM     22  C   UNL d   1      -8.381  -1.564  -0.085  0.00  0.00     0.092 C 
BRANCH  22  23
ATOM     23  C   UNL d   1      -8.973  -1.994   1.243  0.00  0.00    -0.053 A 
ATOM     24  C   UNL d   1     -10.300  -1.679   1.582  0.00  0.00     0.007 A 
ATOM     25  C   UNL d   1     -10.879  -2.180   2.756  0.00  0.00     0.001 A 
ATOM     26  C   UNL d   1     -10.140  -3.002   3.602  0.00  0.00     0.000 A 
ATOM     27  C   UNL d   1      -8.823  -3.322   3.277  0.00  0.00     0.001 A 
ATOM     28  C   UNL d   1      -8.243  -2.821   2.107  0.00  0.00     0.007 A 
ENDBRANCH  22  23
ENDBRANCH  19  22
ENDBRANCH  16  18
ENDBRANCH   9  16
TORSDOF 4
