REMARK  5 active torsions:
REMARK  status: ('A' for Active; 'I' for Inactive)
REMARK    1  A    between atoms: C_6  and  C_1 
REMARK    2  A    between atoms: C_7  and  C_2 
REMARK    3  A    between atoms: C_11  and  N_3 
REMARK       I    between atoms: N_10  and  C_7 
REMARK    4  A    between atoms: N_8  and  C_12 
REMARK    5  A    between atoms: C_16  and  N_10 
ROOT
ATOM      1  C   UNL d   1       1.001  -0.565  -0.560  0.00  0.00     0.157 A 
ATOM      2  C   UNL d   1      -0.203  -1.143  -0.139  0.00  0.00     0.082 A 
ATOM      3  N   UNL d   1       0.928   0.792  -0.236  0.00  0.00    -0.251 N 
ATOM      4  N   UNL d   1      -0.272   1.101   0.313  0.00  0.00    -0.303 N 
ATOM      5  HN  UNL d   1      -0.588   2.015   0.638  1.00  0.00     0.186 HD
ATOM      6  C   UNL d   1      -0.947  -0.040   0.338  0.00  0.00     0.127 A 
ENDROOT
BRANCH   2   7
ATOM      7  C   UNL d   1      -0.721  -2.520  -0.084  0.00  0.00     0.259 C 
ATOM      8  N   UNL d   1       0.149  -3.532  -0.430  0.00  0.00    -0.323 N 
ATOM      9  H   UNL d   1       1.077  -3.274  -0.726  0.00  0.00     0.169 HD
ATOM     10  O   UNL d   1      -1.871  -2.702   0.300  0.00  0.00    -0.267 OA
BRANCH   8  11
ATOM     11  C   UNL d   1      -0.044  -4.928  -0.335  0.00  0.00     0.036 A 
ATOM     12  C   UNL d   1      -1.224  -5.534   0.094  0.00  0.00     0.053 A 
ATOM     13  C   UNL d   1      -1.287  -6.925   0.217  0.00  0.00     0.036 A 
ATOM     14 CL   UNL d   1      -2.739  -7.666   0.770  0.00  0.00    -0.084 Cl
ATOM     15  C   UNL d   1      -0.186  -7.722  -0.092  0.00  0.00     0.024 A 
ATOM     16  C   UNL d   1       0.986  -7.127  -0.547  0.00  0.00     0.004 A 
ATOM     17  C   UNL d   1       1.054  -5.737  -0.670  0.00  0.00     0.029 A 
ENDBRANCH   8  11
ENDBRANCH   2   7
BRANCH   1  18
ATOM     18  C   UNL d   1       2.222  -1.139  -1.141  0.00  0.00     0.435 C 
ATOM     19  F   UNL d   1       2.239  -2.495  -1.107  0.00  0.00    -0.165 F 
ATOM     20  F   UNL d   1       2.356  -0.813  -2.450  0.00  0.00    -0.165 F 
ATOM     21  F   UNL d   1       3.349  -0.763  -0.495  0.00  0.00    -0.165 F 
ENDBRANCH   1  18
BRANCH   3  22
ATOM     22  C   UNL d   1       1.934   1.815  -0.266  0.00  0.00     0.057 C 
ATOM     23  C   UNL d   1       2.993   1.804  -1.180  0.00  0.00     0.034 C 
ATOM     24  C   UNL d   1       4.091   2.651  -1.012  0.00  0.00     0.038 C 
ATOM     25  C   UNL d   1       4.105   3.565   0.044  0.00  0.00     0.103 C 
ATOM     26  C   UNL d   1       2.994   3.687   0.885  0.00  0.00     0.038 C 
ATOM     27  C   UNL d   1       1.904   2.821   0.720  0.00  0.00     0.034 C 
BRANCH  25  28
ATOM     28  N   UNL d   1       5.309   4.370   0.282  0.00  0.00    -0.116 N 
ATOM     29  O   UNL d   1       5.273   5.202   1.201  0.00  0.00    -0.532 OA
ATOM     30  O   UNL d   1       6.295   4.158  -0.438  0.00  0.00    -0.532 OA
ENDBRANCH  25  28
ENDBRANCH   3  22
TORSDOF 5
