REMARK  3 active torsions:
REMARK  status: ('A' for Active; 'I' for Inactive)
REMARK       I    between atoms: N_3  and  C_1 
REMARK       I    between atoms: N_4  and  C_1 
REMARK    1  A    between atoms: C_2  and  C_5 
REMARK    2  A    between atoms: C_7  and  N_4 
REMARK    3  A    between atoms: C_8  and  N_6 
ROOT
ATOM      1  C   UNL d   1       0.762  -0.063   0.077  0.00  0.00     0.323 C 
ATOM      2  N   UNL d   1       0.166  -1.283   0.402  0.00  0.00    -0.332 N 
ATOM      3  N   UNL d   1       1.503   0.513   1.093  0.00  0.00    -0.308 N 
ATOM      4  N   UNL d   1      -1.726  -3.480   0.912  0.00  0.00    -0.366 N 
ATOM      5  O   UNL d   1       0.585   0.457  -1.024  0.00  0.00    -0.247 OA
ATOM      6  C   UNL d   1      -0.664  -1.908  -0.655  0.00  0.00     0.147 C 
ATOM      7  C   UNL d   1      -1.984  -2.541  -0.179  0.00  0.00     0.144 C 
ATOM      8  C   UNL d   1      -0.250  -2.458   2.600  0.00  0.00     0.040 C 
ATOM      9  C   UNL d   1       0.691  -2.196   1.424  0.00  0.00     0.129 C 
ATOM     10  C   UNL d   1      -1.669  -2.891   2.245  0.00  0.00     0.126 C 
ATOM     11  H   UNL d   1       1.216   0.235   2.016  0.00  0.00     0.170 HD
ENDROOT
BRANCH   3  12
ATOM     12  C   UNL d   1       2.237   1.725   0.986  0.00  0.00     0.045 C 
ATOM     13  C   UNL d   1       2.628   2.228  -0.263  0.00  0.00     0.072 C 
ATOM     14  C   UNL d   1       3.204   3.488  -0.373  0.00  0.00     0.118 C 
ATOM     15  F   UNL d   1       3.545   3.956  -1.581  0.00  0.00    -0.206 F 
ATOM     16  C   UNL d   1       3.414   4.274   0.745  0.00  0.00     0.043 C 
ATOM     17  C   UNL d   1       3.114   3.756   2.002  0.00  0.00     0.012 C 
ATOM     18  C   UNL d   1       2.572   2.460   2.143  0.00  0.00    -0.035 C 
ATOM     19  C   UNL d   1       2.355   1.968   3.549  0.00  0.00     0.050 C 
ENDBRANCH   3  12
BRANCH   4  20
ATOM     20  C   UNL d   1      -2.146  -4.792   0.792  0.00  0.00     0.102 A 
ATOM     21  N   UNL d   1      -3.126  -5.114  -0.079  0.00  0.00    -0.352 N 
ATOM     22  C   UNL d   1      -3.527  -6.405  -0.161  0.00  0.00     0.106 A 
ATOM     23  HN  UNL d   1      -3.557  -4.398  -0.664  1.00  0.00     0.166 HD
ATOM     24  C   UNL d   1      -2.975  -7.439   0.580  0.00  0.00     0.063 A 
ATOM     25  C   UNL d   1      -1.933  -7.112   1.446  0.00  0.00     0.021 A 
ATOM     26  C   UNL d   1      -1.526  -5.785   1.551  0.00  0.00     0.049 A 
BRANCH  24  27
ATOM     27  C   UNL d   1      -3.473  -8.844   0.458  0.00  0.00     0.418 C 
ATOM     28  F   UNL d   1      -4.519  -8.980  -0.400  0.00  0.00    -0.166 F 
ATOM     29  F   UNL d   1      -2.513  -9.701   0.021  0.00  0.00    -0.166 F 
ATOM     30  F   UNL d   1      -3.903  -9.342   1.651  0.00  0.00    -0.166 F 
ENDBRANCH  24  27
ENDBRANCH   4  20
TORSDOF 3
