REMARK  2 active torsions:
REMARK  status: ('A' for Active; 'I' for Inactive)
REMARK    1  A    between atoms: C_7  and  N_1 
REMARK    2  A    between atoms: N_10  and  C_9 
ROOT
ATOM      1  N   UNL d   1       2.385  -0.655   0.057  0.00  0.00    -0.265 N 
ATOM      2  C   UNL d   1       2.320   0.657  -0.421  0.00  0.00     0.266 A 
ATOM      3  C   UNL d   1       1.410  -1.166   0.900  0.00  0.00     0.087 A 
ATOM      4  C   UNL d   1       1.085   1.396  -0.099  0.00  0.00     0.060 A 
ATOM      5  N   UNL d   1       0.320  -0.531   1.196  0.00  0.00    -0.345 N 
ATOM      6  HN  UNL d   1      -0.386  -0.961   1.793  1.00  0.00     0.167 HD
ATOM      7  C   UNL d   1       0.128   0.754   0.682  0.00  0.00     0.049 A 
ATOM      8  O   UNL d   1       3.204   1.240  -1.046  0.00  0.00    -0.267 OA
ATOM      9  C   UNL d   1       0.891   2.707  -0.550  0.00  0.00     0.038 A 
ATOM     10  C   UNL d   1      -1.055   1.427   0.990  0.00  0.00     0.032 A 
ATOM     11  C   UNL d   1      -0.286   3.372  -0.216  0.00  0.00     0.012 A 
ATOM     12  C   UNL d   1       1.556  -2.560   1.485  0.00  0.00     0.089 C 
ATOM     13  C   UNL d   1      -1.266   2.735   0.545  0.00  0.00     0.021 A 
ATOM     14 BR   UNL d   1      -0.553   5.154  -0.784  0.00  0.00    -0.051 Br
ENDROOT
BRANCH   1  15
ATOM     15  C   UNL d   1       3.599  -1.358  -0.171  0.00  0.00     0.070 A 
ATOM     16  C   UNL d   1       3.830  -2.163  -1.317  0.00  0.00     0.058 A 
ATOM     17  C   UNL d   1       5.106  -2.773  -1.368  0.00  0.00     0.031 A 
ATOM     18  C   UNL d   1       6.102  -2.564  -0.404  0.00  0.00     0.002 A 
ATOM     19  C   UNL d   1       5.857  -1.737   0.677  0.00  0.00     0.002 A 
ATOM     20  C   UNL d   1       4.609  -1.142   0.798  0.00  0.00     0.032 A 
BRANCH  16  21
ATOM     21  N   UNL d   1       2.936  -2.380  -2.360  0.00  0.00    -0.379 N 
ATOM     22  C   UNL d   1       3.416  -2.582  -3.737  0.00  0.00     0.123 C 
ATOM     23  C   UNL d   1       2.790  -1.537  -4.665  0.00  0.00     0.020 C 
ATOM     24  C   UNL d   1       1.269  -1.494  -4.545  0.00  0.00     0.003 C 
ATOM     25  C   UNL d   1       0.842  -1.351  -3.087  0.00  0.00     0.020 C 
ATOM     26  C   UNL d   1       1.481  -2.445  -2.236  0.00  0.00     0.123 C 
ENDBRANCH  16  21
ENDBRANCH   1  15
TORSDOF 2
