REMARK  6 active torsions:
REMARK  status: ('A' for Active; 'I' for Inactive)
REMARK    1  A    between atoms: N_7  and  C_1 
REMARK    2  A    between atoms: C_6  and  C_5 
REMARK    3  A    between atoms: C_9  and  C_6 
REMARK    4  A    between atoms: C_13  and  N_7 
REMARK       I    between atoms: N_12  and  C_9 
REMARK    5  A    between atoms: C_16  and  N_12 
REMARK    6  A    between atoms: S_24  and  C_21 
ROOT
ATOM      1  C   UNL d   1      -1.532   1.775  -1.362  0.00  0.00     0.148 C 
ATOM      2  N   UNL d   1      -0.965   2.107  -0.179  0.00  0.00    -0.306 N 
ATOM      3  C   UNL d   1      -1.132   1.230   0.849  0.00  0.00     0.238 C 
ATOM      4  S   UNL d   1      -1.910   0.069  -1.400  0.00  0.00    -0.079 SA
ATOM      5  C   UNL d   1      -1.454  -0.171   0.360  0.00  0.00     0.156 C 
ATOM      6  O   UNL d   1      -1.070   1.581   2.019  0.00  0.00    -0.272 OA
ATOM      7  H   UNL d   1      -0.747   3.064   0.048  0.00  0.00     0.171 HD
ENDROOT
BRANCH   5   8
ATOM      8  C   UNL d   1      -2.561  -0.816   1.185  0.00  0.00     0.128 C 
BRANCH   8   9
ATOM      9  C   UNL d   1      -2.435  -2.327   1.276  0.00  0.00     0.223 C 
ATOM     10  N   UNL d   1      -2.718  -2.984   0.093  0.00  0.00    -0.327 N 
ATOM     11  H   UNL d   1      -2.862  -2.410  -0.733  0.00  0.00     0.169 HD
ATOM     12  O   UNL d   1      -2.131  -2.855   2.339  0.00  0.00    -0.273 OA
BRANCH  10  13
ATOM     13  C   UNL d   1      -2.844  -4.382  -0.104  0.00  0.00     0.035 A 
ATOM     14  C   UNL d   1      -2.766  -5.339   0.920  0.00  0.00     0.048 A 
ATOM     15  C   UNL d   1      -2.935  -6.707   0.651  0.00  0.00     0.002 A 
ATOM     16  C   UNL d   1      -3.178  -7.109  -0.668  0.00  0.00     0.018 A 
ATOM     17  C   UNL d   1      -3.256  -6.170  -1.695  0.00  0.00     0.004 A 
ATOM     18  C   UNL d   1      -3.089  -4.815  -1.411  0.00  0.00     0.029 A 
BRANCH  15  19
ATOM     19  S   UNL d   1      -2.867  -8.022   1.869  0.00  0.00    -0.134 SA
ATOM     20  C   UNL d   1      -2.724  -7.143   3.447  0.00  0.00     0.095 C 
ENDBRANCH  15  19
ENDBRANCH  10  13
ENDBRANCH   8   9
ENDBRANCH   5   8
BRANCH   1  21
ATOM     21  N   UNL d   1      -1.826   2.555  -2.344  0.00  0.00    -0.337 N 
ATOM     22  HN  UNL d   1      -2.188   2.147  -3.207  1.00  0.00     0.168 HD
BRANCH  21  23
ATOM     23  C   UNL d   1      -1.666   3.951  -2.268  0.00  0.00     0.037 A 
ATOM     24  C   UNL d   1      -2.191   4.708  -1.213  0.00  0.00     0.075 A 
ATOM     25  C   UNL d   1      -2.052   6.094  -1.199  0.00  0.00     0.157 A 
ATOM     26  F   UNL d   1      -2.523   6.786  -0.154  0.00  0.00    -0.203 F 
ATOM     27  C   UNL d   1      -1.438   6.751  -2.256  0.00  0.00     0.154 A 
ATOM     28  C   UNL d   1      -0.953   6.023  -3.338  0.00  0.00     0.048 A 
ATOM     29  F   UNL d   1      -1.324   8.085  -2.247  0.00  0.00    -0.203 F 
ATOM     30  C   UNL d   1      -1.066   4.629  -3.339  0.00  0.00     0.032 A 
ENDBRANCH  21  23
ENDBRANCH   1  21
TORSDOF 6
