REMARK  3 active torsions:
REMARK  status: ('A' for Active; 'I' for Inactive)
REMARK    1  A    between atoms: N_8  and  N_2 
REMARK    2  A    between atoms: C_9  and  N_8 
REMARK    3  A    between atoms: O_15  and  C_10 
ROOT
ATOM      1  C   UNL d   1       1.042  -0.036   0.252  0.00  0.00     0.209 C 
ATOM      2  N   UNL d   1       0.433  -1.183   0.329  0.00  0.00    -0.282 N 
ATOM      3  HN  UNL d   1      -0.572  -1.243   0.164  1.00  0.00     0.188 HD
ATOM      4  N   UNL d   1      -0.464   2.015  -0.266  0.00  0.00    -0.189 NA
ATOM      5  N   UNL d   1       3.602   0.144   0.640  0.00  0.00    -0.189 NA
ATOM      6  C   UNL d   1       0.193   1.085  -0.039  0.00  0.00     0.130 C 
ATOM      7  C   UNL d   1       2.458   0.078   0.455  0.00  0.00     0.130 C 
ENDROOT
BRANCH   2   8
ATOM      8  N   UNL d   1       1.149  -2.309   0.632  0.00  0.00    -0.299 N 
ATOM      9  H   UNL d   1       2.028  -2.273   1.152  0.00  0.00     0.187 HD
BRANCH   8  10
ATOM     10  C   UNL d   1       0.434  -3.510   0.820  0.00  0.00     0.048 A 
ATOM     11  C   UNL d   1      -0.731  -3.800   0.098  0.00  0.00     0.034 A 
ATOM     12  C   UNL d   1      -1.410  -5.013   0.276  0.00  0.00     0.039 A 
ATOM     13  C   UNL d   1      -0.945  -5.944   1.204  0.00  0.00     0.068 A 
ATOM     14  C   UNL d   1       0.207  -5.659   1.937  0.00  0.00     0.039 A 
ATOM     15  C   UNL d   1       0.890  -4.452   1.748  0.00  0.00     0.034 A 
BRANCH  13  16
ATOM     16  O   UNL d   1      -1.503  -7.166   1.455  0.00  0.00    -0.356 OA
ATOM     17  C   UNL d   1      -2.887  -7.293   1.150  0.00  0.00     0.210 C 
ENDBRANCH  13  16
ENDBRANCH   8  10
ENDBRANCH   2   8
TORSDOF 3
