REMARK  6 active torsions:
REMARK  status: ('A' for Active; 'I' for Inactive)
REMARK    1  A    between atoms: S_7  and  C_1 
REMARK    2  A    between atoms: C_10  and  C_2 
REMARK    3  A    between atoms: C_11  and  C_3 
REMARK    4  A    between atoms: C_9  and  S_7 
REMARK    5  A    between atoms: C_8  and  C_9 
REMARK    6  A    between atoms: O_13  and  C_8 
ROOT
ATOM      1  C   UNL d   1      -0.334   1.031   0.133  0.00  0.00     0.146 A 
ATOM      2  C   UNL d   1      -0.392  -1.102   0.148  0.00  0.00     0.072 A 
ATOM      3  C   UNL d   1       0.957  -0.769   0.009  0.00  0.00     0.072 A 
ATOM      4  N   UNL d   1      -1.174   0.039   0.293  0.00  0.00    -0.334 N 
ATOM      5  HN  UNL d   1      -2.175   0.092   0.481  1.00  0.00     0.168 HD
ATOM      6  N   UNL d   1       0.948   0.609  -0.008  0.00  0.00    -0.334 N 
ATOM      7  H   UNL d   1       1.750   1.213  -0.099  0.00  0.00     0.168 HD
ENDROOT
BRANCH   1   8
ATOM      8  S   UNL d   1      -0.664   2.716   0.196  0.00  0.00    -0.079 SA
BRANCH   8   9
ATOM      9  C   UNL d   1      -1.649   2.829   1.725  0.00  0.00     0.149 C 
ATOM     10  C   UNL d   1      -2.041   4.288   1.952  0.00  0.00     0.033 C 
BRANCH   9  11
ATOM     11  C   UNL d   1      -0.842   2.312   2.910  0.00  0.00     0.154 C 
ATOM     12  O   UNL d   1      -0.138   3.000   3.627  0.00  0.00    -0.649 OA
BRANCH  11  13
ATOM     13  O   UNL d   1      -0.958   0.972   3.100  0.00  0.00    -0.775 OA
ATOM     14  H   UNL d   1      -1.439   0.503   2.380  0.00  0.00     0.167 HD
ENDBRANCH  11  13
ENDBRANCH   9  11
ENDBRANCH   8   9
ENDBRANCH   1   8
BRANCH   2  15
ATOM     15  C   UNL d   1      -0.961  -2.445   0.128  0.00  0.00    -0.007 A 
ATOM     16  C   UNL d   1      -2.128  -2.697  -0.608  0.00  0.00     0.014 A 
ATOM     17  C   UNL d   1      -2.605  -4.004  -0.759  0.00  0.00     0.001 A 
ATOM     18  C   UNL d   1      -1.919  -5.071  -0.179  0.00  0.00     0.000 A 
ATOM     19  C   UNL d   1      -0.785  -4.828   0.590  0.00  0.00     0.001 A 
ATOM     20  C   UNL d   1      -0.328  -3.520   0.766  0.00  0.00     0.014 A 
ENDBRANCH   2  15
BRANCH   3  21
ATOM     21  C   UNL d   1       2.203  -1.532  -0.112  0.00  0.00    -0.007 A 
ATOM     22  C   UNL d   1       3.357  -1.108   0.565  0.00  0.00     0.014 A 
ATOM     23  C   UNL d   1       4.528  -1.869   0.530  0.00  0.00     0.001 A 
ATOM     24  C   UNL d   1       4.556  -3.073  -0.168  0.00  0.00     0.000 A 
ATOM     25  C   UNL d   1       3.427  -3.497  -0.863  0.00  0.00     0.001 A 
ATOM     26  C   UNL d   1       2.268  -2.717  -0.857  0.00  0.00     0.014 A 
ENDBRANCH   3  21
TORSDOF 6
