REMARK  4 active torsions:
REMARK  status: ('A' for Active; 'I' for Inactive)
REMARK    1  A    between atoms: C_9  and  C_3 
REMARK    2  A    between atoms: C_6  and  C_5 
REMARK    3  A    between atoms: C_8  and  C_6 
REMARK       I    between atoms: N_11  and  C_8 
REMARK    4  A    between atoms: N_12  and  N_11 
ROOT
ATOM      1  N   UNL d   1       1.405  -0.621  -0.035  0.00  0.00    -0.352 N 
ATOM      2  HN  UNL d   1       2.269  -1.163  -0.017  1.00  0.00     0.166 HD
ATOM      3  C   UNL d   1       0.193  -1.144  -0.082  0.00  0.00     0.084 A 
ATOM      4  S   UNL d   1      -1.083   0.015  -0.100  0.00  0.00    -0.081 SA
ATOM      5  C   UNL d   1       1.345   0.763  -0.014  0.00  0.00     0.025 A 
ATOM      6  C   UNL d   1       0.064   1.282  -0.039  0.00  0.00     0.077 A 
ENDROOT
BRANCH   5   7
ATOM      7  C   UNL d   1       2.621   1.533   0.035  0.00  0.00     0.161 C 
BRANCH   7   8
ATOM      8  C   UNL d   1       2.780   2.419  -1.181  0.00  0.00     0.237 C 
ATOM      9  O   UNL d   1       2.798   3.649  -1.111  0.00  0.00    -0.272 OA
ATOM     10  N   UNL d   1       2.917   1.730  -2.380  0.00  0.00    -0.294 N 
ATOM     11  H   UNL d   1       2.949   0.710  -2.393  0.00  0.00     0.183 HD
BRANCH  10  12
ATOM     12  N   UNL d   1       3.116   2.449  -3.578  0.00  0.00    -0.247 NA
ATOM     13  H   UNL d   1       3.415   3.398  -3.310  0.00  0.00     0.143 HD
ATOM     14  H   UNL d   1       2.200   2.599  -4.010  0.00  0.00     0.143 HD
ENDBRANCH  10  12
ENDBRANCH   7   8
ENDBRANCH   5   7
BRANCH   3  15
ATOM     15  C   UNL d   1      -0.086  -2.589  -0.069  0.00  0.00    -0.002 A 
ATOM     16  C   UNL d   1       0.776  -3.444   0.638  0.00  0.00     0.014 A 
ATOM     17  C   UNL d   1       0.554  -4.823   0.671  0.00  0.00     0.001 A 
ATOM     18  C   UNL d   1      -0.529  -5.369  -0.012  0.00  0.00     0.000 A 
ATOM     19  C   UNL d   1      -1.389  -4.539  -0.727  0.00  0.00     0.001 A 
ATOM     20  C   UNL d   1      -1.170  -3.158  -0.756  0.00  0.00     0.014 A 
ENDBRANCH   3  15
TORSDOF 4
