REMARK  3 active torsions:
REMARK  status: ('A' for Active; 'I' for Inactive)
REMARK    1  A    between atoms: C_7  and  C_1 
REMARK    2  A    between atoms: C_13  and  C_5 
REMARK       I    between atoms: N_8  and  C_7 
REMARK    3  A    between atoms: C_12  and  N_8 
ROOT
ATOM      1  C   UNL d   1      -0.317  -2.505  -0.274  0.00  0.00     0.265 C 
ATOM      2  N   UNL d   1       0.820  -3.258  -0.010  0.00  0.00    -0.322 N 
ATOM      3  O   UNL d   1      -1.418  -3.001  -0.502  0.00  0.00    -0.267 OA
ATOM      4  H   UNL d   1       1.655  -2.740   0.237  0.00  0.00     0.169 HD
ENDROOT
BRANCH   1   5
ATOM      5  C   UNL d   1      -0.165  -1.058  -0.234  0.00  0.00     0.097 A 
ATOM      6  S   UNL d   1       1.289  -0.252   0.186  0.00  0.00    -0.064 SA
ATOM      7  C   UNL d   1       0.493   1.270   0.040  0.00  0.00     0.085 A 
ATOM      8  N   UNL d   1      -0.770   1.198  -0.317  0.00  0.00    -0.352 N 
ATOM      9  C   UNL d   1      -1.152  -0.118  -0.498  0.00  0.00     0.029 A 
ATOM     10  HN  UNL d   1      -1.384   2.003  -0.444  1.00  0.00     0.166 HD
ATOM     11  C   UNL d   1      -2.554  -0.385  -0.923  0.00  0.00     0.070 C 
BRANCH   7  12
ATOM     12  C   UNL d   1       1.168   2.535   0.361  0.00  0.00    -0.002 A 
ATOM     13  C   UNL d   1       2.482   2.816  -0.038  0.00  0.00     0.014 A 
ATOM     14  C   UNL d   1       3.063   4.053   0.257  0.00  0.00     0.001 A 
ATOM     15  C   UNL d   1       2.341   5.020   0.955  0.00  0.00     0.000 A 
ATOM     16  C   UNL d   1       1.034   4.758   1.354  0.00  0.00     0.001 A 
ATOM     17  C   UNL d   1       0.450   3.526   1.052  0.00  0.00     0.014 A 
ENDBRANCH   7  12
ENDBRANCH   1   5
BRANCH   2  18
ATOM     18  C   UNL d   1       0.879  -4.669   0.098  0.00  0.00     0.037 A 
ATOM     19  C   UNL d   1      -0.176  -5.514  -0.260  0.00  0.00     0.069 A 
ATOM     20  C   UNL d   1      -0.112  -6.882  -0.002  0.00  0.00     0.104 A 
ATOM     21  O   UNL d   1      -1.230  -7.614  -0.313  0.00  0.00    -0.346 OA
ATOM     22  C   UNL d   1       1.034  -7.441   0.561  0.00  0.00     0.102 A 
ATOM     23  C   UNL d   1      -1.255  -8.829   0.437  0.00  0.00     0.202 C 
ATOM     24  C   UNL d   1       0.077  -9.549   0.313  0.00  0.00     0.202 C 
ATOM     25  O   UNL d   1       1.151  -8.772   0.863  0.00  0.00    -0.346 OA
ATOM     26  C   UNL d   1       2.117  -6.620   0.868  0.00  0.00     0.042 A 
ATOM     27  C   UNL d   1       2.042  -5.239   0.633  0.00  0.00     0.032 A 
ENDBRANCH   2  18
TORSDOF 3
