REMARK  5 active torsions:
REMARK  status: ('A' for Active; 'I' for Inactive)
REMARK    1  A    between atoms: C_6  and  C_1 
REMARK    2  A    between atoms: N_8  and  C_2 
REMARK    3  A    between atoms: C_7  and  C_5 
REMARK    4  A    between atoms: O_10  and  C_6 
REMARK    5  A    between atoms: C_13  and  O_10 
ROOT
ATOM      1  C   UNL d   1       0.079   1.532   0.003  0.00  0.00     0.074 A 
ATOM      2  C   UNL d   1       0.812   0.359   0.014  0.00  0.00     0.084 A 
ATOM      3  C   UNL d   1      -1.333   1.248  -0.020  0.00  0.00     0.040 A 
ATOM      4  S   UNL d   1      -0.189  -1.023  -0.018  0.00  0.00    -0.071 SA
ATOM      5  C   UNL d   1      -1.631  -0.100  -0.022  0.00  0.00     0.018 A 
ENDROOT
BRANCH   5   6
ATOM      6  C   UNL d   1      -2.955  -0.744  -0.060  0.00  0.00    -0.019 A 
ATOM      7  C   UNL d   1      -4.014  -0.117  -0.736  0.00  0.00     0.013 A 
ATOM      8  C   UNL d   1      -5.279  -0.707  -0.797  0.00  0.00     0.001 A 
ATOM      9  C   UNL d   1      -5.506  -1.932  -0.178  0.00  0.00     0.000 A 
ATOM     10  C   UNL d   1      -4.473  -2.563   0.509  0.00  0.00     0.001 A 
ATOM     11  C   UNL d   1      -3.208  -1.971   0.572  0.00  0.00     0.013 A 
ENDBRANCH   5   6
BRANCH   1  12
ATOM     12  C   UNL d   1       0.667   2.865   0.064  0.00  0.00     0.296 C 
ATOM     13  O   UNL d   1       1.874   3.088   0.131  0.00  0.00    -0.259 OA
BRANCH  12  14
ATOM     14  O   UNL d   1      -0.295   3.834   0.126  0.00  0.00    -0.318 OA
BRANCH  14  15
ATOM     15  C   UNL d   1       0.120   5.085   0.683  0.00  0.00     0.174 C 
ATOM     16  C   UNL d   1      -0.032   4.994   2.191  0.00  0.00     0.034 C 
ENDBRANCH  14  15
ENDBRANCH  12  14
ENDBRANCH   1  12
BRANCH   2  17
ATOM     17  N   UNL d   1       2.152   0.220   0.058  0.00  0.00    -0.393 N 
ATOM     18  H   UNL d   1       2.770   1.028  -0.009  0.00  0.00     0.156 HD
ATOM     19  H   UNL d   1       2.594  -0.688  -0.037  0.00  0.00     0.156 HD
ENDBRANCH   2  17
TORSDOF 5
