REMARK  5 active torsions:
REMARK  status: ('A' for Active; 'I' for Inactive)
REMARK    1  A    between atoms: C_10  and  N_1 
REMARK    2  A    between atoms: C_11  and  C_6 
REMARK    3  A    between atoms: C_9  and  N_15 
REMARK    4  A    between atoms: C_18  and  C_11 
REMARK    5  A    between atoms: N_15  and  N_13 
ROOT
ATOM      1  N   UNL d   1      -0.605  -0.553  -0.009  0.00  0.00    -0.227 N 
ATOM      2  N   UNL d   1       1.167  -1.773   0.007  0.00  0.00    -0.226 N 
ATOM      3  HN  UNL d   1       2.147  -2.057   0.012  1.00  0.00     0.210 HD
ATOM      4  N   UNL d   1       0.750  -0.525  -0.101  0.00  0.00    -0.220 N 
ATOM      5  HN  UNL d   1       1.334   0.301  -0.228  1.00  0.00     0.210 HD
ATOM      6  C   UNL d   1      -0.981  -1.895   0.055  0.00  0.00     0.125 A 
ATOM      7  N   UNL d   1       0.116  -2.629   0.109  0.00  0.00    -0.271 N 
ATOM      8  HN  UNL d   1       0.164  -3.643   0.209  1.00  0.00     0.190 HD
ENDROOT
BRANCH   6   9
ATOM      9  C   UNL d   1      -2.338  -2.475  -0.051  0.00  0.00     0.126 C 
BRANCH   9  10
ATOM     10  C   UNL d   1      -2.994  -2.576   1.300  0.00  0.00     0.087 C 
ATOM     11  N   UNL d   1      -4.196  -3.018   1.545  0.00  0.00    -0.313 N 
ATOM     12  HN  UNL d   1      -4.566  -3.024   2.496  1.00  0.00     0.185 HD
BRANCH  11  13
ATOM     13  N   UNL d   1      -4.947  -3.473   0.498  0.00  0.00    -0.277 N 
ATOM     14  H   UNL d   1      -4.583  -3.510  -0.449  0.00  0.00     0.189 HD
BRANCH  13  15
ATOM     15  C   UNL d   1      -6.188  -4.015   0.695  0.00  0.00     0.184 C 
ATOM     16  S   UNL d   1      -7.082  -4.638  -0.554  0.00  0.00    -0.040 SA
ATOM     17  N   UNL d   1      -6.640  -4.008   1.969  0.00  0.00    -0.375 N 
ATOM     18  H   UNL d   1      -5.987  -3.726   2.689  0.00  0.00     0.158 HD
ATOM     19  H   UNL d   1      -7.506  -4.465   2.218  0.00  0.00     0.158 HD
ENDBRANCH  13  15
ENDBRANCH  11  13
ENDBRANCH   9  10
ENDBRANCH   6   9
BRANCH   1  20
ATOM     20  C   UNL d   1      -1.334   0.669   0.046  0.00  0.00     0.059 A 
ATOM     21  C   UNL d   1      -0.643   1.880  -0.166  0.00  0.00     0.033 A 
ATOM     22  C   UNL d   1      -1.301   3.111  -0.065  0.00  0.00     0.026 A 
ATOM     23  C   UNL d   1      -2.653   3.146   0.254  0.00  0.00     0.034 A 
ATOM     24  C   UNL d   1      -3.352   1.960   0.459  0.00  0.00     0.026 A 
ATOM     25 CL   UNL d   1      -3.460   4.655   0.416  0.00  0.00    -0.084 Cl
ATOM     26  C   UNL d   1      -2.699   0.726   0.350  0.00  0.00     0.033 A 
ENDBRANCH   1  20
TORSDOF 5
