REMARK  1 active torsions:
REMARK  status: ('A' for Active; 'I' for Inactive)
REMARK    1  A    between atoms: C_7  and  C_3 
ROOT
ATOM      1  C   UNL d   1      -1.249   1.298  -0.018  0.00  0.00     0.296 C 
ATOM      2  O   UNL d   1      -2.353   0.555  -0.251  0.00  0.00    -0.296 OA
ATOM      3  C   UNL d   1      -2.474  -0.715   0.399  0.00  0.00     0.231 C 
ATOM      4  S   UNL d   1      -1.199  -1.890  -0.115  0.00  0.00    -0.091 SA
ATOM      5  C   UNL d   1       0.062   0.597   0.038  0.00  0.00     0.056 A 
ATOM      6  C   UNL d   1       0.187  -0.795  -0.032  0.00  0.00     0.019 A 
ATOM      7  O   UNL d   1      -1.310   2.521   0.039  0.00  0.00    -0.259 OA
ATOM      8  C   UNL d   1       1.221   1.390   0.099  0.00  0.00     0.019 A 
ATOM      9  C   UNL d   1       1.465  -1.374  -0.054  0.00  0.00     0.019 A 
ATOM     10  C   UNL d   1       2.487   0.804   0.078  0.00  0.00     0.001 A 
ATOM     11  C   UNL d   1       2.608  -0.581  -0.002  0.00  0.00     0.001 A 
ENDROOT
BRANCH   3  12
ATOM     12  C   UNL d   1      -3.841  -1.307   0.093  0.00  0.00    -0.019 A 
ATOM     13  C   UNL d   1      -4.487  -1.063  -1.133  0.00  0.00     0.012 A 
ATOM     14  C   UNL d   1      -5.707  -1.674  -1.432  0.00  0.00     0.024 A 
ATOM     15  C   UNL d   1      -6.290  -2.541  -0.512  0.00  0.00     0.034 A 
ATOM     16  C   UNL d   1      -5.665  -2.801   0.705  0.00  0.00     0.024 A 
ATOM     17 CL   UNL d   1      -7.786  -3.303  -0.886  0.00  0.00    -0.084 Cl
ATOM     18  C   UNL d   1      -4.447  -2.187   1.008  0.00  0.00     0.012 A 
ENDBRANCH   3  12
TORSDOF 1
