REMARK  11 active torsions:
REMARK  status: ('A' for Active; 'I' for Inactive)
REMARK    1  A    between atoms: C_1  and  O_11 
REMARK    2  A    between atoms: C_2  and  O_12 
REMARK    3  A    between atoms: C_3  and  O_7 
REMARK    4  A    between atoms: C_4  and  O_13 
REMARK    5  A    between atoms: C_5  and  O_7 
REMARK    6  A    between atoms: C_8  and  C_21 
REMARK    7  A    between atoms: C_16  and  O_11 
REMARK    8  A    between atoms: C_17  and  O_12 
REMARK    9  A    between atoms: C_18  and  O_13 
REMARK   10  A    between atoms: C_20  and  O_22 
REMARK   11  A    between atoms: O_22  and  C_21 
ROOT
ATOM      1  C   UNL d   1       0.828  -1.308  -0.222  0.00  0.00     0.219 C 
ATOM      2  C   UNL d   1       1.624   0.016  -0.030  0.00  0.00     0.198 C 
ATOM      3  C   UNL d   1      -0.576  -1.165   0.431  0.00  0.00     0.299 C 
ATOM      4  C   UNL d   1       0.818   1.284  -0.387  0.00  0.00     0.195 C 
ATOM      5  O   UNL d   1      -1.222  -0.013  -0.132  0.00  0.00    -0.348 OA
ATOM      6  C   UNL d   1      -0.577   1.209   0.240  0.00  0.00     0.181 C 
ENDROOT
BRANCH   3   7
ATOM      7  O   UNL d   1      -1.458  -2.271   0.197  0.00  0.00    -0.315 OA
BRANCH   7   8
ATOM      8  C   UNL d   1      -1.362  -3.398   0.965  0.00  0.00     0.107 C 
ATOM      9  C   UNL d   1      -1.248  -3.457   2.363  0.00  0.00     0.047 C 
ATOM     10  C   UNL d   1      -1.005  -4.681   3.004  0.00  0.00     0.041 C 
ATOM     11 BR   UNL d   1      -1.620  -2.003   3.537  0.00  0.00    -0.048 Br
ATOM     12  C   UNL d   1      -1.011  -5.865   2.276  0.00  0.00     0.013 C 
ATOM     13  C   UNL d   1      -1.297  -5.848   0.918  0.00  0.00     0.041 C 
ATOM     14 BR   UNL d   1      -0.679  -7.506   3.151  0.00  0.00    -0.051 Br
ATOM     15  C   UNL d   1      -1.467  -4.620   0.270  0.00  0.00     0.047 C 
ATOM     16 BR   UNL d   1      -1.895  -4.674  -1.585  0.00  0.00    -0.048 Br
ENDBRANCH   7   8
ENDBRANCH   3   7
BRANCH   1  17
ATOM     17  O   UNL d   1       1.580  -2.468   0.241  0.00  0.00    -0.308 OA
BRANCH  17  18
ATOM     18  C   UNL d   1       1.938  -2.551   1.549  0.00  0.00     0.255 C 
ATOM     19  O   UNL d   1       1.666  -1.722   2.407  0.00  0.00    -0.266 OA
ATOM     20  C   UNL d   1       2.648  -3.839   1.828  0.00  0.00     0.126 C 
ENDBRANCH  17  18
ENDBRANCH   1  17
BRANCH   2  21
ATOM     21  O   UNL d   1       2.934   0.016  -0.665  0.00  0.00    -0.311 OA
BRANCH  21  22
ATOM     22  C   UNL d   1       3.010  -0.048  -2.018  0.00  0.00     0.255 C 
ATOM     23  O   UNL d   1       2.069  -0.235  -2.768  0.00  0.00    -0.266 OA
ATOM     24  C   UNL d   1       4.421   0.196  -2.464  0.00  0.00     0.126 C 
ENDBRANCH  21  22
ENDBRANCH   2  21
BRANCH   6  25
ATOM     25  C   UNL d   1      -1.456   2.379  -0.233  0.00  0.00     0.213 C 
BRANCH  25  26
ATOM     26  O   UNL d   1      -2.768   2.311   0.358  0.00  0.00    -0.319 OA
BRANCH  26  27
ATOM     27  C   UNL d   1      -2.845   2.671   1.665  0.00  0.00     0.254 C 
ATOM     28  O   UNL d   1      -1.914   3.102   2.333  0.00  0.00    -0.266 OA
ATOM     29  C   UNL d   1      -4.232   2.468   2.191  0.00  0.00     0.126 C 
ENDBRANCH  26  27
ENDBRANCH  25  26
ENDBRANCH   6  25
BRANCH   4  30
ATOM     30  O   UNL d   1       1.500   2.434   0.177  0.00  0.00    -0.311 OA
BRANCH  30  31
ATOM     31  C   UNL d   1       2.128   3.276  -0.682  0.00  0.00     0.255 C 
ATOM     32  O   UNL d   1       2.149   3.159  -1.898  0.00  0.00    -0.266 OA
ATOM     33  C   UNL d   1       2.780   4.407   0.057  0.00  0.00     0.126 C 
ENDBRANCH  30  31
ENDBRANCH   4  30
TORSDOF 11
