REMARK  8 active torsions:
REMARK  status: ('A' for Active; 'I' for Inactive)
REMARK    1  A    between atoms: C_2  and  S_1 
REMARK    2  A    between atoms: C_5  and  S_1 
REMARK    3  A    between atoms: C_6  and  C_2 
REMARK    4  A    between atoms: C_9  and  C_5 
REMARK    5  A    between atoms: C_11  and  C_6 
REMARK    6  A    between atoms: O_22  and  C_6 
REMARK    7  A    between atoms: O_7  and  C_11 
REMARK    8  A    between atoms: C_8  and  O_7 
ROOT
ATOM      1  C   UNL d   1       0.541  -0.733  -1.361  0.00  0.00     0.174 C 
ENDROOT
BRANCH   1   2
ATOM      2  S   UNL d   1       0.810   0.018   0.222  0.00  0.00     0.150 S 
ATOM      3  O   UNL d   1       0.243   1.353   0.164  0.00  0.00    -0.228 OA
ATOM      4  O   UNL d   1       2.206  -0.196   0.549  0.00  0.00    -0.228 OA
BRANCH   2   5
ATOM      5  C   UNL d   1      -0.206  -1.013   1.280  0.00  0.00     0.178 C 
BRANCH   5   6
ATOM      6  C   UNL d   1      -0.113  -0.560   2.712  0.00  0.00    -0.044 A 
ATOM      7  C   UNL d   1      -1.081   0.297   3.252  0.00  0.00     0.008 A 
ATOM      8  C   UNL d   1      -1.010   0.701   4.588  0.00  0.00     0.007 A 
ATOM      9  C   UNL d   1       0.033   0.261   5.410  0.00  0.00    -0.062 A 
ATOM     10  C   UNL d   1       0.999  -0.597   4.877  0.00  0.00     0.007 A 
ATOM     11  C   UNL d   1       0.109   0.722   6.836  0.00  0.00     0.048 C 
ATOM     12  C   UNL d   1       0.928  -1.004   3.541  0.00  0.00     0.008 A 
ENDBRANCH   5   6
ENDBRANCH   2   5
ENDBRANCH   1   2
BRANCH   1  13
ATOM     13  C   UNL d   1       1.138   0.029  -2.536  0.00  0.00     0.156 C 
BRANCH  13  14
ATOM     14  C   UNL d   1       2.670   0.209  -2.476  0.00  0.00     0.208 C 
BRANCH  14  15
ATOM     15  O   UNL d   1       3.120   0.807  -3.701  0.00  0.00    -0.349 OA
BRANCH  15  16
ATOM     16  C   UNL d   1       4.451   1.116  -3.793  0.00  0.00     0.069 A 
ATOM     17  C   UNL d   1       4.917   1.341  -5.095  0.00  0.00     0.040 A 
ATOM     18  C   UNL d   1       6.252   1.679  -5.326  0.00  0.00     0.045 A 
ATOM     19  C   UNL d   1       7.120   1.806  -4.249  0.00  0.00     0.116 A 
ATOM     20  C   UNL d   1       6.673   1.600  -2.950  0.00  0.00     0.045 A 
ATOM     21  F   UNL d   1       8.401   2.134  -4.465  0.00  0.00    -0.206 F 
ATOM     22  C   UNL d   1       5.336   1.252  -2.720  0.00  0.00     0.040 A 
ENDBRANCH  15  16
ENDBRANCH  14  15
ENDBRANCH  13  14
BRANCH  13  23
ATOM     23  O   UNL d   1       0.750  -0.706  -3.714  0.00  0.00    -0.393 OA
ATOM     24  H   UNL d   1       1.435  -1.371  -3.904  0.00  0.00     0.210 HD
ENDBRANCH  13  23
ENDBRANCH   1  13
TORSDOF 8
