REMARK  6 active torsions:
REMARK  status: ('A' for Active; 'I' for Inactive)
REMARK    1  A    between atoms: C_5  and  C_1 
REMARK    2  A    between atoms: C_2  and  C_6 
REMARK    3  A    between atoms: C_8  and  C_5 
REMARK    4  A    between atoms: C_6  and  C_7 
REMARK    5  A    between atoms: S_17  and  C_13 
REMARK    6  A    between atoms: C_14  and  S_17 
ROOT
ATOM      1  S   UNL d   1       1.558  -6.013   0.433  0.00  0.00    -0.114 SA
ENDROOT
BRANCH   1   2
ATOM      2  C   UNL d   1      -0.126  -6.452   0.476  0.00  0.00     0.053 C 
ATOM      3  C   UNL d   1      -0.615  -7.214   1.468  0.00  0.00     0.062 C 
BRANCH   3   4
ATOM      4  C   UNL d   1      -2.057  -7.610   1.505  0.00  0.00     0.183 C 
ATOM      5  O   UNL d   1      -2.754  -7.557   0.495  0.00  0.00    -0.288 OA
BRANCH   4   6
ATOM      6  C   UNL d   1      -2.623  -8.048   2.826  0.00  0.00     0.020 A 
ATOM      7  C   UNL d   1      -3.664  -8.995   2.940  0.00  0.00    -0.047 A 
ATOM      8  C   UNL d   1      -4.215  -9.256   4.215  0.00  0.00     0.014 A 
ATOM      9  C   UNL d   1      -4.268  -9.743   1.783  0.00  0.00     0.049 C 
ATOM     10  C   UNL d   1      -3.729  -8.633   5.371  0.00  0.00    -0.061 A 
ATOM     11  C   UNL d   1      -2.679  -7.725   5.250  0.00  0.00     0.007 A 
ATOM     12  C   UNL d   1      -4.350  -8.926   6.705  0.00  0.00     0.048 C 
ATOM     13  C   UNL d   1      -2.143  -7.426   3.994  0.00  0.00     0.016 A 
ENDBRANCH   4   6
ENDBRANCH   3   4
ENDBRANCH   1   2
BRANCH   1  14
ATOM     14  C   UNL d   1       1.414  -4.286   0.288  0.00  0.00     0.053 C 
ATOM     15  C   UNL d   1       2.509  -3.510   0.186  0.00  0.00     0.062 C 
BRANCH  15  16
ATOM     16  C   UNL d   1       2.376  -2.020   0.081  0.00  0.00     0.183 C 
ATOM     17  O   UNL d   1       1.304  -1.477   0.301  0.00  0.00    -0.288 OA
BRANCH  16  18
ATOM     18  C   UNL d   1       3.583  -1.222  -0.332  0.00  0.00     0.020 A 
ATOM     19  C   UNL d   1       3.819   0.093   0.125  0.00  0.00    -0.047 A 
ATOM     20  C   UNL d   1       4.913   0.819  -0.403  0.00  0.00     0.014 A 
ATOM     21  C   UNL d   1       3.002   0.812   1.165  0.00  0.00     0.049 C 
ATOM     22  C   UNL d   1       5.772   0.270  -1.360  0.00  0.00    -0.061 A 
ATOM     23  C   UNL d   1       5.546  -1.038  -1.785  0.00  0.00     0.007 A 
ATOM     24  C   UNL d   1       6.908   1.085  -1.905  0.00  0.00     0.048 C 
ATOM     25  C   UNL d   1       4.461  -1.770  -1.285  0.00  0.00     0.016 A 
ENDBRANCH  16  18
ENDBRANCH  15  16
ENDBRANCH   1  14
TORSDOF 6
