REMARK  3 active torsions:
REMARK  status: ('A' for Active; 'I' for Inactive)
REMARK    1  A    between atoms: N_8  and  C_1 
REMARK       I    between atoms: C_6  and  N_8 
REMARK       I    between atoms: N_9  and  C_6 
REMARK    2  A    between atoms: C_15  and  N_9 
REMARK    3  A    between atoms: N_12  and  C_10 
ROOT
ATOM      1  C   UNL d   1       1.093   2.976  -0.105  0.00  0.00     0.325 C 
ATOM      2  N   UNL d   1       0.850   4.053   0.722  0.00  0.00    -0.305 N 
ATOM      3  N   UNL d   1       2.390   2.498   0.018  0.00  0.00    -0.309 N 
ATOM      4  O   UNL d   1       0.273   2.527  -0.894  0.00  0.00    -0.247 OA
ATOM      5  H   UNL d   1       1.657   4.517   1.110  0.00  0.00     0.171 HD
ATOM      6  H   UNL d   1       2.988   2.943   0.698  0.00  0.00     0.170 HD
ENDROOT
BRANCH   2   7
ATOM      7  C   UNL d   1      -0.357   4.753   0.832  0.00  0.00     0.092 A 
ATOM      8  C   UNL d   1      -1.651   4.454   0.436  0.00  0.00     0.101 A 
ATOM      9  O   UNL d   1      -2.464   5.504   0.738  0.00  0.00    -0.240 OA
ATOM     10  C   UNL d   1      -2.396   3.335  -0.177  0.00  0.00     0.081 C 
ATOM     11  N   UNL d   1      -1.757   6.481   1.391  0.00  0.00    -0.263 N 
ATOM     12  C   UNL d   1      -0.505   6.027   1.475  0.00  0.00     0.058 A 
ATOM     13  HN  UNL d   1      -2.113   7.371   1.739  1.00  0.00     0.194 HD
ATOM     14  C   UNL d   1       0.500   6.842   2.193  0.00  0.00     0.072 C 
ENDBRANCH   2   7
BRANCH   3  15
ATOM     15  C   UNL d   1       2.998   1.492  -0.778  0.00  0.00     0.036 A 
ATOM     16  C   UNL d   1       2.333   0.765  -1.760  0.00  0.00     0.032 A 
ATOM     17  C   UNL d   1       3.023  -0.122  -2.604  0.00  0.00     0.031 A 
ATOM     18  C   UNL d   1       4.407  -0.317  -2.512  0.00  0.00     0.029 A 
ATOM     19  C   UNL d   1       5.035   0.334  -1.437  0.00  0.00     0.031 A 
ATOM     20  C   UNL d   1       4.353   1.231  -0.591  0.00  0.00     0.032 A 
BRANCH  18  21
ATOM     21  N   UNL d   1       5.120  -1.152  -3.391  0.00  0.00    -0.390 N 
ATOM     22  C   UNL d   1       6.475  -0.720  -3.757  0.00  0.00     0.149 C 
ATOM     23  C   UNL d   1       4.397  -1.748  -4.522  0.00  0.00     0.149 C 
ENDBRANCH  18  21
ENDBRANCH   3  15
TORSDOF 3
