REMARK  5 active torsions:
REMARK  status: ('A' for Active; 'I' for Inactive)
REMARK    1  A    between atoms: C_5  and  C_1 
REMARK    2  A    between atoms: C_2  and  C_3 
REMARK    3  A    between atoms: C_4  and  C_10 
REMARK       I    between atoms: N_9  and  C_5 
REMARK    4  A    between atoms: O_21  and  C_7 
REMARK    5  A    between atoms: C_10  and  N_9 
ROOT
ATOM      1  C   UNL d   1       1.223   2.468   0.014  0.00  0.00     0.257 C 
ATOM      2  N   UNL d   1       0.971   3.589   0.772  0.00  0.00    -0.352 N 
ATOM      3  O   UNL d   1       1.969   2.469  -0.961  0.00  0.00    -0.267 OA
ATOM      4  H   UNL d   1       0.275   3.563   1.509  0.00  0.00     0.163 HD
ENDROOT
BRANCH   1   5
ATOM      5  C   UNL d   1       0.552   1.196   0.369  0.00  0.00     0.098 A 
ATOM      6  C   UNL d   1      -0.833   1.013   0.211  0.00  0.00     0.069 A 
ATOM      7  C   UNL d   1      -1.349  -0.299   0.273  0.00  0.00     0.034 A 
ATOM      8  C   UNL d   1      -0.493  -1.355   0.501  0.00  0.00     0.091 A 
ATOM      9  N   UNL d   1       0.823  -1.195   0.702  0.00  0.00    -0.346 N 
ATOM     10  C   UNL d   1       1.336   0.060   0.625  0.00  0.00     0.158 A 
ATOM     11  HN  UNL d   1       1.423  -1.995   0.906  1.00  0.00     0.167 HD
BRANCH   6  12
ATOM     12  C   UNL d   1      -1.833   2.094  -0.097  0.00  0.00     0.418 C 
ATOM     13  F   UNL d   1      -1.371   3.365  -0.098  0.00  0.00    -0.166 F 
ATOM     14  F   UNL d   1      -2.431   1.910  -1.305  0.00  0.00    -0.166 F 
ATOM     15  F   UNL d   1      -2.849   2.089   0.816  0.00  0.00    -0.166 F 
ENDBRANCH   6  12
BRANCH  10  16
ATOM     16  O   UNL d   1       2.696   0.050   0.733  0.00  0.00    -0.340 OA
ATOM     17  C   UNL d   1       3.237   0.955   1.685  0.00  0.00     0.211 C 
ENDBRANCH  10  16
ENDBRANCH   1   5
BRANCH   2  18
ATOM     18  C   UNL d   1       1.379   4.910   0.317  0.00  0.00     0.163 C 
BRANCH  18  19
ATOM     19  C   UNL d   1       2.214   5.793   1.235  0.00  0.00    -0.013 A 
ATOM     20  C   UNL d   1       2.539   5.506   2.578  0.00  0.00     0.044 A 
ATOM     21  C   UNL d   1       3.375   6.353   3.323  0.00  0.00     0.048 A 
ATOM     22 CL   UNL d   1       1.927   4.144   3.451  0.00  0.00    -0.084 Cl
ATOM     23  C   UNL d   1       3.883   7.514   2.761  0.00  0.00     0.036 A 
ATOM     24  C   UNL d   1       3.548   7.856   1.459  0.00  0.00     0.031 A 
ATOM     25 CL   UNL d   1       4.916   8.536   3.679  0.00  0.00    -0.084 Cl
ATOM     26  C   UNL d   1       2.706   7.024   0.696  0.00  0.00    -0.051 A 
ATOM     27  C   UNL d   1       2.414   7.502  -0.709  0.00  0.00     0.049 C 
ENDBRANCH  18  19
ENDBRANCH   2  18
TORSDOF 5
