REMARK  2 active torsions:
REMARK  status: ('A' for Active; 'I' for Inactive)
REMARK    1  A    between atoms: C_2  and  C_1 
REMARK    2  A    between atoms: C_3  and  C_1 
ROOT
ATOM      1  C   UNL d   1       0.989   0.131   0.004  0.00  0.00     0.193 C 
ATOM      2  O   UNL d   1       1.442   0.071   1.142  0.00  0.00    -0.287 OA
ENDROOT
BRANCH   1   3
ATOM      3  C   UNL d   1       1.147   1.398  -0.769  0.00  0.00     0.018 A 
ATOM      4  C   UNL d   1       1.154   1.415  -2.170  0.00  0.00     0.039 A 
ATOM      5  C   UNL d   1       1.172   2.635  -2.845  0.00  0.00     0.036 A 
ATOM      6 CL   UNL d   1       1.092   2.653  -4.564  0.00  0.00    -0.084 Cl
ATOM      7  C   UNL d   1       1.223   3.836  -2.145  0.00  0.00     0.047 A 
ATOM      8  C   UNL d   1       1.275   3.811  -0.753  0.00  0.00     0.036 A 
ATOM      9  C   UNL d   1       1.241   2.602  -0.060  0.00  0.00     0.039 A 
ATOM     10 CL   UNL d   1       1.349   5.292   0.120  0.00  0.00    -0.084 Cl
ENDBRANCH   1   3
BRANCH   1  11
ATOM     11  C   UNL d   1       0.216  -1.011  -0.566  0.00  0.00     0.021 A 
ATOM     12  C   UNL d   1       0.610  -2.353  -0.417  0.00  0.00    -0.047 A 
ATOM     13  C   UNL d   1      -0.185  -3.356  -1.012  0.00  0.00     0.014 A 
ATOM     14  C   UNL d   1       1.829  -2.810   0.338  0.00  0.00     0.049 C 
ATOM     15  C   UNL d   1      -1.343  -3.048  -1.738  0.00  0.00    -0.061 A 
ATOM     16  C   UNL d   1      -1.733  -1.714  -1.850  0.00  0.00     0.007 A 
ATOM     17  C   UNL d   1      -2.156  -4.142  -2.362  0.00  0.00     0.048 C 
ATOM     18  C   UNL d   1      -0.973  -0.711  -1.256  0.00  0.00     0.016 A 
ENDBRANCH   1  11
TORSDOF 2
