REMARK  5 active torsions:
REMARK  status: ('A' for Active; 'I' for Inactive)
REMARK    1  A    between atoms: N_5  and  C_1 
REMARK    2  A    between atoms: C_7  and  N_5 
REMARK    3  A    between atoms: C_9  and  C_8 
REMARK    4  A    between atoms: C_10  and  C_9 
REMARK       I    between atoms: N_11  and  C_10 
REMARK    5  A    between atoms: C_16  and  N_11 
ROOT
ATOM      1  C   UNL d   1       1.261   0.628  -0.612  0.00  0.00     0.148 C 
ATOM      2  N   UNL d   1       0.086   1.191  -0.978  0.00  0.00    -0.306 N 
ATOM      3  C   UNL d   1      -0.974   0.368  -1.190  0.00  0.00     0.238 C 
ATOM      4  S   UNL d   1       1.044  -1.057  -0.242  0.00  0.00    -0.079 SA
ATOM      5  C   UNL d   1      -0.743  -1.002  -0.597  0.00  0.00     0.156 C 
ATOM      6  O   UNL d   1      -1.977   0.688  -1.821  0.00  0.00    -0.272 OA
ATOM      7  H   UNL d   1       0.095   2.136  -1.332  0.00  0.00     0.171 HD
ENDROOT
BRANCH   5   8
ATOM      8  C   UNL d   1      -1.293  -2.127  -1.459  0.00  0.00     0.128 C 
BRANCH   8   9
ATOM      9  C   UNL d   1      -0.769  -2.192  -2.886  0.00  0.00     0.223 C 
ATOM     10  N   UNL d   1      -1.360  -1.278  -3.741  0.00  0.00    -0.327 N 
ATOM     11  H   UNL d   1      -1.928  -0.542  -3.323  0.00  0.00     0.169 HD
ATOM     12  O   UNL d   1       0.080  -3.023  -3.191  0.00  0.00    -0.273 OA
BRANCH  10  13
ATOM     13  C   UNL d   1      -1.252  -1.235  -5.149  0.00  0.00     0.034 A 
ATOM     14  C   UNL d   1      -0.660  -2.243  -5.913  0.00  0.00     0.031 A 
ATOM     15  C   UNL d   1      -0.650  -2.162  -7.312  0.00  0.00     0.026 A 
ATOM     16  C   UNL d   1      -1.222  -1.065  -7.949  0.00  0.00     0.034 A 
ATOM     17  C   UNL d   1      -1.804  -0.046  -7.200  0.00  0.00     0.026 A 
ATOM     18 CL   UNL d   1      -1.222  -0.974  -9.666  0.00  0.00    -0.084 Cl
ATOM     19  C   UNL d   1      -1.823  -0.135  -5.803  0.00  0.00     0.031 A 
ENDBRANCH  10  13
ENDBRANCH   8   9
ENDBRANCH   5   8
BRANCH   1  20
ATOM     20  N   UNL d   1       2.313   1.364  -0.596  0.00  0.00    -0.332 N 
ATOM     21  HN  UNL d   1       2.226   2.357  -0.814  1.00  0.00     0.168 HD
BRANCH  20  22
ATOM     22  C   UNL d   1       3.585   0.842  -0.284  0.00  0.00     0.112 A 
ATOM     23  C   UNL d   1       4.219  -0.124  -1.076  0.00  0.00     0.146 A 
ATOM     24  F   UNL d   1       3.587  -0.638  -2.143  0.00  0.00    -0.204 F 
ATOM     25  C   UNL d   1       5.516  -0.562  -0.804  0.00  0.00     0.045 A 
ATOM     26  C   UNL d   1       6.227  -0.008   0.258  0.00  0.00     0.006 A 
ATOM     27  C   UNL d   1       5.630   0.974   1.046  0.00  0.00     0.045 A 
ATOM     28  C   UNL d   1       4.324   1.387   0.773  0.00  0.00     0.146 A 
ATOM     29  F   UNL d   1       3.788   2.349   1.541  0.00  0.00    -0.204 F 
ENDBRANCH  20  22
ENDBRANCH   1  20
TORSDOF 5
