REMARK  5 active torsions:
REMARK  status: ('A' for Active; 'I' for Inactive)
REMARK    1  A    between atoms: C_6  and  C_2 
REMARK       I    between atoms: C_10  and  N_3 
REMARK    2  A    between atoms: C_7  and  C_11 
REMARK    3  A    between atoms: C_19  and  C_10 
REMARK    4  A    between atoms: C_16  and  S_18 
REMARK    5  A    between atoms: S_18  and  C_19 
ROOT
ATOM      1  C   UNL d   1       1.018  -0.728   0.073  0.00  0.00     0.049 A 
ATOM      2  C   UNL d   1       2.440  -1.246   0.076  0.00  0.00     0.245 C 
ATOM      3  N   UNL d   1       3.335  -0.093  -0.263  0.00  0.00    -0.333 N 
ATOM      4  C   UNL d   1       0.606   0.588  -0.014  0.00  0.00    -0.019 A 
ATOM      5  N   UNL d   1      -0.101  -1.515   0.145  0.00  0.00    -0.356 N 
ATOM      6  C   UNL d   1      -0.816   0.603   0.007  0.00  0.00    -0.001 A 
ATOM      7  C   UNL d   1      -1.232  -0.728   0.098  0.00  0.00     0.043 A 
ATOM      8  C   UNL d   1       4.592  -0.420  -0.779  0.00  0.00     0.230 C 
ATOM      9  C   UNL d   1       2.979   1.224   0.310  0.00  0.00     0.131 C 
ATOM     10  C   UNL d   1       1.586   1.701  -0.141  0.00  0.00     0.061 C 
ATOM     11  O   UNL d   1       4.912  -1.601  -0.909  0.00  0.00    -0.273 OA
ATOM     12  C   UNL d   1      -1.796   1.613  -0.052  0.00  0.00     0.014 A 
ATOM     13  C   UNL d   1      -2.582  -1.097   0.123  0.00  0.00     0.030 A 
ATOM     14  C   UNL d   1      -3.151   1.259  -0.029  0.00  0.00     0.001 A 
ATOM     15  C   UNL d   1      -3.536  -0.077   0.055  0.00  0.00     0.002 A 
ATOM     16  H   UNL d   1      -0.119  -2.523   0.227  0.00  0.00     0.166 HD
ENDROOT
BRANCH   2  17
ATOM     17  C   UNL d   1       2.835  -2.011   1.377  0.00  0.00     0.413 C 
ATOM     18  F   UNL d   1       1.817  -2.061   2.275  0.00  0.00    -0.168 F 
ATOM     19  F   UNL d   1       3.162  -3.298   1.108  0.00  0.00    -0.168 F 
ATOM     20  F   UNL d   1       3.885  -1.444   2.019  0.00  0.00    -0.168 F 
ENDBRANCH   2  17
BRANCH   8  21
ATOM     21  C   UNL d   1       5.523   0.740  -1.159  0.00  0.00     0.183 C 
BRANCH  21  22
ATOM     22  S   UNL d   1       6.735   0.285  -2.452  0.00  0.00    -0.103 SA
BRANCH  22  23
ATOM     23  C   UNL d   1       5.587  -0.238  -3.706  0.00  0.00     0.070 A 
ATOM     24  N   UNL d   1       4.409   0.424  -3.766  0.00  0.00    -0.360 N 
ATOM     25  C   UNL d   1       3.440  -0.104  -4.543  0.00  0.00     0.105 A 
ATOM     26  HN  UNL d   1       4.260   1.288  -3.246  1.00  0.00     0.166 HD
ATOM     27  C   UNL d   1       3.589  -1.269  -5.277  0.00  0.00     0.063 A 
ATOM     28  C   UNL d   1       4.850  -1.875  -5.280  0.00  0.00     0.020 A 
ATOM     29  C   UNL d   1       5.869  -1.350  -4.487  0.00  0.00     0.038 A 
BRANCH  27  30
ATOM     30  C   UNL d   1       2.414  -1.882  -5.970  0.00  0.00     0.418 C 
ATOM     31  F   UNL d   1       1.263  -1.168  -5.822  0.00  0.00    -0.166 F 
ATOM     32  F   UNL d   1       2.600  -2.020  -7.310  0.00  0.00    -0.166 F 
ATOM     33  F   UNL d   1       2.135  -3.129  -5.499  0.00  0.00    -0.166 F 
ENDBRANCH  27  30
ENDBRANCH  22  23
ENDBRANCH  21  22
ENDBRANCH   8  21
TORSDOF 5
