REMARK  4 active torsions:
REMARK  status: ('A' for Active; 'I' for Inactive)
REMARK    1  A    between atoms: N_9  and  C_2 
REMARK    2  A    between atoms: C_15  and  N_3 
REMARK    3  A    between atoms: C_7  and  C_6 
REMARK    4  A    between atoms: C_10  and  C_8 
ROOT
ATOM      1  C   UNL d   1      -2.895  -2.738   0.122  0.00  0.00     0.120 C 
ATOM      2  C   UNL d   1      -3.886  -3.692  -0.003  0.00  0.00     0.157 C 
ATOM      3  N   UNL d   1      -5.082  -2.999  -0.070  0.00  0.00    -0.237 N 
ATOM      4  N   UNL d   1      -4.869  -1.666  -0.245  0.00  0.00    -0.289 N 
ATOM      5  HN  UNL d   1      -5.557  -0.959  -0.503  1.00  0.00     0.188 HD
ATOM      6  C   UNL d   1      -3.556  -1.476  -0.006  0.00  0.00     0.094 C 
ATOM      7  C   UNL d   1      -1.487  -2.983   0.178  0.00  0.00     0.106 C 
ATOM      8  N   UNL d   1      -0.350  -3.197   0.204  0.00  0.00    -0.191 NA
ENDROOT
BRANCH   2   9
ATOM      9  N   UNL d   1      -3.754  -5.079  -0.135  0.00  0.00    -0.316 N 
ATOM     10  C   UNL d   1      -4.579  -5.923  -0.861  0.00  0.00     0.098 A 
ATOM     11  C   UNL d   1      -4.160  -7.225  -0.711  0.00  0.00     0.019 A 
ATOM     12  C   UNL d   1      -3.002  -7.193   0.086  0.00  0.00     0.019 A 
ATOM     13  C   UNL d   1      -2.758  -5.873   0.400  0.00  0.00     0.098 A 
ENDBRANCH   2   9
BRANCH   6  14
ATOM     14  C   UNL d   1      -2.931  -0.162   0.027  0.00  0.00     0.075 C 
ATOM     15  C   UNL d   1      -3.420   0.903  -0.650  0.00  0.00     0.041 C 
ATOM     16  C   UNL d   1      -1.769   0.004   0.849  0.00  0.00     0.102 C 
ATOM     17  N   UNL d   1      -0.831   0.149   1.518  0.00  0.00    -0.191 NA
BRANCH  15  18
ATOM     18  C   UNL d   1      -2.793   2.241  -0.661  0.00  0.00     0.026 A 
ATOM     19  C   UNL d   1      -1.800   2.520  -1.611  0.00  0.00     0.128 A 
ATOM     20  F   UNL d   1      -1.467   1.589  -2.521  0.00  0.00    -0.205 F 
ATOM     21  C   UNL d   1      -1.125   3.738  -1.634  0.00  0.00     0.043 A 
ATOM     22  C   UNL d   1      -1.435   4.717  -0.693  0.00  0.00     0.005 A 
ATOM     23  C   UNL d   1      -2.425   4.469   0.259  0.00  0.00     0.025 A 
ATOM     24  C   UNL d   1      -3.101   3.240   0.276  0.00  0.00     0.047 A 
ATOM     25 CL   UNL d   1      -4.308   3.001   1.489  0.00  0.00    -0.083 Cl
ENDBRANCH  15  18
ENDBRANCH   6  14
BRANCH   3  26
ATOM     26  C   UNL d   1      -6.407  -3.500   0.083  0.00  0.00     0.058 A 
ATOM     27  C   UNL d   1      -6.665  -4.577   0.947  0.00  0.00     0.031 A 
ATOM     28  C   UNL d   1      -7.925  -5.176   0.963  0.00  0.00     0.002 A 
ATOM     29  C   UNL d   1      -8.933  -4.693   0.134  0.00  0.00     0.000 A 
ATOM     30  C   UNL d   1      -8.698  -3.580  -0.677  0.00  0.00     0.002 A 
ATOM     31  C   UNL d   1      -7.443  -2.964  -0.689  0.00  0.00     0.031 A 
ENDBRANCH   3  26
TORSDOF 4
