REMARK  5 active torsions:
REMARK  status: ('A' for Active; 'I' for Inactive)
REMARK    1  A    between atoms: C_7  and  C_1 
REMARK    2  A    between atoms: C_9  and  C_2 
REMARK    3  A    between atoms: N_8  and  C_3 
REMARK    4  A    between atoms: C_11  and  C_7 
REMARK    5  A    between atoms: C_12  and  N_8 
ROOT
ATOM      1  C   UNL d   1       0.072   1.271   0.020  0.00  0.00     0.086 A 
ATOM      2  C   UNL d   1       1.371   0.789   0.088  0.00  0.00     0.066 A 
ATOM      3  C   UNL d   1       0.294  -1.169   0.039  0.00  0.00     0.150 A 
ATOM      4  N   UNL d   1       1.467  -0.594   0.130  0.00  0.00    -0.335 N 
ATOM      5  HN  UNL d   1       2.346  -1.103   0.221  1.00  0.00     0.168 HD
ATOM      6  S   UNL d   1      -1.019  -0.070  -0.005  0.00  0.00    -0.048 SA
ENDROOT
BRANCH   1   7
ATOM      7  C   UNL d   1      -0.432   2.634   0.072  0.00  0.00     0.201 C 
ATOM      8  O   UNL d   1       0.103   3.510   0.755  0.00  0.00    -0.286 OA
BRANCH   7   9
ATOM      9  C   UNL d   1      -1.638   3.045  -0.714  0.00  0.00     0.015 A 
ATOM     10  C   UNL d   1      -1.997   2.433  -1.923  0.00  0.00     0.015 A 
ATOM     11  C   UNL d   1      -3.143   2.844  -2.611  0.00  0.00     0.001 A 
ATOM     12  C   UNL d   1      -3.916   3.893  -2.116  0.00  0.00     0.000 A 
ATOM     13  C   UNL d   1      -3.546   4.536  -0.937  0.00  0.00     0.001 A 
ATOM     14  C   UNL d   1      -2.413   4.115  -0.237  0.00  0.00     0.015 A 
ENDBRANCH   7   9
ENDBRANCH   1   7
BRANCH   2  15
ATOM     15  C   UNL d   1       2.619   1.552   0.081  0.00  0.00    -0.008 A 
ATOM     16  C   UNL d   1       3.741   1.005   0.729  0.00  0.00     0.014 A 
ATOM     17  C   UNL d   1       4.990   1.627   0.661  0.00  0.00     0.001 A 
ATOM     18  C   UNL d   1       5.135   2.810  -0.057  0.00  0.00     0.000 A 
ATOM     19  C   UNL d   1       4.032   3.369  -0.700  0.00  0.00     0.001 A 
ATOM     20  C   UNL d   1       2.783   2.742  -0.638  0.00  0.00     0.014 A 
ENDBRANCH   2  15
BRANCH   3  21
ATOM     21  N   UNL d   1       0.090  -2.503  -0.048  0.00  0.00    -0.337 N 
ATOM     22  H   UNL d   1      -0.808  -2.847  -0.359  0.00  0.00     0.168 HD
BRANCH  21  23
ATOM     23  C   UNL d   1       0.936  -3.486   0.497  0.00  0.00     0.034 A 
ATOM     24  C   UNL d   1       1.720  -3.250   1.636  0.00  0.00     0.029 A 
ATOM     25  C   UNL d   1       2.568  -4.235   2.146  0.00  0.00     0.002 A 
ATOM     26  C   UNL d   1       2.670  -5.463   1.500  0.00  0.00     0.000 A 
ATOM     27  C   UNL d   1       1.921  -5.706   0.351  0.00  0.00     0.002 A 
ATOM     28  C   UNL d   1       1.055  -4.726  -0.144  0.00  0.00     0.029 A 
ENDBRANCH  21  23
ENDBRANCH   3  21
TORSDOF 5
