REMARK  7 active torsions:
REMARK  status: ('A' for Active; 'I' for Inactive)
REMARK    1  A    between atoms: C_13  and  C_2 
REMARK    2  A    between atoms: C_11  and  C_3 
REMARK    3  A    between atoms: S_5  and  C_11 
REMARK    4  A    between atoms: C_14  and  S_5 
REMARK    5  A    between atoms: C_12  and  C_15 
REMARK    6  A    between atoms: O_27  and  C_13 
REMARK    7  A    between atoms: C_31  and  O_27 
ROOT
ATOM      1  C   UNL d   1      -0.539   0.656   0.045  0.00  0.00     0.062 A 
ATOM      2  C   UNL d   1      -1.973   0.780   0.023  0.00  0.00     0.086 A 
ATOM      3  C   UNL d   1      -2.467  -0.521   0.046  0.00  0.00     0.085 A 
ATOM      4  C   UNL d   1      -0.276  -0.712   0.087  0.00  0.00     0.132 A 
ATOM      5  O   UNL d   1      -1.439  -1.413   0.118  0.00  0.00    -0.309 OA
ATOM      6  C   UNL d   1       0.579   1.520   0.023  0.00  0.00     0.172 A 
ATOM      7  C   UNL d   1       1.006  -1.259   0.091  0.00  0.00     0.192 A 
ATOM      8  C   UNL d   1       1.874   0.992   0.026  0.00  0.00     0.197 A 
ATOM      9  C   UNL d   1       2.082  -0.378   0.055  0.00  0.00     0.199 A 
ATOM     10  F   UNL d   1       0.434   2.851  -0.001  0.00  0.00    -0.202 F 
ATOM     11  F   UNL d   1       1.204  -2.582   0.125  0.00  0.00    -0.200 F 
ATOM     12  F   UNL d   1       2.925   1.824   0.002  0.00  0.00    -0.199 F 
ATOM     13  F   UNL d   1       3.334  -0.859   0.053  0.00  0.00    -0.199 F 
ENDROOT
BRANCH   3  14
ATOM     14  C   UNL d   1      -3.830  -1.122   0.012  0.00  0.00     0.211 C 
BRANCH  14  15
ATOM     15  S   UNL d   1      -4.248  -1.499  -1.689  0.00  0.00     0.181 S 
ATOM     16  O   UNL d   1      -4.396  -0.263  -2.438  0.00  0.00    -0.222 OA
ATOM     17  O   UNL d   1      -3.370  -2.548  -2.179  0.00  0.00    -0.222 OA
BRANCH  15  18
ATOM     18  C   UNL d   1      -5.877  -2.225  -1.567  0.00  0.00     0.060 A 
ATOM     19  C   UNL d   1      -7.015  -1.415  -1.675  0.00  0.00     0.039 A 
ATOM     20  C   UNL d   1      -8.296  -1.997  -1.658  0.00  0.00     0.049 A 
ATOM     21  C   UNL d   1      -8.409  -3.393  -1.539  0.00  0.00     0.016 A 
ATOM     22  C   UNL d   1      -7.269  -4.195  -1.443  0.00  0.00     0.002 A 
ATOM     23  C   UNL d   1      -6.003  -3.615  -1.463  0.00  0.00     0.023 A 
BRANCH  20  24
ATOM     24  C   UNL d   1      -9.547  -1.161  -1.798  0.00  0.00     0.417 C 
ATOM     25  F   UNL d   1      -9.301   0.173  -1.908  0.00  0.00    -0.166 F 
ATOM     26  F   UNL d   1     -10.283  -1.500  -2.891  0.00  0.00    -0.166 F 
ATOM     27  F   UNL d   1     -10.379  -1.300  -0.729  0.00  0.00    -0.166 F 
ENDBRANCH  20  24
ENDBRANCH  15  18
ENDBRANCH  14  15
ENDBRANCH   3  14
BRANCH   2  28
ATOM     28  C   UNL d   1      -2.801   1.972  -0.067  0.00  0.00     0.296 C 
ATOM     29  O   UNL d   1      -4.024   1.934  -0.076  0.00  0.00    -0.259 OA
BRANCH  28  30
ATOM     30  O   UNL d   1      -2.060   3.100  -0.185  0.00  0.00    -0.318 OA
BRANCH  30  31
ATOM     31  C   UNL d   1      -2.721   4.266  -0.690  0.00  0.00     0.174 C 
ATOM     32  C   UNL d   1      -2.573   4.263  -2.200  0.00  0.00     0.034 C 
ENDBRANCH  30  31
ENDBRANCH  28  30
ENDBRANCH   2  28
TORSDOF 7
