REMARK  6 active torsions:
REMARK  status: ('A' for Active; 'I' for Inactive)
REMARK    1  A    between atoms: C_6  and  N_1 
REMARK    2  A    between atoms: C_9  and  C_4 
REMARK       I    between atoms: C_8  and  N_11 
REMARK       I    between atoms: N_12  and  C_8 
REMARK    3  A    between atoms: O_21  and  C_9 
REMARK    4  A    between atoms: N_11  and  C_10 
REMARK    5  A    between atoms: C_13  and  N_12 
REMARK    6  A    between atoms: C_30  and  O_21 
ROOT
ATOM      1  C   UNL d   1      -0.641  -2.389   0.072  0.00  0.00     0.154 C 
ATOM      2  C   UNL d   1      -0.279  -3.272   1.108  0.00  0.00     0.082 C 
ATOM      3  N   UNL d   1      -1.440  -2.784  -0.963  0.00  0.00    -0.349 N 
ATOM      4  HN  UNL d   1      -1.632  -2.155  -1.743  1.00  0.00     0.167 HD
ATOM      5  C   UNL d   1      -0.957  -4.496   1.161  0.00  0.00     0.035 C 
ATOM      6  C   UNL d   1      -1.969  -4.022  -0.933  0.00  0.00     0.090 C 
ATOM      7  C   UNL d   1      -1.796  -4.888   0.123  0.00  0.00     0.019 C 
ENDROOT
BRANCH   2   8
ATOM      8  N   UNL d   1       0.706  -2.940   2.074  0.00  0.00    -0.305 N 
ATOM      9  C   UNL d   1       1.809  -3.655   2.486  0.00  0.00     0.325 C 
ATOM     10  N   UNL d   1       1.888  -4.958   2.083  0.00  0.00    -0.308 N 
ATOM     11  O   UNL d   1       2.672  -3.085   3.152  0.00  0.00    -0.247 OA
ATOM     12  H   UNL d   1       1.026  -5.407   1.859  0.00  0.00     0.170 HD
ATOM     13  H   UNL d   1       0.906  -1.937   2.151  0.00  0.00     0.171 HD
BRANCH  10  14
ATOM     14  C   UNL d   1       2.959  -5.836   2.333  0.00  0.00     0.047 A 
ATOM     15  C   UNL d   1       2.662  -7.174   2.732  0.00  0.00     0.001 A 
ATOM     16  C   UNL d   1       3.711  -8.121   2.776  0.00  0.00    -0.024 A 
ATOM     17  C   UNL d   1       1.375  -7.597   3.144  0.00  0.00     0.014 A 
ATOM     18  C   UNL d   1       3.438  -9.445   3.159  0.00  0.00     0.012 A 
ATOM     19  C   UNL d   1       5.017  -7.717   2.454  0.00  0.00     0.012 A 
ATOM     20  C   UNL d   1       2.153  -9.835   3.539  0.00  0.00     0.001 A 
ATOM     21  C   UNL d   1       1.123  -8.908   3.548  0.00  0.00     0.001 A 
ATOM     22  C   UNL d   1       5.299  -6.392   2.119  0.00  0.00     0.003 A 
ATOM     23  C   UNL d   1       4.273  -5.450   2.067  0.00  0.00     0.030 A 
ENDBRANCH  10  14
ENDBRANCH   2   8
BRANCH   1  24
ATOM     24  N   UNL d   1      -0.202  -1.015   0.075  0.00  0.00    -0.241 N 
ATOM     25  N   UNL d   1       0.516  -0.517   1.122  0.00  0.00    -0.296 N 
ATOM     26  C   UNL d   1       0.754   0.760   0.824  0.00  0.00     0.041 A 
ATOM     27  HN  UNL d   1       0.811  -1.019   1.960  1.00  0.00     0.187 HD
ATOM     28  C   UNL d   1       1.560   1.581   1.768  0.00  0.00     0.071 C 
ATOM     29  C   UNL d   1       0.181   1.135  -0.419  0.00  0.00     0.087 A 
ATOM     30  C   UNL d   1      -0.456  -0.019  -0.868  0.00  0.00     0.050 A 
ATOM     31  C   UNL d   1      -1.257  -0.252  -2.105  0.00  0.00     0.071 C 
BRANCH  29  32
ATOM     32  C   UNL d   1       0.269   2.413  -1.113  0.00  0.00     0.297 C 
ATOM     33  O   UNL d   1      -0.134   2.602  -2.254  0.00  0.00    -0.259 OA
BRANCH  32  34
ATOM     34  O   UNL d   1       0.933   3.353  -0.382  0.00  0.00    -0.318 OA
BRANCH  34  35
ATOM     35  C   UNL d   1       1.444   4.467  -1.123  0.00  0.00     0.174 C 
ATOM     36  C   UNL d   1       2.804   4.080  -1.679  0.00  0.00     0.034 C 
ENDBRANCH  34  35
ENDBRANCH  32  34
ENDBRANCH  29  32
ENDBRANCH   1  24
TORSDOF 6
