REMARK  7 active torsions:
REMARK  status: ('A' for Active; 'I' for Inactive)
REMARK    1  A    between atoms: C_4  and  N_1 
REMARK    2  A    between atoms: N_5  and  C_2 
REMARK    3  A    between atoms: C_3  and  N_6 
REMARK    4  A    between atoms: N_14  and  C_3 
REMARK    5  A    between atoms: N_6  and  N_5 
REMARK    6  A    between atoms: C_17  and  N_14 
REMARK    7  A    between atoms: C_15  and  C_17 
ROOT
ATOM      1  C   UNL d   1      -0.312  -3.120   1.029  0.00  0.00     0.126 A 
ATOM      2  C   UNL d   1      -0.690  -2.380  -0.110  0.00  0.00     0.078 A 
ATOM      3  N   UNL d   1      -0.606  -4.446   1.135  0.00  0.00    -0.354 N 
ATOM      4  HN  UNL d   1      -0.289  -4.984   1.942  1.00  0.00     0.166 HD
ATOM      5  C   UNL d   1      -1.416  -3.044  -1.120  0.00  0.00     0.035 A 
ATOM      6  C   UNL d   1      -1.325  -5.039   0.155  0.00  0.00     0.089 A 
ATOM      7  C   UNL d   1      -1.751  -4.384  -0.979  0.00  0.00     0.019 A 
ENDROOT
BRANCH   1   8
ATOM      8  N   UNL d   1       0.399  -2.505   2.097  0.00  0.00    -0.186 NA
ATOM      9  H   UNL d   1       1.266  -2.112   1.740  0.00  0.00     0.154 HD
BRANCH   8  10
ATOM     10  N   UNL d   1       0.579  -3.312   3.232  0.00  0.00    -0.292 N 
ATOM     11  H   UNL d   1       1.458  -3.805   3.287  0.00  0.00     0.183 HD
BRANCH  10  12
ATOM     12  C   UNL d   1      -0.454  -3.567   4.108  0.00  0.00     0.182 C 
ATOM     13  S   UNL d   1      -1.886  -2.712   4.248  0.00  0.00    -0.040 SA
BRANCH  12  14
ATOM     14  N   UNL d   1      -0.269  -4.637   4.944  0.00  0.00    -0.363 N 
ATOM     15  H   UNL d   1      -1.035  -4.805   5.583  0.00  0.00     0.162 HD
BRANCH  14  16
ATOM     16  C   UNL d   1       0.780  -5.626   4.855  0.00  0.00     0.148 C 
BRANCH  16  17
ATOM     17  C   UNL d   1       0.324  -6.869   5.540  0.00  0.00    -0.018 C 
ATOM     18  C   UNL d   1       0.935  -7.418   6.600  0.00  0.00     0.008 C 
ENDBRANCH  16  17
ENDBRANCH  14  16
ENDBRANCH  12  14
ENDBRANCH  10  12
ENDBRANCH   8  10
ENDBRANCH   1   8
BRANCH   2  19
ATOM     19  N   UNL d   1      -0.411  -0.994  -0.279  0.00  0.00    -0.330 N 
ATOM     20  C   UNL d   1      -0.300  -0.344  -1.500  0.00  0.00     0.097 A 
ATOM     21  C   UNL d   1       0.001   0.986  -1.286  0.00  0.00     0.019 A 
ATOM     22  C   UNL d   1       0.064   1.178   0.106  0.00  0.00     0.019 A 
ATOM     23  C   UNL d   1      -0.201  -0.037   0.696  0.00  0.00     0.097 A 
ENDBRANCH   2  19
TORSDOF 7
