REMARK  9 active torsions:
REMARK  status: ('A' for Active; 'I' for Inactive)
REMARK    1  A    between atoms: C_2  and  S_1 
REMARK    2  A    between atoms: N_5  and  S_1 
REMARK    3  A    between atoms: N_4  and  C_3 
REMARK    4  A    between atoms: N_12  and  N_5 
REMARK    5  A    between atoms: O_28  and  C_9 
REMARK       I    between atoms: C_13  and  N_12 
REMARK    6  A    between atoms: C_24  and  C_13 
REMARK    7  A    between atoms: C_14  and  S_21 
REMARK    8  A    between atoms: O_29  and  C_16 
REMARK    9  A    between atoms: S_21  and  C_24 
ROOT
ATOM      1  N   UNL d   1       0.478  -4.426   1.424  0.00  0.00    -0.260 N 
ATOM      2  C   UNL d   1       0.489  -4.040   0.101  0.00  0.00     0.246 C 
ATOM      3  O   UNL d   1       0.185  -2.887  -0.226  0.00  0.00    -0.271 OA
ATOM      4  H   UNL d   1       0.700  -5.375   1.729  0.00  0.00     0.190 HD
ENDROOT
BRANCH   2   5
ATOM      5  C   UNL d   1       0.993  -5.036  -0.929  0.00  0.00     0.184 C 
BRANCH   5   6
ATOM      6  S   UNL d   1       0.658  -6.785  -0.574  0.00  0.00    -0.118 SA
BRANCH   6   7
ATOM      7  C   UNL d   1      -1.131  -6.787  -0.433  0.00  0.00     0.037 A 
ATOM      8  C   UNL d   1      -1.938  -6.504  -1.547  0.00  0.00     0.060 A 
ATOM      9  C   UNL d   1      -3.341  -6.494  -1.459  0.00  0.00     0.102 A 
ATOM     10  C   UNL d   1      -3.912  -6.807  -0.225  0.00  0.00     0.138 A 
ATOM     11  C   UNL d   1      -3.127  -7.119   0.897  0.00  0.00     0.077 A 
ATOM     12  C   UNL d   1      -1.736  -7.106   0.796  0.00  0.00     0.087 A 
BRANCH   9  13
ATOM     13  O   UNL d   1      -3.945  -6.222  -2.652  0.00  0.00    -0.353 OA
ATOM     14  C   UNL d   1      -5.201  -5.554  -2.654  0.00  0.00     0.210 C 
ENDBRANCH   9  13
BRANCH  10  15
ATOM     15  N   UNL d   1      -5.339  -6.883  -0.018  0.00  0.00    -0.113 N 
ATOM     16  O   UNL d   1      -5.842  -6.019   0.707  0.00  0.00    -0.532 OA
ATOM     17  O   UNL d   1      -5.940  -7.828  -0.549  0.00  0.00    -0.532 OA
ENDBRANCH  10  15
BRANCH  12  18
ATOM     18  O   UNL d   1      -0.897  -7.415   1.835  0.00  0.00    -0.355 OA
ATOM     19  C   UNL d   1      -1.442  -7.295   3.143  0.00  0.00     0.210 C 
ENDBRANCH  12  18
ENDBRANCH   6   7
ENDBRANCH   5   6
ENDBRANCH   2   5
BRANCH   1  20
ATOM     20  N   UNL d   1       0.076  -3.429   2.417  0.00  0.00    -0.220 N 
ATOM     21  H   UNL d   1      -0.072  -2.471   2.077  0.00  0.00     0.200 HD
BRANCH  20  22
ATOM     22  S   UNL d   1       0.221  -3.751   4.059  0.00  0.00     0.278 S 
ATOM     23  O   UNL d   1      -0.731  -4.788   4.385  0.00  0.00    -0.199 OA
ATOM     24  O   UNL d   1       1.621  -3.948   4.374  0.00  0.00    -0.199 OA
BRANCH  22  25
ATOM     25  C   UNL d   1      -0.351  -2.283   4.871  0.00  0.00     0.104 A 
ATOM     26  C   UNL d   1      -1.599  -2.346   5.520  0.00  0.00     0.052 A 
ATOM     27  C   UNL d   1      -2.021  -1.300   6.350  0.00  0.00     0.057 A 
ATOM     28 CL   UNL d   1      -3.549  -1.465   7.133  0.00  0.00    -0.083 Cl
ATOM     29  C   UNL d   1      -1.194  -0.192   6.531  0.00  0.00     0.057 A 
ATOM     30  C   UNL d   1       0.030  -0.114   5.854  0.00  0.00     0.051 A 
ATOM     31 CL   UNL d   1      -1.616   1.111   7.583  0.00  0.00    -0.082 Cl
ATOM     32  C   UNL d   1       0.451  -1.153   5.014  0.00  0.00     0.059 A 
ATOM     33 CL   UNL d   1       1.936  -0.919   4.173  0.00  0.00    -0.083 Cl
ENDBRANCH  22  25
ENDBRANCH  20  22
ENDBRANCH   1  20
TORSDOF 9
