REMARK  3 active torsions:
REMARK  status: ('A' for Active; 'I' for Inactive)
REMARK    1  A    between atoms: N_3  and  C_8 
REMARK    2  A    between atoms: C_9  and  C_4 
REMARK    3  A    between atoms: N_13  and  C_5 
ROOT
ATOM      1  N   UNL d   1       0.178  -1.311   0.517  0.00  0.00    -0.336 N 
ATOM      2  HN  UNL d   1       0.611  -2.124   0.957  1.00  0.00     0.168 HD
ATOM      3  C   UNL d   1      -1.103  -1.285  -0.013  0.00  0.00     0.051 A 
ATOM      4  C   UNL d   1       0.752  -0.143   0.372  0.00  0.00     0.142 A 
ATOM      5  S   UNL d   1      -0.226   1.077  -0.336  0.00  0.00    -0.064 SA
ATOM      6  C   UNL d   1      -1.500  -0.057  -0.503  0.00  0.00     0.083 A 
ENDROOT
BRANCH   3   7
ATOM      7  C   UNL d   1      -1.937  -2.481  -0.022  0.00  0.00    -0.006 A 
ATOM      8  C   UNL d   1      -1.792  -3.435   0.996  0.00  0.00     0.049 A 
ATOM      9  C   UNL d   1      -2.579  -4.595   0.982  0.00  0.00     0.103 A 
ATOM     10  C   UNL d   1      -3.506  -4.819  -0.045  0.00  0.00     0.036 A 
ATOM     11  C   UNL d   1      -3.643  -3.876  -1.062  0.00  0.00     0.003 A 
ATOM     12  C   UNL d   1      -2.864  -2.716  -1.050  0.00  0.00     0.014 A 
BRANCH   9  13
ATOM     13  N   UNL d   1      -2.434  -5.588   2.053  0.00  0.00    -0.116 N 
ATOM     14  O   UNL d   1      -1.625  -5.347   2.961  0.00  0.00    -0.532 OA
ATOM     15  O   UNL d   1      -3.134  -6.609   1.991  0.00  0.00    -0.532 OA
ENDBRANCH   9  13
ENDBRANCH   3   7
BRANCH   4  16
ATOM     16  N   UNL d   1       2.013   0.109   0.753  0.00  0.00    -0.380 N 
ATOM     17  H   UNL d   1       2.433  -0.561   1.387  0.00  0.00     0.158 HD
ATOM     18  H   UNL d   1       2.293   1.071   0.900  0.00  0.00     0.158 HD
ENDBRANCH   4  16
TORSDOF 3
