REMARK  3 active torsions:
REMARK  status: ('A' for Active; 'I' for Inactive)
REMARK       I    between atoms: C_9  and  N_1 
REMARK    1  A    between atoms: C_2  and  S_14 
REMARK    2  A    between atoms: C_15  and  C_9 
REMARK    3  A    between atoms: S_14  and  C_15 
ROOT
ATOM      1  N   UNL d   1      -0.086  -1.373   0.888  0.00  0.00    -0.279 N 
ATOM      2  S   UNL d   1      -0.061   1.697   0.421  0.00  0.00    -0.086 SA
ATOM      3  C   UNL d   1       1.162  -0.801   0.422  0.00  0.00     0.059 A 
ATOM      4  C   UNL d   1      -1.270  -0.808   0.289  0.00  0.00     0.059 A 
ATOM      5  C   UNL d   1      -0.085  -2.421   1.846  0.00  0.00     0.238 C 
ATOM      6  C   UNL d   1       1.281   0.568   0.114  0.00  0.00     0.033 A 
ATOM      7  C   UNL d   1      -1.388   0.576   0.054  0.00  0.00     0.033 A 
ATOM      8  O   UNL d   1       0.960  -2.923   2.281  0.00  0.00    -0.272 OA
ATOM      9  C   UNL d   1       2.284  -1.617   0.195  0.00  0.00     0.031 A 
ATOM     10  C   UNL d   1      -2.307  -1.635  -0.164  0.00  0.00     0.031 A 
ATOM     11  C   UNL d   1      -2.562   1.107  -0.502  0.00  0.00     0.021 A 
ATOM     12  C   UNL d   1       2.477   1.090  -0.405  0.00  0.00     0.021 A 
ATOM     13  C   UNL d   1      -3.471  -1.106  -0.727  0.00  0.00     0.002 A 
ATOM     14  C   UNL d   1       3.472  -1.097  -0.336  0.00  0.00     0.002 A 
ATOM     15  C   UNL d   1       3.567   0.255  -0.637  0.00  0.00     0.002 A 
ATOM     16  C   UNL d   1      -3.607   0.268  -0.877  0.00  0.00     0.002 A 
ENDROOT
BRANCH   5  17
ATOM     17  C   UNL d   1      -1.441  -2.879   2.411  0.00  0.00     0.186 C 
BRANCH  17  18
ATOM     18  S   UNL d   1      -1.270  -3.816   3.971  0.00  0.00    -0.085 SA
BRANCH  18  19
ATOM     19  C   UNL d   1      -2.831  -4.539   4.095  0.00  0.00     0.145 A 
ATOM     20  N   UNL d   1      -3.943  -4.175   3.502  0.00  0.00    -0.335 N 
ATOM     21  C   UNL d   1      -4.868  -5.127   3.880  0.00  0.00     0.061 A 
ATOM     22  HN  UNL d   1      -4.092  -3.368   2.895  1.00  0.00     0.168 HD
ATOM     23  C   UNL d   1      -6.223  -5.258   3.535  0.00  0.00     0.032 A 
ATOM     24  C   UNL d   1      -4.290  -6.084   4.713  0.00  0.00     0.061 A 
ATOM     25  C   UNL d   1      -6.935  -6.371   4.003  0.00  0.00     0.002 A 
ATOM     26  C   UNL d   1      -6.319  -7.326   4.815  0.00  0.00     0.002 A 
ATOM     27  C   UNL d   1      -4.982  -7.195   5.205  0.00  0.00     0.032 A 
ATOM     28  N   UNL d   1      -2.999  -5.650   4.870  0.00  0.00    -0.335 N 
ATOM     29  H   UNL d   1      -2.274  -6.092   5.417  0.00  0.00     0.168 HD
ENDBRANCH  18  19
ENDBRANCH  17  18
ENDBRANCH   5  17
TORSDOF 3
