REMARK  6 active torsions:
REMARK  status: ('A' for Active; 'I' for Inactive)
REMARK    1  A    between atoms: C_4  and  C_1 
REMARK    2  A    between atoms: O_7  and  C_1 
REMARK    3  A    between atoms: C_2  and  C_4 
REMARK    4  A    between atoms: C_3  and  C_8 
REMARK    5  A    between atoms: C_5  and  C_3 
REMARK    6  A    between atoms: C_8  and  O_7 
ROOT
ATOM      1  O   UNL d   1       0.406   0.441  -1.135  0.00  0.00    -0.313 OA
ENDROOT
BRANCH   1   2
ATOM      2  C   UNL d   1       1.014   0.093   0.031  0.00  0.00     0.263 C 
ATOM      3  O   UNL d   1       0.442  -0.377   1.008  0.00  0.00    -0.265 OA
BRANCH   2   4
ATOM      4  C   UNL d   1       2.508   0.293  -0.065  0.00  0.00     0.151 C 
BRANCH   4   5
ATOM      5  C   UNL d   1       3.225  -0.955  -0.524  0.00  0.00    -0.032 A 
ATOM      6  C   UNL d   1       3.521  -1.232  -1.869  0.00  0.00     0.017 A 
ATOM      7 BR   UNL d   1       3.106  -0.028  -3.279  0.00  0.00    -0.051 Br
ATOM      8  C   UNL d   1       4.148  -2.431  -2.228  0.00  0.00     0.019 A 
ATOM      9  C   UNL d   1       4.484  -3.370  -1.254  0.00  0.00     0.001 A 
ATOM     10  C   UNL d   1       4.195  -3.112   0.082  0.00  0.00     0.001 A 
ATOM     11  C   UNL d   1       3.569  -1.918   0.443  0.00  0.00     0.009 A 
ENDBRANCH   4   5
ENDBRANCH   2   4
ENDBRANCH   1   2
BRANCH   1  12
ATOM     12  C   UNL d   1      -1.011   0.267  -1.155  0.00  0.00     0.262 C 
BRANCH  12  13
ATOM     13  C   UNL d   1      -1.759   1.458  -0.562  0.00  0.00     0.183 C 
ATOM     14  O   UNL d   1      -1.176   2.446  -0.116  0.00  0.00    -0.290 OA
BRANCH  13  15
ATOM     15  C   UNL d   1      -3.255   1.423  -0.553  0.00  0.00     0.012 A 
ATOM     16  C   UNL d   1      -3.986   0.360  -1.104  0.00  0.00     0.016 A 
ATOM     17  C   UNL d   1      -5.385   0.378  -1.079  0.00  0.00     0.020 A 
ATOM     18  C   UNL d   1      -6.058   1.455  -0.504  0.00  0.00     0.011 A 
ATOM     19  C   UNL d   1      -5.345   2.518   0.044  0.00  0.00     0.020 A 
ATOM     20 BR   UNL d   1      -7.947   1.471  -0.471  0.00  0.00    -0.051 Br
ATOM     21  C   UNL d   1      -3.947   2.502   0.018  0.00  0.00     0.016 A 
ENDBRANCH  13  15
ENDBRANCH  12  13
ENDBRANCH   1  12
TORSDOF 6
