REMARK  3 active torsions:
REMARK  status: ('A' for Active; 'I' for Inactive)
REMARK    1  A    between atoms: N_6  and  C_2 
REMARK    2  A    between atoms: C_14  and  C_5 
REMARK    3  A    between atoms: N_13  and  C_10 
ROOT
ATOM      1  C   UNL d   1       2.498   0.661   0.178  0.00  0.00     0.100 A 
ATOM      2  C   UNL d   1       2.448  -0.738   0.122  0.00  0.00     0.128 A 
ATOM      3  N   UNL d   1       1.290  -1.424   0.035  0.00  0.00    -0.344 N 
ATOM      4  HN  UNL d   1       1.287  -2.443   0.002  1.00  0.00     0.167 HD
ATOM      5  C   UNL d   1       1.304   1.431   0.118  0.00  0.00     0.007 A 
ATOM      6  C   UNL d   1       0.083   0.687  -0.002  0.00  0.00    -0.023 A 
ATOM      7  C   UNL d   1       0.134  -0.722  -0.008  0.00  0.00     0.018 A 
ATOM      8  C   UNL d   1       3.808   1.237   0.320  0.00  0.00     0.104 C 
ATOM      9  N   UNL d   1       4.875   1.717   0.405  0.00  0.00    -0.191 NA
ATOM     10  C   UNL d   1      -1.282   1.352  -0.040  0.00  0.00     0.041 C 
ATOM     11  C   UNL d   1      -1.119  -1.568  -0.092  0.00  0.00     0.057 C 
ATOM     12  C   UNL d   1      -2.457   0.481  -0.461  0.00  0.00     0.005 C 
ATOM     13  C   UNL d   1      -2.391  -0.827   0.304  0.00  0.00     0.006 C 
ENDROOT
BRANCH   2  14
ATOM     14  N   UNL d   1       3.645  -1.468   0.206  0.00  0.00    -0.337 N 
ATOM     15  C   UNL d   1       3.657  -2.757   0.216  0.00  0.00     0.179 C 
ATOM     16  HN  UNL d   1       4.531  -0.964   0.261  1.00  0.00     0.168 HD
BRANCH  15  17
ATOM     17  N   UNL d   1       4.793  -3.530   0.325  0.00  0.00    -0.377 N 
ATOM     18  C   UNL d   1       6.115  -2.929   0.522  0.00  0.00     0.123 C 
ATOM     19  C   UNL d   1       7.136  -3.630  -0.376  0.00  0.00     0.020 C 
ATOM     20  C   UNL d   1       7.112  -5.147  -0.194  0.00  0.00     0.003 C 
ATOM     21  C   UNL d   1       5.692  -5.699  -0.315  0.00  0.00     0.020 C 
ATOM     22  C   UNL d   1       4.727  -4.959   0.608  0.00  0.00     0.123 C 
ENDBRANCH  15  17
ENDBRANCH   2  14
BRANCH   5  23
ATOM     23  C   UNL d   1       1.321   2.944   0.188  0.00  0.00    -0.024 A 
ATOM     24  C   UNL d   1       2.322   3.726  -0.414  0.00  0.00     0.012 A 
ATOM     25  C   UNL d   1       2.331   5.127  -0.335  0.00  0.00     0.001 A 
ATOM     26  C   UNL d   1       1.274   5.798   0.268  0.00  0.00     0.000 A 
ATOM     27  C   UNL d   1       0.261   5.073   0.853  0.00  0.00     0.001 A 
ATOM     28  C   UNL d   1       0.325   3.674   0.870  0.00  0.00     0.012 A 
ENDBRANCH   5  23
TORSDOF 3
