REMARK  6 active torsions:
REMARK  status: ('A' for Active; 'I' for Inactive)
REMARK    1  A    between atoms: N_2  and  C_1 
REMARK    2  A    between atoms: N_3  and  C_1 
REMARK    3  A    between atoms: C_4  and  N_3 
REMARK    4  A    between atoms: N_7  and  C_11 
REMARK    5  A    between atoms: C_10  and  C_8 
REMARK    6  A    between atoms: C_11  and  C_10 
ROOT
ATOM      1  N   UNL d   1       0.057  -0.886   0.798  0.00  0.00    -0.353 N 
ATOM      2  C   UNL d   1      -0.759  -1.817  -0.029  0.00  0.00     0.088 C 
ATOM      3  C   UNL d   1       0.535  -1.539   2.028  0.00  0.00     0.125 C 
ATOM      4  C   UNL d   1      -2.035  -2.152   0.768  0.00  0.00     0.025 C 
ATOM      5  C   UNL d   1      -0.628  -2.009   2.901  0.00  0.00     0.020 C 
ATOM      6  C   UNL d   1      -1.706  -2.768   2.131  0.00  0.00     0.004 C 
ENDROOT
BRANCH   1   7
ATOM      7  C   UNL d   1       0.745   0.214   0.297  0.00  0.00     0.174 C 
ATOM      8  S   UNL d   1       2.424   0.374   0.333  0.00  0.00    -0.041 SA
BRANCH   7   9
ATOM      9  N   UNL d   1       0.046   1.183  -0.366  0.00  0.00    -0.332 N 
ATOM     10  H   UNL d   1       0.585   1.665  -1.076  0.00  0.00     0.168 HD
BRANCH   9  11
ATOM     11  C   UNL d   1      -1.303   1.582  -0.213  0.00  0.00     0.057 C 
ATOM     12  C   UNL d   1      -1.957   2.041  -1.368  0.00  0.00     0.055 C 
ATOM     13  C   UNL d   1      -3.335   2.265  -1.350  0.00  0.00     0.036 C 
ATOM     14 CL   UNL d   1      -4.138   2.766  -2.786  0.00  0.00    -0.084 Cl
ATOM     15  C   UNL d   1      -4.069   2.067  -0.185  0.00  0.00     0.026 C 
ATOM     16  C   UNL d   1      -3.406   1.736   0.995  0.00  0.00     0.028 C 
ATOM     17  C   UNL d   1      -2.021   1.540   0.993  0.00  0.00     0.060 C 
ATOM     18 CL   UNL d   1      -1.244   1.488   2.535  0.00  0.00    -0.082 Cl
ENDBRANCH   9  11
ENDBRANCH   7   9
ENDBRANCH   1   7
BRANCH   2  19
ATOM     19  C   UNL d   1      -1.109  -1.482  -1.497  0.00  0.00     0.055 C 
BRANCH  19  20
ATOM     20  C   UNL d   1       0.105  -1.429  -2.441  0.00  0.00     0.274 C 
BRANCH  20  21
ATOM     21  N   UNL d   1      -0.229  -0.915  -3.782  0.00  0.00     0.092 N 
ATOM     22  C   UNL d   1      -1.069  -1.834  -4.581  0.00  0.00     0.298 C 
ATOM     23  C   UNL d   1      -0.324  -3.071  -5.114  0.00  0.00     0.198 C 
ATOM     24  O   UNL d   1       0.837  -2.703  -5.868  0.00  0.00    -0.388 OA
ATOM     25  C   UNL d   1       1.718  -1.892  -5.080  0.00  0.00     0.198 C 
ATOM     26  C   UNL d   1       1.001  -0.632  -4.564  0.00  0.00     0.298 C 
ENDBRANCH  20  21
ENDBRANCH  19  20
ENDBRANCH   2  19
TORSDOF 6
