REMARK  7 active torsions:
REMARK  status: ('A' for Active; 'I' for Inactive)
REMARK    1  A    between atoms: C_2  and  N_1 
REMARK       I    between atoms: C_3  and  N_1 
REMARK    2  A    between atoms: N_11  and  C_2 
REMARK    3  A    between atoms: C_4  and  C_3 
REMARK    4  A    between atoms: O_21  and  C_5 
REMARK    5  A    between atoms: O_23  and  C_6 
REMARK    6  A    between atoms: O_24  and  C_7 
REMARK    7  A    between atoms: C_17  and  N_11 
ROOT
ATOM      1  N   UNL d   1       1.382  -0.354   0.338  0.00  0.00    -0.299 N 
ATOM      2  C   UNL d   1       2.460  -0.100  -0.493  0.00  0.00     0.258 C 
ATOM      3  O   UNL d   1       3.031  -0.975  -1.125  0.00  0.00    -0.267 OA
ATOM      4  H   UNL d   1       1.060   0.372   0.968  0.00  0.00     0.171 HD
ENDROOT
BRANCH   1   5
ATOM      5  C   UNL d   1       0.589  -1.478   0.282  0.00  0.00     0.179 C 
ATOM      6  S   UNL d   1       0.323  -2.444  -1.066  0.00  0.00    -0.040 SA
BRANCH   5   7
ATOM      7  N   UNL d   1      -0.138  -1.813   1.384  0.00  0.00    -0.333 N 
ATOM      8  H   UNL d   1      -0.818  -2.538   1.168  0.00  0.00     0.168 HD
BRANCH   7   9
ATOM      9  C   UNL d   1      -0.307  -1.152   2.611  0.00  0.00     0.037 C 
ATOM     10  C   UNL d   1      -1.597  -1.215   3.141  0.00  0.00     0.069 C 
ATOM     11  C   UNL d   1      -1.898  -0.362   4.171  0.00  0.00     0.107 C 
ATOM     12  O   UNL d   1      -3.138  -0.166   4.689  0.00  0.00    -0.323 OA
ATOM     13  C   UNL d   1      -0.949   0.456   4.740  0.00  0.00     0.105 C 
ATOM     14  C   UNL d   1      -2.885   0.947   5.567  0.00  0.00     0.352 C 
ATOM     15  O   UNL d   1      -1.481   1.273   5.686  0.00  0.00    -0.323 OA
ATOM     16  C   UNL d   1       0.368   0.423   4.336  0.00  0.00     0.042 C 
ATOM     17  C   UNL d   1       0.692  -0.395   3.250  0.00  0.00     0.032 C 
ENDBRANCH   7   9
ENDBRANCH   5   7
ENDBRANCH   1   5
BRANCH   2  18
ATOM     18  C   UNL d   1       3.057   1.274  -0.520  0.00  0.00     0.037 A 
ATOM     19  C   UNL d   1       2.565   2.412   0.134  0.00  0.00     0.057 A 
ATOM     20  C   UNL d   1       3.279   3.625   0.062  0.00  0.00     0.105 A 
ATOM     21  C   UNL d   1       4.469   3.699  -0.698  0.00  0.00     0.135 A 
ATOM     22  C   UNL d   1       4.953   2.562  -1.367  0.00  0.00     0.105 A 
ATOM     23  C   UNL d   1       4.239   1.373  -1.270  0.00  0.00     0.057 A 
BRANCH  20  24
ATOM     24  O   UNL d   1       2.902   4.768   0.717  0.00  0.00    -0.353 OA
ATOM     25  C   UNL d   1       1.754   4.747   1.550  0.00  0.00     0.210 C 
ENDBRANCH  20  24
BRANCH  21  26
ATOM     26  O   UNL d   1       5.277   4.812  -0.761  0.00  0.00    -0.351 OA
ATOM     27  C   UNL d   1       4.611   6.037  -1.043  0.00  0.00     0.210 C 
ENDBRANCH  21  26
BRANCH  22  28
ATOM     28  O   UNL d   1       6.128   2.682  -2.062  0.00  0.00    -0.353 OA
ATOM     29  C   UNL d   1       6.467   1.616  -2.949  0.00  0.00     0.210 C 
ENDBRANCH  22  28
ENDBRANCH   2  18
TORSDOF 7
