REMARK  8 active torsions:
REMARK  status: ('A' for Active; 'I' for Inactive)
REMARK    1  A    between atoms: O_5  and  C_1 
REMARK       I    between atoms: C_2  and  N_3 
REMARK    2  A    between atoms: C_17  and  C_2 
REMARK    3  A    between atoms: N_3  and  C_8 
REMARK    4  A    between atoms: C_4  and  C_18 
REMARK    5  A    between atoms: O_12  and  C_4 
REMARK    6  A    between atoms: C_9  and  O_5 
REMARK    7  A    between atoms: C_19  and  C_17 
REMARK    8  A    between atoms: C_18  and  C_19 
ROOT
ATOM      1  C   UNL d   1       3.664  -4.840   4.360  0.00  0.00     0.222 C 
ATOM      2  N   UNL d   1       2.419  -4.246   4.447  0.00  0.00    -0.327 N 
ATOM      3  O   UNL d   1       4.569  -4.541   3.582  0.00  0.00    -0.273 OA
ATOM      4  H   UNL d   1       1.794  -4.580   5.175  0.00  0.00     0.169 HD
ENDROOT
BRANCH   2   5
ATOM      5  C   UNL d   1       1.936  -3.182   3.654  0.00  0.00     0.034 A 
ATOM      6  C   UNL d   1       2.702  -2.536   2.684  0.00  0.00     0.032 A 
ATOM      7  C   UNL d   1       2.179  -1.475   1.938  0.00  0.00     0.039 A 
ATOM      8  C   UNL d   1       0.877  -1.036   2.157  0.00  0.00     0.075 A 
ATOM      9  C   UNL d   1       0.092  -1.696   3.103  0.00  0.00     0.039 A 
ATOM     10  C   UNL d   1       0.619  -2.756   3.856  0.00  0.00     0.032 A 
BRANCH   8  11
ATOM     11  O   UNL d   1       0.272  -0.000   1.503  0.00  0.00    -0.290 OA
BRANCH  11  12
ATOM     12  C   UNL d   1       1.149   0.927   0.884  0.00  0.00     0.505 C 
ATOM     13  F   UNL d   1       1.599   0.403  -0.284  0.00  0.00    -0.184 F 
ATOM     14  F   UNL d   1       0.422   2.026   0.560  0.00  0.00    -0.184 F 
ENDBRANCH  11  12
ENDBRANCH   8  11
ENDBRANCH   2   5
BRANCH   1  15
ATOM     15  C   UNL d   1       3.888  -5.948   5.370  0.00  0.00     0.103 C 
BRANCH  15  16
ATOM     16  C   UNL d   1       5.055  -5.605   6.301  0.00  0.00     0.019 C 
BRANCH  16  17
ATOM     17  C   UNL d   1       4.795  -4.392   7.191  0.00  0.00     0.110 C 
BRANCH  17  18
ATOM     18  C   UNL d   1       3.640  -4.642   8.124  0.00  0.00     0.139 C 
ATOM     19  O   UNL d   1       2.473  -4.436   7.822  0.00  0.00    -0.650 OA
BRANCH  18  20
ATOM     20  O   UNL d   1       4.005  -5.197   9.299  0.00  0.00    -0.776 OA
ATOM     21  H   UNL d   1       4.967  -5.336   9.396  0.00  0.00     0.167 HD
ENDBRANCH  18  20
ENDBRANCH  17  18
ENDBRANCH  16  17
ENDBRANCH  15  16
ENDBRANCH   1  15
TORSDOF 8
