REMARK  6 active torsions:
REMARK  status: ('A' for Active; 'I' for Inactive)
REMARK    1  A    between atoms: C_13  and  C_5 
REMARK    2  A    between atoms: N_12  and  C_6 
REMARK    3  A    between atoms: C_14  and  N_12 
REMARK    4  A    between atoms: O_19  and  C_13 
REMARK    5  A    between atoms: O_24  and  C_15 
REMARK    6  A    between atoms: C_25  and  O_19 
ROOT
ATOM      1  C   UNL d   1       1.595  -0.814  -0.271  0.00  0.00     0.147 A 
ATOM      2  N   UNL d   1       0.951  -2.004  -0.299  0.00  0.00    -0.325 N 
ATOM      3  HN  UNL d   1       1.484  -2.868  -0.396  1.00  0.00     0.169 HD
ATOM      4  N   UNL d   1       0.922   0.386  -0.265  0.00  0.00    -0.238 N 
ATOM      5  C   UNL d   1       2.933  -0.500  -0.135  0.00  0.00     0.102 A 
ATOM      6  C   UNL d   1      -0.354  -2.053  -0.201  0.00  0.00     0.120 A 
ATOM      7  N   UNL d   1       1.743   1.461  -0.225  0.00  0.00    -0.302 N 
ATOM      8  HN  UNL d   1       1.495   2.449  -0.267  1.00  0.00     0.186 HD
ATOM      9  C   UNL d   1      -1.157  -0.777  -0.108  0.00  0.00     0.037 A 
ATOM     10  C   UNL d   1      -0.477   0.450  -0.183  0.00  0.00     0.072 A 
ATOM     11  C   UNL d   1       2.958   0.912  -0.118  0.00  0.00     0.129 A 
ATOM     12  C   UNL d   1      -2.537  -0.771   0.112  0.00  0.00     0.017 A 
ATOM     13  C   UNL d   1      -1.149   1.670  -0.098  0.00  0.00     0.032 A 
ATOM     14  C   UNL d   1      -3.216   0.449   0.214  0.00  0.00     0.001 A 
ATOM     15  C   UNL d   1      -2.530   1.662   0.095  0.00  0.00     0.002 A 
ENDROOT
BRANCH   6  16
ATOM     16  N   UNL d   1      -1.009  -3.280  -0.168  0.00  0.00    -0.339 N 
ATOM     17  H   UNL d   1      -1.766  -3.409  -0.834  0.00  0.00     0.167 HD
BRANCH  16  18
ATOM     18  C   UNL d   1      -0.315  -4.507   0.052  0.00  0.00     0.068 A 
ATOM     19  C   UNL d   1      -0.676  -5.687  -0.624  0.00  0.00     0.095 A 
ATOM     20  C   UNL d   1       0.100  -6.843  -0.456  0.00  0.00     0.039 A 
ATOM     21  C   UNL d   1       1.219  -6.840   0.385  0.00  0.00     0.009 A 
ATOM     22  C   UNL d   1       1.558  -5.693   1.098  0.00  0.00    -0.060 A 
ATOM     23  C   UNL d   1       0.766  -4.554   0.952  0.00  0.00     0.039 A 
ATOM     24  C   UNL d   1       2.792  -5.644   1.946  0.00  0.00     0.048 C 
BRANCH  19  25
ATOM     25  O   UNL d   1      -1.768  -5.602  -1.461  0.00  0.00    -0.354 OA
ATOM     26  C   UNL d   1      -2.324  -6.845  -1.883  0.00  0.00     0.210 C 
ENDBRANCH  19  25
ENDBRANCH  16  18
ENDBRANCH   6  16
BRANCH   5  27
ATOM     27  C   UNL d   1       4.012  -1.448   0.044  0.00  0.00     0.298 C 
ATOM     28  O   UNL d   1       3.961  -2.632  -0.260  0.00  0.00    -0.259 OA
BRANCH  27  29
ATOM     29  O   UNL d   1       5.074  -0.880   0.693  0.00  0.00    -0.318 OA
BRANCH  29  30
ATOM     30  C   UNL d   1       6.011  -1.820   1.241  0.00  0.00     0.174 C 
ATOM     31  C   UNL d   1       5.500  -2.310   2.586  0.00  0.00     0.034 C 
ENDBRANCH  29  30
ENDBRANCH  27  29
ENDBRANCH   5  27
TORSDOF 6
