REMARK  2 active torsions:
REMARK  status: ('A' for Active; 'I' for Inactive)
REMARK    1  A    between atoms: N_4  and  C_9 
REMARK    2  A    between atoms: C_15  and  C_6 
ROOT
ATOM      1  C   UNL d   1      -0.220   0.490  -0.177  0.00  0.00     0.060 A 
ATOM      2  N   UNL d   1       2.084  -0.200  -0.440  0.00  0.00    -0.335 N 
ATOM      3  C   UNL d   1       1.202   0.832  -0.352  0.00  0.00     0.255 C 
ATOM      4  N   UNL d   1       0.427  -1.835   0.005  0.00  0.00    -0.367 N 
ATOM      5  C   UNL d   1       1.782  -1.610  -0.465  0.00  0.00     0.189 C 
ATOM      6  C   UNL d   1      -0.549  -0.860  -0.053  0.00  0.00     0.045 A 
ATOM      7  C   UNL d   1      -1.187   1.500  -0.143  0.00  0.00     0.055 A 
ATOM      8  C   UNL d   1      -2.526   1.137  -0.014  0.00  0.00     0.104 A 
ATOM      9  O   UNL d   1       1.575   1.992  -0.427  0.00  0.00    -0.268 OA
ATOM     10  C   UNL d   1      -1.902  -1.197   0.079  0.00  0.00     0.032 A 
ATOM     11  C   UNL d   1      -2.894  -0.209   0.088  0.00  0.00     0.038 A 
ATOM     12  H   UNL d   1       3.002   0.103  -0.727  0.00  0.00     0.164 HD
ATOM     13  H   UNL d   1       0.115  -2.794   0.071  0.00  0.00     0.161 HD
ENDROOT
BRANCH   5  14
ATOM     14  C   UNL d   1       2.768  -2.386   0.458  0.00  0.00     0.032 C 
ATOM     15  C   UNL d   1       2.592  -3.918   0.360  0.00  0.00     0.035 C 
ATOM     16  C   UNL d   1       3.218  -4.505  -0.872  0.00  0.00    -0.030 C 
ATOM     17  C   UNL d   1       4.158  -3.866  -1.584  0.00  0.00    -0.031 C 
ATOM     18  C   UNL d   1       4.710  -2.523  -1.201  0.00  0.00     0.027 C 
ATOM     19  C   UNL d   1       4.254  -2.066   0.188  0.00  0.00     0.012 C 
ENDBRANCH   5  14
BRANCH   8  20
ATOM     20  N   UNL d   1      -3.565   2.178   0.004  0.00  0.00    -0.116 N 
ATOM     21  O   UNL d   1      -3.201   3.359  -0.087  0.00  0.00    -0.532 OA
ATOM     22  O   UNL d   1      -4.744   1.811   0.103  0.00  0.00    -0.532 OA
ENDBRANCH   8  20
TORSDOF 2
