REMARK  3 active torsions:
REMARK  status: ('A' for Active; 'I' for Inactive)
REMARK    1  A    between atoms: C_8  and  N_1 
REMARK    2  A    between atoms: C_10  and  C_2 
REMARK    3  A    between atoms: C_9  and  C_7 
ROOT
ATOM      1  N   UNL d   1      -0.136  -1.295  -0.074  0.00  0.00    -0.223 N 
ATOM      2  C   UNL d   1       1.093  -0.634  -0.092  0.00  0.00     0.149 A 
ATOM      3  N   UNL d   1      -1.119  -0.368  -0.043  0.00  0.00     0.001 NA
ATOM      4  N   UNL d   1      -0.516   0.806  -0.008  0.00  0.00    -0.007 NA
ATOM      5  N   UNL d   1       0.842   0.664  -0.021  0.00  0.00    -0.269 N 
ATOM      6  HN  UNL d   1       1.532   1.415   0.016  1.00  0.00     0.185 HD
ENDROOT
BRANCH   1   7
ATOM      7  C   UNL d   1      -0.441  -2.674   0.073  0.00  0.00     0.071 A 
ATOM      8  C   UNL d   1      -1.535  -3.281  -0.581  0.00  0.00     0.076 A 
ATOM      9  C   UNL d   1      -1.764  -4.654  -0.350  0.00  0.00     0.018 A 
ATOM     10  C   UNL d   1      -0.926  -5.410   0.471  0.00  0.00     0.001 A 
ATOM     11  C   UNL d   1       0.147  -4.804   1.106  0.00  0.00     0.002 A 
ATOM     12  C   UNL d   1       0.380  -3.443   0.925  0.00  0.00     0.032 A 
BRANCH   8  13
ATOM     13  C   UNL d   1      -2.466  -2.611  -1.579  0.00  0.00     0.419 C 
ATOM     14  F   UNL d   1      -2.001  -1.466  -2.138  0.00  0.00    -0.166 F 
ATOM     15  F   UNL d   1      -2.710  -3.430  -2.646  0.00  0.00    -0.166 F 
ATOM     16  F   UNL d   1      -3.686  -2.335  -1.048  0.00  0.00    -0.166 F 
ENDBRANCH   8  13
ENDBRANCH   1   7
BRANCH   2  17
ATOM     17  C   UNL d   1       2.436  -1.215  -0.192  0.00  0.00     0.014 A 
ATOM     18  C   UNL d   1       2.701  -2.375  -0.939  0.00  0.00     0.039 A 
ATOM     19  C   UNL d   1       3.974  -2.949  -0.924  0.00  0.00     0.036 A 
ATOM     20 CL   UNL d   1       4.242  -4.429  -1.760  0.00  0.00    -0.084 Cl
ATOM     21  C   UNL d   1       5.015  -2.356  -0.220  0.00  0.00     0.047 A 
ATOM     22  C   UNL d   1       4.776  -1.169   0.465  0.00  0.00     0.036 A 
ATOM     23  C   UNL d   1       3.501  -0.600   0.482  0.00  0.00     0.039 A 
ATOM     24 CL   UNL d   1       6.061  -0.409   1.321  0.00  0.00    -0.084 Cl
ENDBRANCH   2  17
TORSDOF 3
