REMARK  4 active torsions:
REMARK  status: ('A' for Active; 'I' for Inactive)
REMARK    1  A    between atoms: N_4  and  C_1 
REMARK    2  A    between atoms: C_11  and  N_4 
REMARK    3  A    between atoms: C_6  and  C_18 
REMARK    4  A    between atoms: C_18  and  N_10 
ROOT
ATOM      1  N   UNL d   1       0.421  -0.608   1.082  0.00  0.00    -0.333 N 
ATOM      2  H   UNL d   1      -0.521  -0.863   0.821  0.00  0.00     0.168 HD
ENDROOT
BRANCH   1   3
ATOM      3  C   UNL d   1       1.128  -0.020   0.052  0.00  0.00     0.172 C 
ATOM      4  S   UNL d   1       2.674  -0.388  -0.474  0.00  0.00    -0.041 SA
ATOM      5  N   UNL d   1       0.453   0.937  -0.649  0.00  0.00    -0.361 N 
ATOM      6  H   UNL d   1       1.020   1.378  -1.368  0.00  0.00     0.162 HD
BRANCH   5   7
ATOM      7  C   UNL d   1      -0.600   1.779  -0.118  0.00  0.00     0.187 C 
BRANCH   7   8
ATOM      8  C   UNL d   1      -0.853   2.919  -1.042  0.00  0.00     0.070 A 
ATOM      9  O   UNL d   1       0.149   3.267  -1.908  0.00  0.00    -0.325 OA
ATOM     10  C   UNL d   1      -0.290   4.336  -2.620  0.00  0.00     0.142 A 
ATOM     11  C   UNL d   1      -1.557   4.691  -2.223  0.00  0.00     0.027 A 
ATOM     12  C   UNL d   1      -1.923   3.774  -1.208  0.00  0.00     0.036 A 
ENDBRANCH   7   8
ENDBRANCH   5   7
ENDBRANCH   1   3
BRANCH   1  13
ATOM     13  C   UNL d   1       0.983  -1.334   2.161  0.00  0.00     0.035 A 
ATOM     14  C   UNL d   1       0.337  -2.495   2.611  0.00  0.00     0.043 A 
ATOM     15  C   UNL d   1       0.952  -3.282   3.611  0.00  0.00    -0.006 A 
ATOM     16  C   UNL d   1       0.639  -4.525   4.234  0.00  0.00     0.030 A 
ATOM     17  C   UNL d   1       2.154  -2.845   4.167  0.00  0.00     0.042 A 
ATOM     18  C   UNL d   1       1.659  -4.829   5.108  0.00  0.00     0.089 A 
ATOM     19  N   UNL d   1       2.568  -3.806   5.061  0.00  0.00    -0.365 N 
ATOM     20  H   UNL d   1       3.432  -3.766   5.583  0.00  0.00     0.165 HD
ATOM     21  C   UNL d   1       2.757  -1.639   3.807  0.00  0.00     0.033 A 
ATOM     22  C   UNL d   1       2.146  -0.893   2.796  0.00  0.00     0.032 A 
ENDBRANCH   1  13
TORSDOF 4
