REMARK  2 active torsions:
REMARK  status: ('A' for Active; 'I' for Inactive)
REMARK    1  A    between atoms: C_13  and  C_4 
REMARK    2  A    between atoms: N_8  and  C_10 
ROOT
ATOM      1  N   UNL d   1       1.237  -1.406  -0.004  0.00  0.00    -0.334 N 
ATOM      2  HN  UNL d   1       1.258  -2.426  -0.022  1.00  0.00     0.168 HD
ATOM      3  C   UNL d   1       0.009   0.671   0.005  0.00  0.00     0.069 A 
ATOM      4  C   UNL d   1       2.330  -0.722   0.021  0.00  0.00     0.162 A 
ATOM      5  C   UNL d   1       0.026  -0.716  -0.005  0.00  0.00     0.068 A 
ATOM      6  C   UNL d   1       1.300   1.373   0.023  0.00  0.00     0.302 A 
ATOM      7  O   UNL d   1       2.428   0.623   0.037  0.00  0.00    -0.257 OA
ATOM      8  C   UNL d   1      -1.200  -1.400  -0.011  0.00  0.00     0.040 A 
ATOM      9  C   UNL d   1      -2.411  -0.704  -0.008  0.00  0.00     0.040 A 
ATOM     10  C   UNL d   1      -1.195   1.387   0.005  0.00  0.00     0.039 A 
ATOM     11  O   UNL d   1       1.344   2.597   0.029  0.00  0.00    -0.259 OA
ATOM     12  C   UNL d   1      -2.400   0.689  -0.002  0.00  0.00     0.013 A 
ATOM     13 BR   UNL d   1      -1.263  -3.300  -0.015  0.00  0.00    -0.049 Br
ATOM     14 BR   UNL d   1      -4.035   1.636   0.000  0.00  0.00    -0.051 Br
ENDROOT
BRANCH   4  15
ATOM     15  C   UNL d   1       3.667  -1.372   0.039  0.00  0.00     0.015 A 
ATOM     16  C   UNL d   1       3.726  -2.771  -0.084  0.00  0.00     0.018 A 
ATOM     17  C   UNL d   1       4.952  -3.439  -0.043  0.00  0.00     0.037 A 
ATOM     18  C   UNL d   1       6.131  -2.704   0.124  0.00  0.00     0.102 A 
ATOM     19  C   UNL d   1       6.088  -1.307   0.239  0.00  0.00     0.037 A 
ATOM     20  C   UNL d   1       4.855  -0.644   0.195  0.00  0.00     0.018 A 
BRANCH  18  21
ATOM     21  N   UNL d   1       7.420  -3.405   0.186  0.00  0.00    -0.116 N 
ATOM     22  O   UNL d   1       7.410  -4.640   0.092  0.00  0.00    -0.532 OA
ATOM     23  O   UNL d   1       8.441  -2.718   0.331  0.00  0.00    -0.532 OA
ENDBRANCH  18  21
ENDBRANCH   4  15
TORSDOF 2
