REMARK  4 active torsions:
REMARK  status: ('A' for Active; 'I' for Inactive)
REMARK    1  A    between atoms: C_6  and  C_1 
REMARK    2  A    between atoms: C_13  and  C_5 
REMARK       I    between atoms: N_9  and  C_6 
REMARK       I    between atoms: C_8  and  N_9 
REMARK    3  A    between atoms: C_10  and  C_8 
REMARK    4  A    between atoms: O_16  and  C_12 
ROOT
ATOM      1  C   UNL d   1      -0.403  -2.408  -0.545  0.00  0.00     0.267 C 
ATOM      2  C   UNL d   1       1.464  -3.044  -2.145  0.00  0.00     0.261 C 
ATOM      3  N   UNL d   1       0.624  -3.208  -1.047  0.00  0.00    -0.289 N 
ATOM      4  O   UNL d   1      -1.385  -3.039  -0.138  0.00  0.00    -0.267 OA
ATOM      5  O   UNL d   1       1.819  -1.989  -2.650  0.00  0.00    -0.267 OA
ATOM      6  H   UNL d   1       0.405  -4.167  -0.819  0.00  0.00     0.172 HD
ENDROOT
BRANCH   1   7
ATOM      7  C   UNL d   1      -0.339  -0.958  -0.484  0.00  0.00     0.097 C 
ATOM      8  S   UNL d   1       1.115  -0.068  -0.578  0.00  0.00    -0.064 SA
ATOM      9  C   UNL d   1       0.267   1.413  -0.398  0.00  0.00     0.085 C 
ATOM     10  N   UNL d   1      -1.019   1.269  -0.154  0.00  0.00    -0.352 N 
ATOM     11  C   UNL d   1      -1.372  -0.077  -0.172  0.00  0.00     0.029 C 
ATOM     12  HN  UNL d   1      -1.666   2.037   0.022  1.00  0.00     0.166 HD
ATOM     13  C   UNL d   1      -2.778  -0.423   0.184  0.00  0.00     0.070 C 
BRANCH   9  14
ATOM     14  C   UNL d   1       0.995   2.695  -0.388  0.00  0.00    -0.002 A 
ATOM     15  C   UNL d   1       2.208   2.879  -1.074  0.00  0.00     0.014 A 
ATOM     16  C   UNL d   1       2.929   4.070  -0.954  0.00  0.00     0.001 A 
ATOM     17  C   UNL d   1       2.438   5.104  -0.163  0.00  0.00     0.000 A 
ATOM     18  C   UNL d   1       1.213   4.960   0.485  0.00  0.00     0.001 A 
ATOM     19  C   UNL d   1       0.493   3.767   0.366  0.00  0.00     0.014 A 
ENDBRANCH   9  14
ENDBRANCH   1   7
BRANCH   2  20
ATOM     20  C   UNL d   1       2.100  -4.287  -2.663  0.00  0.00     0.065 A 
ATOM     21  C   UNL d   1       3.445  -4.262  -3.066  0.00  0.00     0.081 A 
ATOM     22  C   UNL d   1       4.060  -5.411  -3.558  0.00  0.00     0.037 A 
ATOM     23  C   UNL d   1       3.330  -6.592  -3.678  0.00  0.00     0.003 A 
ATOM     24  C   UNL d   1       1.987  -6.623  -3.299  0.00  0.00     0.001 A 
ATOM     25  C   UNL d   1       1.368  -5.476  -2.794  0.00  0.00     0.020 A 
BRANCH  21  26
ATOM     26  O   UNL d   1       4.221  -3.136  -3.006  0.00  0.00    -0.360 OA
ATOM     27  H   UNL d   1       3.628  -2.361  -2.900  0.00  0.00     0.217 HD
ENDBRANCH  21  26
ENDBRANCH   2  20
TORSDOF 4
