REMARK  6 active torsions:
REMARK  status: ('A' for Active; 'I' for Inactive)
REMARK    1  A    between atoms: N_2  and  S_1 
REMARK    2  A    between atoms: C_10  and  S_1 
REMARK    3  A    between atoms: C_3  and  N_2 
REMARK    4  A    between atoms: O_8  and  C_4 
REMARK    5  A    between atoms: C_5  and  C_13 
REMARK    6  A    between atoms: C_7  and  O_8 
ROOT
ATOM      1  C   UNL d   1       0.746  -2.391  -1.188  0.00  0.00     0.074 A 
ATOM      2  C   UNL d   1      -0.263  -3.111  -1.846  0.00  0.00     0.170 A 
ATOM      3  N   UNL d   1      -0.043  -3.862  -2.952  0.00  0.00    -0.345 N 
ATOM      4  HN  UNL d   1      -0.793  -4.394  -3.394  1.00  0.00     0.167 HD
ATOM      5  C   UNL d   1       2.033  -2.430  -1.728  0.00  0.00     0.030 A 
ATOM      6  C   UNL d   1       1.216  -3.875  -3.443  0.00  0.00     0.090 A 
ATOM      7  C   UNL d   1       2.269  -3.180  -2.877  0.00  0.00     0.019 A 
ENDROOT
BRANCH   1   8
ATOM      8  N   UNL d   1       0.506  -1.709   0.064  0.00  0.00    -0.177 NA
ATOM      9  H   UNL d   1       0.980  -0.804   0.075  0.00  0.00     0.146 HD
BRANCH   8  10
ATOM     10  S   UNL d   1       1.045  -2.525   1.466  0.00  0.00     0.246 S 
ATOM     11  O   UNL d   1       0.338  -1.953   2.591  0.00  0.00    -0.206 OA
ATOM     12  O   UNL d   1       2.494  -2.507   1.426  0.00  0.00    -0.206 OA
BRANCH  10  13
ATOM     13  C   UNL d   1       0.505  -4.198   1.247  0.00  0.00     0.074 A 
ATOM     14  C   UNL d   1       1.377  -5.137   0.686  0.00  0.00     0.025 A 
ATOM     15  C   UNL d   1       0.910  -6.417   0.390  0.00  0.00     0.018 A 
ATOM     16  C   UNL d   1      -0.415  -6.775   0.684  0.00  0.00     0.048 A 
ATOM     17  C   UNL d   1      -1.244  -5.848   1.337  0.00  0.00     0.018 A 
ATOM     18  C   UNL d   1      -0.794  -4.555   1.608  0.00  0.00     0.025 A 
BRANCH  16  19
ATOM     19  C   UNL d   1      -0.935  -8.132   0.272  0.00  0.00     0.417 C 
ATOM     20  F   UNL d   1      -2.261  -8.309   0.529  0.00  0.00    -0.166 F 
ATOM     21  F   UNL d   1      -0.781  -8.366  -1.061  0.00  0.00    -0.166 F 
ATOM     22  F   UNL d   1      -0.291  -9.150   0.906  0.00  0.00    -0.166 F 
ENDBRANCH  16  19
ENDBRANCH  10  13
ENDBRANCH   8  10
ENDBRANCH   1   8
BRANCH   2  23
ATOM     23  O   UNL d   1      -1.540  -3.102  -1.296  0.00  0.00    -0.291 OA
BRANCH  23  24
ATOM     24  C   UNL d   1      -2.616  -3.122  -2.153  0.00  0.00     0.084 A 
ATOM     25  C   UNL d   1      -3.764  -3.795  -1.748  0.00  0.00    -0.017 A 
ATOM     26  C   UNL d   1      -4.933  -3.769  -2.517  0.00  0.00    -0.043 A 
ATOM     27  C   UNL d   1      -3.954  -4.599  -0.505  0.00  0.00     0.042 C 
ATOM     28  C   UNL d   1      -6.042  -4.526  -1.855  0.00  0.00     0.040 C 
ATOM     29  C   UNL d   1      -4.990  -3.067  -3.717  0.00  0.00    -0.055 A 
ATOM     30  C   UNL d   1      -5.351  -5.207  -0.669  0.00  0.00     0.009 C 
ATOM     31  C   UNL d   1      -3.829  -2.405  -4.140  0.00  0.00     0.010 A 
ATOM     32  C   UNL d   1      -6.246  -3.019  -4.532  0.00  0.00     0.049 C 
ATOM     33  C   UNL d   1      -2.662  -2.417  -3.359  0.00  0.00     0.038 A 
ENDBRANCH  23  24
ENDBRANCH   2  23
TORSDOF 6
