REMARK  2 active torsions:
REMARK  status: ('A' for Active; 'I' for Inactive)
REMARK    1  A    between atoms: N_10  and  C_15 
REMARK    2  A    between atoms: C_18  and  C_11 
ROOT
ATOM      1  N   UNL d   1      -0.532  -0.823   0.045  0.00  0.00    -0.213 N 
ATOM      2  C   UNL d   1      -1.898  -1.030  -0.042  0.00  0.00     0.161 A 
ATOM      3  N   UNL d   1       0.437  -1.775   0.260  0.00  0.00    -0.293 N 
ATOM      4  HN  UNL d   1       0.197  -2.717   0.570  1.00  0.00     0.187 HD
ATOM      5  C   UNL d   1      -0.395   0.541  -0.041  0.00  0.00     0.182 A 
ATOM      6  N   UNL d   1      -2.510   0.137  -0.168  0.00  0.00    -0.281 N 
ATOM      7  HN  UNL d   1      -3.517   0.276  -0.251  1.00  0.00     0.188 HD
ATOM      8  N   UNL d   1      -1.556   1.130  -0.168  0.00  0.00    -0.277 N 
ATOM      9  HN  UNL d   1      -1.723   2.133  -0.250  1.00  0.00     0.189 HD
ATOM     10  C   UNL d   1       1.675  -1.424   0.050  0.00  0.00     0.046 C 
ATOM     11  S   UNL d   1       1.153   1.283   0.066  0.00  0.00    -0.085 SA
ATOM     12  C   UNL d   1      -2.553  -2.307  -0.022  0.00  0.00     0.052 A 
ATOM     13  S   UNL d   1      -4.163  -2.462   0.550  0.00  0.00    -0.098 SA
ATOM     14  C   UNL d   1       2.116  -0.102  -0.572  0.00  0.00     0.142 C 
ATOM     15  C   UNL d   1      -2.056  -3.530  -0.436  0.00  0.00     0.023 A 
ATOM     16  C   UNL d   1      -4.181  -4.146   0.263  0.00  0.00     0.050 A 
ATOM     17  C   UNL d   1      -2.994  -4.591  -0.273  0.00  0.00     0.009 A 
ENDROOT
BRANCH  10  18
ATOM     18  C   UNL d   1       2.737  -2.437   0.359  0.00  0.00    -0.011 A 
ATOM     19  C   UNL d   1       3.960  -2.452  -0.325  0.00  0.00     0.016 A 
ATOM     20  C   UNL d   1       4.927  -3.416  -0.019  0.00  0.00     0.037 A 
ATOM     21  C   UNL d   1       4.666  -4.377   0.967  0.00  0.00     0.102 A 
ATOM     22  C   UNL d   1       3.444  -4.378   1.650  0.00  0.00     0.037 A 
ATOM     23  C   UNL d   1       2.483  -3.408   1.341  0.00  0.00     0.016 A 
BRANCH  21  24
ATOM     24  N   UNL d   1       5.680  -5.395   1.277  0.00  0.00    -0.116 N 
ATOM     25  O   UNL d   1       6.742  -5.359   0.639  0.00  0.00    -0.532 OA
ATOM     26  O   UNL d   1       5.410  -6.226   2.153  0.00  0.00    -0.532 OA
ENDBRANCH  21  24
ENDBRANCH  10  18
TORSDOF 2
