REMARK  4 active torsions:
REMARK  status: ('A' for Active; 'I' for Inactive)
REMARK    1  A    between atoms: N_7  and  C_2 
REMARK    2  A    between atoms: C_13  and  C_6 
REMARK    3  A    between atoms: O_23  and  C_14 
REMARK    4  A    between atoms: C_26  and  O_23 
ROOT
ATOM      1  C   UNL d   1       3.830   5.047  -0.949  0.00  0.00     0.086 C 
ATOM      2  C   UNL d   1       3.085   4.027  -0.450  0.00  0.00     0.167 C 
ATOM      3  C   UNL d   1       1.349   5.547   0.274  0.00  0.00     0.096 A 
ATOM      4  O   UNL d   1       1.774   4.246   0.012  0.00  0.00    -0.291 OA
ATOM      5  C   UNL d   1       2.087   6.653  -0.170  0.00  0.00    -0.009 A 
ATOM      6  C   UNL d   1       3.273   6.440  -1.080  0.00  0.00     0.102 C 
ATOM      7  C   UNL d   1       5.208   4.867  -1.302  0.00  0.00     0.100 C 
ATOM      8  C   UNL d   1       0.133   5.756   0.985  0.00  0.00     0.009 A 
ATOM      9  N   UNL d   1       6.328   4.795  -1.587  0.00  0.00    -0.191 NA
ATOM     10  C   UNL d   1       1.679   7.959   0.157  0.00  0.00     0.012 A 
ATOM     11  C   UNL d   1      -0.274   7.085   1.284  0.00  0.00    -0.023 A 
ATOM     12  C   UNL d   1       0.516   8.170   0.887  0.00  0.00     0.013 A 
ATOM     13  C   UNL d   1      -0.712   4.706   1.399  0.00  0.00     0.015 A 
ATOM     14  C   UNL d   1      -1.477   7.327   1.967  0.00  0.00     0.012 A 
ATOM     15  C   UNL d   1      -1.915   4.965   2.068  0.00  0.00     0.001 A 
ATOM     16  C   UNL d   1      -2.297   6.271   2.351  0.00  0.00     0.001 A 
ENDROOT
BRANCH   2  17
ATOM     17  N   UNL d   1       3.701   2.806  -0.284  0.00  0.00    -0.327 N 
ATOM     18  C   UNL d   1       3.155   1.640  -0.393  0.00  0.00     0.228 C 
ATOM     19  HN  UNL d   1       4.693   2.825  -0.050  1.00  0.00     0.169 HD
BRANCH  18  20
ATOM     20  O   UNL d   1       1.878   1.343  -0.688  0.00  0.00    -0.347 OA
BRANCH  20  21
ATOM     21  C   UNL d   1       1.375  -0.026  -0.652  0.00  0.00     0.171 C 
ATOM     22  C   UNL d   1       2.339  -1.211  -0.544  0.00  0.00     0.034 C 
ENDBRANCH  20  21
ENDBRANCH  18  20
ENDBRANCH   2  17
BRANCH   6  23
ATOM     23  C   UNL d   1       2.921   6.788  -2.530  0.00  0.00    -0.044 A 
ATOM     24  C   UNL d   1       3.609   7.810  -3.206  0.00  0.00     0.010 A 
ATOM     25  C   UNL d   1       3.270   8.144  -4.521  0.00  0.00     0.024 A 
ATOM     26  C   UNL d   1       2.242   7.463  -5.170  0.00  0.00     0.034 A 
ATOM     27  C   UNL d   1       1.550   6.447  -4.518  0.00  0.00     0.024 A 
ATOM     28 CL   UNL d   1       1.818   7.883  -6.783  0.00  0.00    -0.084 Cl
ATOM     29  C   UNL d   1       1.887   6.112  -3.206  0.00  0.00     0.010 A 
ENDBRANCH   6  23
TORSDOF 4
