REMARK  3 active torsions:
REMARK  status: ('A' for Active; 'I' for Inactive)
REMARK    1  A    between atoms: C_11  and  N_1 
REMARK    2  A    between atoms: C_10  and  C_2 
REMARK    3  A    between atoms: C_12  and  C_9 
ROOT
ATOM      1  N   UNL d   1      -0.166  -1.302  -0.059  0.00  0.00    -0.222 N 
ATOM      2  C   UNL d   1       1.063  -0.640  -0.128  0.00  0.00     0.156 A 
ATOM      3  N   UNL d   1      -1.153  -0.380  -0.101  0.00  0.00    -0.219 N 
ATOM      4  HN  UNL d   1      -2.157  -0.558  -0.092  1.00  0.00     0.210 HD
ATOM      5  N   UNL d   1      -0.557   0.796  -0.156  0.00  0.00    -0.226 N 
ATOM      6  HN  UNL d   1      -1.047   1.690  -0.179  1.00  0.00     0.210 HD
ATOM      7  N   UNL d   1       0.801   0.657  -0.179  0.00  0.00    -0.268 N 
ATOM      8  HN  UNL d   1       1.485   1.412  -0.225  1.00  0.00     0.190 HD
ENDROOT
BRANCH   1   9
ATOM      9  C   UNL d   1      -0.472  -2.675   0.130  0.00  0.00     0.075 A 
ATOM     10  C   UNL d   1      -1.585  -3.277  -0.501  0.00  0.00     0.076 A 
ATOM     11  C   UNL d   1      -1.846  -4.637  -0.227  0.00  0.00     0.018 A 
ATOM     12  C   UNL d   1      -1.026  -5.381   0.618  0.00  0.00     0.001 A 
ATOM     13  C   UNL d   1       0.071  -4.781   1.223  0.00  0.00     0.002 A 
ATOM     14  C   UNL d   1       0.343  -3.433   0.988  0.00  0.00     0.032 A 
BRANCH  10  15
ATOM     15  C   UNL d   1      -2.487  -2.589  -1.509  0.00  0.00     0.419 C 
ATOM     16  F   UNL d   1      -1.859  -1.652  -2.268  0.00  0.00    -0.166 F 
ATOM     17  F   UNL d   1      -2.996  -3.475  -2.421  0.00  0.00    -0.166 F 
ATOM     18  F   UNL d   1      -3.569  -1.999  -0.937  0.00  0.00    -0.166 F 
ENDBRANCH  10  15
ENDBRANCH   1   9
BRANCH   2  19
ATOM     19  C   UNL d   1       2.401  -1.238  -0.242  0.00  0.00     0.033 A 
ATOM     20  C   UNL d   1       3.517  -0.713   0.437  0.00  0.00     0.048 A 
ATOM     21 CL   UNL d   1       3.417   0.650   1.499  0.00  0.00    -0.083 Cl
ATOM     22  C   UNL d   1       4.779  -1.310   0.305  0.00  0.00     0.025 A 
ATOM     23  C   UNL d   1       4.947  -2.440  -0.492  0.00  0.00     0.002 A 
ATOM     24  C   UNL d   1       3.859  -2.963  -1.181  0.00  0.00     0.001 A 
ATOM     25  C   UNL d   1       2.604  -2.356  -1.074  0.00  0.00     0.017 A 
ENDBRANCH   2  19
TORSDOF 3
