REMARK  4 active torsions:
REMARK  status: ('A' for Active; 'I' for Inactive)
REMARK    1  A    between atoms: C_6  and  C_1 
REMARK    2  A    between atoms: C_15  and  N_2 
REMARK    3  A    between atoms: O_14  and  C_4 
REMARK    4  A    between atoms: C_10  and  C_15 
ROOT
ATOM      1  N   UNL d   1      -4.090  -2.410  -0.022  0.00  0.00    -0.394 N 
ATOM      2  HN  UNL d   1      -4.605  -1.532  -0.084  1.00  0.00     0.159 HD
ATOM      3  C   UNL d   1      -2.800  -2.441   0.017  0.00  0.00     0.097 C 
ENDROOT
BRANCH   1   4
ATOM      4  C   UNL d   1      -4.774  -3.707   0.025  0.00  0.00     0.159 C 
BRANCH   4   5
ATOM      5  C   UNL d   1      -5.697  -3.793   1.210  0.00  0.00    -0.025 A 
ATOM      6  C   UNL d   1      -5.579  -4.816   2.145  0.00  0.00     0.096 A 
ATOM      7  N   UNL d   1      -6.380  -4.958   3.227  0.00  0.00    -0.375 N 
ATOM      8  C   UNL d   1      -7.346  -4.030   3.389  0.00  0.00     0.087 A 
ATOM      9  HN  UNL d   1      -6.258  -5.726   3.886  1.00  0.00     0.164 HD
ATOM     10  C   UNL d   1      -7.553  -2.972   2.520  0.00  0.00     0.018 A 
ATOM     11  C   UNL d   1      -6.716  -2.856   1.414  0.00  0.00     0.011 A 
ENDBRANCH   4   5
ENDBRANCH   1   4
BRANCH   3  12
ATOM     12  C   UNL d   1      -2.027  -1.179   0.007  0.00  0.00     0.013 A 
ATOM     13  C   UNL d   1      -2.669   0.068  -0.020  0.00  0.00     0.077 A 
ATOM     14  C   UNL d   1      -1.929   1.246  -0.017  0.00  0.00     0.039 A 
ATOM     15  C   UNL d   1      -0.537   1.188   0.014  0.00  0.00     0.022 A 
ATOM     16  C   UNL d   1       0.104  -0.052   0.039  0.00  0.00     0.011 A 
ATOM     17  C   UNL d   1      -0.631  -1.241   0.037  0.00  0.00     0.034 A 
ATOM     18 BR   UNL d   1       1.994  -0.120   0.079  0.00  0.00    -0.051 Br
BRANCH  13  19
ATOM     19  O   UNL d   1      -4.031   0.200  -0.048  0.00  0.00    -0.360 OA
ATOM     20  H   UNL d   1      -4.403  -0.713  -0.031  0.00  0.00     0.217 HD
ENDBRANCH  13  19
ENDBRANCH   3  12
TORSDOF 4
