REMARK  4 active torsions:
REMARK  status: ('A' for Active; 'I' for Inactive)
REMARK    1  A    between atoms: C_13  and  C_1 
REMARK    2  A    between atoms: O_7  and  C_3 
REMARK    3  A    between atoms: S_4  and  O_7 
REMARK    4  A    between atoms: C_9  and  S_4 
ROOT
ATOM      1  C   UNL d   1      -1.677  -1.714  -0.206  0.00  0.00     0.078 A 
ATOM      2  C   UNL d   1      -2.059  -0.250  -0.151  0.00  0.00     0.261 A 
ATOM      3  C   UNL d   1      -0.381  -2.088  -0.071  0.00  0.00     0.118 A 
ATOM      4  N   UNL d   1      -1.053   0.693  -0.037  0.00  0.00    -0.317 N 
ATOM      5  C   UNL d   1       0.667  -1.036   0.011  0.00  0.00     0.027 A 
ATOM      6  C   UNL d   1       0.318   0.325   0.015  0.00  0.00     0.050 A 
ATOM      7  O   UNL d   1      -3.248   0.073  -0.222  0.00  0.00    -0.267 OA
ATOM      8  C   UNL d   1      -1.435   2.100  -0.008  0.00  0.00     0.159 C 
ATOM      9  C   UNL d   1       2.035  -1.377   0.048  0.00  0.00     0.017 A 
ATOM     10  C   UNL d   1       1.328   1.304   0.054  0.00  0.00     0.031 A 
ATOM     11  C   UNL d   1       3.029  -0.396   0.076  0.00  0.00     0.001 A 
ATOM     12  C   UNL d   1       2.676   0.944   0.078  0.00  0.00     0.002 A 
ENDROOT
BRANCH   3  13
ATOM     13  O   UNL d   1       0.158  -3.373  -0.094  0.00  0.00    -0.227 OA
BRANCH  13  14
ATOM     14  S   UNL d   1      -0.586  -4.759   0.335  0.00  0.00     0.303 S 
ATOM     15  O   UNL d   1      -1.260  -4.563   1.605  0.00  0.00    -0.193 OA
ATOM     16  O   UNL d   1      -1.256  -5.312  -0.825  0.00  0.00    -0.193 OA
BRANCH  14  17
ATOM     17  C   UNL d   1       0.742  -5.920   0.649  0.00  0.00     0.086 A 
ATOM     18  C   UNL d   1       0.743  -6.666   1.832  0.00  0.00     0.026 A 
ATOM     19  C   UNL d   1       1.610  -7.753   1.962  0.00  0.00     0.008 A 
ATOM     20  C   UNL d   1       2.479  -8.098   0.917  0.00  0.00    -0.062 A 
ATOM     21  C   UNL d   1       2.509  -7.307  -0.241  0.00  0.00     0.008 A 
ATOM     22  C   UNL d   1       3.280  -9.366   1.003  0.00  0.00     0.048 C 
ATOM     23  C   UNL d   1       1.642  -6.218  -0.379  0.00  0.00     0.026 A 
ENDBRANCH  14  17
ENDBRANCH  13  14
ENDBRANCH   3  13
BRANCH   1  24
ATOM     24  C   UNL d   1      -2.804  -2.628  -0.489  0.00  0.00    -0.018 A 
ATOM     25  C   UNL d   1      -3.730  -2.955   0.511  0.00  0.00     0.012 A 
ATOM     26  C   UNL d   1      -4.851  -3.732   0.209  0.00  0.00     0.001 A 
ATOM     27  C   UNL d   1      -5.056  -4.181  -1.094  0.00  0.00     0.000 A 
ATOM     28  C   UNL d   1      -4.145  -3.854  -2.097  0.00  0.00     0.001 A 
ATOM     29  C   UNL d   1      -3.027  -3.073  -1.799  0.00  0.00     0.012 A 
ENDBRANCH   1  24
TORSDOF 4
