REMARK  4 active torsions:
REMARK  status: ('A' for Active; 'I' for Inactive)
REMARK    1  A    between atoms: C_7  and  C_1 
REMARK    2  A    between atoms: C_9  and  N_2 
REMARK    3  A    between atoms: O_15  and  C_5 
REMARK    4  A    between atoms: C_10  and  C_6 
ROOT
ATOM      1  N   UNL d   1       0.636   4.219  -0.089  0.00  0.00    -0.364 N 
ATOM      2  HN  UNL d   1       0.562   3.650   0.755  1.00  0.00     0.165 HD
ATOM      3  C   UNL d   1       0.864   3.659  -1.236  0.00  0.00     0.102 C 
ENDROOT
BRANCH   1   4
ATOM      4  C   UNL d   1       0.492   5.625  -0.017  0.00  0.00     0.045 A 
ATOM      5  C   UNL d   1      -0.432   6.223   0.865  0.00  0.00     0.036 A 
ATOM      6  C   UNL d   1      -0.589   7.624   0.881  0.00  0.00     0.017 A 
ATOM      7  C   UNL d   1       0.174   8.440   0.051  0.00  0.00     0.001 A 
ATOM      8  C   UNL d   1       1.115   7.866  -0.793  0.00  0.00     0.002 A 
ATOM      9  C   UNL d   1       1.281   6.478  -0.812  0.00  0.00     0.030 A 
BRANCH   5  10
ATOM     10  C   UNL d   1      -1.305   5.464   1.805  0.00  0.00     0.158 C 
ATOM     11  O   UNL d   1      -2.407   5.930   2.108  0.00  0.00    -0.293 OA
ATOM     12  C   UNL d   1      -0.827   4.176   2.416  0.00  0.00     0.097 C 
ENDBRANCH   5  10
ENDBRANCH   1   4
BRANCH   3  13
ATOM     13  C   UNL d   1       1.002   2.195  -1.383  0.00  0.00     0.016 A 
ATOM     14  C   UNL d   1       1.378   1.642  -2.611  0.00  0.00     0.099 A 
ATOM     15  C   UNL d   1       1.456   0.251  -2.752  0.00  0.00     0.069 A 
ATOM     16 CL   UNL d   1       1.913  -0.446  -4.263  0.00  0.00    -0.081 Cl
ATOM     17  C   UNL d   1       1.159  -0.587  -1.679  0.00  0.00     0.050 A 
ATOM     18  C   UNL d   1       0.795  -0.027  -0.457  0.00  0.00     0.036 A 
ATOM     19  C   UNL d   1       0.721   1.356  -0.298  0.00  0.00     0.039 A 
ATOM     20 CL   UNL d   1       0.417  -1.056   0.869  0.00  0.00    -0.084 Cl
BRANCH  14  21
ATOM     21  O   UNL d   1       1.670   2.465  -3.668  0.00  0.00    -0.358 OA
ATOM     22  H   UNL d   1       1.903   1.900  -4.431  0.00  0.00     0.217 HD
ENDBRANCH  14  21
ENDBRANCH   3  13
TORSDOF 4
