REMARK  3 active torsions:
REMARK  status: ('A' for Active; 'I' for Inactive)
REMARK    1  A    between atoms: C_4  and  C_1 
REMARK       I    between atoms: N_7  and  C_4 
REMARK    2  A    between atoms: C_12  and  N_7 
REMARK    3  A    between atoms: N_10  and  C_9 
ROOT
ATOM      1  C   UNL d   1       3.985  -0.049  -0.671  0.00  0.00     0.264 C 
ATOM      2  N   UNL d   1       4.414  -1.182   0.013  0.00  0.00    -0.322 N 
ATOM      3  O   UNL d   1       3.022  -0.045  -1.431  0.00  0.00    -0.267 OA
ATOM      4  H   UNL d   1       5.185  -1.050   0.655  0.00  0.00     0.169 HD
ENDROOT
BRANCH   1   5
ATOM      5  C   UNL d   1       4.749   1.173  -0.414  0.00  0.00     0.096 A 
ATOM      6  S   UNL d   1       6.261   1.143   0.388  0.00  0.00    -0.082 SA
ATOM      7  C   UNL d   1       6.506   2.835   0.198  0.00  0.00     0.017 A 
ATOM      8  C   UNL d   1       7.627   3.584   0.610  0.00  0.00     0.020 A 
ATOM      9  C   UNL d   1       5.424   3.438  -0.446  0.00  0.00     0.004 A 
ATOM     10  C   UNL d   1       7.659   4.957   0.355  0.00  0.00     0.001 A 
ATOM     11  C   UNL d   1       6.599   5.581  -0.284  0.00  0.00     0.001 A 
ATOM     12  C   UNL d   1       5.485   4.839  -0.678  0.00  0.00     0.014 A 
ATOM     13  C   UNL d   1       4.410   2.469  -0.769  0.00  0.00     0.068 A 
ATOM     14 CL   UNL d   1       2.943   2.953  -1.535  0.00  0.00    -0.082 Cl
ENDBRANCH   1   5
BRANCH   2  15
ATOM     15  C   UNL d   1       3.812  -2.461  -0.009  0.00  0.00     0.035 A 
ATOM     16  C   UNL d   1       2.773  -2.820  -0.865  0.00  0.00     0.032 A 
ATOM     17  C   UNL d   1       2.165  -4.082  -0.776  0.00  0.00     0.031 A 
ATOM     18  C   UNL d   1       2.562  -5.032   0.171  0.00  0.00     0.029 A 
ATOM     19  C   UNL d   1       3.660  -4.678   0.973  0.00  0.00     0.031 A 
ATOM     20  C   UNL d   1       4.276  -3.418   0.891  0.00  0.00     0.032 A 
BRANCH  18  21
ATOM     21  N   UNL d   1       1.956  -6.288   0.300  0.00  0.00    -0.390 N 
ATOM     22  C   UNL d   1       1.589  -6.689   1.662  0.00  0.00     0.149 C 
ATOM     23  C   UNL d   1       0.979  -6.699  -0.710  0.00  0.00     0.149 C 
ENDBRANCH  18  21
ENDBRANCH   2  15
TORSDOF 3
