REMARK  4 active torsions:
REMARK  status: ('A' for Active; 'I' for Inactive)
REMARK    1  A    between atoms: C_5  and  S_1 
REMARK    2  A    between atoms: N_14  and  S_1 
REMARK    3  A    between atoms: C_2  and  C_3 
REMARK       I    between atoms: C_3  and  N_6 
REMARK    4  A    between atoms: N_6  and  C_12 
ROOT
ATOM      1  C   UNL d   1      -2.568   2.330   3.268  0.00  0.00     0.259 C 
ATOM      2  N   UNL d   1      -1.762   3.139   4.041  0.00  0.00    -0.323 N 
ATOM      3  O   UNL d   1      -3.589   2.695   2.688  0.00  0.00    -0.267 OA
ATOM      4  H   UNL d   1      -0.943   2.689   4.438  0.00  0.00     0.169 HD
ENDROOT
BRANCH   2   5
ATOM      5  C   UNL d   1      -1.850   4.541   4.205  0.00  0.00     0.036 A 
ATOM      6  C   UNL d   1      -2.809   5.353   3.592  0.00  0.00     0.054 A 
ATOM      7  C   UNL d   1      -2.692   6.751   3.673  0.00  0.00     0.076 A 
ATOM      8  C   UNL d   1      -1.672   7.345   4.419  0.00  0.00     0.025 A 
ATOM      9  C   UNL d   1      -0.762   6.535   5.091  0.00  0.00     0.004 A 
ATOM     10  C   UNL d   1      -0.848   5.145   4.978  0.00  0.00     0.029 A 
BRANCH   7  11
ATOM     11  S   UNL d   1      -3.740   7.769   2.667  0.00  0.00     0.239 S 
ATOM     12  O   UNL d   1      -3.653   7.316   1.306  0.00  0.00    -0.206 OA
ATOM     13  O   UNL d   1      -3.537   9.156   3.034  0.00  0.00    -0.206 OA
BRANCH  11  14
ATOM     14  N   UNL d   1      -5.286   7.399   3.197  0.00  0.00    -0.225 NA
ATOM     15  H   UNL d   1      -5.787   6.899   2.459  0.00  0.00     0.136 HD
ATOM     16  H   UNL d   1      -5.754   8.255   3.495  0.00  0.00     0.136 HD
ENDBRANCH  11  14
ENDBRANCH   7  11
ENDBRANCH   2   5
BRANCH   1  17
ATOM     17  C   UNL d   1      -2.154   0.891   3.123  0.00  0.00     0.068 A 
ATOM     18  C   UNL d   1      -0.824   0.427   3.209  0.00  0.00     0.117 A 
ATOM     19  C   UNL d   1      -0.526  -0.905   2.853  0.00  0.00     0.103 A 
ATOM     20  O   UNL d   1       0.148   1.315   3.608  0.00  0.00    -0.347 OA
ATOM     21  O   UNL d   1       0.720  -1.478   2.772  0.00  0.00    -0.348 OA
ATOM     22  C   UNL d   1      -1.552  -1.759   2.431  0.00  0.00     0.040 A 
ATOM     23  C   UNL d   1       1.730  -0.961   3.632  0.00  0.00     0.178 C 
ATOM     24  C   UNL d   1       2.316   0.346   3.125  0.00  0.00     0.053 C 
ATOM     25  C   UNL d   1       1.244   1.328   2.691  0.00  0.00     0.178 C 
ATOM     26  C   UNL d   1      -2.870  -1.317   2.389  0.00  0.00     0.004 A 
ATOM     27  C   UNL d   1      -3.166  -0.002   2.728  0.00  0.00     0.020 A 
ENDBRANCH   1  17
TORSDOF 4
