REMARK  4 active torsions:
REMARK  status: ('A' for Active; 'I' for Inactive)
REMARK    1  A    between atoms: S_11  and  C_3 
REMARK    2  A    between atoms: C_9  and  C_8 
REMARK    3  A    between atoms: C_14  and  C_9 
REMARK    4  A    between atoms: C_10  and  S_11 
ROOT
ATOM      1  N   UNL d   1       1.647  -1.838   0.042  0.00  0.00    -0.344 N 
ATOM      2  HN  UNL d   1       1.483  -2.844  -0.002  1.00  0.00     0.167 HD
ATOM      3  C   UNL d   1       2.829  -1.267   0.072  0.00  0.00     0.117 A 
ATOM      4  S   UNL d   1       2.828   0.449   0.125  0.00  0.00    -0.063 SA
ATOM      5  C   UNL d   1       0.653  -0.868   0.077  0.00  0.00     0.052 A 
ATOM      6  C   UNL d   1       1.110   0.451   0.125  0.00  0.00     0.034 A 
ATOM      7  C   UNL d   1      -0.736  -1.103   0.071  0.00  0.00     0.054 A 
ATOM      8  C   UNL d   1       0.232   1.547   0.167  0.00  0.00     0.023 A 
ATOM      9  C   UNL d   1      -1.616  -0.017   0.115  0.00  0.00     0.036 A 
ATOM     10  C   UNL d   1      -1.142   1.290   0.163  0.00  0.00     0.025 A 
ATOM     11 CL   UNL d   1      -3.314  -0.300   0.114  0.00  0.00    -0.084 Cl
ENDROOT
BRANCH   3  12
ATOM     12  S   UNL d   1       4.353  -2.137   0.061  0.00  0.00    -0.077 SA
BRANCH  12  13
ATOM     13  C   UNL d   1       3.831  -3.789  -0.019  0.00  0.00     0.056 C 
ATOM     14  C   UNL d   1       4.753  -4.755  -0.145  0.00  0.00     0.063 C 
BRANCH  14  15
ATOM     15  C   UNL d   1       4.364  -6.187  -0.230  0.00  0.00     0.182 C 
ATOM     16  O   UNL d   1       3.283  -6.593   0.176  0.00  0.00    -0.288 OA
BRANCH  15  17
ATOM     17  C   UNL d   1       5.372  -7.128  -0.795  0.00  0.00     0.014 A 
ATOM     18  C   UNL d   1       5.384  -8.453  -0.342  0.00  0.00     0.015 A 
ATOM     19  C   UNL d   1       6.314  -9.361  -0.857  0.00  0.00     0.001 A 
ATOM     20  C   UNL d   1       7.226  -8.952  -1.830  0.00  0.00     0.000 A 
ATOM     21  C   UNL d   1       7.207  -7.640  -2.297  0.00  0.00     0.001 A 
ATOM     22  C   UNL d   1       6.281  -6.728  -1.784  0.00  0.00     0.015 A 
ENDBRANCH  15  17
ENDBRANCH  14  15
ENDBRANCH  12  13
ENDBRANCH   3  12
TORSDOF 4
