REMARK  3 active torsions:
REMARK  status: ('A' for Active; 'I' for Inactive)
REMARK    1  A    between atoms: S_14  and  C_9 
REMARK    2  A    between atoms: C_13  and  C_15 
REMARK    3  A    between atoms: C_15  and  S_14 
ROOT
ATOM      1  C   UNL d   1       1.203  -0.804   0.014  0.00  0.00     0.137 A 
ATOM      2  C   UNL d   1       0.806   0.521   0.009  0.00  0.00     0.104 A 
ATOM      3  N   UNL d   1       2.464  -1.255   0.034  0.00  0.00    -0.320 N 
ATOM      4  HN  UNL d   1       2.718  -2.243   0.030  1.00  0.00     0.169 HD
ATOM      5  N   UNL d   1       0.091  -1.589  -0.002  0.00  0.00    -0.340 N 
ATOM      6  N   UNL d   1       1.752   1.496   0.021  0.00  0.00    -0.294 N 
ATOM      7  HN  UNL d   1       1.506   2.486   0.011  1.00  0.00     0.187 HD
ATOM      8  C   UNL d   1      -0.626   0.532  -0.002  0.00  0.00     0.022 A 
ATOM      9  C   UNL d   1       3.356  -0.242   0.059  0.00  0.00     0.161 A 
ATOM     10  C   UNL d   1      -1.044  -0.806  -0.006  0.00  0.00     0.046 A 
ATOM     11  N   UNL d   1       3.042   1.079   0.048  0.00  0.00    -0.279 N 
ATOM     12  HN  UNL d   1       3.791   1.771   0.061  1.00  0.00     0.189 HD
ATOM     13  C   UNL d   1      -1.619   1.534  -0.002  0.00  0.00     0.016 A 
ATOM     14  C   UNL d   1      -2.391  -1.187  -0.010  0.00  0.00     0.030 A 
ATOM     15  C   UNL d   1      -2.975   1.166  -0.003  0.00  0.00     0.001 A 
ATOM     16  C   UNL d   1      -3.351  -0.174  -0.006  0.00  0.00     0.002 A 
ATOM     17  H   UNL d   1       0.111  -2.596  -0.003  0.00  0.00     0.167 HD
ENDROOT
BRANCH   9  18
ATOM     18  S   UNL d   1       5.045  -0.803   0.107  0.00  0.00    -0.088 SA
BRANCH  18  19
ATOM     19  C   UNL d   1       6.027   0.735   0.147  0.00  0.00     0.122 C 
BRANCH  19  20
ATOM     20  C   UNL d   1       7.507   0.372   0.141  0.00  0.00    -0.027 A 
ATOM     21  C   UNL d   1       8.257   0.175   1.315  0.00  0.00     0.041 A 
ATOM     22 CL   UNL d   1       7.588   0.445   2.885  0.00  0.00    -0.084 Cl
ATOM     23  C   UNL d   1       9.586  -0.266   1.252  0.00  0.00     0.024 A 
ATOM     24  C   UNL d   1      10.187  -0.525   0.020  0.00  0.00     0.002 A 
ATOM     25  C   UNL d   1       9.464  -0.329  -1.152  0.00  0.00     0.001 A 
ATOM     26  C   UNL d   1       8.141   0.118  -1.093  0.00  0.00     0.009 A 
ENDBRANCH  19  20
ENDBRANCH  18  19
ENDBRANCH   9  18
TORSDOF 3
