REMARK  5 active torsions:
REMARK  status: ('A' for Active; 'I' for Inactive)
REMARK    1  A    between atoms: C_12  and  N_2 
REMARK    2  A    between atoms: C_13  and  N_4 
REMARK    3  A    between atoms: C_15  and  C_10 
REMARK    4  A    between atoms: C_16  and  C_11 
REMARK    5  A    between atoms: O_22  and  C_17 
ROOT
ATOM      1  C   UNL d   1       0.062  -0.211  -0.342  0.00  0.00     0.247 C 
ATOM      2  N   UNL d   1       1.194  -1.024  -0.722  0.00  0.00    -0.265 N 
ATOM      3  S   UNL d   1      -0.526  -0.609   1.359  0.00  0.00    -0.042 SA
ATOM      4  N   UNL d   1      -1.156  -0.326  -1.157  0.00  0.00    -0.241 N 
ATOM      5  N   UNL d   1      -2.348  -0.182  -0.456  0.00  0.00    -0.287 N 
ATOM      6  HN  UNL d   1      -3.261  -0.064  -0.894  1.00  0.00     0.188 HD
ATOM      7  S   UNL d   1       0.683   1.529  -0.227  0.00  0.00    -0.056 SA
ATOM      8  C   UNL d   1       2.427  -0.482  -0.347  0.00  0.00     0.268 C 
ATOM      9  C   UNL d   1       2.303   0.971   0.003  0.00  0.00     0.074 C 
ATOM     10  C   UNL d   1      -2.149  -0.215   0.827  0.00  0.00     0.100 C 
ATOM     11  C   UNL d   1       3.287   1.775   0.432  0.00  0.00     0.035 C 
ATOM     12  O   UNL d   1       3.493  -1.083  -0.302  0.00  0.00    -0.266 OA
ENDROOT
BRANCH   2  13
ATOM     13  C   UNL d   1       1.119  -2.327  -1.306  0.00  0.00     0.041 A 
ATOM     14  C   UNL d   1       0.049  -3.202  -1.093  0.00  0.00     0.030 A 
ATOM     15  C   UNL d   1       0.038  -4.473  -1.683  0.00  0.00     0.002 A 
ATOM     16  C   UNL d   1       1.076  -4.875  -2.520  0.00  0.00     0.000 A 
ATOM     17  C   UNL d   1       2.131  -4.010  -2.767  0.00  0.00     0.002 A 
ATOM     18  C   UNL d   1       2.153  -2.753  -2.161  0.00  0.00     0.030 A 
ENDBRANCH   2  13
BRANCH   4  19
ATOM     19  C   UNL d   1      -1.235  -0.320  -2.552  0.00  0.00     0.055 A 
ATOM     20  C   UNL d   1      -2.321  -0.956  -3.185  0.00  0.00     0.031 A 
ATOM     21  C   UNL d   1      -2.439  -1.015  -4.579  0.00  0.00     0.002 A 
ATOM     22  C   UNL d   1      -1.482  -0.405  -5.379  0.00  0.00     0.000 A 
ATOM     23  C   UNL d   1      -0.409   0.247  -4.784  0.00  0.00     0.002 A 
ATOM     24  C   UNL d   1      -0.281   0.276  -3.388  0.00  0.00     0.031 A 
ENDBRANCH   4  19
BRANCH  10  25
ATOM     25  C   UNL d   1      -3.210   0.071   1.821  0.00  0.00    -0.001 A 
ATOM     26  C   UNL d   1      -2.909   0.513   3.118  0.00  0.00     0.014 A 
ATOM     27  C   UNL d   1      -3.933   0.820   4.017  0.00  0.00     0.001 A 
ATOM     28  C   UNL d   1      -5.264   0.694   3.631  0.00  0.00     0.000 A 
ATOM     29  C   UNL d   1      -5.575   0.270   2.337  0.00  0.00     0.001 A 
ATOM     30  C   UNL d   1      -4.554  -0.034   1.434  0.00  0.00     0.014 A 
ENDBRANCH  10  25
BRANCH  11  31
ATOM     31  C   UNL d   1       4.680   1.369   0.637  0.00  0.00    -0.035 A 
ATOM     32  C   UNL d   1       5.562   1.304  -0.447  0.00  0.00     0.014 A 
ATOM     33  C   UNL d   1       6.881   0.873  -0.264  0.00  0.00     0.037 A 
ATOM     34  C   UNL d   1       7.327   0.506   1.006  0.00  0.00     0.068 A 
ATOM     35  C   UNL d   1       6.456   0.599   2.093  0.00  0.00     0.037 A 
ATOM     36  C   UNL d   1       5.135   1.020   1.912  0.00  0.00     0.014 A 
BRANCH  34  37
ATOM     37  O   UNL d   1       8.591   0.074   1.305  0.00  0.00    -0.356 OA
ATOM     38  C   UNL d   1       9.295  -0.553   0.238  0.00  0.00     0.210 C 
ENDBRANCH  34  37
ENDBRANCH  11  31
TORSDOF 5
