REMARK  1 active torsions:
REMARK  status: ('A' for Active; 'I' for Inactive)
REMARK    1  A    between atoms: C_12  and  C_6 
ROOT
ATOM      1  C   UNL d   1      -0.233  -1.335   0.022  0.00  0.00     0.114 A 
ATOM      2  C   UNL d   1       1.043  -0.808   0.013  0.00  0.00     0.138 A 
ATOM      3  N   UNL d   1       0.869   0.557   0.008  0.00  0.00    -0.280 N 
ATOM      4  N   UNL d   1      -0.430   0.932  -0.011  0.00  0.00    -0.299 N 
ATOM      5  HN  UNL d   1      -0.806   1.880  -0.038  1.00  0.00     0.187 HD
ATOM      6  C   UNL d   1      -1.112  -0.223   0.013  0.00  0.00     0.063 A 
ATOM      7  C   UNL d   1      -0.567  -2.720   0.015  0.00  0.00     0.105 C 
ATOM      8  N   UNL d   1      -0.841  -3.847  -0.005  0.00  0.00    -0.191 NA
ATOM      9  N   UNL d   1       2.251  -1.414  -0.001  0.00  0.00    -0.383 N 
ATOM     10  C   UNL d   1       1.871   1.596  -0.004  0.00  0.00     0.179 C 
ATOM     11  H   UNL d   1       2.345  -2.429   0.032  0.00  0.00     0.157 HD
ATOM     12  H   UNL d   1       3.143  -0.929   0.039  0.00  0.00     0.157 HD
ENDROOT
BRANCH   6  13
ATOM     13  C   UNL d   1      -2.605  -0.205  -0.025  0.00  0.00     0.184 C 
ATOM     14  C   UNL d   1      -3.169  -0.185   1.331  0.00  0.00     0.065 C 
ATOM     15  N   UNL d   1      -3.649  -0.183   2.388  0.00  0.00    -0.197 NA
ENDBRANCH   6  13
TORSDOF 1
