REMARK  1 active torsions:
REMARK  status: ('A' for Active; 'I' for Inactive)
REMARK    1  A    between atoms: O_12  and  C_9 
ROOT
ATOM      1  C   UNL d   1      -0.023   0.649   0.018  0.00  0.00     0.092 A 
ATOM      2  C   UNL d   1       0.038  -0.751   0.004  0.00  0.00     0.044 A 
ATOM      3  C   UNL d   1      -1.215  -1.527   0.060  0.00  0.00     0.165 C 
ATOM      4  C   UNL d   1       1.165   1.405   0.064  0.00  0.00     0.005 A 
ATOM      5  O   UNL d   1      -1.213   1.338  -0.007  0.00  0.00    -0.339 OA
ATOM      6  C   UNL d   1      -2.370   0.590  -0.429  0.00  0.00     0.067 C 
ATOM      7  C   UNL d   1      -2.459  -0.735   0.322  0.00  0.00     0.121 C 
ATOM      8  C   UNL d   1       1.263  -1.418  -0.032  0.00  0.00     0.021 A 
ATOM      9  C   UNL d   1       2.388   0.714   0.036  0.00  0.00     0.074 A 
ATOM     10  O   UNL d   1      -1.218  -2.750  -0.045  0.00  0.00    -0.292 OA
ATOM     11  C   UNL d   1       2.441  -0.680  -0.022  0.00  0.00     0.038 A 
ATOM     12  C   UNL d   1       1.131   2.907   0.136  0.00  0.00     0.054 C 
ATOM     13  C   UNL d   1      -2.360   0.412  -1.960  0.00  0.00     0.046 C 
ATOM     14  C   UNL d   1      -3.593   1.444  -0.061  0.00  0.00     0.046 C 
ENDROOT
BRANCH   9  15
ATOM     15  O   UNL d   1       3.602   1.343   0.062  0.00  0.00    -0.360 OA
ATOM     16  H   UNL d   1       3.476   2.303   0.103  0.00  0.00     0.217 HD
ENDBRANCH   9  15
TORSDOF 1
