REMARK  1 active torsions:
REMARK  status: ('A' for Active; 'I' for Inactive)
REMARK    1  A    between atoms: N_10  and  C_1 
ROOT
ATOM      1  C   UNL d   1      -0.022   1.508   0.039  0.00  0.00     0.032 A 
ATOM      2  C   UNL d   1      -1.236   0.798   0.013  0.00  0.00     0.015 A 
ATOM      3  C   UNL d   1       1.204   0.785   0.042  0.00  0.00     0.051 A 
ATOM      4  C   UNL d   1      -1.172  -0.592  -0.020  0.00  0.00     0.150 A 
ATOM      5  N   UNL d   1      -0.021  -1.289  -0.053  0.00  0.00    -0.336 N 
ATOM      6  HN  UNL d   1      -0.031  -2.308  -0.103  1.00  0.00     0.168 HD
ATOM      7  C   UNL d   1       1.135  -0.620  -0.019  0.00  0.00     0.049 A 
ATOM      8  O   UNL d   1      -2.280  -1.396  -0.049  0.00  0.00    -0.335 OA
ATOM      9  C   UNL d   1       2.488   1.379   0.070  0.00  0.00     0.130 A 
ATOM     10  F   UNL d   1       2.613   2.716   0.088  0.00  0.00    -0.205 F 
ATOM     11  C   UNL d   1      -2.568   1.494   0.042  0.00  0.00     0.047 C 
ATOM     12  C   UNL d   1       2.314  -1.360  -0.041  0.00  0.00     0.030 A 
ATOM     13  C   UNL d   1       3.571  -0.755  -0.012  0.00  0.00     0.005 A 
ATOM     14  C   UNL d   1       3.658   0.626   0.042  0.00  0.00     0.043 A 
ATOM     15  C   UNL d   1      -3.490  -0.765   0.366  0.00  0.00     0.178 C 
ATOM     16  C   UNL d   1      -3.691   0.550  -0.358  0.00  0.00     0.031 C 
ENDROOT
BRANCH   1  17
ATOM     17  N   UNL d   1      -0.030   2.899   0.291  0.00  0.00    -0.301 NA
ATOM     18  H   UNL d   1      -0.822   3.407  -0.084  0.00  0.00     0.124 HD
ATOM     19  H   UNL d   1       0.856   3.354   0.071  0.00  0.00     0.124 HD
ENDBRANCH   1  17
TORSDOF 1
