REMARK  5 active torsions:
REMARK  status: ('A' for Active; 'I' for Inactive)
REMARK    1  A    between atoms: C_4  and  C_1 
REMARK    2  A    between atoms: C_5  and  C_1 
REMARK    3  A    between atoms: C_6  and  C_1 
REMARK       I    between atoms: N_2  and  C_5 
REMARK       I    between atoms: N_3  and  C_4 
REMARK    4  A    between atoms: C_11  and  C_6 
REMARK    5  A    between atoms: C_19  and  C_11 
ROOT
ATOM      1  C   UNL d   1       0.996  -0.070   0.215  0.00  0.00     0.178 C 
ENDROOT
BRANCH   1   2
ATOM      2  C   UNL d   1       0.386  -1.270   0.921  0.00  0.00     0.238 C 
ATOM      3  N   UNL d   1      -0.881  -1.657   0.529  0.00  0.00    -0.316 N 
ATOM      4  C   UNL d   1      -1.577  -2.771   1.044  0.00  0.00     0.043 A 
ATOM      5  C   UNL d   1      -1.573  -1.216  -0.697  0.00  0.00     0.137 C 
ATOM      6  C   UNL d   1      -2.704  -3.036   0.265  0.00  0.00    -0.030 A 
ATOM      7  C   UNL d   1      -1.270  -3.570   2.134  0.00  0.00     0.030 A 
ATOM      8  C   UNL d   1      -3.514  -4.133   0.519  0.00  0.00     0.009 A 
ATOM      9  C   UNL d   1      -2.894  -1.989  -0.783  0.00  0.00     0.061 C 
ATOM     10  C   UNL d   1      -3.191  -4.960   1.595  0.00  0.00     0.001 A 
ATOM     11  C   UNL d   1      -2.087  -4.671   2.409  0.00  0.00     0.002 A 
ATOM     12  O   UNL d   1       1.031  -1.843   1.804  0.00  0.00    -0.272 OA
ENDBRANCH   1   2
BRANCH   1  13
ATOM     13  C   UNL d   1       0.623   1.302   0.774  0.00  0.00     0.238 C 
ATOM     14  N   UNL d   1       0.830   1.592   2.111  0.00  0.00    -0.316 N 
ATOM     15  C   UNL d   1       0.965   2.893   2.651  0.00  0.00     0.043 A 
ATOM     16  C   UNL d   1       0.904   0.639   3.238  0.00  0.00     0.137 C 
ATOM     17  C   UNL d   1       1.095   2.835   4.041  0.00  0.00    -0.030 A 
ATOM     18  C   UNL d   1       1.027   4.115   1.999  0.00  0.00     0.030 A 
ATOM     19  C   UNL d   1       1.308   3.974   4.804  0.00  0.00     0.009 A 
ATOM     20  C   UNL d   1       0.918   1.442   4.543  0.00  0.00     0.061 C 
ATOM     21  C   UNL d   1       1.387   5.203   4.149  0.00  0.00     0.001 A 
ATOM     22  C   UNL d   1       1.236   5.271   2.757  0.00  0.00     0.002 A 
ATOM     23  O   UNL d   1       0.245   2.154  -0.041  0.00  0.00    -0.272 OA
ENDBRANCH   1  13
BRANCH   1  24
ATOM     24  C   UNL d   1       2.528  -0.204   0.184  0.00  0.00     0.107 C 
BRANCH  24  25
ATOM     25  C   UNL d   1       2.968  -1.411  -0.621  0.00  0.00     0.160 C 
ATOM     26  O   UNL d   1       2.279  -1.854  -1.541  0.00  0.00    -0.292 OA
BRANCH  25  27
ATOM     27  C   UNL d   1       4.294  -2.046  -0.320  0.00  0.00     0.010 A 
ATOM     28  C   UNL d   1       5.135  -1.566   0.692  0.00  0.00     0.015 A 
ATOM     29  C   UNL d   1       6.366  -2.182   0.938  0.00  0.00     0.001 A 
ATOM     30  C   UNL d   1       6.771  -3.270   0.171  0.00  0.00     0.000 A 
ATOM     31  C   UNL d   1       5.940  -3.756  -0.838  0.00  0.00     0.001 A 
ATOM     32  C   UNL d   1       4.701  -3.146  -1.084  0.00  0.00     0.015 A 
ENDBRANCH  25  27
ENDBRANCH  24  25
ENDBRANCH   1  24
TORSDOF 5
