REMARK  3 active torsions:
REMARK  status: ('A' for Active; 'I' for Inactive)
REMARK    1  A    between atoms: C_6  and  C_1 
REMARK       I    between atoms: N_9  and  C_6 
REMARK    2  A    between atoms: C_12  and  N_9 
REMARK    3  A    between atoms: C_13  and  C_12 
ROOT
ATOM      1  C   UNL d   1      -3.143  -1.751  -0.061  0.00  0.00     0.258 C 
ATOM      2  N   UNL d   1      -4.439  -1.286  -0.133  0.00  0.00    -0.352 N 
ATOM      3  O   UNL d   1      -2.190  -0.978  -0.014  0.00  0.00    -0.267 OA
ATOM      4  H   UNL d   1      -5.198  -1.952  -0.165  0.00  0.00     0.163 HD
ENDROOT
BRANCH   1   5
ATOM      5  C   UNL d   1      -2.955  -3.203  -0.037  0.00  0.00     0.074 A 
ATOM      6  S   UNL d   1      -4.268  -4.309  -0.028  0.00  0.00    -0.084 SA
ATOM      7  C   UNL d   1      -3.162  -5.662   0.026  0.00  0.00     0.023 A 
ATOM      8  C   UNL d   1      -3.294  -7.085   0.065  0.00  0.00     0.027 A 
ATOM      9  C   UNL d   1      -1.859  -5.251   0.033  0.00  0.00     0.023 A 
ATOM     10  C   UNL d   1      -2.059  -7.691   0.097  0.00  0.00     0.052 A 
ATOM     11  S   UNL d   1      -0.744  -6.593   0.084  0.00  0.00    -0.101 SA
ATOM     12  C   UNL d   1      -1.724  -3.834  -0.001  0.00  0.00     0.044 A 
ENDBRANCH   1   5
BRANCH   2  13
ATOM     13  C   UNL d   1      -4.749   0.125  -0.043  0.00  0.00     0.161 C 
BRANCH  13  14
ATOM     14  C   UNL d   1      -5.493   0.637  -1.251  0.00  0.00    -0.041 A 
ATOM     15  C   UNL d   1      -6.747   1.253  -1.115  0.00  0.00     0.009 A 
ATOM     16  C   UNL d   1      -7.396   1.799  -2.225  0.00  0.00     0.001 A 
ATOM     17  C   UNL d   1      -6.800   1.738  -3.483  0.00  0.00     0.000 A 
ATOM     18  C   UNL d   1      -5.555   1.129  -3.633  0.00  0.00     0.001 A 
ATOM     19  C   UNL d   1      -4.905   0.584  -2.523  0.00  0.00     0.009 A 
ENDBRANCH  13  14
ENDBRANCH   2  13
TORSDOF 3
