REMARK  4 active torsions:
REMARK  status: ('A' for Active; 'I' for Inactive)
REMARK    1  A    between atoms: C_3  and  C_1 
REMARK    2  A    between atoms: C_4  and  C_2 
REMARK    3  A    between atoms: C_5  and  C_3 
REMARK    4  A    between atoms: O_10  and  C_4 
ROOT
ATOM      1  C   UNL d   1       2.396  -0.219  -0.137  0.00  0.00     0.182 C 
ATOM      2  O   UNL d   1       2.980   0.863  -0.103  0.00  0.00    -0.288 OA
ENDROOT
BRANCH   1   3
ATOM      3  C   UNL d   1       0.911  -0.262  -0.177  0.00  0.00     0.062 C 
ATOM      4  C   UNL d   1       0.218   0.887  -0.183  0.00  0.00     0.085 C 
BRANCH   4   5
ATOM      5  C   UNL d   1      -1.252   0.816  -0.222  0.00  0.00     0.165 C 
ATOM      6  O   UNL d   1      -1.887  -0.224  -0.264  0.00  0.00    -0.647 OA
BRANCH   5   7
ATOM      7  O   UNL d   1      -1.824   2.034  -0.207  0.00  0.00    -0.773 OA
ATOM      8  H   UNL d   1      -1.207   2.787  -0.170  0.00  0.00     0.167 HD
ENDBRANCH   5   7
ENDBRANCH   4   5
ENDBRANCH   1   3
BRANCH   1   9
ATOM      9  C   UNL d   1       3.174  -1.497  -0.131  0.00  0.00     0.014 A 
ATOM     10  C   UNL d   1       2.591  -2.767  -0.222  0.00  0.00     0.016 A 
ATOM     11  C   UNL d   1       3.386  -3.918  -0.204  0.00  0.00     0.007 A 
ATOM     12  C   UNL d   1       4.777  -3.825  -0.100  0.00  0.00    -0.062 A 
ATOM     13  C   UNL d   1       5.365  -2.560  -0.011  0.00  0.00     0.007 A 
ATOM     14  C   UNL d   1       5.608  -5.073  -0.072  0.00  0.00     0.048 C 
ATOM     15  C   UNL d   1       4.571  -1.408  -0.028  0.00  0.00     0.016 A 
ENDBRANCH   1   9
TORSDOF 4
