REMARK  4 active torsions:
REMARK  status: ('A' for Active; 'I' for Inactive)
REMARK    1  A    between atoms: N_9  and  C_1 
REMARK    2  A    between atoms: C_10  and  C_2 
REMARK    3  A    between atoms: C_11  and  C_3 
REMARK    4  A    between atoms: C_12  and  C_8 
ROOT
ATOM      1  C   UNL d   1       0.019  -1.413  -0.034  0.00  0.00     0.109 A 
ATOM      2  C   UNL d   1       1.316  -0.834  -0.027  0.00  0.00     0.027 A 
ATOM      3  C   UNL d   1       1.422   0.595   0.079  0.00  0.00     0.017 A 
ATOM      4  N   UNL d   1      -1.081  -0.640   0.074  0.00  0.00    -0.289 N 
ATOM      5  HN  UNL d   1      -2.001  -1.079   0.086  1.00  0.00     0.188 HD
ATOM      6  N   UNL d   1      -0.986   0.718   0.167  0.00  0.00    -0.298 N 
ATOM      7  HN  UNL d   1      -1.837   1.277   0.235  1.00  0.00     0.187 HD
ATOM      8  C   UNL d   1       0.224   1.340   0.170  0.00  0.00     0.070 A 
ENDROOT
BRANCH   1   9
ATOM      9  N   UNL d   1      -0.148  -2.808  -0.108  0.00  0.00    -0.264 NA
ATOM     10  C   UNL d   1      -1.380  -3.325   0.518  0.00  0.00     0.123 C 
ATOM     11  C   UNL d   1      -1.278  -4.860   0.570  0.00  0.00     0.182 C 
ATOM     12  O   UNL d   1      -1.104  -5.421  -0.745  0.00  0.00    -0.389 OA
ATOM     13  C   UNL d   1       0.077  -4.885  -1.373  0.00  0.00     0.182 C 
ATOM     14  C   UNL d   1       0.016  -3.349  -1.472  0.00  0.00     0.123 C 
ENDBRANCH   1   9
BRANCH   2  15
ATOM     15  C   UNL d   1       2.526  -1.722  -0.070  0.00  0.00    -0.022 A 
ATOM     16  C   UNL d   1       3.569  -1.524  -0.993  0.00  0.00     0.012 A 
ATOM     17  C   UNL d   1       4.716  -2.327  -0.979  0.00  0.00     0.001 A 
ATOM     18  C   UNL d   1       4.820  -3.385  -0.082  0.00  0.00     0.000 A 
ATOM     19  C   UNL d   1       3.784  -3.634   0.811  0.00  0.00     0.001 A 
ATOM     20  C   UNL d   1       2.665  -2.799   0.829  0.00  0.00     0.012 A 
ENDBRANCH   2  15
BRANCH   3  21
ATOM     21  C   UNL d   1       2.747   1.278   0.093  0.00  0.00    -0.023 A 
ATOM     22  C   UNL d   1       3.077   2.261  -0.860  0.00  0.00     0.012 A 
ATOM     23  C   UNL d   1       4.305   2.927  -0.818  0.00  0.00     0.001 A 
ATOM     24  C   UNL d   1       5.251   2.588   0.144  0.00  0.00     0.000 A 
ATOM     25  C   UNL d   1       4.962   1.599   1.079  0.00  0.00     0.001 A 
ATOM     26  C   UNL d   1       3.714   0.969   1.069  0.00  0.00     0.012 A 
ENDBRANCH   3  21
BRANCH   8  27
ATOM     27  C   UNL d   1       0.095   2.822   0.226  0.00  0.00    -0.007 A 
ATOM     28  C   UNL d   1       0.915   3.639   1.026  0.00  0.00     0.014 A 
ATOM     29  C   UNL d   1       0.826   5.035   0.975  0.00  0.00     0.001 A 
ATOM     30  C   UNL d   1      -0.126   5.646   0.164  0.00  0.00     0.000 A 
ATOM     31  C   UNL d   1      -0.999   4.864  -0.584  0.00  0.00     0.001 A 
ATOM     32  C   UNL d   1      -0.884   3.472  -0.554  0.00  0.00     0.014 A 
ENDBRANCH   8  27
TORSDOF 4
