REMARK  3 active torsions:
REMARK  status: ('A' for Active; 'I' for Inactive)
REMARK    1  A    between atoms: C_3  and  N_1 
REMARK    2  A    between atoms: N_2  and  C_5 
REMARK    3  A    between atoms: C_10  and  C_4 
ROOT
ATOM      1  C   UNL d   1      -2.056  -2.143   1.039  0.00  0.00     0.103 A 
ATOM      2  C   UNL d   1      -1.747   0.032   0.025  0.00  0.00    -0.032 A 
ATOM      3  C   UNL d   1      -1.380  -0.916   0.986  0.00  0.00     0.047 A 
ATOM      4  C   UNL d   1      -3.098  -2.424   0.145  0.00  0.00     0.036 A 
ATOM      5  C   UNL d   1      -3.466  -1.468  -0.802  0.00  0.00     0.003 A 
ATOM      6  C   UNL d   1      -2.793  -0.245  -0.863  0.00  0.00     0.011 A 
ENDROOT
BRANCH   2   7
ATOM      7  C   UNL d   1      -1.002   1.288  -0.086  0.00  0.00     0.042 C 
ATOM      8  C   UNL d   1       0.112   1.390  -0.834  0.00  0.00     0.077 C 
ATOM      9  C   UNL d   1       0.753   0.337  -1.678  0.00  0.00     0.075 C 
BRANCH   8  10
ATOM     10  N   UNL d   1       0.793   2.682  -0.827  0.00  0.00    -0.120 N 
ATOM     11  O   UNL d   1       0.109   3.698  -0.632  0.00  0.00    -0.532 OA
ATOM     12  O   UNL d   1       2.013   2.680  -1.028  0.00  0.00    -0.532 OA
ENDBRANCH   8  10
ENDBRANCH   2   7
BRANCH   1  13
ATOM     13  N   UNL d   1      -1.653  -3.152   2.026  0.00  0.00    -0.116 N 
ATOM     14  O   UNL d   1      -0.719  -2.869   2.789  0.00  0.00    -0.532 OA
ATOM     15  O   UNL d   1      -2.267  -4.229   2.034  0.00  0.00    -0.532 OA
ENDBRANCH   1  13
TORSDOF 3
