REMARK  2 active torsions:
REMARK  status: ('A' for Active; 'I' for Inactive)
REMARK    1  A    between atoms: N_4  and  C_1 
REMARK       I    between atoms: C_6  and  N_4 
REMARK    2  A    between atoms: C_11  and  C_6 
ROOT
ATOM      1  C   UNL d   1      -3.110   0.090   0.037  0.00  0.00     0.152 A 
ATOM      2  N   UNL d   1      -2.436   1.198   0.240  0.00  0.00    -0.335 N 
ATOM      3  HN  UNL d   1      -2.849   2.113   0.424  1.00  0.00     0.168 HD
ATOM      4  S   UNL d   1      -2.180  -1.280  -0.372  0.00  0.00    -0.052 SA
ATOM      5  C   UNL d   1      -0.737  -0.379  -0.166  0.00  0.00     0.036 A 
ATOM      6  C   UNL d   1      -1.073   0.934   0.168  0.00  0.00     0.051 A 
ATOM      7  C   UNL d   1       0.594  -0.810  -0.291  0.00  0.00     0.045 A 
ATOM      8  C   UNL d   1      -0.027   1.854   0.399  0.00  0.00     0.032 A 
ATOM      9  C   UNL d   1       1.604   0.122  -0.057  0.00  0.00     0.035 A 
ATOM     10  C   UNL d   1       1.307   1.437   0.286  0.00  0.00     0.026 A 
ATOM     11 CL   UNL d   1       3.249  -0.371  -0.196  0.00  0.00    -0.084 Cl
ENDROOT
BRANCH   1  12
ATOM     12  N   UNL d   1      -4.488   0.049   0.092  0.00  0.00    -0.303 N 
ATOM     13  C   UNL d   1      -5.235  -1.103   0.196  0.00  0.00     0.257 C 
ATOM     14  O   UNL d   1      -4.795  -2.245   0.309  0.00  0.00    -0.267 OA
ATOM     15  H   UNL d   1      -4.915   0.952   0.239  0.00  0.00     0.171 HD
BRANCH  13  16
ATOM     16  C   UNL d   1      -6.718  -0.950   0.227  0.00  0.00     0.032 A 
ATOM     17  C   UNL d   1      -7.393   0.098  -0.409  0.00  0.00     0.017 A 
ATOM     18  C   UNL d   1      -8.793   0.116  -0.420  0.00  0.00     0.001 A 
ATOM     19  C   UNL d   1      -9.519  -0.905   0.199  0.00  0.00     0.000 A 
ATOM     20  C   UNL d   1      -8.851  -1.943   0.842  0.00  0.00     0.001 A 
ATOM     21  C   UNL d   1      -7.458  -1.965   0.856  0.00  0.00     0.017 A 
ENDBRANCH  13  16
ENDBRANCH   1  12
TORSDOF 2
