REMARK  4 active torsions:
REMARK  status: ('A' for Active; 'I' for Inactive)
REMARK    1  A    between atoms: C_3  and  C_1 
REMARK    2  A    between atoms: C_9  and  C_1 
REMARK    3  A    between atoms: C_12  and  C_2 
REMARK    4  A    between atoms: N_4  and  C_3 
ROOT
ATOM      1  N   UNL d   1       3.123  -7.448   0.288  0.00  0.00    -0.191 NA
ATOM      2  C   UNL d   1       2.718  -6.358   0.250  0.00  0.00     0.099 C 
ATOM      3  C   UNL d   1       1.050  -2.441   0.119  0.00  0.00    -0.035 A 
ATOM      4  C   UNL d   1       2.194  -5.019   0.205  0.00  0.00     0.044 A 
ATOM      5  C   UNL d   1       1.388  -3.030   1.344  0.00  0.00     0.013 A 
ATOM      6  C   UNL d   1       1.333  -3.133  -1.066  0.00  0.00     0.013 A 
ATOM      7  C   UNL d   1       1.954  -4.311   1.388  0.00  0.00     0.023 A 
ATOM      8  C   UNL d   1       1.893  -4.418  -1.023  0.00  0.00     0.023 A 
ENDROOT
BRANCH   3   9
ATOM      9  C   UNL d   1       0.384  -1.124   0.083  0.00  0.00     0.035 C 
ATOM     10  C   UNL d   1       1.014   0.073   0.067  0.00  0.00     0.054 C 
BRANCH  10  11
ATOM     11  C   UNL d   1       2.534   0.073   0.067  0.00  0.00    -0.035 C 
BRANCH  11  12
ATOM     12  N   UNL d   1       3.795   0.073   0.067  0.00  0.00    -0.365 N 
ATOM     13  HN2 UNL d   1       2.775   0.073   0.067  1.00  0.00     0.165 HD
ATOM     14  HN1 UNL d   1       4.815   0.073   0.067  1.00  0.00     0.165 HD
ENDBRANCH  11  12
ENDBRANCH  10  11
BRANCH  10  15
ATOM     15  C   UNL d   1       0.301   1.373   0.063  0.00  0.00     0.051 A 
ATOM     16  N   UNL d   1      -1.055   1.324   0.094  0.00  0.00    -0.365 N 
ATOM     17  C   UNL d   1      -1.731   2.496   0.109  0.00  0.00     0.088 A 
ATOM     18  HN  UNL d   1      -1.549   0.431   0.106  1.00  0.00     0.165 HD
ATOM     19  C   UNL d   1      -1.123   3.738   0.096  0.00  0.00     0.017 A 
ATOM     20  C   UNL d   1       0.262   3.783   0.061  0.00  0.00     0.004 A 
ATOM     21  C   UNL d   1       0.985   2.591   0.043  0.00  0.00     0.031 A 
ENDBRANCH  10  15
ENDBRANCH   3   9
TORSDOF 4
