REMARK  4 active torsions:
REMARK  status: ('A' for Active; 'I' for Inactive)
REMARK    1  A    between atoms: C_7  and  C_3 
REMARK    2  A    between atoms: C_10  and  C_4 
REMARK    3  A    between atoms: C_9  and  C_11 
REMARK    4  A    between atoms: O_18  and  C_13 
ROOT
ATOM      1  N   UNL d   1       1.153   0.252  -0.280  0.00  0.00    -0.318 N 
ATOM      2  HN  UNL d   1       2.131   0.440  -0.502  1.00  0.00     0.169 HD
ATOM      3  C   UNL d   1       0.566  -0.907  -0.109  0.00  0.00     0.185 A 
ATOM      4  C   UNL d   1       0.136   1.154  -0.089  0.00  0.00     0.138 A 
ATOM      5  N   UNL d   1      -1.051   0.596   0.179  0.00  0.00    -0.242 N 
ATOM      6  HN  UNL d   1      -1.942   1.058   0.358  1.00  0.00     0.196 HD
ATOM      7  O   UNL d   1      -0.775  -0.775   0.154  0.00  0.00    -0.217 OA
ENDROOT
BRANCH   4   8
ATOM      8  C   UNL d   1       0.394   2.583  -0.134  0.00  0.00     0.011 A 
ATOM      9  C   UNL d   1       1.352   3.094  -1.025  0.00  0.00     0.031 A 
ATOM     10  C   UNL d   1       1.656   4.463  -1.049  0.00  0.00     0.048 A 
ATOM     11  C   UNL d   1       0.999   5.317  -0.147  0.00  0.00     0.016 A 
ATOM     12  C   UNL d   1       0.050   4.815   0.742  0.00  0.00     0.002 A 
ATOM     13  C   UNL d   1      -0.261   3.456   0.743  0.00  0.00     0.015 A 
BRANCH  10  14
ATOM     14  C   UNL d   1       2.667   5.023  -2.018  0.00  0.00     0.417 C 
ATOM     15  F   UNL d   1       3.222   4.082  -2.832  0.00  0.00    -0.166 F 
ATOM     16  F   UNL d   1       2.128   5.960  -2.847  0.00  0.00    -0.166 F 
ATOM     17  F   UNL d   1       3.709   5.636  -1.391  0.00  0.00    -0.166 F 
ENDBRANCH  10  14
ENDBRANCH   4   8
BRANCH   3  18
ATOM     18  C   UNL d   1       1.122  -2.256  -0.025  0.00  0.00     0.051 A 
ATOM     19  C   UNL d   1       2.245  -2.738  -0.724  0.00  0.00     0.082 A 
ATOM     20  C   UNL d   1       2.712  -4.042  -0.447  0.00  0.00     0.038 A 
ATOM     21  C   UNL d   1       2.098  -4.870   0.489  0.00  0.00     0.003 A 
ATOM     22  C   UNL d   1       0.982  -4.414   1.166  0.00  0.00     0.001 A 
ATOM     23  C   UNL d   1       0.502  -3.129   0.909  0.00  0.00     0.018 A 
BRANCH  19  24
ATOM     24  O   UNL d   1       3.030  -2.182  -1.695  0.00  0.00    -0.355 OA
ATOM     25  C   UNL d   1       2.846  -0.864  -2.166  0.00  0.00     0.210 C 
ENDBRANCH  19  24
ENDBRANCH   3  18
TORSDOF 4
