REMARK  3 active torsions:
REMARK  status: ('A' for Active; 'I' for Inactive)
REMARK    1  A    between atoms: C_10  and  C_2 
REMARK    2  A    between atoms: C_11  and  C_9 
REMARK    3  A    between atoms: O_16  and  C_11 
ROOT
ATOM      1  C   UNL d   1      -0.062   0.495  -0.004  0.00  0.00     0.034 A 
ATOM      2  C   UNL d   1      -1.441   0.703  -0.003  0.00  0.00     0.145 A 
ATOM      3  C   UNL d   1       0.162  -0.822  -0.003  0.00  0.00     0.104 A 
ATOM      4  N   UNL d   1      -2.060  -0.515   0.000  0.00  0.00    -0.293 N 
ATOM      5  HN  UNL d   1      -3.062  -0.704   0.003  1.00  0.00     0.187 HD
ATOM      6  N   UNL d   1      -1.043  -1.423  -0.000  0.00  0.00    -0.288 N 
ATOM      7  S   UNL d   1       1.761  -1.252  -0.006  0.00  0.00    -0.063 SA
ATOM      8  C   UNL d   1       1.093   1.276  -0.007  0.00  0.00     0.042 A 
ATOM      9  C   UNL d   1       2.215   0.438  -0.009  0.00  0.00     0.081 A 
ATOM     10  C   UNL d   1      -1.339  -2.834   0.002  0.00  0.00     0.178 C 
ENDROOT
BRANCH   2  11
ATOM     11  C   UNL d   1      -2.209   1.992  -0.004  0.00  0.00     0.434 C 
ATOM     12  F   UNL d   1      -1.394   3.083  -0.003  0.00  0.00    -0.165 F 
ATOM     13  F   UNL d   1      -3.008   2.117  -1.098  0.00  0.00    -0.165 F 
ATOM     14  F   UNL d   1      -3.013   2.117   1.087  0.00  0.00    -0.165 F 
ENDBRANCH   2  11
BRANCH   9  15
ATOM     15  C   UNL d   1       3.612   0.839  -0.012  0.00  0.00     0.183 C 
ATOM     16  O   UNL d   1       4.011   1.994  -0.010  0.00  0.00    -0.646 OA
BRANCH  15  17
ATOM     17  O   UNL d   1       4.473  -0.212  -0.018  0.00  0.00    -0.772 OA
ATOM     18  H   UNL d   1       4.002  -1.069  -0.020  0.00  0.00     0.167 HD
ENDBRANCH  15  17
ENDBRANCH   9  15
TORSDOF 3
