REMARK  1 active torsions:
REMARK  status: ('A' for Active; 'I' for Inactive)
REMARK    1  A    between atoms: N_3  and  C_1 
REMARK       I    between atoms: C_6  and  N_3 
ROOT
ATOM      1  C   UNL d   1      -0.848   1.136  -0.081  0.00  0.00     0.062 A 
ATOM      2  C   UNL d   1      -1.440  -0.150  -0.116  0.00  0.00     0.062 A 
ATOM      3  C   UNL d   1       0.562   1.233   0.001  0.00  0.00    -0.032 A 
ATOM      4  C   UNL d   1      -0.654  -1.304  -0.017  0.00  0.00     0.050 A 
ATOM      5  C   UNL d   1       0.724  -1.194   0.081  0.00  0.00     0.036 A 
ATOM      6  C   UNL d   1       1.332   0.056   0.076  0.00  0.00     0.033 A 
ATOM      7 CL   UNL d   1      -3.112  -0.414  -0.494  0.00  0.00    -0.082 Cl
ATOM      8 CL   UNL d   1       1.695  -2.615   0.162  0.00  0.00    -0.084 Cl
ATOM      9  C   UNL d   1       1.324   2.533   0.026  0.00  0.00     0.050 C 
ENDROOT
BRANCH   1  10
ATOM     10  N   UNL d   1      -1.597   2.334  -0.196  0.00  0.00    -0.326 N 
ATOM     11  C   UNL d   1      -2.742   2.612   0.534  0.00  0.00     0.218 C 
ATOM     12  O   UNL d   1      -3.245   1.897   1.394  0.00  0.00    -0.274 OA
ATOM     13  C   UNL d   1      -3.327   3.965   0.206  0.00  0.00     0.117 C 
ATOM     14  H   UNL d   1      -1.108   3.144  -0.546  0.00  0.00     0.169 HD
ENDBRANCH   1  10
TORSDOF 1
