REMARK  2 active torsions:
REMARK  status: ('A' for Active; 'I' for Inactive)
REMARK    1  A    between atoms: C_11  and  C_5 
REMARK    2  A    between atoms: N_16  and  C_6 
ROOT
ATOM      1  C   UNL d   1      -0.333   0.941  -0.150  0.00  0.00     0.066 A 
ATOM      2  C   UNL d   1       0.122  -0.320  -0.125  0.00  0.00     0.104 A 
ATOM      3  C   UNL d   1      -2.669  -0.048  -0.156  0.00  0.00     0.086 A 
ATOM      4  C   UNL d   1       0.614   2.078  -0.184  0.00  0.00     0.298 A 
ATOM      5  C   UNL d   1      -1.820   1.227  -0.179  0.00  0.00     0.110 A 
ATOM      6  C   UNL d   1      -2.093  -1.268  -0.095  0.00  0.00     0.159 A 
ATOM      7  O   UNL d   1      -0.712  -1.421  -0.129  0.00  0.00    -0.291 OA
ATOM      8  C   UNL d   1       1.552  -0.608  -0.065  0.00  0.00     0.033 A 
ATOM      9  O   UNL d   1       1.966   1.787  -0.052  0.00  0.00    -0.274 OA
ATOM     10  C   UNL d   1       2.437   0.464  -0.013  0.00  0.00     0.092 A 
ATOM     11  C   UNL d   1      -4.095   0.084  -0.139  0.00  0.00     0.100 C 
ATOM     12  N   UNL d   1      -5.251   0.177  -0.139  0.00  0.00    -0.191 NA
ATOM     13  O   UNL d   1       0.235   3.233  -0.340  0.00  0.00    -0.259 OA
ATOM     14  C   UNL d   1       2.078  -1.905  -0.035  0.00  0.00     0.017 A 
ATOM     15  C   UNL d   1       3.817   0.279   0.068  0.00  0.00     0.038 A 
ATOM     16  C   UNL d   1       3.459  -2.107   0.044  0.00  0.00     0.001 A 
ATOM     17  C   UNL d   1       4.328  -1.017   0.095  0.00  0.00     0.003 A 
ENDROOT
BRANCH   5  18
ATOM     18  C   UNL d   1      -2.270   2.206   0.913  0.00  0.00    -0.022 A 
ATOM     19  C   UNL d   1      -2.230   1.923   2.291  0.00  0.00     0.041 A 
ATOM     20 CL   UNL d   1      -1.613   0.440   2.928  0.00  0.00    -0.084 Cl
ATOM     21  C   UNL d   1      -2.702   2.851   3.221  0.00  0.00     0.024 A 
ATOM     22  C   UNL d   1      -3.205   4.082   2.804  0.00  0.00     0.002 A 
ATOM     23  C   UNL d   1      -3.237   4.388   1.446  0.00  0.00     0.001 A 
ATOM     24  C   UNL d   1      -2.776   3.460   0.509  0.00  0.00     0.010 A 
ENDBRANCH   5  18
BRANCH   6  25
ATOM     25  N   UNL d   1      -2.751  -2.461   0.039  0.00  0.00    -0.379 N 
ATOM     26  H   UNL d   1      -3.747  -2.497  -0.149  0.00  0.00     0.158 HD
ATOM     27  H   UNL d   1      -2.212  -3.286  -0.204  0.00  0.00     0.158 HD
ENDBRANCH   6  25
TORSDOF 2
