REMARK  4 active torsions:
REMARK  status: ('A' for Active; 'I' for Inactive)
REMARK    1  A    between atoms: C_7  and  N_1 
REMARK    2  A    between atoms: C_9  and  N_4 
REMARK    3  A    between atoms: C_10  and  C_7 
REMARK    4  A    between atoms: C_11  and  C_9 
ROOT
ATOM      1  N   UNL d   1       0.767   1.117  -0.211  0.00  0.00    -0.337 N 
ATOM      2  C   UNL d   1       1.606   0.172   0.333  0.00  0.00     0.140 C 
ATOM      3  S   UNL d   1       1.089  -1.453  -0.039  0.00  0.00    -0.070 SA
ATOM      4  N   UNL d   1      -1.289  -0.073  -0.241  0.00  0.00     0.119 N 
ATOM      5  C   UNL d   1      -0.614   1.134   0.217  0.00  0.00     0.400 C 
ATOM      6  C   UNL d   1      -0.658  -1.271   0.311  0.00  0.00     0.356 C 
ATOM      7  S   UNL d   1       3.026   0.485   1.156  0.00  0.00    -0.053 SA
ENDROOT
BRANCH   1   8
ATOM      8  C   UNL d   1       1.272   2.286  -0.935  0.00  0.00     0.164 C 
BRANCH   8   9
ATOM      9  C   UNL d   1       0.785   2.291  -2.368  0.00  0.00    -0.040 A 
ATOM     10  C   UNL d   1       0.053   3.372  -2.877  0.00  0.00     0.009 A 
ATOM     11  C   UNL d   1      -0.406   3.357  -4.197  0.00  0.00     0.001 A 
ATOM     12  C   UNL d   1      -0.138   2.265  -5.022  0.00  0.00     0.000 A 
ATOM     13  C   UNL d   1       0.601   1.189  -4.531  0.00  0.00     0.001 A 
ATOM     14  C   UNL d   1       1.062   1.206  -3.215  0.00  0.00     0.009 A 
ENDBRANCH   8   9
ENDBRANCH   1   8
BRANCH   4  15
ATOM     15  C   UNL d   1      -2.703  -0.073   0.200  0.00  0.00     0.314 C 
BRANCH  15  16
ATOM     16  C   UNL d   1      -3.514   1.124  -0.247  0.00  0.00    -0.030 A 
ATOM     17  C   UNL d   1      -3.691   1.396  -1.611  0.00  0.00     0.009 A 
ATOM     18  C   UNL d   1      -4.423   2.512  -2.017  0.00  0.00     0.001 A 
ATOM     19  C   UNL d   1      -4.986   3.363  -1.068  0.00  0.00     0.000 A 
ATOM     20  C   UNL d   1      -4.823   3.099   0.290  0.00  0.00     0.001 A 
ATOM     21  C   UNL d   1      -4.093   1.983   0.700  0.00  0.00     0.009 A 
ENDBRANCH  15  16
ENDBRANCH   4  15
TORSDOF 4
