REMARK  3 active torsions:
REMARK  status: ('A' for Active; 'I' for Inactive)
REMARK    1  A    between atoms: C_4  and  N_1 
REMARK    2  A    between atoms: C_3  and  C_2 
REMARK    3  A    between atoms: O_11  and  C_3 
ROOT
ATOM      1  N   UNL d   1      -0.256  -1.175  -0.024  0.00  0.00    -0.317 N 
ATOM      2  C   UNL d   1       1.057  -0.711   0.075  0.00  0.00     0.115 A 
ATOM      3  C   UNL d   1      -1.084  -0.067  -0.132  0.00  0.00     0.098 A 
ATOM      4  C   UNL d   1       1.000   0.680   0.120  0.00  0.00     0.038 A 
ATOM      5  C   UNL d   1      -0.339   1.081  -0.025  0.00  0.00     0.020 A 
ENDROOT
BRANCH   1   6
ATOM      6  C   UNL d   1      -0.739  -2.522   0.013  0.00  0.00     0.039 A 
ATOM      7  C   UNL d   1      -0.063  -3.516   0.734  0.00  0.00     0.033 A 
ATOM      8  C   UNL d   1      -0.533  -4.832   0.732  0.00  0.00     0.044 A 
ATOM      9  C   UNL d   1      -1.686  -5.151   0.028  0.00  0.00     0.116 A 
ATOM     10  C   UNL d   1      -2.390  -4.173  -0.664  0.00  0.00     0.044 A 
ATOM     11  F   UNL d   1      -2.127  -6.415   0.017  0.00  0.00    -0.206 F 
ATOM     12  C   UNL d   1      -1.924  -2.856  -0.666  0.00  0.00     0.033 A 
ENDBRANCH   1   6
BRANCH   2  13
ATOM     13  C   UNL d   1       2.261  -1.511   0.034  0.00  0.00     0.310 C 
ATOM     14  O   UNL d   1       2.391  -2.604  -0.502  0.00  0.00    -0.258 OA
BRANCH  13  15
ATOM     15  O   UNL d   1       3.261  -0.864   0.700  0.00  0.00    -0.321 OA
ATOM     16  C   UNL d   1       4.484  -1.597   0.771  0.00  0.00     0.213 C 
ENDBRANCH  13  15
ENDBRANCH   2  13
TORSDOF 3
