REMARK  3 active torsions:
REMARK  status: ('A' for Active; 'I' for Inactive)
REMARK       I    between atoms: C_2  and  N_1 
REMARK    1  A    between atoms: C_9  and  C_2 
REMARK    2  A    between atoms: C_3  and  C_6 
REMARK    3  A    between atoms: C_10  and  C_3 
ROOT
ATOM      1  N   UNL d   1       1.385  -0.056   0.261  0.00  0.00    -0.352 N 
ATOM      2  C   UNL d   1       2.467  -0.048   1.142  0.00  0.00     0.224 C 
ATOM      3  C   UNL d   1       0.737  -1.241  -0.288  0.00  0.00     0.126 C 
ATOM      4  C   UNL d   1       0.787   1.212  -0.147  0.00  0.00     0.126 C 
ATOM      5  C   UNL d   1      -1.473   0.014  -0.234  0.00  0.00     0.064 C 
ATOM      6  O   UNL d   1       2.934   1.024   1.553  0.00  0.00    -0.273 OA
ATOM      7  C   UNL d   1      -0.688   1.247   0.254  0.00  0.00     0.032 C 
ATOM      8  C   UNL d   1      -0.731  -1.280   0.144  0.00  0.00     0.032 C 
ENDROOT
BRANCH   5   9
ATOM      9  C   UNL d   1      -1.739   0.075  -1.742  0.00  0.00     0.163 C 
ATOM     10  O   UNL d   1      -1.004   0.706  -2.501  0.00  0.00    -0.292 OA
BRANCH   9  11
ATOM     11  C   UNL d   1      -2.897  -0.663  -2.336  0.00  0.00     0.010 A 
ATOM     12  C   UNL d   1      -3.775  -1.445  -1.578  0.00  0.00     0.015 A 
ATOM     13  C   UNL d   1      -4.839  -2.110  -2.200  0.00  0.00     0.001 A 
ATOM     14  C   UNL d   1      -5.030  -1.995  -3.575  0.00  0.00     0.000 A 
ATOM     15  C   UNL d   1      -4.162  -1.221  -4.338  0.00  0.00     0.001 A 
ATOM     16  C   UNL d   1      -3.099  -0.557  -3.722  0.00  0.00     0.015 A 
ENDBRANCH   9  11
ENDBRANCH   5   9
BRANCH   2  17
ATOM     17  C   UNL d   1       3.059  -1.409   1.593  0.00  0.00     0.078 C 
ATOM     18  C   UNL d   1       2.196  -2.328   2.501  0.00  0.00     0.014 C 
ATOM     19  C   UNL d   1       3.457  -2.648   3.316  0.00  0.00     0.002 C 
ATOM     20  C   UNL d   1       4.075  -1.354   2.774  0.00  0.00     0.014 C 
ENDBRANCH   2  17
TORSDOF 3
