REMARK  5 active torsions:
REMARK  status: ('A' for Active; 'I' for Inactive)
REMARK    1  A    between atoms: C_8  and  C_1 
REMARK    2  A    between atoms: N_18  and  C_2 
REMARK       I    between atoms: N_17  and  C_8 
REMARK    3  A    between atoms: C_20  and  C_10 
REMARK    4  A    between atoms: C_13  and  C_21 
REMARK    5  A    between atoms: N_14  and  N_17 
ROOT
ATOM      1  C   UNL d   1       2.410   0.084   0.063  0.00  0.00     0.174 A 
ATOM      2  C   UNL d   1       1.656   1.243   0.047  0.00  0.00     0.081 A 
ATOM      3  C   UNL d   1       0.286   0.874   0.043  0.00  0.00     0.051 A 
ATOM      4  C   UNL d   1       0.288  -0.526   0.058  0.00  0.00     0.162 A 
ATOM      5  O   UNL d   1       1.577  -1.003   0.075  0.00  0.00    -0.285 OA
ATOM      6  N   UNL d   1      -0.784  -1.344   0.048  0.00  0.00    -0.335 N 
ATOM      7  HN  UNL d   1      -0.705  -2.361   0.070  1.00  0.00     0.168 HD
ATOM      8  C   UNL d   1      -0.963   1.529   0.031  0.00  0.00    -0.043 A 
ATOM      9  C   UNL d   1      -1.977  -0.699   0.006  0.00  0.00     0.044 A 
ATOM     10  C   UNL d   1      -2.094   0.695   0.019  0.00  0.00     0.038 A 
ATOM     11  C   UNL d   1      -1.193   3.013   0.016  0.00  0.00     0.049 C 
ENDROOT
BRANCH   1  12
ATOM     12  C   UNL d   1       3.854  -0.052   0.061  0.00  0.00     0.296 C 
ATOM     13  N   UNL d   1       4.363  -1.347   0.082  0.00  0.00    -0.264 N 
ATOM     14  H   UNL d   1       3.740  -2.149   0.107  0.00  0.00     0.190 HD
ATOM     15  O   UNL d   1       4.593   0.939   0.038  0.00  0.00    -0.264 OA
BRANCH  13  16
ATOM     16  N   UNL d   1       5.720  -1.492   0.121  0.00  0.00    -0.308 N 
ATOM     17  C   UNL d   1       6.217  -2.685   0.123  0.00  0.00     0.120 C 
ATOM     18  HN  UNL d   1       6.330  -0.675   0.148  1.00  0.00     0.186 HD
BRANCH  17  19
ATOM     19  C   UNL d   1       7.692  -2.867   0.200  0.00  0.00     0.003 A 
ATOM     20  C   UNL d   1       8.288  -4.135   0.200  0.00  0.00     0.047 A 
ATOM     21  C   UNL d   1       9.678  -4.257   0.326  0.00  0.00     0.048 A 
ATOM     22 CL   UNL d   1       7.377  -5.595   0.048  0.00  0.00    -0.083 Cl
ATOM     23  C   UNL d   1      10.472  -3.119   0.446  0.00  0.00     0.035 A 
ATOM     24  C   UNL d   1       9.895  -1.853   0.428  0.00  0.00     0.025 A 
ATOM     25 CL   UNL d   1      12.176  -3.277   0.627  0.00  0.00    -0.084 Cl
ATOM     26  C   UNL d   1       8.509  -1.728   0.303  0.00  0.00     0.016 A 
ENDBRANCH  17  19
ENDBRANCH  13  16
ENDBRANCH   1  12
BRANCH   2  27
ATOM     27  N   UNL d   1       2.186   2.482   0.035  0.00  0.00    -0.396 N 
ATOM     28  H   UNL d   1       3.202   2.604  -0.011  0.00  0.00     0.156 HD
ATOM     29  H   UNL d   1       1.667   3.341  -0.090  0.00  0.00     0.156 HD
ENDBRANCH   2  27
BRANCH   9  30
ATOM     30  C   UNL d   1      -3.184  -1.555  -0.087  0.00  0.00    -0.009 A 
ATOM     31  C   UNL d   1      -3.261  -2.788   0.583  0.00  0.00     0.013 A 
ATOM     32  C   UNL d   1      -4.394  -3.604   0.481  0.00  0.00     0.001 A 
ATOM     33  C   UNL d   1      -5.479  -3.204  -0.297  0.00  0.00     0.000 A 
ATOM     34  C   UNL d   1      -5.436  -1.986  -0.964  0.00  0.00     0.001 A 
ATOM     35  C   UNL d   1      -4.302  -1.173  -0.860  0.00  0.00     0.013 A 
ENDBRANCH   9  30
TORSDOF 5
