REMARK  9 active torsions:
REMARK  status: ('A' for Active; 'I' for Inactive)
REMARK    1  A    between atoms: C_2  and  C_1 
REMARK    2  A    between atoms: C_5  and  O_10 
REMARK       I    between atoms: C_6  and  N_7 
REMARK    3  A    between atoms: C_22  and  C_6 
REMARK    4  A    between atoms: N_7  and  C_17 
REMARK    5  A    between atoms: C_8  and  C_24 
REMARK    6  A    between atoms: O_20  and  C_8 
REMARK    7  A    between atoms: O_10  and  C_11 
REMARK    8  A    between atoms: C_25  and  C_22 
REMARK    9  A    between atoms: C_24  and  C_25 
ROOT
ATOM      1  N   UNL d   1      -4.557   1.842  -0.852  0.00  0.00    -0.344 N 
ATOM      2  HN  UNL d   1      -4.675   2.399  -1.698  1.00  0.00     0.167 HD
ATOM      3  C   UNL d   1      -3.640   2.162   0.089  0.00  0.00     0.148 A 
ATOM      4  C   UNL d   1      -5.179  -0.084   0.505  0.00  0.00     0.050 A 
ATOM      5  C   UNL d   1      -5.312   0.742  -0.611  0.00  0.00     0.119 A 
ATOM      6  C   UNL d   1      -3.424   1.409   1.230  0.00  0.00     0.059 A 
ATOM      7  C   UNL d   1      -4.205   0.273   1.437  0.00  0.00     0.035 A 
ENDROOT
BRANCH   3   8
ATOM      8  O   UNL d   1      -2.823   3.277  -0.069  0.00  0.00    -0.294 OA
BRANCH   8   9
ATOM      9  C   UNL d   1      -3.263   4.308  -0.865  0.00  0.00     0.078 A 
ATOM     10  C   UNL d   1      -4.591   4.742  -0.902  0.00  0.00     0.053 A 
ATOM     11  C   UNL d   1      -4.973   5.795  -1.744  0.00  0.00     0.050 A 
ATOM     12  C   UNL d   1      -3.989   6.454  -2.497  0.00  0.00     0.016 A 
ATOM     13  C   UNL d   1      -2.653   6.057  -2.419  0.00  0.00     0.004 A 
ATOM     14  C   UNL d   1      -2.292   4.983  -1.605  0.00  0.00     0.037 A 
BRANCH  11  15
ATOM     15  C   UNL d   1      -6.421   6.196  -1.859  0.00  0.00     0.417 C 
ATOM     16  F   UNL d   1      -7.263   5.449  -1.090  0.00  0.00    -0.166 F 
ATOM     17  F   UNL d   1      -6.891   6.090  -3.133  0.00  0.00    -0.166 F 
ATOM     18  F   UNL d   1      -6.635   7.490  -1.490  0.00  0.00    -0.166 F 
ENDBRANCH  11  15
ENDBRANCH   8   9
ENDBRANCH   3   8
BRANCH   4  19
ATOM     19  N   UNL d   1      -6.018  -1.214   0.624  0.00  0.00    -0.326 N 
ATOM     20  C   UNL d   1      -5.953  -2.186   1.605  0.00  0.00     0.222 C 
ATOM     21  O   UNL d   1      -5.173  -2.219   2.551  0.00  0.00    -0.273 OA
ATOM     22  H   UNL d   1      -6.753  -1.305  -0.073  0.00  0.00     0.169 HD
BRANCH  20  23
ATOM     23  C   UNL d   1      -6.990  -3.282   1.442  0.00  0.00     0.103 C 
BRANCH  23  24
ATOM     24  C   UNL d   1      -7.937  -3.326   2.644  0.00  0.00     0.019 C 
BRANCH  24  25
ATOM     25  C   UNL d   1      -8.775  -2.061   2.817  0.00  0.00     0.110 C 
BRANCH  25  26
ATOM     26  C   UNL d   1      -9.668  -1.839   1.626  0.00  0.00     0.139 C 
ATOM     27  O   UNL d   1      -9.302  -1.265   0.610  0.00  0.00    -0.650 OA
BRANCH  26  28
ATOM     28  O   UNL d   1     -10.885  -2.412   1.745  0.00  0.00    -0.776 OA
ATOM     29  H   UNL d   1     -11.033  -2.868   2.596  0.00  0.00     0.167 HD
ENDBRANCH  26  28
ENDBRANCH  25  26
ENDBRANCH  24  25
ENDBRANCH  23  24
ENDBRANCH  20  23
ENDBRANCH   4  19
TORSDOF 9
