REMARK  6 active torsions:
REMARK  status: ('A' for Active; 'I' for Inactive)
REMARK    1  A    between atoms: C_6  and  N_1 
REMARK    2  A    between atoms: C_3  and  C_2 
REMARK       I    between atoms: N_5  and  C_3 
REMARK       I    between atoms: C_4  and  N_8 
REMARK       I    between atoms: N_13  and  C_4 
REMARK    3  A    between atoms: N_8  and  N_5 
REMARK    4  A    between atoms: C_20  and  N_13 
REMARK    5  A    between atoms: C_21  and  C_20 
REMARK    6  A    between atoms: C_22  and  C_21 
ROOT
ATOM      1  C   UNL d   1       2.254  -1.373  -0.005  0.00  0.00     0.287 C 
ATOM      2  N   UNL d   1       3.426  -0.636   0.045  0.00  0.00    -0.261 N 
ATOM      3  O   UNL d   1       2.294  -2.594  -0.144  0.00  0.00    -0.264 OA
ATOM      4  H   UNL d   1       3.460   0.343   0.318  0.00  0.00     0.190 HD
ENDROOT
BRANCH   1   5
ATOM      5  C   UNL d   1       1.026  -0.602   0.108  0.00  0.00     0.109 A 
ATOM      6  N   UNL d   1      -0.187  -1.057   0.642  0.00  0.00    -0.318 N 
ATOM      7  C   UNL d   1      -1.160  -0.114   0.346  0.00  0.00     0.098 A 
ATOM      8  C   UNL d   1      -0.583   0.964  -0.275  0.00  0.00     0.020 A 
ATOM      9  C   UNL d   1       0.787   0.669  -0.413  0.00  0.00     0.037 A 
BRANCH   6  10
ATOM     10  C   UNL d   1      -0.445  -2.232   1.416  0.00  0.00     0.039 A 
ATOM     11  C   UNL d   1       0.549  -2.790   2.232  0.00  0.00     0.033 A 
ATOM     12  C   UNL d   1       0.272  -3.923   3.003  0.00  0.00     0.044 A 
ATOM     13  C   UNL d   1      -0.995  -4.490   2.966  0.00  0.00     0.116 A 
ATOM     14  C   UNL d   1      -1.997  -3.943   2.176  0.00  0.00     0.044 A 
ATOM     15  F   UNL d   1      -1.256  -5.575   3.706  0.00  0.00    -0.206 F 
ATOM     16  C   UNL d   1      -1.727  -2.811   1.404  0.00  0.00     0.033 A 
ENDBRANCH   6  10
ENDBRANCH   1   5
BRANCH   2  17
ATOM     17  N   UNL d   1       4.663  -1.321  -0.009  0.00  0.00    -0.249 N 
ATOM     18  C   UNL d   1       5.743  -0.746   0.633  0.00  0.00     0.334 C 
ATOM     19  O   UNL d   1       5.685   0.342   1.196  0.00  0.00    -0.246 OA
ATOM     20  N   UNL d   1       6.875  -1.517   0.533  0.00  0.00    -0.342 N 
ATOM     21  H   UNL d   1       6.894  -2.181  -0.229  0.00  0.00     0.164 HD
ATOM     22  H   UNL d   1       4.577  -2.336   0.036  0.00  0.00     0.192 HD
BRANCH  20  23
ATOM     23  C   UNL d   1       8.155  -1.087   1.073  0.00  0.00     0.124 C 
BRANCH  23  24
ATOM     24  C   UNL d   1       8.389  -1.648   2.475  0.00  0.00     0.019 C 
BRANCH  24  25
ATOM     25  C   UNL d   1       9.735  -1.200   3.048  0.00  0.00    -0.003 C 
ATOM     26  C   UNL d   1       9.960  -1.750   4.449  0.00  0.00     0.005 C 
ENDBRANCH  24  25
ENDBRANCH  23  24
ENDBRANCH  20  23
ENDBRANCH   2  17
TORSDOF 6
