REMARK  4 active torsions:
REMARK  status: ('A' for Active; 'I' for Inactive)
REMARK    1  A    between atoms: C_15  and  N_1 
REMARK    2  A    between atoms: C_6  and  C_10 
REMARK    3  A    between atoms: C_14  and  C_7 
REMARK       I    between atoms: C_10  and  N_12 
REMARK    4  A    between atoms: N_12  and  C_14 
ROOT
ATOM      1  C   UNL d   1       4.703   1.255   0.152  0.00  0.00     0.254 C 
ATOM      2  N   UNL d   1       3.442   0.735   0.123  0.00  0.00    -0.351 N 
ATOM      3  O   UNL d   1       4.934   2.458   0.217  0.00  0.00    -0.268 OA
ATOM      4  H   UNL d   1       3.313  -0.268  -0.006  0.00  0.00     0.163 HD
ENDROOT
BRANCH   2   5
ATOM      5  C   UNL d   1       2.247   1.528   0.034  0.00  0.00     0.183 C 
BRANCH   5   6
ATOM      6  C   UNL d   1       1.065   0.618  -0.000  0.00  0.00     0.069 A 
ATOM      7  N   UNL d   1       1.180  -0.720  -0.038  0.00  0.00    -0.280 N 
ATOM      8  N   UNL d   1      -0.117  -1.134  -0.071  0.00  0.00    -0.197 N 
ATOM      9  HN  UNL d   1       2.029  -1.286  -0.042  1.00  0.00     0.189 HD
ATOM     10  N   UNL d   1      -1.054  -0.140  -0.080  0.00  0.00    -0.282 N 
ATOM     11  C   UNL d   1      -0.298   0.968  -0.012  0.00  0.00     0.049 A 
ATOM     12  HN  UNL d   1      -2.070  -0.218  -0.127  1.00  0.00     0.189 HD
ATOM     13  C   UNL d   1      -0.860   2.336   0.036  0.00  0.00     0.072 C 
BRANCH   8  14
ATOM     14  C   UNL d   1      -0.438  -2.521  -0.093  0.00  0.00     0.074 A 
ATOM     15  C   UNL d   1       0.599  -3.467   0.023  0.00  0.00     0.033 A 
ATOM     16  C   UNL d   1       0.316  -4.833   0.013  0.00  0.00     0.002 A 
ATOM     17  C   UNL d   1      -0.998  -5.269  -0.121  0.00  0.00     0.000 A 
ATOM     18  C   UNL d   1      -2.032  -4.334  -0.244  0.00  0.00     0.002 A 
ATOM     19  C   UNL d   1      -1.756  -2.963  -0.227  0.00  0.00     0.033 A 
ENDBRANCH   8  14
ENDBRANCH   5   6
ENDBRANCH   2   5
BRANCH   1  20
ATOM     20  C   UNL d   1       5.811   0.257   0.143  0.00  0.00     0.069 A 
ATOM     21  C   UNL d   1       5.681  -1.028  -0.420  0.00  0.00     0.096 A 
ATOM     22  C   UNL d   1       6.729  -1.954  -0.322  0.00  0.00     0.003 A 
ATOM     23  O   UNL d   1       4.508  -1.361  -1.047  0.00  0.00    -0.325 OA
ATOM     24  C   UNL d   1       6.565  -3.330  -0.894  0.00  0.00     0.212 C 
ATOM     25  C   UNL d   1       7.926  -1.570   0.291  0.00  0.00     0.054 A 
ATOM     26  O   UNL d   1       5.190  -3.631  -1.100  0.00  0.00    -0.362 OA
ATOM     27  C   UNL d   1       4.569  -2.567  -1.804  0.00  0.00     0.345 C 
ATOM     28  C   UNL d   1       8.059  -0.286   0.812  0.00  0.00     0.118 A 
ATOM     29  C   UNL d   1       7.018   0.630   0.745  0.00  0.00     0.062 A 
ATOM     30  F   UNL d   1       9.208   0.064   1.403  0.00  0.00    -0.206 F 
ENDBRANCH   1  20
TORSDOF 4
