REMARK  6 active torsions:
REMARK  status: ('A' for Active; 'I' for Inactive)
REMARK    1  A    between atoms: C_3  and  C_13 
REMARK       I    between atoms: N_8  and  C_3 
REMARK    2  A    between atoms: N_4  and  N_8 
REMARK    3  A    between atoms: O_9  and  C_6 
REMARK    4  A    between atoms: C_13  and  O_9 
REMARK    5  A    between atoms: C_16  and  C_14 
REMARK    6  A    between atoms: O_20  and  C_17 
ROOT
ATOM      1  C   UNL d   1       0.902   5.202   0.034  0.00  0.00     0.260 C 
ATOM      2  N   UNL d   1       0.392   5.699  -1.165  0.00  0.00    -0.269 N 
ATOM      3  O   UNL d   1       0.991   5.852   1.074  0.00  0.00    -0.269 OA
ATOM      4  H   UNL d   1       0.244   5.085  -1.956  0.00  0.00     0.190 HD
ENDROOT
BRANCH   1   5
ATOM      5  C   UNL d   1       1.457   3.780  -0.066  0.00  0.00     0.280 C 
BRANCH   5   6
ATOM      6  O   UNL d   1       0.444   2.811  -0.294  0.00  0.00    -0.341 OA
BRANCH   6   7
ATOM      7  C   UNL d   1       0.823   1.495  -0.220  0.00  0.00     0.076 A 
ATOM      8  C   UNL d   1      -0.196   0.552  -0.325  0.00  0.00    -0.018 A 
ATOM      9  C   UNL d   1       0.065  -0.825  -0.298  0.00  0.00    -0.043 A 
ATOM     10  C   UNL d   1      -1.660   0.831  -0.438  0.00  0.00     0.042 A 
ATOM     11  C   UNL d   1       1.360  -1.310  -0.153  0.00  0.00    -0.055 A 
ATOM     12  C   UNL d   1      -1.194  -1.622  -0.427  0.00  0.00     0.040 A 
ATOM     13  C   UNL d   1       1.681  -2.776  -0.128  0.00  0.00     0.049 C 
ATOM     14  C   UNL d   1       2.390  -0.367  -0.029  0.00  0.00     0.010 A 
ATOM     15  C   UNL d   1       2.126   1.017  -0.062  0.00  0.00     0.038 A 
ATOM     16  C   UNL d   1      -2.293  -0.561  -0.552  0.00  0.00     0.009 A 
ENDBRANCH   6   7
ENDBRANCH   5   6
ENDBRANCH   1   5
BRANCH   2  17
ATOM     17  N   UNL d   1      -0.123   6.966  -1.189  0.00  0.00    -0.308 N 
ATOM     18  C   UNL d   1      -0.338   7.481  -2.359  0.00  0.00     0.118 C 
ATOM     19  HN  UNL d   1      -0.326   7.479  -0.331  1.00  0.00     0.186 HD
BRANCH  18  20
ATOM     20  C   UNL d   1      -0.995   8.800  -2.517  0.00  0.00    -0.017 A 
ATOM     21  C   UNL d   1      -1.495   9.486  -1.402  0.00  0.00     0.049 A 
ATOM     22  C   UNL d   1      -2.236  10.655  -1.578  0.00  0.00     0.069 A 
ATOM     23  C   UNL d   1      -2.446  11.147  -2.870  0.00  0.00     0.037 A 
ATOM     24  C   UNL d   1      -1.907  10.490  -3.978  0.00  0.00     0.004 A 
ATOM     25  C   UNL d   1      -1.179   9.314  -3.805  0.00  0.00     0.013 A 
BRANCH  22  26
ATOM     26  O   UNL d   1      -2.823  11.396  -0.588  0.00  0.00    -0.356 OA
ATOM     27  C   UNL d   1      -2.678  10.917   0.744  0.00  0.00     0.210 C 
ENDBRANCH  22  26
ENDBRANCH  18  20
ENDBRANCH   2  17
TORSDOF 6
