REMARK  4 active torsions:
REMARK  status: ('A' for Active; 'I' for Inactive)
REMARK    1  A    between atoms: C_6  and  N_2 
REMARK    2  A    between atoms: C_7  and  C_6 
REMARK       I    between atoms: N_11  and  C_7 
REMARK    3  A    between atoms: C_17  and  N_11 
REMARK    4  A    between atoms: C_12  and  C_13 
ROOT
ATOM      1  C   UNL d   1       1.703  -3.243   0.323  0.00  0.00     0.241 C 
ATOM      2  N   UNL d   1       0.496  -3.877   0.070  0.00  0.00    -0.326 N 
ATOM      3  O   UNL d   1       1.928  -2.036   0.260  0.00  0.00    -0.271 OA
ATOM      4  H   UNL d   1       0.460  -4.871   0.248  0.00  0.00     0.169 HD
ENDROOT
BRANCH   1   5
ATOM      5  C   UNL d   1       2.843  -4.210   0.584  0.00  0.00     0.248 C 
BRANCH   5   6
ATOM      6  N   UNL d   1       2.545  -5.226   1.586  0.00  0.00    -0.228 N 
ATOM      7  S   UNL d   1       2.144  -4.725   3.147  0.00  0.00     0.269 S 
ATOM      8  C   UNL d   1       2.192  -6.354   3.765  0.00  0.00     0.095 A 
ATOM      9  O   UNL d   1       3.250  -3.995   3.712  0.00  0.00    -0.200 OA
ATOM     10  O   UNL d   1       0.774  -4.280   3.166  0.00  0.00    -0.200 OA
ATOM     11  C   UNL d   1       2.683  -7.229   2.807  0.00  0.00     0.056 A 
ATOM     12  C   UNL d   1       1.748  -6.786   5.003  0.00  0.00     0.026 A 
ATOM     13  C   UNL d   1       2.841  -8.576   3.087  0.00  0.00     0.018 A 
ATOM     14  C   UNL d   1       2.916  -6.582   1.509  0.00  0.00     0.269 C 
ATOM     15  C   UNL d   1       2.432  -9.034   4.343  0.00  0.00     0.001 A 
ATOM     16  C   UNL d   1       1.867  -8.151   5.283  0.00  0.00     0.002 A 
ATOM     17  O   UNL d   1       3.311  -7.141   0.502  0.00  0.00    -0.266 OA
ENDBRANCH   5   6
ENDBRANCH   1   5
BRANCH   2  18
ATOM     18  C   UNL d   1      -0.673  -3.289  -0.462  0.00  0.00     0.034 A 
ATOM     19  C   UNL d   1      -0.774  -1.944  -0.790  0.00  0.00     0.030 A 
ATOM     20  C   UNL d   1      -1.893  -1.457  -1.473  0.00  0.00     0.010 A 
ATOM     21  C   UNL d   1      -2.956  -2.295  -1.846  0.00  0.00    -0.051 A 
ATOM     22  C   UNL d   1      -2.880  -3.635  -1.432  0.00  0.00     0.010 A 
ATOM     23  C   UNL d   1      -1.756  -4.125  -0.746  0.00  0.00     0.030 A 
BRANCH  21  24
ATOM     24  C   UNL d   1      -4.053  -1.788  -2.799  0.00  0.00    -0.024 C 
ATOM     25  C   UNL d   1      -5.383  -2.564  -2.681  0.00  0.00     0.019 C 
ATOM     26  C   UNL d   1      -4.401  -0.296  -2.586  0.00  0.00     0.019 C 
ATOM     27  C   UNL d   1      -3.513  -1.965  -4.235  0.00  0.00     0.019 C 
ENDBRANCH  21  24
ENDBRANCH   2  18
TORSDOF 4
