REMARK  4 active torsions:
REMARK  status: ('A' for Active; 'I' for Inactive)
REMARK    1  A    between atoms: C_5  and  C_1 
REMARK       I    between atoms: N_10  and  C_5 
REMARK    2  A    between atoms: N_13  and  N_6 
REMARK    3  A    between atoms: C_18  and  N_10 
REMARK    4  A    between atoms: C_17  and  N_13 
ROOT
ATOM      1  N   UNL d   1      -4.196   9.241  -0.323  0.00  0.00    -0.191 NA
ATOM      2  C   UNL d   1      -3.927   8.115  -0.246  0.00  0.00     0.099 C 
ATOM      3  C   UNL d   1      -3.594   6.722  -0.157  0.00  0.00     0.044 A 
ATOM      4  C   UNL d   1      -2.940   3.976   0.007  0.00  0.00     0.048 A 
ATOM      5  C   UNL d   1      -4.598   5.765   0.019  0.00  0.00     0.025 A 
ATOM      6  C   UNL d   1      -2.264   6.312  -0.262  0.00  0.00     0.025 A 
ATOM      7  C   UNL d   1      -1.950   4.950  -0.191  0.00  0.00     0.032 A 
ATOM      8  C   UNL d   1      -4.271   4.405   0.096  0.00  0.00     0.032 A 
ENDROOT
BRANCH   4   9
ATOM      9  N   UNL d   1      -2.647   2.599  -0.016  0.00  0.00    -0.300 N 
ATOM     10  H   UNL d   1      -3.337   1.983   0.421  0.00  0.00     0.187 HD
BRANCH   9  11
ATOM     11  N   UNL d   1      -1.351   2.223  -0.085  0.00  0.00    -0.296 N 
ATOM     12  C   UNL d   1      -1.038   0.960  -0.018  0.00  0.00     0.110 C 
ATOM     13  C   UNL d   1      -2.051  -0.177   0.156  0.00  0.00     0.216 C 
ATOM     14  C   UNL d   1       0.396   0.590  -0.099  0.00  0.00     0.006 A 
ATOM     15  C   UNL d   1      -1.595  -1.561  -0.129  0.00  0.00     0.085 C 
ATOM     16  O   UNL d   1      -3.198   0.056   0.531  0.00  0.00    -0.285 OA
ATOM     17  C   UNL d   1      -0.287  -1.786  -0.345  0.00  0.00     0.033 C 
ATOM     18  C   UNL d   1       0.738  -0.756  -0.231  0.00  0.00    -0.022 A 
ATOM     19  C   UNL d   1       2.091  -1.122  -0.233  0.00  0.00     0.012 A 
ATOM     20  C   UNL d   1       3.087  -0.153  -0.109  0.00  0.00     0.001 A 
ATOM     21  C   UNL d   1       2.742   1.193  -0.014  0.00  0.00     0.001 A 
ATOM     22  C   UNL d   1       1.398   1.567  -0.014  0.00  0.00     0.015 A 
ATOM     23  HN  UNL d   1      -0.620   2.927  -0.189  1.00  0.00     0.187 HD
BRANCH  15  24
ATOM     24  C   UNL d   1      -2.478  -2.776  -0.140  0.00  0.00     0.260 C 
ATOM     25  N   UNL d   1      -3.769  -2.587   0.305  0.00  0.00    -0.323 N 
ATOM     26  H   UNL d   1      -4.042  -1.638   0.554  0.00  0.00     0.169 HD
ATOM     27  O   UNL d   1      -2.009  -3.847  -0.521  0.00  0.00    -0.267 OA
BRANCH  25  28
ATOM     28  C   UNL d   1      -4.790  -3.568   0.376  0.00  0.00     0.035 A 
ATOM     29  C   UNL d   1      -4.596  -4.922   0.084  0.00  0.00     0.029 A 
ATOM     30  C   UNL d   1      -5.672  -5.817   0.080  0.00  0.00     0.002 A 
ATOM     31  C   UNL d   1      -6.952  -5.374   0.385  0.00  0.00     0.000 A 
ATOM     32  C   UNL d   1      -7.152  -4.039   0.735  0.00  0.00     0.002 A 
ATOM     33  C   UNL d   1      -6.075  -3.144   0.737  0.00  0.00     0.029 A 
ENDBRANCH  25  28
ENDBRANCH  15  24
ENDBRANCH   9  11
ENDBRANCH   4   9
TORSDOF 4
