REMARK  11 active torsions:
REMARK  status: ('A' for Active; 'I' for Inactive)
REMARK    1  A    between atoms: C_2  and  C_1 
REMARK    2  A    between atoms: N_9  and  C_3 
REMARK    3  A    between atoms: C_25  and  N_9 
REMARK    4  A    between atoms: O_10  and  C_14 
REMARK    5  A    between atoms: C_11  and  O_10 
REMARK    6  A    between atoms: C_13  and  C_24 
REMARK    7  A    between atoms: C_14  and  C_13 
REMARK    8  A    between atoms: O_22  and  C_13 
REMARK    9  A    between atoms: N_15  and  C_26 
REMARK   10  A    between atoms: C_24  and  N_15 
REMARK   11  A    between atoms: C_26  and  C_25 
ROOT
ATOM      1  N   UNL d   1      -1.359   3.281   1.845  0.00  0.00     0.087 N 
ATOM      2  H   UNL d   1      -1.251   3.401   0.839  0.00  0.00     0.316 HD
ENDROOT
BRANCH   1   3
ATOM      3  C   UNL d   1      -1.932   1.947   2.112  0.00  0.00     0.284 C 
BRANCH   3   4
ATOM      4  C   UNL d   1      -3.362   1.701   1.586  0.00  0.00     0.123 C 
BRANCH   4   5
ATOM      5  N   UNL d   1      -3.423   1.852   0.127  0.00  0.00    -0.277 NA
ATOM      6  H   UNL d   1      -2.877   2.642  -0.202  0.00  0.00     0.129 HD
BRANCH   5   7
ATOM      7  C   UNL d   1      -4.721   1.915  -0.399  0.00  0.00     0.095 A 
ATOM      8  C   UNL d   1      -4.947   2.063  -1.766  0.00  0.00     0.086 A 
ATOM      9  C   UNL d   1      -6.281   2.119  -2.219  0.00  0.00     0.021 A 
ATOM     10  C   UNL d   1      -7.334   2.024  -1.323  0.00  0.00     0.018 A 
ATOM     11  C   UNL d   1      -7.022   1.860   0.004  0.00  0.00     0.089 A 
ATOM     12  N   UNL d   1      -5.755   1.797   0.468  0.00  0.00    -0.356 N 
ATOM     13  HN  UNL d   1      -5.578   1.661   1.463  1.00  0.00     0.166 HD
BRANCH   8  14
ATOM     14  C   UNL d   1      -3.853   2.148  -2.788  0.00  0.00     0.420 C 
ATOM     15  F   UNL d   1      -2.585   2.256  -2.300  0.00  0.00    -0.166 F 
ATOM     16  F   UNL d   1      -4.007   3.240  -3.597  0.00  0.00    -0.166 F 
ATOM     17  F   UNL d   1      -3.842   1.079  -3.633  0.00  0.00    -0.166 F 
ENDBRANCH   8  14
ENDBRANCH   5   7
ENDBRANCH   4   5
ENDBRANCH   3   4
ENDBRANCH   1   3
BRANCH   1  18
ATOM     18  C   UNL d   1      -2.148   4.391   2.391  0.00  0.00     0.303 C 
BRANCH  18  19
ATOM     19  C   UNL d   1      -2.267   4.446   3.931  0.00  0.00     0.170 C 
BRANCH  19  20
ATOM     20  C   UNL d   1      -0.880   4.539   4.590  0.00  0.00     0.209 C 
BRANCH  20  21
ATOM     21  O   UNL d   1      -1.020   4.552   6.016  0.00  0.00    -0.349 OA
BRANCH  21  22
ATOM     22  C   UNL d   1       0.146   4.708   6.718  0.00  0.00     0.069 A 
ATOM     23  C   UNL d   1       0.008   5.288   7.983  0.00  0.00     0.040 A 
ATOM     24  C   UNL d   1       1.127   5.492   8.792  0.00  0.00     0.045 A 
ATOM     25  C   UNL d   1       2.379   5.097   8.338  0.00  0.00     0.116 A 
ATOM     26  C   UNL d   1       2.530   4.500   7.093  0.00  0.00     0.045 A 
ATOM     27  F   UNL d   1       3.455   5.288   9.113  0.00  0.00    -0.206 F 
ATOM     28  C   UNL d   1       1.411   4.302   6.280  0.00  0.00     0.040 A 
ENDBRANCH  21  22
ENDBRANCH  20  21
ENDBRANCH  19  20
BRANCH  19  29
ATOM     29  O   UNL d   1      -3.087   5.572   4.276  0.00  0.00    -0.392 OA
ATOM     30  H   UNL d   1      -2.570   6.382   4.132  0.00  0.00     0.210 HD
ENDBRANCH  19  29
ENDBRANCH  18  19
ENDBRANCH   1  18
TORSDOF 11
