REMARK  5 active torsions:
REMARK  status: ('A' for Active; 'I' for Inactive)
REMARK    1  A    between atoms: N_14  and  C_7 
REMARK    2  A    between atoms: S_12  and  C_10 
REMARK    3  A    between atoms: C_15  and  S_12 
REMARK    4  A    between atoms: C_13  and  C_15 
REMARK    5  A    between atoms: C_17  and  C_13 
ROOT
ATOM      1  C   UNL d   1       1.141   0.558   0.076  0.00  0.00     0.090 A 
ATOM      2  C   UNL d   1       0.585  -0.710  -0.086  0.00  0.00     0.043 A 
ATOM      3  N   UNL d   1       2.438   0.876   0.171  0.00  0.00    -0.330 N 
ATOM      4  HN  UNL d   1       2.774   1.832   0.286  1.00  0.00     0.168 HD
ATOM      5  N   UNL d   1       2.855  -1.444  -0.093  0.00  0.00    -0.327 N 
ATOM      6  HN  UNL d   1       3.556  -2.181  -0.169  1.00  0.00     0.169 HD
ATOM      7  C   UNL d   1       1.539  -1.757  -0.187  0.00  0.00     0.095 A 
ATOM      8  S   UNL d   1      -0.001   1.814   0.148  0.00  0.00    -0.075 SA
ATOM      9  C   UNL d   1      -0.870  -0.592  -0.123  0.00  0.00    -0.029 A 
ATOM     10  C   UNL d   1       3.241  -0.177   0.098  0.00  0.00     0.146 A 
ATOM     11  C   UNL d   1      -1.285   0.725   0.009  0.00  0.00    -0.008 A 
ATOM     12  C   UNL d   1      -1.889  -1.692  -0.230  0.00  0.00     0.041 C 
ATOM     13  C   UNL d   1      -2.703   1.204   0.019  0.00  0.00     0.047 C 
ATOM     14  C   UNL d   1      -3.324  -1.187  -0.455  0.00  0.00     0.005 C 
ATOM     15  C   UNL d   1      -3.641   0.053   0.387  0.00  0.00     0.005 C 
ENDROOT
BRANCH  10  16
ATOM     16  S   UNL d   1       4.993   0.123   0.195  0.00  0.00    -0.086 SA
BRANCH  16  17
ATOM     17  C   UNL d   1       4.976   1.662   1.174  0.00  0.00     0.166 C 
BRANCH  17  18
ATOM     18  C   UNL d   1       4.401   1.439   2.568  0.00  0.00     0.169 C 
ATOM     19  O   UNL d   1       4.517   0.372   3.167  0.00  0.00    -0.291 OA
BRANCH  18  20
ATOM     20  C   UNL d   1       3.728   2.577   3.276  0.00  0.00     0.010 A 
ATOM     21  C   UNL d   1       3.702   3.885   2.777  0.00  0.00     0.015 A 
ATOM     22  C   UNL d   1       3.055   4.897   3.496  0.00  0.00     0.001 A 
ATOM     23  C   UNL d   1       2.441   4.615   4.715  0.00  0.00     0.000 A 
ATOM     24  C   UNL d   1       2.469   3.320   5.223  0.00  0.00     0.001 A 
ATOM     25  C   UNL d   1       3.110   2.307   4.507  0.00  0.00     0.015 A 
ENDBRANCH  18  20
ENDBRANCH  17  18
ENDBRANCH  16  17
ENDBRANCH  10  16
BRANCH   7  26
ATOM     26  N   UNL d   1       1.355  -3.109  -0.457  0.00  0.00    -0.282 NA
ATOM     27  C   UNL d   1       0.341  -3.892   0.204  0.00  0.00     0.114 C 
ATOM     28  H   UNL d   1       2.287  -3.514  -0.350  0.00  0.00     0.128 HD
ENDBRANCH   7  26
TORSDOF 5
