REMARK  3 active torsions:
REMARK  status: ('A' for Active; 'I' for Inactive)
REMARK    1  A    between atoms: C_2  and  C_1 
REMARK       I    between atoms: N_3  and  C_1 
REMARK    2  A    between atoms: C_6  and  N_3 
REMARK    3  A    between atoms: N_7  and  C_4 
ROOT
ATOM      1  C   UNL d   1       1.067   0.013   0.020  0.00  0.00     0.258 C 
ATOM      2  N   UNL d   1       0.348   0.943   0.751  0.00  0.00    -0.323 N 
ATOM      3  O   UNL d   1       2.281  -0.177   0.096  0.00  0.00    -0.267 OA
ATOM      4  H   UNL d   1      -0.657   0.828   0.793  0.00  0.00     0.169 HD
ENDROOT
BRANCH   1   5
ATOM      5  C   UNL d   1       0.295  -0.848  -0.920  0.00  0.00     0.053 A 
ATOM      6  C   UNL d   1       0.726  -2.173  -1.157  0.00  0.00     0.021 A 
ATOM      7  C   UNL d   1       0.042  -2.941  -2.107  0.00  0.00     0.024 A 
ATOM      8  C   UNL d   1      -0.984  -2.385  -2.873  0.00  0.00     0.002 A 
ATOM      9  C   UNL d   1      -1.380  -1.066  -2.659  0.00  0.00     0.001 A 
ATOM     10  C   UNL d   1      -0.748  -0.296  -1.680  0.00  0.00     0.019 A 
BRANCH   6  11
ATOM     11  N   UNL d   1       1.663  -2.818  -0.321  0.00  0.00    -0.302 NA
ATOM     12  H   UNL d   1       2.302  -2.131   0.100  0.00  0.00     0.124 HD
ATOM     13  H   UNL d   1       2.181  -3.556  -0.785  0.00  0.00     0.124 HD
ENDBRANCH   6  11
ENDBRANCH   1   5
BRANCH   2  14
ATOM     14  C   UNL d   1       0.913   1.942   1.579  0.00  0.00     0.035 A 
ATOM     15  C   UNL d   1       2.262   2.306   1.518  0.00  0.00     0.029 A 
ATOM     16  C   UNL d   1       2.776   3.300   2.353  0.00  0.00     0.002 A 
ATOM     17  C   UNL d   1       1.942   3.947   3.260  0.00  0.00     0.000 A 
ATOM     18  C   UNL d   1       0.593   3.605   3.320  0.00  0.00     0.002 A 
ATOM     19  C   UNL d   1       0.076   2.613   2.478  0.00  0.00     0.029 A 
ENDBRANCH   2  14
TORSDOF 3
