REMARK  7 active torsions:
REMARK  status: ('A' for Active; 'I' for Inactive)
REMARK    1  A    between atoms: O_10  and  C_3 
REMARK    2  A    between atoms: N_9  and  C_4 
REMARK    3  A    between atoms: C_11  and  C_5 
REMARK    4  A    between atoms: C_12  and  C_8 
REMARK    5  A    between atoms: C_15  and  C_11 
REMARK    6  A    between atoms: O_13  and  C_12 
REMARK    7  A    between atoms: C_16  and  C_15 
ROOT
ATOM      1  N   UNL d   1      -0.603   1.300   0.129  0.00  0.00    -0.313 N 
ATOM      2  HN  UNL d   1      -1.073   2.205   0.136  1.00  0.00     0.170 HD
ATOM      3  C   UNL d   1      -1.278   0.145   0.059  0.00  0.00     0.150 A 
ATOM      4  C   UNL d   1       0.719   1.188   0.190  0.00  0.00     0.157 A 
ATOM      5  C   UNL d   1      -0.735  -1.121   0.002  0.00  0.00     0.018 A 
ATOM      6  N   UNL d   1       1.381   0.035   0.157  0.00  0.00    -0.334 N 
ATOM      7  HN  UNL d   1       2.400   0.013   0.191  1.00  0.00     0.168 HD
ATOM      8  C   UNL d   1       0.656  -1.113   0.077  0.00  0.00     0.046 A 
ENDROOT
BRANCH   5   9
ATOM      9  C   UNL d   1      -1.530  -2.402  -0.033  0.00  0.00     0.045 C 
BRANCH   9  10
ATOM     10  C   UNL d   1      -2.912  -2.422  -0.705  0.00  0.00     0.004 C 
BRANCH  10  11
ATOM     11  C   UNL d   1      -2.863  -2.081  -2.196  0.00  0.00    -0.004 C 
ATOM     12  C   UNL d   1      -4.256  -2.088  -2.807  0.00  0.00     0.005 C 
ENDBRANCH  10  11
ENDBRANCH   9  10
ENDBRANCH   5   9
BRANCH   3  13
ATOM     13  O   UNL d   1      -2.616   0.357   0.054  0.00  0.00    -0.346 OA
ATOM     14  H   UNL d   1      -2.636   1.330   0.083  0.00  0.00     0.219 HD
ENDBRANCH   3  13
BRANCH   8  15
ATOM     15  C   UNL d   1       1.492  -2.373   0.021  0.00  0.00     0.224 C 
BRANCH  15  16
ATOM     16  O   UNL d   1       1.700  -2.833  -1.320  0.00  0.00    -0.390 OA
ATOM     17  C   UNL d   1       2.575  -1.983  -2.057  0.00  0.00     0.201 C 
ENDBRANCH  15  16
ENDBRANCH   8  15
BRANCH   4  18
ATOM     18  N   UNL d   1       1.462   2.346   0.241  0.00  0.00    -0.274 NA
ATOM     19  H   UNL d   1       0.942   3.111  -0.165  0.00  0.00     0.127 HD
ATOM     20  H   UNL d   1       2.388   2.174  -0.119  0.00  0.00     0.127 HD
ENDBRANCH   4  18
TORSDOF 7
