REMARK  9 active torsions:
REMARK  status: ('A' for Active; 'I' for Inactive)
REMARK    1  A    between atoms: O_4  and  C_1 
REMARK    2  A    between atoms: C_3  and  O_4 
REMARK       I    between atoms: C_6  and  N_7 
REMARK    3  A    between atoms: C_13  and  C_6 
REMARK    4  A    between atoms: N_7  and  C_8 
REMARK    5  A    between atoms: C_9  and  C_13 
REMARK    6  A    between atoms: C_14  and  C_9 
REMARK    7  A    between atoms: C_19  and  C_9 
REMARK    8  A    between atoms: C_10  and  C_14 
REMARK    9  A    between atoms: O_21  and  C_10 
ROOT
ATOM      1  C   UNL d   1      -0.919   1.355   0.020  0.00  0.00     0.175 A 
ATOM      2  C   UNL d   1       0.371   1.250   0.558  0.00  0.00     0.086 A 
ATOM      3  N   UNL d   1      -1.670   0.268  -0.299  0.00  0.00    -0.345 N 
ATOM      4  HN  UNL d   1      -2.568   0.370  -0.774  1.00  0.00     0.167 HD
ATOM      5  C   UNL d   1       0.812  -0.025   0.917  0.00  0.00     0.035 A 
ATOM      6  C   UNL d   1      -1.192  -0.947   0.030  0.00  0.00     0.090 A 
ATOM      7  C   UNL d   1       0.023  -1.144   0.657  0.00  0.00     0.019 A 
ENDROOT
BRANCH   2   8
ATOM      8  N   UNL d   1       1.185   2.325   0.952  0.00  0.00    -0.324 N 
ATOM      9  C   UNL d   1       1.827   3.254   0.191  0.00  0.00     0.222 C 
ATOM     10  O   UNL d   1       2.686   3.924   0.779  0.00  0.00    -0.273 OA
ATOM     11  H   UNL d   1       1.707   2.188   1.814  0.00  0.00     0.169 HD
BRANCH   9  12
ATOM     12  C   UNL d   1       1.588   3.409  -1.305  0.00  0.00     0.113 C 
BRANCH  12  13
ATOM     13  C   UNL d   1       2.405   4.617  -1.858  0.00  0.00     0.037 C 
BRANCH  13  14
ATOM     14  C   UNL d   1       3.940   4.426  -1.958  0.00  0.00     0.119 C 
BRANCH  14  15
ATOM     15  C   UNL d   1       4.439   3.277  -2.797  0.00  0.00     0.140 C 
ATOM     16  O   UNL d   1       3.759   2.416  -3.328  0.00  0.00    -0.650 OA
BRANCH  15  17
ATOM     17  O   UNL d   1       5.797   3.262  -2.877  0.00  0.00    -0.776 OA
ATOM     18  H   UNL d   1       6.226   3.993  -2.393  0.00  0.00     0.167 HD
ENDBRANCH  15  17
ENDBRANCH  14  15
ENDBRANCH  13  14
BRANCH  13  19
ATOM     19  C   UNL d   1       1.852   5.264  -3.122  0.00  0.00    -0.053 A 
ATOM     20  C   UNL d   1       1.754   6.669  -3.163  0.00  0.00     0.007 A 
ATOM     21  C   UNL d   1       1.254   7.327  -4.286  0.00  0.00     0.001 A 
ATOM     22  C   UNL d   1       0.854   6.591  -5.395  0.00  0.00     0.000 A 
ATOM     23  C   UNL d   1       0.964   5.201  -5.380  0.00  0.00     0.001 A 
ATOM     24  C   UNL d   1       1.462   4.537  -4.251  0.00  0.00     0.007 A 
ENDBRANCH  13  19
ENDBRANCH  12  13
ENDBRANCH   9  12
ENDBRANCH   2   8
BRANCH   1  25
ATOM     25  O   UNL d   1      -1.531   2.608  -0.020  0.00  0.00    -0.291 OA
BRANCH  25  26
ATOM     26  C   UNL d   1      -2.895   2.644   0.209  0.00  0.00     0.084 A 
ATOM     27  C   UNL d   1      -3.674   3.490  -0.566  0.00  0.00    -0.017 A 
ATOM     28  C   UNL d   1      -5.073   3.507  -0.439  0.00  0.00    -0.043 A 
ATOM     29  C   UNL d   1      -3.217   4.401  -1.659  0.00  0.00     0.042 C 
ATOM     30  C   UNL d   1      -5.693   4.426  -1.445  0.00  0.00     0.040 C 
ATOM     31  C   UNL d   1      -5.729   2.686   0.476  0.00  0.00    -0.055 A 
ATOM     32  C   UNL d   1      -4.485   5.199  -1.988  0.00  0.00     0.009 C 
ATOM     33  C   UNL d   1      -4.939   1.903   1.324  0.00  0.00     0.010 A 
ATOM     34  C   UNL d   1      -7.227   2.634   0.550  0.00  0.00     0.049 C 
ATOM     35  C   UNL d   1      -3.537   1.896   1.203  0.00  0.00     0.038 A 
ENDBRANCH  25  26
ENDBRANCH   1  25
TORSDOF 9
