REMARK  4 active torsions:
REMARK  status: ('A' for Active; 'I' for Inactive)
REMARK       I    between atoms: N_7  and  C_9 
REMARK    1  A    between atoms: C_11  and  N_7 
REMARK    2  A    between atoms: C_9  and  C_17 
REMARK    3  A    between atoms: O_16  and  C_15 
REMARK    4  A    between atoms: C_17  and  O_16 
ROOT
ATOM      1  C   UNL d   1      -0.538  -0.708  -0.080  0.00  0.00     0.086 A 
ATOM      2  C   UNL d   1      -0.746   0.663   0.045  0.00  0.00     0.043 A 
ATOM      3  C   UNL d   1       0.391   1.542   0.359  0.00  0.00     0.165 C 
ATOM      4  O   UNL d   1       0.682  -1.307   0.067  0.00  0.00    -0.340 OA
ATOM      5  C   UNL d   1       1.828  -0.453  -0.112  0.00  0.00     0.067 C 
ATOM      6  C   UNL d   1       1.699   0.864   0.657  0.00  0.00     0.121 C 
ATOM      7  C   UNL d   1      -1.622  -1.550  -0.354  0.00  0.00     0.074 A 
ATOM      8  C   UNL d   1      -2.027   1.197  -0.103  0.00  0.00     0.021 A 
ATOM      9  O   UNL d   1       0.250   2.758   0.441  0.00  0.00    -0.292 OA
ATOM     10  C   UNL d   1      -2.908  -1.028  -0.523  0.00  0.00     0.072 A 
ATOM     11  C   UNL d   1      -3.106   0.350  -0.380  0.00  0.00     0.038 A 
ATOM     12  C   UNL d   1       2.077  -0.237  -1.614  0.00  0.00     0.046 C 
ATOM     13  C   UNL d   1       3.021  -1.231   0.465  0.00  0.00     0.046 C 
ENDROOT
BRANCH  10  14
ATOM     14  O   UNL d   1      -3.886  -1.946  -0.828  0.00  0.00    -0.342 OA
BRANCH  14  15
ATOM     15  C   UNL d   1      -5.163  -1.398  -1.134  0.00  0.00     0.278 C 
BRANCH  15  16
ATOM     16  C   UNL d   1      -6.180  -2.377  -1.722  0.00  0.00     0.246 C 
ATOM     17  N   UNL d   1      -5.884  -3.713  -1.542  0.00  0.00    -0.325 N 
ATOM     18  H   UNL d   1      -5.155  -3.924  -0.870  0.00  0.00     0.169 HD
ATOM     19  O   UNL d   1      -7.206  -1.941  -2.247  0.00  0.00    -0.271 OA
BRANCH  17  20
ATOM     20  C   UNL d   1      -6.655  -4.779  -2.056  0.00  0.00     0.040 A 
ATOM     21  C   UNL d   1      -6.743  -6.000  -1.363  0.00  0.00    -0.035 A 
ATOM     22  C   UNL d   1      -6.142  -6.238  -0.005  0.00  0.00     0.050 C 
ATOM     23  C   UNL d   1      -7.486  -7.055  -1.930  0.00  0.00     0.009 A 
ATOM     24  C   UNL d   1      -8.137  -6.905  -3.154  0.00  0.00     0.001 A 
ATOM     25  C   UNL d   1      -8.053  -5.697  -3.832  0.00  0.00     0.002 A 
ATOM     26  C   UNL d   1      -7.319  -4.643  -3.286  0.00  0.00     0.030 A 
ENDBRANCH  17  20
ENDBRANCH  15  16
ENDBRANCH  14  15
ENDBRANCH  10  14
TORSDOF 4
