REMARK  3 active torsions:
REMARK  status: ('A' for Active; 'I' for Inactive)
REMARK    1  A    between atoms: C_5  and  C_1 
REMARK       I    between atoms: N_6  and  C_5 
REMARK    2  A    between atoms: C_9  and  N_6 
REMARK    3  A    between atoms: N_7  and  C_11 
ROOT
ATOM      1  C   UNL d   1      -4.872  -3.028  -0.578  0.00  0.00     0.280 C 
ATOM      2  N   UNL d   1      -3.534  -2.734  -0.357  0.00  0.00    -0.319 N 
ATOM      3  O   UNL d   1      -5.321  -4.176  -0.576  0.00  0.00    -0.265 OA
ATOM      4  H   UNL d   1      -3.314  -1.778  -0.096  0.00  0.00     0.169 HD
ENDROOT
BRANCH   2   5
ATOM      5  C   UNL d   1      -2.552  -3.697  -0.035  0.00  0.00     0.061 A 
ATOM      6  C   UNL d   1      -1.566  -3.377   0.928  0.00  0.00     0.057 A 
ATOM      7  C   UNL d   1      -0.528  -4.306   1.120  0.00  0.00     0.031 A 
ATOM      8  C   UNL d   1      -0.476  -5.503   0.396  0.00  0.00     0.002 A 
ATOM      9  C   UNL d   1      -1.469  -5.805  -0.529  0.00  0.00     0.002 A 
ATOM     10  C   UNL d   1      -2.511  -4.909  -0.739  0.00  0.00     0.032 A 
BRANCH   6  11
ATOM     11  N   UNL d   1      -1.629  -2.177   1.644  0.00  0.00    -0.375 N 
ATOM     12  C   UNL d   1      -0.425  -1.607   2.279  0.00  0.00     0.149 C 
ATOM     13  C   UNL d   1      -0.652  -0.088   2.415  0.00  0.00     0.187 C 
ATOM     14  O   UNL d   1      -1.836   0.210   3.183  0.00  0.00    -0.388 OA
ATOM     15  C   UNL d   1      -2.998  -0.408   2.598  0.00  0.00     0.187 C 
ATOM     16  C   UNL d   1      -2.819  -1.934   2.494  0.00  0.00     0.149 C 
ENDBRANCH   6  11
ENDBRANCH   2   5
BRANCH   1  17
ATOM     17  C   UNL d   1      -5.718  -1.841  -0.694  0.00  0.00     0.144 A 
ATOM     18  N   UNL d   1      -5.254  -0.622  -0.892  0.00  0.00    -0.345 N 
ATOM     19  C   UNL d   1      -6.310   0.282  -0.859  0.00  0.00     0.050 A 
ATOM     20  HN  UNL d   1      -4.275  -0.380  -1.045  1.00  0.00     0.167 HD
ATOM     21  C   UNL d   1      -6.218   1.677  -1.045  0.00  0.00     0.031 A 
ATOM     22  C   UNL d   1      -7.562  -0.270  -0.580  0.00  0.00     0.034 A 
ATOM     23  C   UNL d   1      -7.354   2.479  -0.878  0.00  0.00     0.002 A 
ATOM     24  C   UNL d   1      -8.580   1.908  -0.551  0.00  0.00     0.002 A 
ATOM     25  C   UNL d   1      -8.710   0.523  -0.418  0.00  0.00     0.021 A 
ATOM     26  S   UNL d   1      -7.412  -1.979  -0.477  0.00  0.00    -0.065 SA
ENDBRANCH   1  17
TORSDOF 3
