REMARK  6 active torsions:
REMARK  status: ('A' for Active; 'I' for Inactive)
REMARK    1  A    between atoms: C_9  and  S_1 
REMARK    2  A    between atoms: C_10  and  S_1 
REMARK       I    between atoms: N_2  and  C_3 
REMARK    3  A    between atoms: C_4  and  N_2 
REMARK    4  A    between atoms: C_3  and  C_6 
REMARK    5  A    between atoms: C_6  and  C_9 
REMARK    6  A    between atoms: C_17  and  C_10 
ROOT
ATOM      1  N   UNL d   1      -1.085  -4.219   0.194  0.00  0.00    -0.326 N 
ATOM      2  C   UNL d   1      -1.362  -3.127   0.983  0.00  0.00     0.223 C 
ATOM      3  O   UNL d   1      -1.817  -3.182   2.124  0.00  0.00    -0.273 OA
ATOM      4  H   UNL d   1      -0.219  -4.164  -0.340  0.00  0.00     0.169 HD
ENDROOT
BRANCH   2   5
ATOM      5  C   UNL d   1      -1.072  -1.779   0.336  0.00  0.00     0.118 C 
BRANCH   5   6
ATOM      6  C   UNL d   1       0.386  -1.392   0.148  0.00  0.00     0.149 C 
BRANCH   6   7
ATOM      7  S   UNL d   1       1.201  -2.237  -1.190  0.00  0.00     0.148 S 
ATOM      8  O   UNL d   1       0.449  -1.926  -2.395  0.00  0.00    -0.228 OA
ATOM      9  O   UNL d   1       1.380  -3.618  -0.775  0.00  0.00    -0.228 OA
BRANCH   7  10
ATOM     10  C   UNL d   1       2.790  -1.417  -1.246  0.00  0.00     0.178 C 
BRANCH  10  11
ATOM     11  C   UNL d   1       3.596  -1.893  -2.426  0.00  0.00    -0.044 A 
ATOM     12  C   UNL d   1       3.466  -1.268  -3.676  0.00  0.00     0.008 A 
ATOM     13  C   UNL d   1       4.250  -1.671  -4.758  0.00  0.00     0.001 A 
ATOM     14  C   UNL d   1       5.170  -2.704  -4.607  0.00  0.00     0.000 A 
ATOM     15  C   UNL d   1       5.300  -3.343  -3.376  0.00  0.00     0.001 A 
ATOM     16  C   UNL d   1       4.515  -2.943  -2.290  0.00  0.00     0.008 A 
ENDBRANCH  10  11
ENDBRANCH   7  10
ENDBRANCH   6   7
ENDBRANCH   5   6
ENDBRANCH   2   5
BRANCH   1  17
ATOM     17  C   UNL d   1      -1.502  -5.546   0.453  0.00  0.00     0.052 A 
ATOM     18  C   UNL d   1      -2.830  -5.948   0.662  0.00  0.00     0.038 A 
ATOM     19  C   UNL d   1      -3.149  -7.317   0.671  0.00  0.00     0.028 A 
ATOM     20 BR   UNL d   1      -4.301  -4.744   0.723  0.00  0.00    -0.049 Br
ATOM     21  C   UNL d   1      -2.160  -8.292   0.477  0.00  0.00    -0.061 A 
ATOM     22  C   UNL d   1      -0.830  -7.888   0.357  0.00  0.00     0.009 A 
ATOM     23  C   UNL d   1      -2.531  -9.741   0.369  0.00  0.00     0.048 C 
ATOM     24  C   UNL d   1      -0.511  -6.530   0.321  0.00  0.00     0.031 A 
ENDBRANCH   1  17
TORSDOF 6
