REMARK  7 active torsions:
REMARK  status: ('A' for Active; 'I' for Inactive)
REMARK    1  A    between atoms: C_2  and  C_1 
REMARK    2  A    between atoms: C_4  and  C_2 
REMARK    3  A    between atoms: O_15  and  C_2 
REMARK    4  A    between atoms: C_9  and  N_3 
REMARK    5  A    between atoms: N_5  and  C_4 
REMARK    6  A    between atoms: C_14  and  N_5 
REMARK    7  A    between atoms: C_16  and  C_9 
ROOT
ATOM      1  N   UNL d   1      -3.864   2.206  -3.560  0.00  0.00     0.092 N 
ATOM      2  C   UNL d   1      -3.530  -0.025  -2.456  0.00  0.00     0.066 C 
ATOM      3  C   UNL d   1      -3.749   2.011  -1.083  0.00  0.00     0.066 C 
ATOM      4  C   UNL d   1      -3.430   2.863  -2.313  0.00  0.00     0.275 C 
ATOM      5  C   UNL d   1      -3.266   0.860  -3.680  0.00  0.00     0.275 C 
ATOM      6  C   UNL d   1      -3.062   0.642  -1.154  0.00  0.00     0.224 C 
ENDROOT
BRANCH   6   7
ATOM      7  N   UNL d   1      -1.588   0.713  -1.139  0.00  0.00     0.090 N 
ATOM      8  H   UNL d   1      -1.196  -0.219  -1.281  0.00  0.00     0.316 HD
BRANCH   7   9
ATOM      9  C   UNL d   1      -1.022   1.320   0.073  0.00  0.00     0.310 C 
BRANCH   9  10
ATOM     10  C   UNL d   1       0.522   1.360   0.044  0.00  0.00     0.253 C 
BRANCH  10  11
ATOM     11  C   UNL d   1       1.065   2.008   1.333  0.00  0.00     0.414 C 
ATOM     12  F   UNL d   1       0.081   2.338   2.200  0.00  0.00    -0.168 F 
ATOM     13  F   UNL d   1       1.743   3.149   1.059  0.00  0.00    -0.168 F 
ATOM     14  F   UNL d   1       1.912   1.177   1.980  0.00  0.00    -0.168 F 
ENDBRANCH  10  11
BRANCH  10  15
ATOM     15  O   UNL d   1       0.978   2.039  -1.149  0.00  0.00    -0.385 OA
ATOM     16  H   UNL d   1       0.672   2.962  -1.095  0.00  0.00     0.210 HD
ENDBRANCH  10  15
ENDBRANCH   9  10
ENDBRANCH   7   9
ENDBRANCH   6   7
BRANCH   1  17
ATOM     17  C   UNL d   1      -3.474   3.002  -4.747  0.00  0.00     0.311 C 
BRANCH  17  18
ATOM     18  C   UNL d   1      -4.035   4.407  -4.779  0.00  0.00    -0.030 A 
ATOM     19  C   UNL d   1      -3.174   5.515  -4.772  0.00  0.00     0.009 A 
ATOM     20  C   UNL d   1      -3.684   6.814  -4.778  0.00  0.00     0.001 A 
ATOM     21  C   UNL d   1      -5.062   7.020  -4.797  0.00  0.00     0.000 A 
ATOM     22  C   UNL d   1      -5.928   5.928  -4.819  0.00  0.00     0.001 A 
ATOM     23  C   UNL d   1      -5.420   4.629  -4.811  0.00  0.00     0.009 A 
ENDBRANCH  17  18
ENDBRANCH   1  17
TORSDOF 7
