REMARK  4 active torsions:
REMARK  status: ('A' for Active; 'I' for Inactive)
REMARK    1  A    between atoms: C_7  and  N_1 
REMARK    2  A    between atoms: C_6  and  C_3 
REMARK    3  A    between atoms: O_12  and  C_6 
REMARK    4  A    between atoms: O_16  and  C_13 
ROOT
ATOM      1  N   UNL d   1      -0.074  -1.078  -0.007  0.00  0.00    -0.317 N 
ATOM      2  C   UNL d   1       0.722   0.069   0.096  0.00  0.00     0.225 C 
ATOM      3  C   UNL d   1      -1.514   0.749  -0.379  0.00  0.00     0.111 C 
ATOM      4  C   UNL d   1      -1.478  -0.730  -0.035  0.00  0.00     0.148 C 
ATOM      5  C   UNL d   1      -0.190   1.271   0.145  0.00  0.00     0.120 C 
ATOM      6  O   UNL d   1       1.935   0.176   0.183  0.00  0.00    -0.273 OA
ENDROOT
BRANCH   1   7
ATOM      7  C   UNL d   1       0.380  -2.428   0.027  0.00  0.00     0.037 A 
ATOM      8  C   UNL d   1       1.728  -2.749   0.226  0.00  0.00     0.032 A 
ATOM      9  C   UNL d   1       2.167  -4.081   0.276  0.00  0.00     0.039 A 
ATOM     10  C   UNL d   1       1.263  -5.124   0.112  0.00  0.00     0.068 A 
ATOM     11  C   UNL d   1      -0.082  -4.825  -0.078  0.00  0.00     0.039 A 
ATOM     12  C   UNL d   1      -0.518  -3.495  -0.124  0.00  0.00     0.032 A 
BRANCH  10  13
ATOM     13  O   UNL d   1       1.570  -6.455   0.157  0.00  0.00    -0.356 OA
ATOM     14  C   UNL d   1       2.900  -6.788  -0.223  0.00  0.00     0.210 C 
ENDBRANCH  10  13
ENDBRANCH   1   7
BRANCH   3  15
ATOM     15  C   UNL d   1      -1.656   0.974  -1.871  0.00  0.00     0.145 C 
ATOM     16  O   UNL d   1      -1.758   0.087  -2.706  0.00  0.00    -0.650 OA
BRANCH  15  17
ATOM     17  O   UNL d   1      -1.728   2.279  -2.212  0.00  0.00    -0.776 OA
ATOM     18  H   UNL d   1      -1.674   2.914  -1.472  0.00  0.00     0.167 HD
ENDBRANCH  15  17
ENDBRANCH   3  15
TORSDOF 4
