REMARK  5 active torsions:
REMARK  status: ('A' for Active; 'I' for Inactive)
REMARK    1  A    between atoms: C_2  and  C_1 
REMARK       I    between atoms: N_3  and  C_1 
REMARK    2  A    between atoms: N_4  and  C_8 
REMARK    3  A    between atoms: O_9  and  C_6 
REMARK    4  A    between atoms: C_17  and  O_9 
REMARK    5  A    between atoms: O_24  and  C_18 
ROOT
ATOM      1  C   UNL d   1      -0.033   1.140  -0.048  0.00  0.00     0.068 A 
ATOM      2  C   UNL d   1       0.331   2.371   0.494  0.00  0.00     0.056 A 
ATOM      3  C   UNL d   1      -0.675   0.208   0.816  0.00  0.00     0.091 A 
ATOM      4  C   UNL d   1      -0.008   2.724   1.812  0.00  0.00     0.104 A 
ATOM      5  C   UNL d   1      -1.052   0.591   2.118  0.00  0.00     0.041 A 
ATOM      6  C   UNL d   1      -0.745   1.851   2.612  0.00  0.00     0.039 A 
ENDROOT
BRANCH   1   7
ATOM      7  C   UNL d   1       0.020   0.922  -1.529  0.00  0.00     0.261 C 
ATOM      8  N   UNL d   1       1.267   0.957  -2.208  0.00  0.00    -0.313 N 
ATOM      9  C   UNL d   1       2.274   1.981  -2.255  0.00  0.00     0.043 C 
ATOM     10  C   UNL d   1       1.574  -0.256  -2.964  0.00  0.00     0.133 C 
ATOM     11  C   UNL d   1       3.620   1.619  -2.508  0.00  0.00    -0.031 C 
ATOM     12  C   UNL d   1       1.995   3.344  -2.155  0.00  0.00     0.030 C 
ATOM     13  C   UNL d   1       4.659   2.553  -2.380  0.00  0.00     0.009 C 
ATOM     14  C   UNL d   1       3.978   0.261  -3.034  0.00  0.00     0.042 C 
ATOM     15  C   UNL d   1       4.367   3.886  -2.145  0.00  0.00     0.001 C 
ATOM     16  C   UNL d   1       3.034   4.289  -2.099  0.00  0.00     0.002 C 
ATOM     17  C   UNL d   1       2.957  -0.741  -2.565  0.00  0.00     0.025 C 
ATOM     18  O   UNL d   1      -0.990   0.479  -2.061  0.00  0.00    -0.267 OA
ENDBRANCH   1   7
BRANCH   3  19
ATOM     19  O   UNL d   1      -1.148  -1.043   0.483  0.00  0.00    -0.310 OA
BRANCH  19  20
ATOM     20  C   UNL d   1      -0.305  -2.058   0.096  0.00  0.00     0.076 C 
ATOM     21  C   UNL d   1       1.085  -2.029   0.071  0.00  0.00     0.040 C 
ATOM     22  C   UNL d   1       1.783  -3.041  -0.607  0.00  0.00     0.039 C 
ATOM     23  C   UNL d   1       1.090  -4.067  -1.247  0.00  0.00     0.068 C 
ATOM     24  C   UNL d   1      -0.271  -4.215  -1.024  0.00  0.00     0.039 C 
ATOM     25  C   UNL d   1      -0.965  -3.211  -0.345  0.00  0.00     0.040 C 
BRANCH  23  26
ATOM     26  O   UNL d   1       1.692  -4.950  -2.102  0.00  0.00    -0.356 OA
ATOM     27  C   UNL d   1       2.360  -4.275  -3.174  0.00  0.00     0.210 C 
ENDBRANCH  23  26
ENDBRANCH  19  20
ENDBRANCH   3  19
BRANCH   4  28
ATOM     28  N   UNL d   1       0.344   4.055   2.319  0.00  0.00    -0.116 N 
ATOM     29  O   UNL d   1       1.146   4.728   1.647  0.00  0.00    -0.532 OA
ATOM     30  O   UNL d   1      -0.168   4.417   3.385  0.00  0.00    -0.532 OA
ENDBRANCH   4  28
TORSDOF 5
