REMARK  4 active torsions:
REMARK  status: ('A' for Active; 'I' for Inactive)
REMARK    1  A    between atoms: N_2  and  S_1 
REMARK    2  A    between atoms: C_3  and  S_1 
REMARK    3  A    between atoms: C_11  and  N_2 
REMARK       I    between atoms: C_6  and  N_7 
REMARK    4  A    between atoms: N_7  and  C_12 
ROOT
ATOM      1  S   UNL d   1       0.979   0.097   0.187  0.00  0.00     0.263 S 
ATOM      2  O   UNL d   1       0.556   0.872   1.333  0.00  0.00    -0.200 OA
ATOM      3  O   UNL d   1       2.373   0.035  -0.200  0.00  0.00    -0.200 OA
ENDROOT
BRANCH   1   4
ATOM      4  N   UNL d   1       0.147   0.621  -1.169  0.00  0.00    -0.281 N 
ATOM      5  H   UNL d   1       0.655   0.566  -2.052  0.00  0.00     0.179 HD
BRANCH   4   6
ATOM      6  C   UNL d   1      -1.263   0.710  -1.169  0.00  0.00     0.042 A 
ATOM      7  C   UNL d   1      -1.883   1.834  -0.619  0.00  0.00     0.033 A 
ATOM      8  C   UNL d   1      -3.273   1.943  -0.654  0.00  0.00     0.044 A 
ATOM      9  C   UNL d   1      -4.027   0.923  -1.225  0.00  0.00     0.116 A 
ATOM     10  C   UNL d   1      -3.415  -0.205  -1.762  0.00  0.00     0.044 A 
ATOM     11  F   UNL d   1      -5.361   1.030  -1.262  0.00  0.00    -0.206 F 
ATOM     12  C   UNL d   1      -2.023  -0.310  -1.740  0.00  0.00     0.033 A 
ENDBRANCH   4   6
ENDBRANCH   1   4
BRANCH   1  13
ATOM     13  C   UNL d   1       0.420  -1.578   0.406  0.00  0.00     0.080 A 
ATOM     14  C   UNL d   1       1.067  -2.619  -0.263  0.00  0.00     0.027 A 
ATOM     15  C   UNL d   1       0.673  -3.943  -0.027  0.00  0.00     0.031 A 
ATOM     16  C   UNL d   1      -0.355  -4.236   0.881  0.00  0.00     0.034 A 
ATOM     17  C   UNL d   1      -0.989  -3.180   1.542  0.00  0.00     0.031 A 
ATOM     18  C   UNL d   1      -0.601  -1.855   1.314  0.00  0.00     0.027 A 
BRANCH  16  19
ATOM     19  N   UNL d   1      -0.670  -5.596   1.087  0.00  0.00    -0.328 N 
ATOM     20  C   UNL d   1      -1.629  -6.115   1.940  0.00  0.00     0.218 C 
ATOM     21  O   UNL d   1      -2.403  -5.476   2.648  0.00  0.00    -0.274 OA
ATOM     22  C   UNL d   1      -1.669  -7.623   1.954  0.00  0.00     0.117 C 
ATOM     23  H   UNL d   1      -0.118  -6.263   0.563  0.00  0.00     0.169 HD
ENDBRANCH  16  19
ENDBRANCH   1  13
TORSDOF 4
