REMARK  6 active torsions:
REMARK  status: ('A' for Active; 'I' for Inactive)
REMARK    1  A    between atoms: C_3  and  S_1 
REMARK    2  A    between atoms: O_11  and  S_1 
REMARK    3  A    between atoms: C_4  and  C_9 
REMARK    4  A    between atoms: C_5  and  C_10 
REMARK    5  A    between atoms: C_6  and  C_19 
REMARK    6  A    between atoms: C_28  and  O_11 
ROOT
ATOM      1  S   UNL d   1       0.941  -0.003  -0.173  0.00  0.00     0.303 S 
ATOM      2  O   UNL d   1       0.218  -1.219   0.152  0.00  0.00    -0.193 OA
ATOM      3  O   UNL d   1       2.389   0.002  -0.248  0.00  0.00    -0.193 OA
ENDROOT
BRANCH   1   4
ATOM      4  C   UNL d   1       0.509   1.198   1.085  0.00  0.00     0.088 A 
ATOM      5  C   UNL d   1      -0.704   1.078   1.772  0.00  0.00     0.042 A 
ATOM      6  C   UNL d   1      -0.994   1.943   2.839  0.00  0.00     0.050 A 
ATOM      7  C   UNL d   1      -0.049   2.922   3.200  0.00  0.00     0.032 A 
ATOM      8  C   UNL d   1       1.178   3.041   2.522  0.00  0.00     0.050 A 
ATOM      9  C   UNL d   1       1.448   2.171   1.454  0.00  0.00     0.042 A 
BRANCH   6  10
ATOM     10  C   UNL d   1      -2.282   1.819   3.625  0.00  0.00     0.417 C 
ATOM     11  F   UNL d   1      -3.084   0.807   3.198  0.00  0.00    -0.166 F 
ATOM     12  F   UNL d   1      -2.057   1.590   4.948  0.00  0.00    -0.166 F 
ATOM     13  F   UNL d   1      -3.035   2.951   3.562  0.00  0.00    -0.166 F 
ENDBRANCH   6  10
BRANCH   8  14
ATOM     14  C   UNL d   1       2.193   4.067   2.975  0.00  0.00     0.417 C 
ATOM     15  F   UNL d   1       3.351   4.037   2.261  0.00  0.00    -0.166 F 
ATOM     16  F   UNL d   1       1.722   5.339   2.877  0.00  0.00    -0.166 F 
ATOM     17  F   UNL d   1       2.550   3.896   4.278  0.00  0.00    -0.166 F 
ENDBRANCH   8  14
ENDBRANCH   1   4
BRANCH   1  18
ATOM     18  O   UNL d   1       0.320   0.638  -1.540  0.00  0.00    -0.229 OA
BRANCH  18  19
ATOM     19  C   UNL d   1       0.420  -0.011  -2.746  0.00  0.00     0.089 A 
ATOM     20  C   UNL d   1      -0.610   0.227  -3.656  0.00  0.00     0.039 A 
ATOM     21  C   UNL d   1      -0.573  -0.344  -4.934  0.00  0.00     0.016 A 
ATOM     22  C   UNL d   1       0.507  -1.143  -5.331  0.00  0.00    -0.008 A 
ATOM     23  C   UNL d   1       1.533  -1.383  -4.407  0.00  0.00     0.016 A 
ATOM     24  C   UNL d   1       1.492  -0.819  -3.125  0.00  0.00     0.039 A 
BRANCH  22  25
ATOM     25  C   UNL d   1       0.546  -1.689  -6.682  0.00  0.00     0.063 A 
ATOM     26  N   UNL d   1      -0.625  -1.960  -7.385  0.00  0.00    -0.292 N 
ATOM     27  N   UNL d   1      -0.379  -2.430  -8.597  0.00  0.00    -0.061 NA
ATOM     28  HN  UNL d   1      -1.562  -1.812  -7.010  1.00  0.00     0.183 HD
ATOM     29  S   UNL d   1       1.255  -2.542  -8.931  0.00  0.00    -0.010 SA
ATOM     30  C   UNL d   1       1.710  -1.943  -7.388  0.00  0.00     0.096 A 
ENDBRANCH  22  25
ENDBRANCH  18  19
ENDBRANCH   1  18
TORSDOF 6
