REMARK  5 active torsions:
REMARK  status: ('A' for Active; 'I' for Inactive)
REMARK       I    between atoms: N_2  and  C_1 
REMARK       I    between atoms: N_3  and  C_1 
REMARK    1  A    between atoms: C_5  and  N_2 
REMARK    2  A    between atoms: C_9  and  N_2 
REMARK    3  A    between atoms: C_8  and  N_3 
REMARK    4  A    between atoms: C_12  and  C_5 
REMARK    5  A    between atoms: C_6  and  C_7 
ROOT
ATOM      1  C   UNL d   1       1.171  -0.242   0.146  0.00  0.00     0.323 C 
ATOM      2  N   UNL d   1       0.351  -0.859  -0.827  0.00  0.00    -0.326 N 
ATOM      3  N   UNL d   1       0.967  -0.734   1.423  0.00  0.00    -0.309 N 
ATOM      4  O   UNL d   1       2.034   0.580  -0.135  0.00  0.00    -0.247 OA
ATOM      5  H   UNL d   1       0.732  -1.713   1.427  0.00  0.00     0.170 HD
ENDROOT
BRANCH   2   6
ATOM      6  C   UNL d   1      -1.068  -1.098  -0.521  0.00  0.00     0.166 C 
BRANCH   6   7
ATOM      7  C   UNL d   1      -1.501  -2.505  -0.152  0.00  0.00    -0.040 A 
ATOM      8  C   UNL d   1      -0.637  -3.548   0.197  0.00  0.00     0.009 A 
ATOM      9  C   UNL d   1      -1.146  -4.772   0.663  0.00  0.00     0.001 A 
ATOM     10  C   UNL d   1      -2.520  -4.977   0.759  0.00  0.00     0.000 A 
ATOM     11  C   UNL d   1      -3.395  -3.969   0.373  0.00  0.00     0.001 A 
ATOM     12  C   UNL d   1      -2.889  -2.746  -0.074  0.00  0.00     0.009 A 
ENDBRANCH   6   7
ENDBRANCH   2   6
BRANCH   2  13
ATOM     13  C   UNL d   1       0.723  -0.604  -2.240  0.00  0.00     0.081 C 
ATOM     14  C   UNL d   1       0.172  -1.642  -3.226  0.00  0.00     0.032 C 
ATOM     15  C   UNL d   1       0.342   0.806  -2.712  0.00  0.00     0.032 C 
ENDBRANCH   2  13
BRANCH   3  16
ATOM     16  C   UNL d   1       1.679  -0.278   2.559  0.00  0.00     0.036 A 
ATOM     17  C   UNL d   1       1.821   1.071   2.865  0.00  0.00     0.030 A 
ATOM     18  C   UNL d   1       2.474   1.468   4.047  0.00  0.00     0.010 A 
ATOM     19  C   UNL d   1       3.053   0.531   4.928  0.00  0.00    -0.051 A 
ATOM     20  C   UNL d   1       2.904  -0.824   4.588  0.00  0.00     0.010 A 
ATOM     21  C   UNL d   1       2.208  -1.224   3.437  0.00  0.00     0.030 A 
BRANCH  19  22
ATOM     22  C   UNL d   1       3.781   0.982   6.212  0.00  0.00    -0.024 C 
ATOM     23  C   UNL d   1       4.625  -0.136   6.873  0.00  0.00     0.019 C 
ATOM     24  C   UNL d   1       4.754   2.149   5.926  0.00  0.00     0.019 C 
ATOM     25  C   UNL d   1       2.742   1.448   7.253  0.00  0.00     0.019 C 
ENDBRANCH  19  22
ENDBRANCH   3  16
TORSDOF 5
