REMARK  4 active torsions:
REMARK  status: ('A' for Active; 'I' for Inactive)
REMARK    1  A    between atoms: N_3  and  S_1 
REMARK    2  A    between atoms: C_9  and  S_1 
REMARK    3  A    between atoms: C_2  and  N_3 
REMARK    4  A    between atoms: C_12  and  C_8 
ROOT
ATOM      1  C   UNL d   1       0.660  -2.155   1.821  0.00  0.00     0.133 A 
ATOM      2  C   UNL d   1      -0.140  -3.023   2.520  0.00  0.00     0.082 A 
ATOM      3  N   UNL d   1       1.714  -4.149   1.849  0.00  0.00    -0.296 N 
ATOM      4  HN  UNL d   1       2.415  -4.874   1.698  1.00  0.00     0.187 HD
ATOM      5  N   UNL d   1       1.789  -2.854   1.493  0.00  0.00    -0.280 N 
ATOM      6  C   UNL d   1       0.517  -4.282   2.448  0.00  0.00     0.062 A 
ATOM      7  C   UNL d   1       3.035  -2.337   0.981  0.00  0.00     0.179 C 
ENDROOT
BRANCH   1   8
ATOM      8  N   UNL d   1       0.292  -0.863   1.507  0.00  0.00    -0.264 N 
ATOM      9  H   UNL d   1      -0.215  -0.326   2.193  0.00  0.00     0.180 HD
BRANCH   8  10
ATOM     10  S   UNL d   1      -0.082  -0.438  -0.029  0.00  0.00     0.264 S 
ATOM     11  O   UNL d   1       0.845  -1.014  -0.980  0.00  0.00    -0.200 OA
ATOM     12  O   UNL d   1      -0.380   0.976  -0.062  0.00  0.00    -0.200 OA
BRANCH  10  13
ATOM     13  C   UNL d   1      -1.657  -1.280  -0.245  0.00  0.00     0.079 A 
ATOM     14  C   UNL d   1      -2.825  -0.690   0.253  0.00  0.00     0.026 A 
ATOM     15  C   UNL d   1      -4.050  -1.341   0.087  0.00  0.00     0.008 A 
ATOM     16  C   UNL d   1      -4.117  -2.573  -0.578  0.00  0.00    -0.062 A 
ATOM     17  C   UNL d   1      -2.940  -3.153  -1.069  0.00  0.00     0.008 A 
ATOM     18  C   UNL d   1      -5.450  -3.237  -0.789  0.00  0.00     0.048 C 
ATOM     19  C   UNL d   1      -1.709  -2.510  -0.907  0.00  0.00     0.026 A 
ENDBRANCH  10  13
ENDBRANCH   8  10
ENDBRANCH   1   8
BRANCH   6  20
ATOM     20  C   UNL d   1       0.012  -5.586   2.889  0.00  0.00    -0.008 A 
ATOM     21  C   UNL d   1      -1.324  -5.746   3.292  0.00  0.00     0.014 A 
ATOM     22  C   UNL d   1      -1.813  -7.002   3.663  0.00  0.00     0.001 A 
ATOM     23  C   UNL d   1      -0.974  -8.113   3.637  0.00  0.00     0.000 A 
ATOM     24  C   UNL d   1       0.355  -7.970   3.246  0.00  0.00     0.001 A 
ATOM     25  C   UNL d   1       0.845  -6.715   2.875  0.00  0.00     0.014 A 
ENDBRANCH   6  20
TORSDOF 4
