REMARK  7 active torsions:
REMARK  status: ('A' for Active; 'I' for Inactive)
REMARK    1  A    between atoms: C_4  and  S_1 
REMARK    2  A    between atoms: N_10  and  S_1 
REMARK       I    between atoms: C_2  and  N_3 
REMARK    3  A    between atoms: C_7  and  C_2 
REMARK    4  A    between atoms: N_3  and  C_15 
REMARK    5  A    between atoms: O_8  and  C_7 
REMARK    6  A    between atoms: C_18  and  O_8 
REMARK    7  A    between atoms: C_9  and  C_11 
ROOT
ATOM      1  C   UNL d   1      -1.608   3.011  -5.319  0.00  0.00     0.251 C 
ATOM      2  N   UNL d   1      -1.828   4.284  -5.764  0.00  0.00    -0.325 N 
ATOM      3  O   UNL d   1      -0.922   2.919  -4.291  0.00  0.00    -0.270 OA
ATOM      4  H   UNL d   1      -1.429   4.937  -5.098  0.00  0.00     0.169 HD
ENDROOT
BRANCH   1   5
ATOM      5  C   UNL d   1      -2.231   1.767  -5.974  0.00  0.00     0.217 C 
ATOM      6  C   UNL d   1      -2.277   0.626  -4.947  0.00  0.00     0.050 C 
BRANCH   5   7
ATOM      7  O   UNL d   1      -1.425   1.358  -7.086  0.00  0.00    -0.337 OA
BRANCH   7   8
ATOM      8  C   UNL d   1      -1.998   0.436  -7.924  0.00  0.00     0.070 A 
ATOM      9  C   UNL d   1      -3.308   0.522  -8.386  0.00  0.00     0.037 A 
ATOM     10  C   UNL d   1      -3.801  -0.428  -9.277  0.00  0.00     0.011 A 
ATOM     11  C   UNL d   1      -3.016  -1.506  -9.720  0.00  0.00    -0.050 A 
ATOM     12  C   UNL d   1      -1.692  -1.571  -9.254  0.00  0.00     0.011 A 
ATOM     13  C   UNL d   1      -1.186  -0.600  -8.376  0.00  0.00     0.037 A 
BRANCH  11  14
ATOM     14  C   UNL d   1      -3.630  -2.535 -10.682  0.00  0.00    -0.024 C 
ATOM     15  C   UNL d   1      -2.698  -3.717 -11.019  0.00  0.00     0.019 C 
ATOM     16  C   UNL d   1      -4.910  -3.131 -10.050  0.00  0.00     0.019 C 
ATOM     17  C   UNL d   1      -3.995  -1.836 -12.009  0.00  0.00     0.019 C 
ENDBRANCH  11  14
ENDBRANCH   7   8
ENDBRANCH   5   7
ENDBRANCH   1   5
BRANCH   2  18
ATOM     18  C   UNL d   1      -2.460   4.870  -6.872  0.00  0.00     0.034 A 
ATOM     19  C   UNL d   1      -2.864   4.199  -8.022  0.00  0.00     0.031 A 
ATOM     20  C   UNL d   1      -3.471   4.882  -9.087  0.00  0.00     0.027 A 
ATOM     21  C   UNL d   1      -3.642   6.264  -9.015  0.00  0.00     0.074 A 
ATOM     22  C   UNL d   1      -3.243   6.958  -7.873  0.00  0.00     0.027 A 
ATOM     23  C   UNL d   1      -2.651   6.260  -6.815  0.00  0.00     0.031 A 
BRANCH  21  24
ATOM     24  S   UNL d   1      -4.377   7.143 -10.364  0.00  0.00     0.239 S 
ATOM     25  O   UNL d   1      -4.876   8.409  -9.889  0.00  0.00    -0.206 OA
ATOM     26  O   UNL d   1      -5.183   6.225 -11.138  0.00  0.00    -0.206 OA
BRANCH  24  27
ATOM     27  N   UNL d   1      -3.033   7.495 -11.306  0.00  0.00    -0.225 NA
ATOM     28  H   UNL d   1      -2.876   8.503 -11.330  0.00  0.00     0.136 HD
ATOM     29  H   UNL d   1      -3.131   7.069 -12.228  0.00  0.00     0.136 HD
ENDBRANCH  24  27
ENDBRANCH  21  24
ENDBRANCH   2  18
TORSDOF 7
