REMARK  5 active torsions:
REMARK  status: ('A' for Active; 'I' for Inactive)
REMARK    1  A    between atoms: C_3  and  S_1 
REMARK    2  A    between atoms: N_4  and  S_1 
REMARK    3  A    between atoms: C_19  and  N_4 
REMARK    4  A    between atoms: N_8  and  C_18 
REMARK    5  A    between atoms: C_18  and  C_20 
ROOT
ATOM      1  C   UNL d   1       0.283  -0.172  -2.856  0.00  0.00     0.022 A 
ATOM      2  C   UNL d   1       1.190   1.144  -5.174  0.00  0.00    -0.030 A 
ATOM      3  C   UNL d   1       1.640   0.094  -3.018  0.00  0.00     0.025 A 
ATOM      4  C   UNL d   1      -0.623   0.192  -3.850  0.00  0.00     0.025 A 
ATOM      5  C   UNL d   1      -0.169   0.830  -5.011  0.00  0.00     0.011 A 
ATOM      6  C   UNL d   1       2.089   0.744  -4.171  0.00  0.00     0.011 A 
ENDROOT
BRANCH   1   7
ATOM      7  N   UNL d   1      -0.202  -0.758  -1.646  0.00  0.00    -0.181 NA
ATOM      8  H   UNL d   1       0.373  -1.536  -1.321  0.00  0.00     0.146 HD
BRANCH   7   9
ATOM      9  S   UNL d   1      -0.387   0.307  -0.327  0.00  0.00     0.252 S 
ATOM     10  O   UNL d   1      -0.899  -0.499   0.762  0.00  0.00    -0.205 OA
ATOM     11  O   UNL d   1       0.830   1.077  -0.164  0.00  0.00    -0.205 OA
BRANCH   9  12
ATOM     12  C   UNL d   1      -1.703   1.440  -0.706  0.00  0.00     0.115 A 
ATOM     13  S   UNL d   1      -1.284   2.900  -1.495  0.00  0.00    -0.089 SA
ATOM     14  C   UNL d   1      -2.919   3.388  -1.601  0.00  0.00     0.051 A 
ATOM     15  C   UNL d   1      -3.771   2.475  -1.021  0.00  0.00     0.009 A 
ATOM     16  C   UNL d   1      -3.067   1.354  -0.496  0.00  0.00     0.033 A 
ENDBRANCH   9  12
ENDBRANCH   7   9
ENDBRANCH   1   7
BRANCH   2  17
ATOM     17  C   UNL d   1       1.738   1.809  -6.427  0.00  0.00     0.311 C 
BRANCH  17  18
ATOM     18  N   UNL d   1       0.803   2.696  -7.141  0.00  0.00     0.094 N 
ATOM     19  C   UNL d   1       0.430   3.922  -6.418  0.00  0.00     0.287 C 
ATOM     20  C   UNL d   1       1.520   4.971  -6.281  0.00  0.00     0.170 C 
ATOM     21  S   UNL d   1       2.115   5.465  -7.874  0.00  0.00     0.147 S 
ATOM     22  C   UNL d   1       2.416   3.915  -8.677  0.00  0.00     0.170 C 
ATOM     23  O   UNL d   1       3.397   6.117  -7.684  0.00  0.00    -0.228 OA
ATOM     24  O   UNL d   1       1.042   6.144  -8.577  0.00  0.00    -0.228 OA
ATOM     25  C   UNL d   1       1.227   2.982  -8.522  0.00  0.00     0.287 C 
ENDBRANCH  17  18
ENDBRANCH   2  17
TORSDOF 5
