REMARK  8 active torsions:
REMARK  status: ('A' for Active; 'I' for Inactive)
REMARK    1  A    between atoms: O_5  and  C_1 
REMARK       I    between atoms: C_2  and  N_3 
REMARK    2  A    between atoms: C_18  and  C_2 
REMARK    3  A    between atoms: N_3  and  C_9 
REMARK    4  A    between atoms: C_4  and  C_19 
REMARK    5  A    between atoms: O_13  and  C_4 
REMARK    6  A    between atoms: C_10  and  O_5 
REMARK    7  A    between atoms: S_8  and  C_18 
REMARK    8  A    between atoms: C_19  and  S_8 
ROOT
ATOM      1  C   UNL d   1       3.645  -4.494   4.742  0.00  0.00     0.231 C 
ATOM      2  N   UNL d   1       2.404  -3.886   4.827  0.00  0.00    -0.327 N 
ATOM      3  O   UNL d   1       4.544  -4.215   3.949  0.00  0.00    -0.272 OA
ATOM      4  H   UNL d   1       1.756  -4.239   5.523  0.00  0.00     0.169 HD
ENDROOT
BRANCH   2   5
ATOM      5  C   UNL d   1       1.918  -2.856   3.990  0.00  0.00     0.034 A 
ATOM      6  C   UNL d   1       2.658  -2.319   2.936  0.00  0.00     0.032 A 
ATOM      7  C   UNL d   1       2.130  -1.322   2.113  0.00  0.00     0.039 A 
ATOM      8  C   UNL d   1       0.857  -0.816   2.350  0.00  0.00     0.075 A 
ATOM      9  C   UNL d   1       0.099  -1.355   3.392  0.00  0.00     0.039 A 
ATOM     10  C   UNL d   1       0.625  -2.366   4.210  0.00  0.00     0.032 A 
BRANCH   8  11
ATOM     11  O   UNL d   1       0.262   0.179   1.628  0.00  0.00    -0.290 OA
BRANCH  11  12
ATOM     12  C   UNL d   1       1.148   0.993   0.871  0.00  0.00     0.505 C 
ATOM     13  F   UNL d   1       1.476   0.342  -0.274  0.00  0.00    -0.184 F 
ATOM     14  F   UNL d   1       0.470   2.108   0.506  0.00  0.00    -0.184 F 
ENDBRANCH  11  12
ENDBRANCH   8  11
ENDBRANCH   2   5
BRANCH   1  15
ATOM     15  C   UNL d   1       3.843  -5.670   5.681  0.00  0.00     0.177 C 
BRANCH  15  16
ATOM     16  S   UNL d   1       3.349  -7.224   4.867  0.00  0.00    -0.149 SA
BRANCH  16  17
ATOM     17  C   UNL d   1       4.335  -7.172   3.326  0.00  0.00     0.184 C 
BRANCH  17  18
ATOM     18  C   UNL d   1       5.827  -7.173   3.573  0.00  0.00     0.149 C 
ATOM     19  O   UNL d   1       6.487  -8.190   3.748  0.00  0.00    -0.649 OA
BRANCH  18  20
ATOM     20  O   UNL d   1       6.397  -5.947   3.595  0.00  0.00    -0.776 OA
ATOM     21  H   UNL d   1       5.768  -5.190   3.493  0.00  0.00     0.167 HD
ENDBRANCH  18  20
ENDBRANCH  17  18
ENDBRANCH  16  17
ENDBRANCH  15  16
ENDBRANCH   1  15
TORSDOF 8
