REMARK  6 active torsions:
REMARK  status: ('A' for Active; 'I' for Inactive)
REMARK    1  A    between atoms: C_9  and  N_2 
REMARK    2  A    between atoms: C_10  and  N_3 
REMARK    3  A    between atoms: S_12  and  C_4 
REMARK    4  A    between atoms: C_7  and  C_5 
REMARK    5  A    between atoms: O_14  and  C_7 
REMARK    6  A    between atoms: C_20  and  O_14 
ROOT
ATOM      1  C   UNL d   1      -0.756   1.286   0.141  0.00  0.00     0.194 C 
ATOM      2  N   UNL d   1      -1.444   0.007  -0.045  0.00  0.00    -0.281 N 
ATOM      3  N   UNL d   1       0.661   1.213   0.043  0.00  0.00    -0.254 N 
ATOM      4  C   UNL d   1      -0.702  -1.211  -0.122  0.00  0.00     0.100 C 
ATOM      5  C   UNL d   1       0.646  -1.235  -0.019  0.00  0.00     0.141 C 
ATOM      6  C   UNL d   1       1.385   0.029   0.101  0.00  0.00     0.273 C 
ATOM      7  S   UNL d   1      -1.549   2.771   0.467  0.00  0.00    -0.039 SA
ATOM      8  O   UNL d   1       2.596   0.011   0.331  0.00  0.00    -0.266 OA
ENDROOT
BRANCH   2   9
ATOM      9  C   UNL d   1      -2.913   0.024  -0.015  0.00  0.00     0.042 A 
ATOM     10  C   UNL d   1      -3.648   0.901  -0.836  0.00  0.00     0.030 A 
ATOM     11  C   UNL d   1      -5.037   1.023  -0.716  0.00  0.00     0.002 A 
ATOM     12  C   UNL d   1      -5.734   0.195   0.156  0.00  0.00     0.000 A 
ATOM     13  C   UNL d   1      -5.040  -0.736   0.921  0.00  0.00     0.002 A 
ATOM     14  C   UNL d   1      -3.642  -0.794   0.863  0.00  0.00     0.030 A 
ENDBRANCH   2   9
BRANCH   4  15
ATOM     15  S   UNL d   1      -1.544  -2.762  -0.298  0.00  0.00    -0.115 SA
ATOM     16  C   UNL d   1      -2.283  -2.703  -1.935  0.00  0.00     0.097 C 
ENDBRANCH   4  15
BRANCH   3  17
ATOM     17  C   UNL d   1       1.496   2.393   0.102  0.00  0.00     0.045 A 
ATOM     18  C   UNL d   1       2.374   2.665  -0.964  0.00  0.00     0.030 A 
ATOM     19  C   UNL d   1       3.243   3.759  -0.907  0.00  0.00     0.002 A 
ATOM     20  C   UNL d   1       3.251   4.584   0.220  0.00  0.00     0.000 A 
ATOM     21  C   UNL d   1       2.412   4.304   1.290  0.00  0.00     0.002 A 
ATOM     22  C   UNL d   1       1.551   3.205   1.242  0.00  0.00     0.030 A 
ENDBRANCH   3  17
BRANCH   5  23
ATOM     23  C   UNL d   1       1.451  -2.487   0.116  0.00  0.00     0.301 C 
ATOM     24  O   UNL d   1       1.143  -3.429   0.834  0.00  0.00    -0.259 OA
BRANCH  23  25
ATOM     25  O   UNL d   1       2.632  -2.379  -0.537  0.00  0.00    -0.318 OA
BRANCH  25  26
ATOM     26  C   UNL d   1       3.695  -3.208  -0.024  0.00  0.00     0.174 C 
ATOM     27  C   UNL d   1       4.138  -2.744   1.360  0.00  0.00     0.034 C 
ENDBRANCH  25  26
ENDBRANCH  23  25
ENDBRANCH   5  23
TORSDOF 6
