REMARK  6 active torsions:
REMARK  status: ('A' for Active; 'I' for Inactive)
REMARK    1  A    between atoms: N_2  and  C_1 
REMARK    2  A    between atoms: C_5  and  C_4 
REMARK    3  A    between atoms: N_18  and  C_5 
REMARK    4  A    between atoms: C_6  and  C_9 
REMARK    5  A    between atoms: O_12  and  N_7 
REMARK    6  A    between atoms: C_9  and  O_12 
ROOT
ATOM      1  C   UNL d   1      -0.991  -2.351  -0.137  0.00  0.00     0.133 C 
ATOM      2  N   UNL d   1      -2.269  -2.611  -0.074  0.00  0.00    -0.244 N 
ATOM      3  HN  UNL d   1      -2.648  -3.548  -0.214  1.00  0.00     0.196 HD
ENDROOT
BRANCH   2   4
ATOM      4  O   UNL d   1      -3.083  -1.494   0.201  0.00  0.00    -0.193 OA
BRANCH   4   5
ATOM      5  C   UNL d   1      -4.325  -1.931   0.565  0.00  0.00     0.320 C 
ATOM      6  O   UNL d   1      -4.705  -3.088   0.676  0.00  0.00    -0.257 OA
BRANCH   5   7
ATOM      7  C   UNL d   1      -5.206  -0.788   0.857  0.00  0.00     0.101 A 
ATOM      8  C   UNL d   1      -6.048  -0.780   1.976  0.00  0.00     0.053 A 
ATOM      9 CL   UNL d   1      -5.984  -1.984   3.215  0.00  0.00    -0.083 Cl
ATOM     10  C   UNL d   1      -6.971   0.260   2.154  0.00  0.00     0.025 A 
ATOM     11  C   UNL d   1      -7.054   1.298   1.227  0.00  0.00     0.005 A 
ATOM     12  C   UNL d   1      -6.203   1.306   0.125  0.00  0.00     0.043 A 
ATOM     13  C   UNL d   1      -5.289   0.267  -0.055  0.00  0.00     0.134 A 
ATOM     14  F   UNL d   1      -4.508   0.298  -1.145  0.00  0.00    -0.205 F 
ENDBRANCH   5   7
ENDBRANCH   4   5
ENDBRANCH   2   4
BRANCH   1  15
ATOM     15  C   UNL d   1      -0.423  -1.017  -0.043  0.00  0.00     0.117 A 
ATOM     16  O   UNL d   1       0.827  -0.901   0.520  0.00  0.00    -0.285 OA
ATOM     17  C   UNL d   1       1.132   0.423   0.509  0.00  0.00     0.215 A 
ATOM     18  C   UNL d   1       0.139   1.168  -0.076  0.00  0.00     0.066 A 
ATOM     19  C   UNL d   1      -0.862   0.235  -0.444  0.00  0.00     0.045 A 
BRANCH  17  20
ATOM     20  N   UNL d   1       2.382   0.798   1.089  0.00  0.00    -0.090 N 
ATOM     21  O   UNL d   1       2.640   2.009   1.099  0.00  0.00    -0.530 OA
ATOM     22  O   UNL d   1       3.105  -0.102   1.536  0.00  0.00    -0.530 OA
ENDBRANCH  17  20
ENDBRANCH   1  15
BRANCH   1  23
ATOM     23  N   UNL d   1      -0.176  -3.450  -0.265  0.00  0.00    -0.285 NA
ATOM     24  H   UNL d   1       0.737  -3.358   0.168  0.00  0.00     0.125 HD
ATOM     25  H   UNL d   1      -0.658  -4.308  -0.018  0.00  0.00     0.125 HD
ENDBRANCH   1  23
TORSDOF 6
