REMARK  3 active torsions:
REMARK  status: ('A' for Active; 'I' for Inactive)
REMARK       I    between atoms: N_2  and  C_1 
REMARK    1  A    between atoms: C_3  and  C_1 
REMARK       I    between atoms: C_4  and  N_2 
REMARK       I    between atoms: N_7  and  C_4 
REMARK       I    between atoms: C_5  and  N_6 
REMARK    2  A    between atoms: C_12  and  C_5 
REMARK    3  A    between atoms: N_6  and  N_7 
ROOT
ATOM      1  C   UNL d   1       1.070   0.183   0.026  0.00  0.00     0.261 C 
ATOM      2  N   UNL d   1       0.603  -0.763  -0.866  0.00  0.00    -0.274 N 
ATOM      3  C   UNL d   1       1.285  -1.565  -1.736  0.00  0.00     0.341 C 
ATOM      4  N   UNL d   1       2.643  -1.441  -1.782  0.00  0.00    -0.248 N 
ATOM      5  O   UNL d   1       2.255   0.422   0.228  0.00  0.00    -0.267 OA
ATOM      6  O   UNL d   1       0.661  -2.334  -2.472  0.00  0.00    -0.245 OA
ATOM      7  H   UNL d   1      -0.395  -0.905  -0.941  0.00  0.00     0.173 HD
ATOM      8  H   UNL d   1       3.162  -0.975  -1.033  0.00  0.00     0.192 HD
ENDROOT
BRANCH   4   9
ATOM      9  N   UNL d   1       3.334  -2.358  -2.584  0.00  0.00    -0.262 N 
ATOM     10  C   UNL d   1       4.707  -2.433  -2.525  0.00  0.00     0.270 C 
ATOM     11  O   UNL d   1       5.403  -1.719  -1.814  0.00  0.00    -0.266 OA
ATOM     12  H   UNL d   1       2.773  -2.852  -3.277  0.00  0.00     0.190 HD
BRANCH  10  13
ATOM     13  C   UNL d   1       5.324  -3.451  -3.419  0.00  0.00     0.033 A 
ATOM     14  C   UNL d   1       6.585  -3.191  -3.969  0.00  0.00     0.017 A 
ATOM     15  C   UNL d   1       7.190  -4.132  -4.806  0.00  0.00     0.001 A 
ATOM     16  C   UNL d   1       6.544  -5.337  -5.085  0.00  0.00     0.000 A 
ATOM     17  C   UNL d   1       5.295  -5.607  -4.527  0.00  0.00     0.001 A 
ATOM     18  C   UNL d   1       4.684  -4.668  -3.694  0.00  0.00     0.017 A 
ENDBRANCH  10  13
ENDBRANCH   4   9
BRANCH   1  19
ATOM     19  C   UNL d   1       0.010   0.993   0.687  0.00  0.00     0.054 A 
ATOM     20  C   UNL d   1      -1.198   0.458   1.158  0.00  0.00     0.049 A 
ATOM     21 CL   UNL d   1      -1.512  -1.240   1.235  0.00  0.00    -0.083 Cl
ATOM     22  C   UNL d   1      -2.212   1.310   1.609  0.00  0.00     0.025 A 
ATOM     23  C   UNL d   1      -2.018   2.691   1.617  0.00  0.00     0.002 A 
ATOM     24  C   UNL d   1      -0.796   3.224   1.208  0.00  0.00     0.001 A 
ATOM     25  C   UNL d   1       0.217   2.379   0.750  0.00  0.00     0.019 A 
ENDBRANCH   1  19
TORSDOF 3
