REMARK  6 active torsions:
REMARK  status: ('A' for Active; 'I' for Inactive)
REMARK    1  A    between atoms: C_10  and  C_1 
REMARK       I    between atoms: C_2  and  N_5 
REMARK    2  A    between atoms: C_3  and  C_2 
REMARK    3  A    between atoms: N_5  and  C_7 
REMARK    4  A    between atoms: C_7  and  C_10 
REMARK    5  A    between atoms: C_9  and  C_7 
REMARK    6  A    between atoms: O_19  and  C_9 
ROOT
ATOM      1  C   UNL d   1      -1.245  -3.326   0.200  0.00  0.00     0.189 C 
ENDROOT
BRANCH   1   2
ATOM      2  N   UNL d   1      -0.760  -2.791   1.474  0.00  0.00    -0.343 N 
ATOM      3  C   UNL d   1       0.577  -2.583   1.720  0.00  0.00     0.253 C 
ATOM      4  O   UNL d   1       1.452  -2.943   0.942  0.00  0.00    -0.268 OA
ATOM      5  H   UNL d   1      -1.451  -2.646   2.192  0.00  0.00     0.163 HD
BRANCH   3   6
ATOM      6  C   UNL d   1       0.930  -1.828   2.953  0.00  0.00     0.048 A 
ATOM      7  C   UNL d   1       0.020  -1.489   3.959  0.00  0.00     0.039 A 
ATOM      8  C   UNL d   1       0.435  -0.668   5.005  0.00  0.00     0.027 A 
ATOM      9 BR   UNL d   1      -0.786  -0.145   6.345  0.00  0.00    -0.050 Br
ATOM     10  C   UNL d   1       1.748  -0.227   5.031  0.00  0.00     0.106 A 
ATOM     11  N   UNL d   1       2.666  -0.564   4.095  0.00  0.00    -0.373 N 
ATOM     12  C   UNL d   1       2.234  -1.354   3.077  0.00  0.00     0.104 A 
ATOM     13  HN  UNL d   1       3.632  -0.241   4.151  1.00  0.00     0.164 HD
ENDBRANCH   3   6
ENDBRANCH   1   2
BRANCH   1  14
ATOM     14  C   UNL d   1      -2.653  -2.811  -0.133  0.00  0.00     0.076 C 
BRANCH  14  15
ATOM     15  C   UNL d   1      -2.775  -1.318  -0.219  0.00  0.00    -0.028 A 
ATOM     16  C   UNL d   1      -2.572  -0.549  -1.348  0.00  0.00     0.096 A 
ATOM     17  N   UNL d   1      -2.858   0.754  -1.039  0.00  0.00    -0.365 N 
ATOM     18  C   UNL d   1      -3.244   0.857   0.277  0.00  0.00     0.042 A 
ATOM     19  H   UNL d   1      -2.815   1.530  -1.684  0.00  0.00     0.165 HD
ATOM     20  C   UNL d   1      -3.178  -0.422   0.827  0.00  0.00    -0.002 A 
ATOM     21  C   UNL d   1      -3.654   1.978   1.009  0.00  0.00     0.030 A 
ATOM     22  C   UNL d   1      -3.520  -0.584   2.186  0.00  0.00     0.014 A 
ATOM     23  C   UNL d   1      -3.909   0.530   2.941  0.00  0.00     0.001 A 
ATOM     24  C   UNL d   1      -3.984   1.790   2.354  0.00  0.00     0.002 A 
ENDBRANCH  14  15
ENDBRANCH   1  14
BRANCH   1  25
ATOM     25  C   UNL d   1      -1.350  -4.851   0.273  0.00  0.00     0.281 C 
ATOM     26  O   UNL d   1      -1.550  -5.488   1.301  0.00  0.00    -0.263 OA
BRANCH  25  27
ATOM     27  O   UNL d   1      -1.331  -5.383  -0.984  0.00  0.00    -0.325 OA
ATOM     28  C   UNL d   1      -1.600  -6.784  -1.032  0.00  0.00     0.213 C 
ENDBRANCH  25  27
ENDBRANCH   1  25
TORSDOF 6
