REMARK  8 active torsions:
REMARK  status: ('A' for Active; 'I' for Inactive)
REMARK    1  A    between atoms: C_3  and  C_1 
REMARK       I    between atoms: N_7  and  C_1 
REMARK    2  A    between atoms: C_2  and  C_4 
REMARK    3  A    between atoms: O_8  and  C_2 
REMARK    4  A    between atoms: C_9  and  N_7 
REMARK    5  A    between atoms: C_10  and  C_9 
REMARK    6  A    between atoms: C_13  and  C_10 
REMARK    7  A    between atoms: C_11  and  C_12 
REMARK    8  A    between atoms: C_12  and  C_13 
ROOT
ATOM      1  C   UNL d   1       2.267  -0.171  -2.594  0.00  0.00     0.241 C 
ATOM      2  O   UNL d   1       2.258  -1.287  -2.091  0.00  0.00    -0.269 OA
ATOM      3  N   UNL d   1       2.708   0.967  -1.970  0.00  0.00    -0.358 N 
ATOM      4  H   UNL d   1       2.716   1.845  -2.471  0.00  0.00     0.162 HD
ENDROOT
BRANCH   1   5
ATOM      5  C   UNL d   1       1.774   0.078  -3.968  0.00  0.00     0.080 C 
ATOM      6  C   UNL d   1       1.265  -0.943  -4.674  0.00  0.00     0.086 C 
BRANCH   6   7
ATOM      7  C   UNL d   1       0.757  -0.681  -6.030  0.00  0.00     0.165 C 
ATOM      8  O   UNL d   1       0.763   0.413  -6.566  0.00  0.00    -0.647 OA
BRANCH   7   9
ATOM      9  O   UNL d   1       0.280  -1.794  -6.618  0.00  0.00    -0.773 OA
ATOM     10  H   UNL d   1       0.331  -2.608  -6.085  0.00  0.00     0.167 HD
ENDBRANCH   7   9
ENDBRANCH   6   7
ENDBRANCH   1   5
BRANCH   3  11
ATOM     11  C   UNL d   1       3.198   0.966  -0.605  0.00  0.00     0.123 C 
BRANCH  11  12
ATOM     12  C   UNL d   1       4.711   0.759  -0.512  0.00  0.00     0.020 C 
BRANCH  12  13
ATOM     13  C   UNL d   1       5.497   1.867  -1.218  0.00  0.00     0.002 C 
BRANCH  13  14
ATOM     14  C   UNL d   1       7.008   1.681  -1.062  0.00  0.00    -0.000 C 
BRANCH  14  15
ATOM     15  C   UNL d   1       7.772   2.772  -1.812  0.00  0.00    -0.005 C 
ATOM     16  C   UNL d   1       9.276   2.595  -1.684  0.00  0.00     0.005 C 
ENDBRANCH  14  15
ENDBRANCH  13  14
ENDBRANCH  12  13
ENDBRANCH  11  12
ENDBRANCH   3  11
TORSDOF 8
