REMARK  6 active torsions:
REMARK  status: ('A' for Active; 'I' for Inactive)
REMARK    1  A    between atoms: C_10  and  N_1 
REMARK    2  A    between atoms: S_11  and  C_2 
REMARK    3  A    between atoms: O_20  and  C_3 
REMARK    4  A    between atoms: C_8  and  C_14 
REMARK       I    between atoms: N_9  and  C_8 
REMARK    5  A    between atoms: C_12  and  C_10 
REMARK    6  A    between atoms: C_14  and  S_11 
ROOT
ATOM      1  N   UNL d   1       0.385   0.669  -0.721  0.00  0.00    -0.285 N 
ATOM      2  C   UNL d   1       0.971  -0.557  -0.572  0.00  0.00     0.165 A 
ATOM      3  C   UNL d   1      -0.961   0.408  -0.781  0.00  0.00     0.240 A 
ATOM      4  N   UNL d   1       0.049  -1.492  -0.560  0.00  0.00    -0.277 N 
ATOM      5  HN  UNL d   1       0.210  -2.494  -0.457  1.00  0.00     0.189 HD
ATOM      6  N   UNL d   1      -1.173  -0.882  -0.712  0.00  0.00    -0.263 N 
ATOM      7  HN  UNL d   1      -2.079  -1.348  -0.761  1.00  0.00     0.190 HD
ENDROOT
BRANCH   2   8
ATOM      8  S   UNL d   1       2.674  -0.844  -0.431  0.00  0.00    -0.083 SA
BRANCH   8   9
ATOM      9  C   UNL d   1       2.674  -2.645  -0.701  0.00  0.00     0.185 C 
BRANCH   9  10
ATOM     10  C   UNL d   1       4.090  -3.179  -0.838  0.00  0.00     0.229 C 
ATOM     11  N   UNL d   1       4.549  -4.046   0.152  0.00  0.00    -0.347 N 
ATOM     12  C   UNL d   1       5.823  -4.730  -0.082  0.00  0.00     0.152 C 
ATOM     13  C   UNL d   1       4.308  -3.804   1.579  0.00  0.00     0.152 C 
ATOM     14  C   UNL d   1       6.968  -3.922   0.534  0.00  0.00     0.187 C 
ATOM     15  O   UNL d   1       6.741  -3.733   1.944  0.00  0.00    -0.388 OA
ATOM     16  C   UNL d   1       5.501  -3.044   2.183  0.00  0.00     0.187 C 
ATOM     17  O   UNL d   1       4.771  -2.913  -1.831  0.00  0.00    -0.273 OA
ENDBRANCH   9  10
ENDBRANCH   8   9
ENDBRANCH   2   8
BRANCH   1  18
ATOM     18  C   UNL d   1       1.007   1.962  -0.906  0.00  0.00     0.200 C 
BRANCH  18  19
ATOM     19  C   UNL d   1       0.788   2.814   0.289  0.00  0.00     0.070 A 
ATOM     20  O   UNL d   1      -0.444   3.399   0.397  0.00  0.00    -0.325 OA
ATOM     21  C   UNL d   1      -0.443   4.114   1.552  0.00  0.00     0.142 A 
ATOM     22  C   UNL d   1       0.772   4.003   2.184  0.00  0.00     0.027 A 
ATOM     23  C   UNL d   1       1.571   3.166   1.368  0.00  0.00     0.036 A 
ENDBRANCH  18  19
ENDBRANCH   1  18
BRANCH   3  24
ATOM     24  O   UNL d   1      -1.929   1.305  -0.900  0.00  0.00    -0.331 OA
ATOM     25  H   UNL d   1      -1.614   2.155  -0.543  0.00  0.00     0.221 HD
ENDBRANCH   3  24
TORSDOF 6
