REMARK  3 active torsions:
REMARK  status: ('A' for Active; 'I' for Inactive)
REMARK    1  A    between atoms: S_13  and  C_9 
REMARK    2  A    between atoms: C_18  and  S_13 
REMARK    3  A    between atoms: C_14  and  C_18 
ROOT
ATOM      1  C   UNL d   1       1.241  -0.855   0.022  0.00  0.00     0.137 A 
ATOM      2  C   UNL d   1       0.845   0.469   0.034  0.00  0.00     0.104 A 
ATOM      3  N   UNL d   1       2.503  -1.308   0.012  0.00  0.00    -0.320 N 
ATOM      4  HN  UNL d   1       2.764  -2.294   0.003  1.00  0.00     0.169 HD
ATOM      5  N   UNL d   1       0.118  -1.629   0.012  0.00  0.00    -0.340 N 
ATOM      6  N   UNL d   1       1.786   1.448   0.052  0.00  0.00    -0.294 N 
ATOM      7  HN  UNL d   1       1.536   2.436   0.073  1.00  0.00     0.187 HD
ATOM      8  C   UNL d   1      -0.578   0.498   0.021  0.00  0.00     0.022 A 
ATOM      9  C   UNL d   1       3.382  -0.284   0.017  0.00  0.00     0.160 A 
ATOM     10  C   UNL d   1      -1.009  -0.836   0.012  0.00  0.00     0.046 A 
ATOM     11  N   UNL d   1       3.064   1.040   0.039  0.00  0.00    -0.279 N 
ATOM     12  HN  UNL d   1       3.812   1.734   0.046  1.00  0.00     0.189 HD
ATOM     13  C   UNL d   1      -1.550   1.518   0.014  0.00  0.00     0.016 A 
ATOM     14  C   UNL d   1      -2.362  -1.194   0.002  0.00  0.00     0.030 A 
ATOM     15  C   UNL d   1      -2.909   1.174   0.003  0.00  0.00     0.001 A 
ATOM     16  C   UNL d   1      -3.304  -0.163  -0.002  0.00  0.00     0.002 A 
ATOM     17  H   UNL d   1       0.126  -2.639  -0.000  0.00  0.00     0.167 HD
ENDROOT
BRANCH   9  18
ATOM     18  S   UNL d   1       5.093  -0.759  -0.097  0.00  0.00    -0.089 SA
BRANCH  18  19
ATOM     19  C   UNL d   1       5.870   0.590   0.836  0.00  0.00     0.108 C 
BRANCH  19  20
ATOM     20  C   UNL d   1       7.339   0.292   0.958  0.00  0.00    -0.026 C 
ATOM     21  C   UNL d   1       8.319   1.052   0.449  0.00  0.00     0.007 C 
ENDBRANCH  19  20
ENDBRANCH  18  19
ENDBRANCH   9  18
TORSDOF 3
