REMARK  1 active torsions:
REMARK  status: ('A' for Active; 'I' for Inactive)
REMARK       I    between atoms: C_6  and  N_1 
REMARK    1  A    between atoms: C_10  and  C_6 
ROOT
ATOM      1  N   UNL d   1       2.445  -0.016   0.032  0.00  0.00    -0.209 N 
ATOM      2  C   UNL d   1       1.585   1.097  -0.046  0.00  0.00     0.274 A 
ATOM      3  S   UNL d   1       1.592  -1.490   0.304  0.00  0.00     0.018 SA
ATOM      4  C   UNL d   1       0.158   0.690   0.030  0.00  0.00     0.074 A 
ATOM      5  C   UNL d   1       0.040  -0.682   0.133  0.00  0.00     0.108 A 
ATOM      6  C   UNL d   1       3.852   0.073  -0.056  0.00  0.00     0.278 C 
ATOM      7  N   UNL d   1      -1.111  -1.378   0.137  0.00  0.00    -0.352 N 
ATOM      8  HN  UNL d   1      -1.127  -2.396   0.202  1.00  0.00     0.166 HD
ATOM      9  C   UNL d   1      -1.008   1.452  -0.008  0.00  0.00    -0.042 A 
ATOM     10  O   UNL d   1       1.890   2.269  -0.195  0.00  0.00    -0.266 OA
ATOM     11  O   UNL d   1       4.419   1.164  -0.112  0.00  0.00    -0.266 OA
ATOM     12  C   UNL d   1      -2.230   0.749  -0.003  0.00  0.00     0.032 A 
ATOM     13  C   UNL d   1      -2.241  -0.649   0.050  0.00  0.00     0.006 A 
ATOM     14  C   UNL d   1      -1.058   2.950  -0.027  0.00  0.00     0.049 C 
ATOM     15  C   UNL d   1      -3.535  -1.406   0.031  0.00  0.00     0.068 C 
ENDROOT
BRANCH   6  16
ATOM     16  C   UNL d   1       4.644  -1.168  -0.044  0.00  0.00     0.073 A 
ATOM     17  S   UNL d   1       6.151  -1.162   0.793  0.00  0.00    -0.097 SA
ATOM     18  C   UNL d   1       6.419  -2.820   0.481  0.00  0.00     0.050 A 
ATOM     19  C   UNL d   1       5.417  -3.369  -0.282  0.00  0.00     0.009 A 
ATOM     20  C   UNL d   1       4.434  -2.401  -0.643  0.00  0.00     0.025 A 
ENDBRANCH   6  16
TORSDOF 1
