REMARK  1 active torsions:
REMARK  status: ('A' for Active; 'I' for Inactive)
REMARK    1  A    between atoms: C_8  and  C_1 
ROOT
ATOM      1  C   UNL d   1       0.269   1.093  -0.037  0.00  0.00     0.141 A 
ATOM      2  N   UNL d   1       1.150   0.107   0.351  0.00  0.00    -0.317 N 
ATOM      3  HN  UNL d   1       2.067   0.212   0.785  1.00  0.00     0.169 HD
ATOM      4  C   UNL d   1       0.522  -1.004   0.027  0.00  0.00     0.208 A 
ATOM      5  N   UNL d   1      -0.880   0.617  -0.542  0.00  0.00    -0.242 N 
ATOM      6  HN  UNL d   1      -1.680   1.146  -0.891  1.00  0.00     0.196 HD
ATOM      7  C   UNL d   1       1.090  -2.310   0.124  0.00  0.00     0.153 A 
ATOM      8  O   UNL d   1      -0.727  -0.764  -0.479  0.00  0.00    -0.215 OA
ATOM      9  N   UNL d   1       1.201  -4.559  -0.004  0.00  0.00    -0.272 N 
ATOM     10  HN  UNL d   1       0.944  -5.538  -0.135  1.00  0.00     0.194 HD
ATOM     11  O   UNL d   1       0.382  -3.450  -0.137  0.00  0.00    -0.234 OA
ATOM     12  C   UNL d   1       2.385  -2.674   0.435  0.00  0.00     0.063 A 
ATOM     13  C   UNL d   1       2.397  -4.074   0.331  0.00  0.00     0.117 A 
ENDROOT
BRANCH   1  14
ATOM     14  C   UNL d   1       0.599   2.513   0.031  0.00  0.00     0.053 A 
ATOM     15  C   UNL d   1       1.865   2.982  -0.381  0.00  0.00     0.049 A 
ATOM     16 CL   UNL d   1       3.109   1.948  -1.010  0.00  0.00    -0.083 Cl
ATOM     17  C   UNL d   1       2.178   4.349  -0.342  0.00  0.00     0.025 A 
ATOM     18  C   UNL d   1       1.238   5.276   0.093  0.00  0.00     0.003 A 
ATOM     19  C   UNL d   1      -0.016   4.835   0.503  0.00  0.00     0.025 A 
ATOM     20  C   UNL d   1      -0.334   3.468   0.483  0.00  0.00     0.049 A 
ATOM     21 CL   UNL d   1      -1.906   3.055   1.088  0.00  0.00    -0.083 Cl
ENDBRANCH   1  14
TORSDOF 1
