REMARK  4 active torsions:
REMARK  status: ('A' for Active; 'I' for Inactive)
REMARK    1  A    between atoms: C_6  and  C_1 
REMARK    2  A    between atoms: C_5  and  C_2 
REMARK       I    between atoms: N_10  and  C_6 
REMARK       I    between atoms: C_9  and  N_11 
REMARK    3  A    between atoms: C_12  and  C_9 
REMARK    4  A    between atoms: N_11  and  N_10 
ROOT
ATOM      1  C   UNL d   1      -2.612   1.327  -0.104  0.00  0.00     0.289 C 
ATOM      2  N   UNL d   1      -3.925   1.014   0.194  0.00  0.00    -0.262 N 
ATOM      3  O   UNL d   1      -1.690   0.551   0.129  0.00  0.00    -0.264 OA
ATOM      4  H   UNL d   1      -4.696   1.640  -0.045  0.00  0.00     0.190 HD
ENDROOT
BRANCH   1   5
ATOM      5  C   UNL d   1      -2.430   2.629  -0.739  0.00  0.00     0.143 A 
ATOM      6  C   UNL d   1      -1.237   3.259  -1.043  0.00  0.00     0.193 A 
ATOM      7  O   UNL d   1      -1.543   4.432  -1.690  0.00  0.00    -0.291 OA
ATOM      8  C   UNL d   1      -2.904   4.456  -1.748  0.00  0.00     0.121 A 
ATOM      9  N   UNL d   1      -3.489   3.422  -1.178  0.00  0.00    -0.334 N 
ATOM     10  C   UNL d   1      -3.494   5.610  -2.458  0.00  0.00     0.098 C 
ATOM     11  HN  UNL d   1      -4.488   3.244  -1.080  1.00  0.00     0.168 HD
BRANCH   6  12
ATOM     12  C   UNL d   1       0.201   2.979  -0.860  0.00  0.00     0.442 C 
ATOM     13  F   UNL d   1       0.477   1.841  -0.186  0.00  0.00    -0.164 F 
ATOM     14  F   UNL d   1       0.842   2.889  -2.056  0.00  0.00    -0.164 F 
ATOM     15  F   UNL d   1       0.813   3.984  -0.175  0.00  0.00    -0.164 F 
ENDBRANCH   6  12
ENDBRANCH   1   5
BRANCH   2  16
ATOM     16  N   UNL d   1      -4.245  -0.284   0.638  0.00  0.00    -0.263 N 
ATOM     17  C   UNL d   1      -5.568  -0.574   0.903  0.00  0.00     0.270 C 
ATOM     18  O   UNL d   1      -6.459   0.270   0.802  0.00  0.00    -0.266 OA
ATOM     19  H   UNL d   1      -3.463  -0.911   0.823  0.00  0.00     0.190 HD
BRANCH  17  20
ATOM     20  C   UNL d   1      -5.908  -1.968   1.314  0.00  0.00     0.033 A 
ATOM     21  C   UNL d   1      -7.077  -2.164   2.068  0.00  0.00     0.019 A 
ATOM     22  C   UNL d   1      -7.507  -3.454   2.397  0.00  0.00     0.025 A 
ATOM     23  C   UNL d   1      -6.774  -4.556   1.966  0.00  0.00     0.034 A 
ATOM     24  C   UNL d   1      -5.603  -4.377   1.228  0.00  0.00     0.025 A 
ATOM     25 CL   UNL d   1      -7.336  -6.144   2.315  0.00  0.00    -0.084 Cl
ATOM     26  C   UNL d   1      -5.165  -3.085   0.902  0.00  0.00     0.019 A 
ENDBRANCH  17  20
ENDBRANCH   2  16
TORSDOF 4
