REMARK  4 active torsions:
REMARK  status: ('A' for Active; 'I' for Inactive)
REMARK    1  A    between atoms: C_8  and  N_1 
REMARK    2  A    between atoms: C_9  and  C_3 
REMARK    3  A    between atoms: C_12  and  N_6 
REMARK    4  A    between atoms: C_13  and  C_12 
ROOT
ATOM      1  N   UNL d   1      -0.342   1.062  -0.074  0.00  0.00    -0.291 N 
ATOM      2  C   UNL d   1       1.007   0.650  -0.073  0.00  0.00     0.152 A 
ATOM      3  C   UNL d   1      -1.242  -0.027  -0.088  0.00  0.00     0.058 A 
ATOM      4  S   UNL d   1       1.062  -1.147  -0.061  0.00  0.00    -0.063 SA
ATOM      5  C   UNL d   1      -0.671  -1.245  -0.076  0.00  0.00     0.084 A 
ATOM      6  N   UNL d   1       2.056   1.385  -0.097  0.00  0.00    -0.366 N 
ATOM      7  HN  UNL d   1       1.945   2.397  -0.145  1.00  0.00     0.162 HD
ENDROOT
BRANCH   1   8
ATOM      8  C   UNL d   1      -0.697   2.447   0.040  0.00  0.00     0.042 A 
ATOM      9  C   UNL d   1      -1.813   3.000  -0.610  0.00  0.00     0.030 A 
ATOM     10  C   UNL d   1      -2.170   4.346  -0.460  0.00  0.00     0.002 A 
ATOM     11  C   UNL d   1      -1.387   5.192   0.313  0.00  0.00     0.000 A 
ATOM     12  C   UNL d   1      -0.254   4.690   0.938  0.00  0.00     0.002 A 
ATOM     13  C   UNL d   1       0.076   3.336   0.811  0.00  0.00     0.030 A 
ENDBRANCH   1   8
BRANCH   6  14
ATOM     14  C   UNL d   1       3.401   0.831  -0.057  0.00  0.00     0.161 C 
BRANCH  14  15
ATOM     15  C   UNL d   1       4.442   1.923  -0.016  0.00  0.00    -0.025 A 
ATOM     16  C   UNL d   1       5.660   1.719   0.623  0.00  0.00     0.096 A 
ATOM     17  N   UNL d   1       6.655   2.634   0.686  0.00  0.00    -0.375 N 
ATOM     18  C   UNL d   1       6.427   3.817   0.075  0.00  0.00     0.087 A 
ATOM     19  HN  UNL d   1       7.532   2.441   1.170  1.00  0.00     0.164 HD
ATOM     20  C   UNL d   1       5.258   4.122  -0.600  0.00  0.00     0.018 A 
ATOM     21  C   UNL d   1       4.256   3.157  -0.650  0.00  0.00     0.011 A 
ENDBRANCH  14  15
ENDBRANCH   6  14
BRANCH   3  22
ATOM     22  C   UNL d   1      -2.701   0.091  -0.043  0.00  0.00    -0.008 A 
ATOM     23  C   UNL d   1      -3.369   0.219   1.181  0.00  0.00     0.014 A 
ATOM     24  C   UNL d   1      -4.753   0.405   1.208  0.00  0.00     0.001 A 
ATOM     25  C   UNL d   1      -5.474   0.469   0.016  0.00  0.00     0.000 A 
ATOM     26  C   UNL d   1      -4.821   0.308  -1.205  0.00  0.00     0.001 A 
ATOM     27  C   UNL d   1      -3.443   0.092  -1.234  0.00  0.00     0.014 A 
ENDBRANCH   3  22
TORSDOF 4
