REMARK  2 active torsions:
REMARK  status: ('A' for Active; 'I' for Inactive)
REMARK    1  A    between atoms: C_11  and  N_1 
REMARK    2  A    between atoms: C_10  and  C_4 
ROOT
ATOM      1  N   UNL d   1       1.565  -1.503  -2.780  0.00  0.00    -0.282 N 
ATOM      2  N   UNL d   1       1.257  -1.293  -1.407  0.00  0.00    -0.297 N 
ATOM      3  HN  UNL d   1       0.547  -1.765  -0.847  1.00  0.00     0.187 HD
ATOM      4  C   UNL d   1       2.092  -0.356  -1.024  0.00  0.00     0.082 C 
ATOM      5  C   UNL d   1       3.156  -0.125  -1.984  0.00  0.00     0.104 C 
ATOM      6  C   UNL d   1       2.155  -0.242  -3.216  0.00  0.00     0.156 C 
ATOM      7  C   UNL d   1       4.166   0.823  -2.429  0.00  0.00    -0.034 A 
ATOM      8  C   UNL d   1       3.026   0.166  -4.347  0.00  0.00    -0.021 A 
ATOM      9  C   UNL d   1       4.105   0.881  -3.816  0.00  0.00    -0.010 A 
ATOM     10  C   UNL d   1       5.005   1.595  -4.571  0.00  0.00    -0.025 A 
ATOM     11  C   UNL d   1       5.224   1.388  -1.730  0.00  0.00     0.009 A 
ATOM     12  C   UNL d   1       2.768   0.236  -5.713  0.00  0.00     0.010 A 
ATOM     13  C   UNL d   1       3.663   0.982  -6.502  0.00  0.00     0.002 A 
ATOM     14  C   UNL d   1       6.172   2.095  -2.489  0.00  0.00     0.001 A 
ATOM     15  C   UNL d   1       4.774   1.645  -5.952  0.00  0.00     0.012 A 
ATOM     16  C   UNL d   1       6.064   2.217  -3.886  0.00  0.00     0.012 A 
ENDROOT
BRANCH   1  17
ATOM     17  C   UNL d   1       0.815  -2.464  -3.429  0.00  0.00     0.051 A 
ATOM     18  C   UNL d   1       0.481  -3.650  -2.741  0.00  0.00     0.031 A 
ATOM     19  C   UNL d   1      -0.261  -4.678  -3.332  0.00  0.00     0.002 A 
ATOM     20  C   UNL d   1      -0.685  -4.546  -4.647  0.00  0.00     0.000 A 
ATOM     21  C   UNL d   1      -0.372  -3.389  -5.353  0.00  0.00     0.002 A 
ATOM     22  C   UNL d   1       0.370  -2.362  -4.744  0.00  0.00     0.031 A 
ENDBRANCH   1  17
BRANCH   4  23
ATOM     23  C   UNL d   1       1.950   0.419   0.255  0.00  0.00     0.170 C 
ATOM     24  O   UNL d   1       1.573  -0.144   1.275  0.00  0.00    -0.291 OA
ATOM     25  C   UNL d   1       2.282   1.881   0.194  0.00  0.00     0.098 C 
ENDBRANCH   4  23
TORSDOF 2
