REMARK  4 active torsions:
REMARK  status: ('A' for Active; 'I' for Inactive)
REMARK    1  A    between atoms: N_2  and  S_1 
REMARK    2  A    between atoms: C_5  and  S_1 
REMARK    3  A    between atoms: O_18  and  C_10 
REMARK    4  A    between atoms: O_19  and  C_11 
ROOT
ATOM      1  N   UNL d   1       0.377   1.478  -0.005  0.00  0.00    -0.302 N 
ATOM      2  C   UNL d   1       0.222   3.933  -0.580  0.00  0.00    -0.030 A 
ATOM      3  C   UNL d   1       1.094   2.742  -0.248  0.00  0.00     0.174 C 
ATOM      4  C   UNL d   1      -1.063   3.743  -1.097  0.00  0.00    -0.046 A 
ATOM      5  C   UNL d   1       0.716   5.242  -0.435  0.00  0.00     0.049 A 
ATOM      6  C   UNL d   1      -0.051   6.362  -0.800  0.00  0.00     0.102 A 
ATOM      7  C   UNL d   1      -1.322   6.157  -1.366  0.00  0.00     0.102 A 
ATOM      8  C   UNL d   1      -1.812   4.848  -1.507  0.00  0.00     0.047 A 
ATOM      9  C   UNL d   1      -1.093   1.488  -0.057  0.00  0.00     0.140 C 
ATOM     10  C   UNL d   1      -1.605   2.345  -1.214  0.00  0.00     0.060 C 
ENDROOT
BRANCH   1  11
ATOM     11  S   UNL d   1       1.223   0.039  -0.120  0.00  0.00     0.261 S 
ATOM     12  O   UNL d   1       0.519  -0.961   0.657  0.00  0.00    -0.200 OA
ATOM     13  O   UNL d   1       2.625   0.316   0.113  0.00  0.00    -0.200 OA
BRANCH  11  14
ATOM     14  C   UNL d   1       1.051  -0.418  -1.838  0.00  0.00     0.079 A 
ATOM     15  C   UNL d   1       1.989   0.028  -2.775  0.00  0.00     0.027 A 
ATOM     16  C   UNL d   1       1.922  -0.433  -4.093  0.00  0.00     0.025 A 
ATOM     17  C   UNL d   1       0.931  -1.344  -4.463  0.00  0.00     0.034 A 
ATOM     18  C   UNL d   1      -0.004  -1.792  -3.529  0.00  0.00     0.025 A 
ATOM     19 CL   UNL d   1       0.879  -1.942  -6.075  0.00  0.00    -0.084 Cl
ATOM     20  C   UNL d   1       0.057  -1.333  -2.210  0.00  0.00     0.027 A 
ENDBRANCH  11  14
ENDBRANCH   1  11
BRANCH   6  21
ATOM     21  O   UNL d   1       0.386   7.649  -0.637  0.00  0.00    -0.353 OA
ATOM     22  C   UNL d   1       1.631   7.872   0.011  0.00  0.00     0.210 C 
ENDBRANCH   6  21
BRANCH   7  23
ATOM     23  O   UNL d   1      -2.220   7.085  -1.825  0.00  0.00    -0.353 OA
ATOM     24  C   UNL d   1      -1.872   8.460  -1.794  0.00  0.00     0.210 C 
ENDBRANCH   7  23
TORSDOF 4
