REMARK  2 active torsions:
REMARK  status: ('A' for Active; 'I' for Inactive)
REMARK    1  A    between atoms: C_6  and  C_3 
REMARK    2  A    between atoms: C_9  and  C_4 
ROOT
ATOM      1  N   UNL d   1       1.380  -0.567  -0.128  0.00  0.00    -0.348 N 
ATOM      2  HN  UNL d   1       2.258  -1.070  -0.257  1.00  0.00     0.166 HD
ATOM      3  C   UNL d   1       1.270   0.810  -0.004  0.00  0.00     0.057 A 
ATOM      4  C   UNL d   1       0.190  -1.136  -0.055  0.00  0.00     0.084 A 
ATOM      5  S   UNL d   1      -1.119  -0.032   0.162  0.00  0.00    -0.081 SA
ATOM      6  C   UNL d   1      -0.018   1.276   0.164  0.00  0.00     0.082 A 
ENDROOT
BRANCH   4   7
ATOM      7  C   UNL d   1      -0.041  -2.592  -0.077  0.00  0.00    -0.002 A 
ATOM      8  C   UNL d   1       0.977  -3.452   0.367  0.00  0.00     0.014 A 
ATOM      9  C   UNL d   1       0.789  -4.837   0.400  0.00  0.00     0.001 A 
ATOM     10  C   UNL d   1      -0.419  -5.386  -0.023  0.00  0.00     0.000 A 
ATOM     11  C   UNL d   1      -1.433  -4.552  -0.489  0.00  0.00     0.001 A 
ATOM     12  C   UNL d   1      -1.245  -3.167  -0.519  0.00  0.00     0.014 A 
ENDBRANCH   4   7
BRANCH   3  13
ATOM     13  C   UNL d   1       2.482   1.694  -0.040  0.00  0.00     0.032 A 
ATOM     14  S   UNL d   1       2.469   3.388   0.198  0.00  0.00    -0.100 SA
ATOM     15  C   UNL d   1       4.166   3.493   0.015  0.00  0.00     0.050 A 
ATOM     16  C   UNL d   1       4.733   2.264  -0.239  0.00  0.00     0.008 A 
ATOM     17  C   UNL d   1       3.758   1.223  -0.268  0.00  0.00     0.021 A 
ENDBRANCH   3  13
TORSDOF 2
