REMARK  3 active torsions:
REMARK  status: ('A' for Active; 'I' for Inactive)
REMARK    1  A    between atoms: C_3  and  C_5 
REMARK    2  A    between atoms: C_14  and  C_4 
REMARK    3  A    between atoms: N_7  and  C_6 
ROOT
ATOM      1  N   UNL d   1       1.210   0.117   0.229  0.00  0.00    -0.317 N 
ATOM      2  HN  UNL d   1       2.180   0.215   0.528  1.00  0.00     0.169 HD
ATOM      3  C   UNL d   1       0.281   1.113  -0.023  0.00  0.00     0.154 A 
ATOM      4  C   UNL d   1       0.534  -0.986  -0.011  0.00  0.00     0.182 A 
ATOM      5  N   UNL d   1      -0.931   0.640  -0.363  0.00  0.00    -0.241 N 
ATOM      6  HN  UNL d   1      -1.777   1.171  -0.571  1.00  0.00     0.196 HD
ATOM      7  O   UNL d   1      -0.763  -0.739  -0.365  0.00  0.00    -0.217 OA
ENDROOT
BRANCH   4   8
ATOM      8  C   UNL d   1       1.131  -2.351   0.071  0.00  0.00     0.027 A 
ATOM      9  C   UNL d   1       2.464  -2.637   0.497  0.00  0.00     0.060 A 
ATOM     10  C   UNL d   1       2.720  -3.992   0.466  0.00  0.00     0.144 A 
ATOM     11  S   UNL d   1       1.394  -4.901  -0.086  0.00  0.00    -0.077 SA
ATOM     12  C   UNL d   1       0.436  -3.491  -0.275  0.00  0.00     0.068 A 
BRANCH  10  13
ATOM     13  N   UNL d   1       3.949  -4.641   0.845  0.00  0.00    -0.108 N 
ATOM     14  O   UNL d   1       4.854  -3.902   1.255  0.00  0.00    -0.531 OA
ATOM     15  O   UNL d   1       4.021  -5.872   0.741  0.00  0.00    -0.531 OA
ENDBRANCH  10  13
ENDBRANCH   4   8
BRANCH   3  16
ATOM     16  C   UNL d   1       0.630   2.536   0.022  0.00  0.00     0.078 A 
ATOM     17  N   UNL d   1      -0.358   3.434  -0.233  0.00  0.00    -0.363 N 
ATOM     18  C   UNL d   1      -0.021   4.741  -0.255  0.00  0.00     0.088 A 
ATOM     19  HN  UNL d   1      -1.318   3.132  -0.402  1.00  0.00     0.165 HD
ATOM     20  C   UNL d   1       1.263   5.209  -0.035  0.00  0.00     0.017 A 
ATOM     21  C   UNL d   1       2.263   4.283   0.236  0.00  0.00     0.004 A 
ATOM     22  C   UNL d   1       1.945   2.927   0.269  0.00  0.00     0.033 A 
ENDBRANCH   3  16
TORSDOF 3
