REMARK  3 active torsions:
REMARK  status: ('A' for Active; 'I' for Inactive)
REMARK    1  A    between atoms: C_2  and  C_1 
REMARK       I    between atoms: N_4  and  C_1 
REMARK    2  A    between atoms: N_3  and  C_5 
REMARK    3  A    between atoms: C_8  and  N_4 
ROOT
ATOM      1  C   UNL d   1      -3.988   1.003   1.189  0.00  0.00     0.030 A 
ATOM      2  C   UNL d   1      -1.133   0.994   1.038  0.00  0.00     0.035 A 
ATOM      3  C   UNL d   1      -3.237   2.187   1.164  0.00  0.00     0.031 A 
ATOM      4  C   UNL d   1      -3.252  -0.190   1.153  0.00  0.00     0.031 A 
ATOM      5  C   UNL d   1      -1.839   2.190   1.090  0.00  0.00     0.032 A 
ATOM      6  C   UNL d   1      -1.851  -0.201   1.069  0.00  0.00     0.032 A 
ENDROOT
BRANCH   2   7
ATOM      7  N   UNL d   1       0.268   0.926   0.904  0.00  0.00    -0.323 N 
ATOM      8  C   UNL d   1       1.162   1.973   1.024  0.00  0.00     0.257 C 
ATOM      9  O   UNL d   1       0.895   3.100   1.433  0.00  0.00    -0.267 OA
ATOM     10  H   UNL d   1       0.650   0.005   0.720  0.00  0.00     0.169 HD
BRANCH   8  11
ATOM     11  C   UNL d   1       2.556   1.721   0.555  0.00  0.00     0.054 A 
ATOM     12  C   UNL d   1       3.216   0.485   0.574  0.00  0.00     0.049 A 
ATOM     13 CL   UNL d   1       2.553  -0.945   1.284  0.00  0.00    -0.083 Cl
ATOM     14  C   UNL d   1       4.500   0.370   0.023  0.00  0.00     0.025 A 
ATOM     15  C   UNL d   1       5.138   1.480  -0.534  0.00  0.00     0.002 A 
ATOM     16  C   UNL d   1       4.505   2.718  -0.525  0.00  0.00     0.001 A 
ATOM     17  C   UNL d   1       3.227   2.838   0.018  0.00  0.00     0.019 A 
ENDBRANCH   8  11
ENDBRANCH   2   7
BRANCH   1  18
ATOM     18  N   UNL d   1      -5.368   1.024   1.231  0.00  0.00    -0.381 N 
ATOM     19  C   UNL d   1      -6.157  -0.035   1.861  0.00  0.00     0.123 C 
ATOM     20  C   UNL d   1      -7.103  -0.646   0.828  0.00  0.00     0.020 C 
ATOM     21  C   UNL d   1      -7.963   0.429   0.163  0.00  0.00     0.003 C 
ATOM     22  C   UNL d   1      -7.099   1.553  -0.407  0.00  0.00     0.020 C 
ATOM     23  C   UNL d   1      -6.144   2.120   0.644  0.00  0.00     0.123 C 
ENDBRANCH   1  18
TORSDOF 3
