REMARK  3 active torsions:
REMARK  status: ('A' for Active; 'I' for Inactive)
REMARK    1  A    between atoms: C_4  and  C_14 
REMARK       I    between atoms: C_10  and  N_13 
REMARK       I    between atoms: N_16  and  C_10 
REMARK    2  A    between atoms: N_13  and  C_11 
REMARK    3  A    between atoms: C_19  and  N_16 
ROOT
ATOM      1  C   UNL d   1      -4.937  -0.635  -0.134  0.00  0.00     0.325 C 
ATOM      2  N   UNL d   1      -3.711  -1.276  -0.039  0.00  0.00    -0.309 N 
ATOM      3  N   UNL d   1      -4.822   0.752  -0.109  0.00  0.00    -0.309 N 
ATOM      4  O   UNL d   1      -5.999  -1.227  -0.272  0.00  0.00    -0.247 OA
ATOM      5  H   UNL d   1      -2.892  -0.702   0.080  0.00  0.00     0.170 HD
ATOM      6  H   UNL d   1      -3.904   1.144   0.007  0.00  0.00     0.170 HD
ENDROOT
BRANCH   2   7
ATOM      7  C   UNL d   1      -3.498  -2.671  -0.236  0.00  0.00     0.038 A 
ATOM      8  C   UNL d   1      -4.560  -3.578  -0.445  0.00  0.00     0.062 A 
ATOM      9  C   UNL d   1      -4.226  -4.918  -0.756  0.00  0.00     0.069 A 
ATOM     10  C   UNL d   1      -2.797  -5.355  -0.820  0.00  0.00     0.067 A 
ATOM     11  N   UNL d   1      -5.096  -5.904  -1.028  0.00  0.00    -0.310 N 
ATOM     12  N   UNL d   1      -2.650  -6.648  -1.145  0.00  0.00    -0.310 N 
ATOM     13  C   UNL d   1      -1.753  -4.438  -0.548  0.00  0.00     0.035 A 
ATOM     14  S   UNL d   1      -4.186  -7.250  -1.364  0.00  0.00     0.068 SA
ATOM     15  HN  UNL d   1      -1.773  -7.160  -1.240  1.00  0.00     0.176 HD
ATOM     16  C   UNL d   1      -2.146  -3.110  -0.265  0.00  0.00     0.032 A 
ATOM     17  HN  UNL d   1      -6.114  -5.838  -1.027  1.00  0.00     0.176 HD
ENDBRANCH   2   7
BRANCH   3  18
ATOM     18  C   UNL d   1      -5.876   1.659  -0.388  0.00  0.00     0.037 A 
ATOM     19  C   UNL d   1      -7.202   1.262  -0.601  0.00  0.00     0.045 A 
ATOM     20  C   UNL d   1      -8.193   2.167  -1.008  0.00  0.00     0.050 A 
ATOM     21  C   UNL d   1      -7.852   3.516  -1.152  0.00  0.00     0.016 A 
ATOM     22  C   UNL d   1      -6.548   3.939  -0.891  0.00  0.00     0.003 A 
ATOM     23  C   UNL d   1      -5.565   3.016  -0.513  0.00  0.00     0.029 A 
BRANCH  20  24
ATOM     24  C   UNL d   1      -9.586   1.678  -1.322  0.00  0.00     0.417 C 
ATOM     25  F   UNL d   1      -9.762   0.340  -1.136  0.00  0.00    -0.166 F 
ATOM     26  F   UNL d   1     -10.537   2.286  -0.560  0.00  0.00    -0.166 F 
ATOM     27  F   UNL d   1      -9.936   1.919  -2.617  0.00  0.00    -0.166 F 
ENDBRANCH  20  24
ENDBRANCH   3  18
TORSDOF 3
