REMARK  4 active torsions:
REMARK  status: ('A' for Active; 'I' for Inactive)
REMARK    1  A    between atoms: C_2  and  C_1 
REMARK       I    between atoms: N_4  and  C_2 
REMARK    2  A    between atoms: C_5  and  C_3 
REMARK    3  A    between atoms: C_6  and  N_4 
REMARK    4  A    between atoms: C_23  and  N_4 
ROOT
ATOM      1  C   UNL d   1       0.628   1.288   0.069  0.00  0.00     0.063 A 
ATOM      2  C   UNL d   1       0.977   0.244   0.933  0.00  0.00     0.068 A 
ATOM      3  C   UNL d   1      -0.242   0.979  -0.963  0.00  0.00     0.107 A 
ATOM      4  N   UNL d   1      -0.852  -0.221  -1.126  0.00  0.00    -0.352 N 
ATOM      5  HN  UNL d   1      -1.533  -0.362  -1.872  1.00  0.00     0.166 HD
ATOM      6  C   UNL d   1      -0.539  -1.221  -0.285  0.00  0.00     0.101 A 
ATOM      7  C   UNL d   1       0.377  -1.022   0.734  0.00  0.00     0.065 A 
ATOM      8  N   UNL d   1      -1.137  -2.411  -0.571  0.00  0.00    -0.381 N 
ATOM      9  C   UNL d   1      -1.080  -3.630   0.190  0.00  0.00     0.147 C 
ATOM     10  H   UNL d   1      -1.844  -2.326  -1.292  0.00  0.00     0.160 HD
ENDROOT
BRANCH   1  11
ATOM     11  C   UNL d   1       1.244   2.633   0.156  0.00  0.00     0.260 C 
ATOM     12  N   UNL d   1       0.448   3.796   0.167  0.00  0.00    -0.312 N 
ATOM     13  O   UNL d   1       2.472   2.644   0.233  0.00  0.00    -0.267 OA
BRANCH  12  14
ATOM     14  C   UNL d   1       1.124   5.031   0.425  0.00  0.00     0.059 A 
ATOM     15  C   UNL d   1       1.323   6.027  -0.542  0.00  0.00     0.062 A 
ATOM     16  C   UNL d   1       1.903   7.247  -0.192  0.00  0.00     0.050 A 
ATOM     17 CL   UNL d   1       0.910   5.786  -2.209  0.00  0.00    -0.082 Cl
ATOM     18  C   UNL d   1       2.290   7.476   1.127  0.00  0.00     0.035 A 
ATOM     19  C   UNL d   1       2.127   6.487   2.094  0.00  0.00     0.026 A 
ATOM     20 CL   UNL d   1       2.971   8.994   1.567  0.00  0.00    -0.084 Cl
ATOM     21  C   UNL d   1       1.556   5.262   1.741  0.00  0.00     0.033 A 
ENDBRANCH  12  14
BRANCH  12  22
ATOM     22  C   UNL d   1      -0.979   3.861  -0.210  0.00  0.00     0.128 C 
ATOM     23  C   UNL d   1      -1.784   5.069   0.262  0.00  0.00     0.027 C 
ENDBRANCH  12  22
ENDBRANCH   1  11
BRANCH   2  24
ATOM     24  C   UNL d   1       2.001   0.347   2.033  0.00  0.00     0.418 C 
ATOM     25  F   UNL d   1       2.276   1.594   2.489  0.00  0.00    -0.166 F 
ATOM     26  F   UNL d   1       1.591  -0.335   3.147  0.00  0.00    -0.166 F 
ATOM     27  F   UNL d   1       3.187  -0.227   1.688  0.00  0.00    -0.166 F 
ENDBRANCH   2  24
TORSDOF 4
