REMARK  3 active torsions:
REMARK  status: ('A' for Active; 'I' for Inactive)
REMARK    1  A    between atoms: C_7  and  C_1 
REMARK       I    between atoms: N_12  and  C_7 
REMARK    2  A    between atoms: N_9  and  N_12 
REMARK    3  A    between atoms: C_18  and  C_16 
ROOT
ATOM      1  C   UNL d   1       0.304  -1.093   0.210  0.00  0.00     0.289 C 
ATOM      2  N   UNL d   1      -0.587  -2.137   0.043  0.00  0.00    -0.265 N 
ATOM      3  O   UNL d   1      -0.177   0.025   0.421  0.00  0.00    -0.264 OA
ATOM      4  H   UNL d   1      -1.562  -1.881   0.159  0.00  0.00     0.190 HD
ENDROOT
BRANCH   1   5
ATOM      5  C   UNL d   1       1.723  -1.302   0.047  0.00  0.00     0.132 A 
ATOM      6  N   UNL d   1       2.525  -2.317   0.546  0.00  0.00    -0.302 N 
ATOM      7  C   UNL d   1       3.823  -2.051   0.106  0.00  0.00     0.112 A 
ATOM      8  C   UNL d   1       2.233  -3.410   1.369  0.00  0.00     0.099 A 
ATOM      9  C   UNL d   1       4.851  -2.967   0.471  0.00  0.00     0.049 A 
ATOM     10  N   UNL d   1       3.891  -0.933  -0.579  0.00  0.00    -0.344 N 
ATOM     11  C   UNL d   1       4.557  -4.039   1.229  0.00  0.00     0.005 A 
ATOM     12  C   UNL d   1       3.205  -4.277   1.704  0.00  0.00     0.018 A 
ATOM     13  C   UNL d   1       2.610  -0.445  -0.601  0.00  0.00     0.040 A 
ATOM     14  HN  UNL d   1       4.720  -0.517  -1.004  1.00  0.00     0.167 HD
ATOM     15  C   UNL d   1       2.326   0.840  -1.286  0.00  0.00     0.071 C 
ENDBRANCH   1   5
BRANCH   2  16
ATOM     16  N   UNL d   1      -0.251  -3.416  -0.263  0.00  0.00    -0.308 N 
ATOM     17  C   UNL d   1      -1.170  -4.228  -0.695  0.00  0.00     0.118 C 
ATOM     18  HN  UNL d   1       0.711  -3.736  -0.155  1.00  0.00     0.186 HD
BRANCH  17  19
ATOM     19  C   UNL d   1      -2.545  -3.934  -1.149  0.00  0.00    -0.019 A 
ATOM     20  C   UNL d   1      -2.829  -2.789  -1.901  0.00  0.00     0.014 A 
ATOM     21  C   UNL d   1      -4.125  -2.575  -2.378  0.00  0.00     0.024 A 
ATOM     22  C   UNL d   1      -5.122  -3.515  -2.124  0.00  0.00     0.034 A 
ATOM     23  C   UNL d   1      -4.836  -4.670  -1.396  0.00  0.00     0.024 A 
ATOM     24 CL   UNL d   1      -6.710  -3.257  -2.730  0.00  0.00    -0.084 Cl
ATOM     25  C   UNL d   1      -3.542  -4.885  -0.911  0.00  0.00     0.014 A 
ENDBRANCH  17  19
ENDBRANCH   2  16
TORSDOF 3
