REMARK  4 active torsions:
REMARK  status: ('A' for Active; 'I' for Inactive)
REMARK    1  A    between atoms: N_5  and  N_1 
REMARK       I    between atoms: C_3  and  N_5 
REMARK    2  A    between atoms: O_13  and  C_3 
REMARK    3  A    between atoms: C_8  and  C_7 
REMARK    4  A    between atoms: C_17  and  O_13 
ROOT
ATOM      1  N   UNL d   1       5.674  -5.630   1.946  0.00  0.00    -0.191 NA
ATOM      2  C   UNL d   1       5.098  -4.667   1.641  0.00  0.00     0.099 C 
ATOM      3  C   UNL d   1       3.043  -1.125   0.500  0.00  0.00    -0.013 A 
ATOM      4  C   UNL d   1       2.331  -2.281   0.855  0.00  0.00     0.015 A 
ATOM      5  C   UNL d   1       4.444  -1.158   0.536  0.00  0.00     0.015 A 
ATOM      6  C   UNL d   1       4.401  -3.474   1.261  0.00  0.00     0.044 A 
ATOM      7  C   UNL d   1       5.118  -2.326   0.913  0.00  0.00     0.023 A 
ATOM      8  C   UNL d   1       3.005  -3.449   1.234  0.00  0.00     0.023 A 
ENDROOT
BRANCH   3   9
ATOM      9  C   UNL d   1       2.286   0.113   0.088  0.00  0.00     0.032 C 
ATOM     10  N   UNL d   1       0.987   0.063   0.124  0.00  0.00    -0.300 N 
ATOM     11  HN  UNL d   1       0.526  -0.795   0.425  1.00  0.00     0.186 HD
ATOM     12  C   UNL d   1       3.105   1.313  -0.348  0.00  0.00     0.070 C 
BRANCH  10  13
ATOM     13  N   UNL d   1       0.236   1.135  -0.232  0.00  0.00    -0.245 N 
ATOM     14  C   UNL d   1      -1.121   1.015  -0.413  0.00  0.00     0.379 C 
ATOM     15  O   UNL d   1      -1.802   0.021  -0.208  0.00  0.00    -0.237 OA
ATOM     16  H   UNL d   1       0.644   2.003  -0.543  0.00  0.00     0.192 HD
BRANCH  14  17
ATOM     17  O   UNL d   1      -1.586   2.180  -0.944  0.00  0.00    -0.303 OA
BRANCH  17  18
ATOM     18  C   UNL d   1      -2.901   2.111  -1.514  0.00  0.00     0.176 C 
ATOM     19  C   UNL d   1      -2.767   1.710  -2.972  0.00  0.00     0.034 C 
ENDBRANCH  17  18
ENDBRANCH  14  17
ENDBRANCH  10  13
ENDBRANCH   3   9
TORSDOF 4
