REMARK  6 active torsions:
REMARK  status: ('A' for Active; 'I' for Inactive)
REMARK    1  A    between atoms: C_2  and  N_1 
REMARK    2  A    between atoms: C_11  and  N_3 
REMARK    3  A    between atoms: C_4  and  N_5 
REMARK    4  A    between atoms: N_5  and  C_14 
REMARK    5  A    between atoms: O_15  and  C_10 
REMARK    6  A    between atoms: C_14  and  C_11 
ROOT
ATOM      1  N   UNL d   1      -1.562   0.306   0.270  0.00  0.00    -0.375 N 
ATOM      2  N   UNL d   1       1.222   0.019  -0.625  0.00  0.00     0.093 N 
ATOM      3  C   UNL d   1      -1.153  -0.940  -0.380  0.00  0.00     0.153 C 
ATOM      4  C   UNL d   1      -0.856   1.495  -0.231  0.00  0.00     0.153 C 
ATOM      5  C   UNL d   1       0.675   1.290  -0.086  0.00  0.00     0.292 C 
ATOM      6  C   UNL d   1       0.374  -1.118  -0.197  0.00  0.00     0.292 C 
ENDROOT
BRANCH   2   7
ATOM      7  C   UNL d   1       1.425   0.043  -2.084  0.00  0.00     0.291 C 
BRANCH   7   8
ATOM      8  C   UNL d   1       2.629   0.939  -2.526  0.00  0.00     0.086 C 
ATOM      9  C   UNL d   1       2.974   0.633  -3.986  0.00  0.00     0.028 C 
BRANCH   8  10
ATOM     10  N   UNL d   1       3.796   0.645  -1.690  0.00  0.00    -0.273 NA
ATOM     11  H   UNL d   1       3.550   0.096  -0.861  0.00  0.00     0.129 HD
BRANCH  10  12
ATOM     12  C   UNL d   1       4.609   1.666  -1.227  0.00  0.00     0.080 A 
ATOM     13  N   UNL d   1       5.106   1.480   0.012  0.00  0.00    -0.357 N 
ATOM     14  C   UNL d   1       5.969   2.401   0.499  0.00  0.00     0.089 A 
ATOM     15  HN  UNL d   1       4.838   0.668   0.568  1.00  0.00     0.166 HD
ATOM     16  C   UNL d   1       6.364   3.531  -0.192  0.00  0.00     0.017 A 
ATOM     17  C   UNL d   1       5.847   3.719  -1.465  0.00  0.00     0.005 A 
ATOM     18  C   UNL d   1       4.971   2.770  -1.992  0.00  0.00     0.042 A 
ENDBRANCH  10  12
ENDBRANCH   8  10
ENDBRANCH   7   8
ENDBRANCH   2   7
BRANCH   1  19
ATOM     19  C   UNL d   1      -2.780   0.435   0.919  0.00  0.00     0.064 A 
ATOM     20  C   UNL d   1      -2.954   1.291   2.034  0.00  0.00     0.094 A 
ATOM     21  C   UNL d   1      -4.186   1.409   2.694  0.00  0.00     0.039 A 
ATOM     22  C   UNL d   1      -5.270   0.642   2.286  0.00  0.00     0.003 A 
ATOM     23  C   UNL d   1      -5.126  -0.224   1.206  0.00  0.00     0.002 A 
ATOM     24  C   UNL d   1      -3.900  -0.321   0.535  0.00  0.00     0.032 A 
BRANCH  20  25
ATOM     25  O   UNL d   1      -1.926   2.051   2.542  0.00  0.00    -0.354 OA
ATOM     26  C   UNL d   1      -1.067   1.242   3.346  0.00  0.00     0.210 C 
ENDBRANCH  20  25
ENDBRANCH   1  19
TORSDOF 6
