REMARK  2 active torsions:
REMARK  status: ('A' for Active; 'I' for Inactive)
REMARK    1  A    between atoms: C_7  and  N_1 
REMARK    2  A    between atoms: S_8  and  C_2 
ROOT
ATOM      1  N   UNL d   1      -0.045  -1.419  -0.077  0.00  0.00    -0.251 N 
ATOM      2  C   UNL d   1       0.923  -0.501  -0.382  0.00  0.00     0.170 A 
ATOM      3  N   UNL d   1       0.428   0.700  -0.194  0.00  0.00    -0.265 N 
ATOM      4  HN  UNL d   1       0.901   1.590  -0.352  1.00  0.00     0.186 HD
ATOM      5  N   UNL d   1      -0.852   0.516   0.257  0.00  0.00    -0.007 NA
ATOM      6  N   UNL d   1      -1.150  -0.773   0.344  0.00  0.00    -0.004 NA
ENDROOT
BRANCH   1   7
ATOM      7  C   UNL d   1      -0.005  -2.867  -0.133  0.00  0.00     0.108 C 
ATOM      8  C   UNL d   1       0.448  -3.467   1.203  0.00  0.00     0.027 C 
ATOM      9  C   UNL d   1       0.676  -4.970   1.055  0.00  0.00     0.002 C 
ATOM     10  C   UNL d   1      -0.561  -5.687   0.516  0.00  0.00     0.000 C 
ATOM     11  C   UNL d   1      -1.126  -5.032  -0.745  0.00  0.00     0.002 C 
ATOM     12  C   UNL d   1      -1.321  -3.524  -0.577  0.00  0.00     0.027 C 
ENDBRANCH   1   7
BRANCH   2  13
ATOM     13  S   UNL d   1       2.527  -0.850  -0.914  0.00  0.00    -0.105 SA
ATOM     14  H   UNL d   1       2.619  -2.145  -0.580  0.00  0.00     0.110 HD
ENDBRANCH   2  13
TORSDOF 2
