REMARK  6 active torsions:
REMARK  status: ('A' for Active; 'I' for Inactive)
REMARK    1  A    between atoms: S_12  and  C_3 
REMARK    2  A    between atoms: S_13  and  C_10 
REMARK    3  A    between atoms: C_18  and  S_12 
REMARK    4  A    between atoms: C_19  and  S_13 
REMARK    5  A    between atoms: C_14  and  C_18 
REMARK       I    between atoms: N_21  and  C_14 
REMARK    6  A    between atoms: C_15  and  C_19 
REMARK       I    between atoms: N_20  and  C_15 
ROOT
ATOM      1  C   UNL d   1       0.969  -0.692  -0.037  0.00  0.00     0.090 A 
ATOM      2  C   UNL d   1       0.462   0.605  -0.056  0.00  0.00     0.039 A 
ATOM      3  C   UNL d   1       1.426   1.619  -0.056  0.00  0.00     0.085 A 
ATOM      4  N   UNL d   1       2.264  -1.040  -0.030  0.00  0.00    -0.330 N 
ATOM      5  HN  UNL d   1       2.586  -2.008  -0.011  1.00  0.00     0.168 HD
ATOM      6  N   UNL d   1       2.738   1.312  -0.052  0.00  0.00    -0.331 N 
ATOM      7  HN  UNL d   1       3.446   2.045  -0.050  1.00  0.00     0.168 HD
ATOM      8  S   UNL d   1      -0.253  -1.904  -0.015  0.00  0.00    -0.075 SA
ATOM      9  C   UNL d   1      -0.959   0.550  -0.064  0.00  0.00    -0.029 A 
ATOM     10  C   UNL d   1       3.091   0.013  -0.050  0.00  0.00     0.146 A 
ATOM     11  C   UNL d   1      -1.440  -0.731  -0.044  0.00  0.00    -0.008 A 
ATOM     12  C   UNL d   1      -2.076   1.531  -0.106  0.00  0.00     0.041 C 
ATOM     13  C   UNL d   1      -2.918  -0.825  -0.062  0.00  0.00     0.047 C 
ATOM     14  C   UNL d   1      -3.307   0.648   0.266  0.00  0.00     0.010 C 
ENDROOT
BRANCH   3  15
ATOM     15  S   UNL d   1       0.908   3.303   0.079  0.00  0.00    -0.102 SA
BRANCH  15  16
ATOM     16  C   UNL d   1       2.099   4.127  -1.020  0.00  0.00     0.183 C 
BRANCH  16  17
ATOM     17  C   UNL d   1       1.617   5.555  -1.236  0.00  0.00     0.225 C 
ATOM     18  O   UNL d   1       0.939   5.907  -2.195  0.00  0.00    -0.273 OA
ATOM     19  N   UNL d   1       1.965   6.451  -0.262  0.00  0.00    -0.369 N 
ATOM     20  H   UNL d   1       2.277   6.140   0.649  0.00  0.00     0.159 HD
ATOM     21  H   UNL d   1       1.551   7.373  -0.328  0.00  0.00     0.159 HD
ENDBRANCH  16  17
ENDBRANCH  15  16
ENDBRANCH   3  15
BRANCH  10  22
ATOM     22  S   UNL d   1       4.837  -0.325   0.014  0.00  0.00    -0.085 SA
BRANCH  22  23
ATOM     23  C   UNL d   1       4.865  -1.986  -0.729  0.00  0.00     0.184 C 
BRANCH  23  24
ATOM     24  C   UNL d   1       4.373  -1.951  -2.165  0.00  0.00     0.225 C 
ATOM     25  O   UNL d   1       4.843  -1.228  -3.038  0.00  0.00    -0.273 OA
ATOM     26  N   UNL d   1       3.358  -2.817  -2.467  0.00  0.00    -0.369 N 
ATOM     27  H   UNL d   1       2.744  -3.162  -1.740  0.00  0.00     0.159 HD
ATOM     28  H   UNL d   1       2.962  -2.721  -3.394  0.00  0.00     0.159 HD
ENDBRANCH  23  24
ENDBRANCH  22  23
ENDBRANCH  10  22
TORSDOF 6
