REMARK  1 active torsions:
REMARK  status: ('A' for Active; 'I' for Inactive)
REMARK    1  A    between atoms: N_4  and  C_3 
REMARK       I    between atoms: C_5  and  N_4 
ROOT
ATOM      1  C   UNL d   1      -1.156   0.076   0.013  0.00  0.00     0.184 A 
ATOM      2  C   UNL d   1       0.123   0.629   0.032  0.00  0.00     0.195 A 
ATOM      3  C   UNL d   1      -1.328  -1.317  -0.031  0.00  0.00     0.077 A 
ATOM      4  C   UNL d   1       1.239  -0.193   0.024  0.00  0.00     0.158 A 
ATOM      5  C   UNL d   1      -0.185  -2.135  -0.000  0.00  0.00     0.036 A 
ATOM      6  C   UNL d   1       1.096  -1.575   0.019  0.00  0.00     0.048 A 
ATOM      7  F   UNL d   1      -2.194   0.912   0.129  0.00  0.00    -0.200 F 
ATOM      8  F   UNL d   1       0.277   1.961   0.078  0.00  0.00    -0.199 F 
ATOM      9  F   UNL d   1       2.470   0.336   0.042  0.00  0.00    -0.203 F 
ENDROOT
BRANCH   3  10
ATOM     10  N   UNL d   1      -2.572  -1.992  -0.086  0.00  0.00    -0.325 N 
ATOM     11  C   UNL d   1      -3.785  -1.469  -0.494  0.00  0.00     0.218 C 
ATOM     12  O   UNL d   1      -3.990  -0.345  -0.938  0.00  0.00    -0.274 OA
ATOM     13  C   UNL d   1      -4.917  -2.464  -0.401  0.00  0.00     0.117 C 
ATOM     14  H   UNL d   1      -2.539  -2.996   0.034  0.00  0.00     0.169 HD
ENDBRANCH   3  10
TORSDOF 1
