REMARK  5 active torsions:
REMARK  status: ('A' for Active; 'I' for Inactive)
REMARK    1  A    between atoms: S_12  and  C_1 
REMARK    2  A    between atoms: C_3  and  C_6 
REMARK       I    between atoms: N_4  and  C_3 
REMARK    3  A    between atoms: C_14  and  N_4 
REMARK    4  A    between atoms: C_6  and  C_13 
REMARK    5  A    between atoms: C_13  and  S_12 
ROOT
ATOM      1  C   UNL d   1       2.220   6.009  -0.085  0.00  0.00     0.222 C 
ATOM      2  N   UNL d   1       3.098   5.938   0.978  0.00  0.00    -0.326 N 
ATOM      3  O   UNL d   1       2.430   6.595  -1.142  0.00  0.00    -0.273 OA
ATOM      4  H   UNL d   1       2.903   5.242   1.692  0.00  0.00     0.169 HD
ENDROOT
BRANCH   1   5
ATOM      5  C   UNL d   1       0.893   5.317   0.159  0.00  0.00     0.113 C 
BRANCH   5   6
ATOM      6  C   UNL d   1       0.964   3.799   0.154  0.00  0.00     0.089 C 
BRANCH   6   7
ATOM      7  S   UNL d   1       1.617   3.129   1.722  0.00  0.00    -0.122 SA
BRANCH   7   8
ATOM      8  C   UNL d   1       1.306   1.417   1.472  0.00  0.00     0.041 A 
ATOM      9  S   UNL d   1       0.311   0.521   2.533  0.00  0.00    -0.095 SA
ATOM     10  C   UNL d   1       0.521  -0.913   1.622  0.00  0.00     0.051 A 
ATOM     11  C   UNL d   1       1.347  -0.716   0.538  0.00  0.00     0.009 A 
ATOM     12  C   UNL d   1       1.810   0.632   0.456  0.00  0.00     0.026 A 
ENDBRANCH   7   8
ENDBRANCH   6   7
ENDBRANCH   5   6
ENDBRANCH   1   5
BRANCH   2  13
ATOM     13  C   UNL d   1       4.264   6.716   1.152  0.00  0.00     0.050 A 
ATOM     14  C   UNL d   1       4.598   7.822   0.372  0.00  0.00     0.117 A 
ATOM     15  N   UNL d   1       5.687   8.608   0.590  0.00  0.00    -0.373 N 
ATOM     16  C   UNL d   1       6.486   8.268   1.623  0.00  0.00     0.088 A 
ATOM     17  HN  UNL d   1       5.890   9.416   0.000  1.00  0.00     0.164 HD
ATOM     18  C   UNL d   1       6.250   7.185   2.446  0.00  0.00     0.019 A 
ATOM     19  C   UNL d   1       5.119   6.399   2.206  0.00  0.00     0.032 A 
ENDBRANCH   2  13
TORSDOF 5
