REMARK  4 active torsions:
REMARK  status: ('A' for Active; 'I' for Inactive)
REMARK       I    between atoms: C_7  and  N_1 
REMARK    1  A    between atoms: S_12  and  C_2 
REMARK    2  A    between atoms: C_9  and  C_5 
REMARK    3  A    between atoms: N_16  and  C_6 
REMARK    4  A    between atoms: C_8  and  C_7 
ROOT
ATOM      1  N   UNL d   1       0.005  -1.185  -0.098  0.00  0.00    -0.210 N 
ATOM      2  C   UNL d   1       1.292  -0.661   0.006  0.00  0.00     0.112 A 
ATOM      3  N   UNL d   1      -0.926  -0.184  -0.139  0.00  0.00    -0.275 N 
ATOM      4  HN  UNL d   1      -1.939  -0.281  -0.205  1.00  0.00     0.189 HD
ATOM      5  C   UNL d   1       1.170   0.720  -0.030  0.00  0.00     0.071 A 
ATOM      6  C   UNL d   1      -0.227   0.940  -0.073  0.00  0.00     0.129 A 
ATOM      7  C   UNL d   1      -0.438  -2.539  -0.146  0.00  0.00     0.284 C 
ATOM      8  O   UNL d   1       0.280  -3.361   0.427  0.00  0.00    -0.265 OA
ENDROOT
BRANCH   2   9
ATOM      9  S   UNL d   1       2.719  -1.675  -0.042  0.00  0.00    -0.114 SA
ATOM     10  C   UNL d   1       3.120  -1.738   1.723  0.00  0.00     0.097 C 
ENDBRANCH   2   9
BRANCH   7  11
ATOM     11  C   UNL d   1      -1.665  -2.934  -0.852  0.00  0.00     0.074 A 
ATOM     12  S   UNL d   1      -2.156  -4.585  -0.791  0.00  0.00    -0.097 SA
ATOM     13  C   UNL d   1      -3.466  -4.319  -1.853  0.00  0.00     0.050 A 
ATOM     14  C   UNL d   1      -3.557  -3.002  -2.236  0.00  0.00     0.009 A 
ATOM     15  C   UNL d   1      -2.522  -2.206  -1.661  0.00  0.00     0.025 A 
ENDBRANCH   7  11
BRANCH   5  16
ATOM     16  C   UNL d   1       2.273   1.668  -0.122  0.00  0.00     0.049 A 
ATOM     17  N   UNL d   1       3.369   1.417   0.631  0.00  0.00    -0.365 N 
ATOM     18  C   UNL d   1       4.429   2.241   0.487  0.00  0.00     0.088 A 
ATOM     19  HN  UNL d   1       3.392   0.634   1.285  1.00  0.00     0.165 HD
ATOM     20  C   UNL d   1       4.441   3.341  -0.351  0.00  0.00     0.017 A 
ATOM     21  C   UNL d   1       3.298   3.611  -1.091  0.00  0.00     0.004 A 
ATOM     22  C   UNL d   1       2.200   2.761  -0.984  0.00  0.00     0.030 A 
ENDBRANCH   5  16
BRANCH   6  23
ATOM     23  N   UNL d   1      -0.832   2.139  -0.061  0.00  0.00    -0.384 N 
ATOM     24  H   UNL d   1      -1.833   2.122   0.115  0.00  0.00     0.157 HD
ATOM     25  H   UNL d   1      -0.376   2.917   0.404  0.00  0.00     0.157 HD
ENDBRANCH   6  23
TORSDOF 4
