REMARK  3 active torsions:
REMARK  status: ('A' for Active; 'I' for Inactive)
REMARK    1  A    between atoms: C_13  and  C_5 
REMARK    2  A    between atoms: S_14  and  C_13 
REMARK    3  A    between atoms: C_15  and  S_14 
ROOT
ATOM      1  C   UNL d   1       2.256  -2.412  -0.783  0.00  0.00     0.109 A 
ATOM      2  C   UNL d   1       1.143  -3.166  -0.257  0.00  0.00     0.047 A 
ATOM      3  N   UNL d   1       3.394  -2.245  -0.137  0.00  0.00    -0.344 N 
ATOM      4  HN  UNL d   1       3.622  -2.625   0.781  1.00  0.00     0.167 HD
ATOM      5  C   UNL d   1       0.813  -3.376   1.081  0.00  0.00    -0.028 A 
ATOM      6  N   UNL d   1       3.818  -1.019  -2.108  0.00  0.00    -0.321 N 
ATOM      7  HN  UNL d   1       4.346  -0.443  -2.763  1.00  0.00     0.175 HD
ATOM      8  S   UNL d   1       2.262  -1.596  -2.304  0.00  0.00     0.006 SA
ATOM      9  S   UNL d   1       0.034  -3.961  -1.309  0.00  0.00    -0.099 SA
ATOM     10  C   UNL d   1       4.227  -1.465  -0.924  0.00  0.00     0.188 A 
ATOM     11  C   UNL d   1      -0.895  -4.558  -0.015  0.00  0.00     0.051 A 
ATOM     12  C   UNL d   1      -0.378  -4.181   1.200  0.00  0.00     0.016 A 
ENDROOT
BRANCH   5  13
ATOM     13  C   UNL d   1       1.539  -2.832   2.286  0.00  0.00     0.119 C 
BRANCH  13  14
ATOM     14  S   UNL d   1       0.962  -1.132   2.630  0.00  0.00    -0.125 SA
BRANCH  14  15
ATOM     15  C   UNL d   1       1.787  -0.707   4.157  0.00  0.00     0.001 A 
ATOM     16  C   UNL d   1       2.049   0.654   4.377  0.00  0.00     0.020 A 
ATOM     17  C   UNL d   1       2.605   1.095   5.583  0.00  0.00     0.025 A 
ATOM     18  C   UNL d   1       2.900   0.174   6.582  0.00  0.00     0.034 A 
ATOM     19  C   UNL d   1       2.654  -1.182   6.379  0.00  0.00     0.025 A 
ATOM     20 CL   UNL d   1       3.548   0.713   8.081  0.00  0.00    -0.084 Cl
ATOM     21  C   UNL d   1       2.097  -1.620   5.170  0.00  0.00     0.020 A 
ENDBRANCH  14  15
ENDBRANCH  13  14
ENDBRANCH   5  13
TORSDOF 3
