REMARK  7 active torsions:
REMARK  status: ('A' for Active; 'I' for Inactive)
REMARK    1  A    between atoms: C_12  and  N_1 
REMARK    2  A    between atoms: C_3  and  C_15 
REMARK    3  A    between atoms: N_6  and  O_13 
REMARK    4  A    between atoms: C_17  and  C_8 
REMARK    5  A    between atoms: N_28  and  C_8 
REMARK    6  A    between atoms: C_10  and  C_18 
REMARK    7  A    between atoms: O_13  and  C_10 
ROOT
ATOM      1  N   UNL d   1      -4.022   1.312   3.388  0.00  0.00    -0.246 N 
ATOM      2  HN  UNL d   1      -3.882   2.320   3.454  1.00  0.00     0.196 HD
ATOM      3  C   UNL d   1      -5.000   0.698   3.982  0.00  0.00     0.109 C 
ENDROOT
BRANCH   3   4
ATOM      4  C   UNL d   1      -5.933   1.532   4.823  0.00  0.00     0.004 A 
ATOM      5  C   UNL d   1      -6.123   2.888   4.530  0.00  0.00     0.015 A 
ATOM      6  C   UNL d   1      -7.005   3.668   5.295  0.00  0.00     0.014 A 
ATOM      7  C   UNL d   1      -7.704   3.110   6.375  0.00  0.00    -0.008 A 
ATOM      8  C   UNL d   1      -7.488   1.757   6.681  0.00  0.00     0.014 A 
ATOM      9  C   UNL d   1      -6.617   0.972   5.909  0.00  0.00     0.015 A 
BRANCH   7  10
ATOM     10  C   UNL d   1      -8.626   3.900   7.186  0.00  0.00     0.063 A 
ATOM     11  N   UNL d   1      -8.861   3.589   8.524  0.00  0.00    -0.292 N 
ATOM     12  N   UNL d   1      -9.729   4.417   9.082  0.00  0.00    -0.061 NA
ATOM     13  HN  UNL d   1      -8.416   2.814   9.015  1.00  0.00     0.183 HD
ATOM     14  S   UNL d   1     -10.301   5.573   8.020  0.00  0.00    -0.010 SA
ATOM     15  C   UNL d   1      -9.358   4.978   6.714  0.00  0.00     0.096 A 
ENDBRANCH   7  10
ENDBRANCH   3   4
BRANCH   3  16
ATOM     16  N   UNL d   1      -5.247  -0.650   3.868  0.00  0.00    -0.286 NA
ATOM     17  H   UNL d   1      -4.779  -1.063   3.070  0.00  0.00     0.125 HD
ATOM     18  H   UNL d   1      -6.225  -0.915   3.919  0.00  0.00     0.125 HD
ENDBRANCH   3  16
BRANCH   1  19
ATOM     19  O   UNL d   1      -3.162   0.464   2.638  0.00  0.00    -0.193 OA
BRANCH  19  20
ATOM     20  C   UNL d   1      -2.205   1.256   2.051  0.00  0.00     0.315 C 
ATOM     21  O   UNL d   1      -2.154   2.479   2.093  0.00  0.00    -0.257 OA
BRANCH  20  22
ATOM     22  C   UNL d   1      -1.160   0.494   1.296  0.00  0.00     0.041 A 
ATOM     23  C   UNL d   1      -1.127  -0.901   1.158  0.00  0.00     0.020 A 
ATOM     24  C   UNL d   1      -0.098  -1.513   0.415  0.00  0.00     0.037 A 
ATOM     25  C   UNL d   1       0.901  -0.729  -0.190  0.00  0.00     0.102 A 
ATOM     26  C   UNL d   1       0.881   0.659  -0.052  0.00  0.00     0.037 A 
ATOM     27  C   UNL d   1      -0.144   1.258   0.686  0.00  0.00     0.020 A 
BRANCH  25  28
ATOM     28  N   UNL d   1       1.972  -1.363  -0.974  0.00  0.00    -0.116 N 
ATOM     29  O   UNL d   1       2.809  -0.624  -1.510  0.00  0.00    -0.532 OA
ATOM     30  O   UNL d   1       1.971  -2.599  -1.054  0.00  0.00    -0.532 OA
ENDBRANCH  25  28
ENDBRANCH  20  22
ENDBRANCH  19  20
ENDBRANCH   1  19
TORSDOF 7
