REMARK  7 active torsions:
REMARK  status: ('A' for Active; 'I' for Inactive)
REMARK    1  A    between atoms: C_4  and  C_1 
REMARK       I    between atoms: C_2  and  N_5 
REMARK       I    between atoms: N_13  and  C_2 
REMARK       I    between atoms: C_3  and  N_14 
REMARK    2  A    between atoms: O_6  and  C_3 
REMARK    3  A    between atoms: N_5  and  C_17 
REMARK    4  A    between atoms: C_9  and  O_6 
REMARK    5  A    between atoms: C_21  and  N_13 
REMARK    6  A    between atoms: N_14  and  C_20 
REMARK    7  A    between atoms: C_20  and  C_21 
ROOT
ATOM      1  C   UNL d   1      -2.146   3.415  -4.716  0.00  0.00     0.320 C 
ATOM      2  N   UNL d   1      -1.564   3.895  -3.567  0.00  0.00    -0.309 N 
ATOM      3  O   UNL d   1      -2.847   2.414  -4.824  0.00  0.00    -0.247 OA
ATOM      4  N   UNL d   1      -1.918   4.245  -5.787  0.00  0.00    -0.341 N 
ATOM      5  H   UNL d   1      -1.146   4.811  -3.644  0.00  0.00     0.170 HD
ATOM      6  H   UNL d   1      -1.122   4.877  -5.748  0.00  0.00     0.164 HD
ENDROOT
BRANCH   2   7
ATOM      7  C   UNL d   1      -1.700   3.354  -2.271  0.00  0.00     0.036 A 
ATOM      8  C   UNL d   1      -2.266   2.103  -2.020  0.00  0.00     0.030 A 
ATOM      9  C   UNL d   1      -2.469   1.658  -0.712  0.00  0.00     0.018 A 
ATOM     10  C   UNL d   1      -2.100   2.455   0.379  0.00  0.00     0.048 A 
ATOM     11  C   UNL d   1      -1.482   3.688   0.129  0.00  0.00     0.018 A 
ATOM     12  C   UNL d   1      -1.278   4.130  -1.186  0.00  0.00     0.030 A 
BRANCH  10  13
ATOM     13  C   UNL d   1      -2.397   1.981   1.779  0.00  0.00     0.417 C 
ATOM     14  F   UNL d   1      -1.985   2.845   2.748  0.00  0.00    -0.166 F 
ATOM     15  F   UNL d   1      -1.805   0.788   2.065  0.00  0.00    -0.166 F 
ATOM     16  F   UNL d   1      -3.731   1.795   1.991  0.00  0.00    -0.166 F 
ENDBRANCH  10  13
ENDBRANCH   2   7
BRANCH   4  17
ATOM     17  C   UNL d   1      -2.442   3.941  -7.104  0.00  0.00     0.144 C 
BRANCH  17  18
ATOM     18  C   UNL d   1      -2.664   5.198  -7.952  0.00  0.00     0.144 C 
BRANCH  18  19
ATOM     19  N   UNL d   1      -1.456   5.804  -8.481  0.00  0.00    -0.335 N 
ATOM     20  C   UNL d   1      -0.491   6.389  -7.721  0.00  0.00     0.361 C 
ATOM     21  O   UNL d   1      -0.409   6.319  -6.505  0.00  0.00    -0.238 OA
ATOM     22  H   UNL d   1      -1.400   6.014  -9.467  0.00  0.00     0.164 HD
BRANCH  20  23
ATOM     23  O   UNL d   1       0.365   7.038  -8.541  0.00  0.00    -0.294 OA
BRANCH  23  24
ATOM     24  C   UNL d   1       1.560   7.661  -8.011  0.00  0.00     0.061 C 
ATOM     25  C   UNL d   1       2.468   6.611  -7.356  0.00  0.00     0.046 C 
ATOM     26  C   UNL d   1       2.276   8.241  -9.240  0.00  0.00     0.046 C 
ATOM     27  C   UNL d   1       1.223   8.807  -7.050  0.00  0.00     0.046 C 
ENDBRANCH  23  24
ENDBRANCH  20  23
ENDBRANCH  18  19
ENDBRANCH  17  18
ENDBRANCH   4  17
TORSDOF 7
