REMARK  5 active torsions:
REMARK  status: ('A' for Active; 'I' for Inactive)
REMARK    1  A    between atoms: C_3  and  N_13 
REMARK    2  A    between atoms: N_10  and  C_3 
REMARK    3  A    between atoms: C_9  and  C_4 
REMARK    4  A    between atoms: N_13  and  N_6 
REMARK    5  A    between atoms: C_14  and  N_10 
ROOT
ATOM      1  N   UNL d   1      -1.629   4.928   1.037  0.00  0.00    -0.307 N 
ATOM      2  HN  UNL d   1      -1.905   5.836   1.411  1.00  0.00     0.186 HD
ATOM      3  C   UNL d   1      -2.397   3.891   1.136  0.00  0.00     0.138 C 
ENDROOT
BRANCH   1   4
ATOM      4  N   UNL d   1      -0.434   4.747   0.409  0.00  0.00    -0.277 N 
ATOM      5  H   UNL d   1      -0.130   3.809   0.181  0.00  0.00     0.189 HD
BRANCH   4   6
ATOM      6  C   UNL d   1       0.367   5.815   0.085  0.00  0.00     0.186 C 
ATOM      7  S   UNL d   1      -0.123   7.408  -0.044  0.00  0.00    -0.040 SA
BRANCH   6   8
ATOM      8  N   UNL d   1       1.691   5.538  -0.123  0.00  0.00    -0.362 N 
ATOM      9  H   UNL d   1       2.217   6.371  -0.367  0.00  0.00     0.162 HD
BRANCH   8  10
ATOM     10  C   UNL d   1       2.449   4.445   0.484  0.00  0.00     0.076 C 
ATOM     11  C   UNL d   1       2.581   3.265  -0.472  0.00  0.00     0.032 C 
ATOM     12  C   UNL d   1       3.831   4.947   0.902  0.00  0.00     0.032 C 
ENDBRANCH   8  10
ENDBRANCH   6   8
ENDBRANCH   4   6
ENDBRANCH   1   4
BRANCH   3  13
ATOM     13  C   UNL d   1      -3.610   4.008   1.922  0.00  0.00     0.066 A 
ATOM     14  N   UNL d   1      -4.463   2.976   2.045  0.00  0.00    -0.300 N 
ATOM     15  N   UNL d   1      -5.420   3.441   2.872  0.00  0.00    -0.311 N 
ATOM     16  HN  UNL d   1      -4.400   2.055   1.613  1.00  0.00     0.187 HD
ATOM     17  C   UNL d   1      -5.202   4.721   3.295  0.00  0.00     0.109 A 
ATOM     18  H   UNL d   1      -6.188   2.824   3.115  0.00  0.00     0.186 HD
ATOM     19  C   UNL d   1      -4.045   5.125   2.683  0.00  0.00     0.051 A 
ENDBRANCH   3  13
TORSDOF 5
