REMARK  2 active torsions:
REMARK  status: ('A' for Active; 'I' for Inactive)
REMARK    1  A    between atoms: N_8  and  C_3 
REMARK    2  A    between atoms: N_17  and  C_9 
ROOT
ATOM      1  N   UNL d   1       1.239  -1.346  -0.066  0.00  0.00    -0.176 N 
ATOM      2  HN  UNL d   1       1.205  -2.362  -0.144  1.00  0.00     0.186 HD
ATOM      3  C   UNL d   1       2.419  -0.720   0.032  0.00  0.00     0.681 A 
ATOM      4  C   UNL d   1       0.113  -0.641  -0.061  0.00  0.00     0.136 A 
ATOM      5  C   UNL d   1       0.125   0.732   0.039  0.00  0.00     0.063 A 
ATOM      6  N   UNL d   1       2.520   0.613   0.107  0.00  0.00    -0.201 N 
ATOM      7  HN  UNL d   1       3.428   1.075   0.148  1.00  0.00     0.183 HD
ATOM      8  C   UNL d   1      -1.108   1.385   0.060  0.00  0.00     0.094 A 
ATOM      9  N   UNL d   1      -1.030  -1.312  -0.148  0.00  0.00    -0.337 N 
ATOM     10  HN  UNL d   1      -1.041  -2.328  -0.240  1.00  0.00     0.168 HD
ATOM     11  N   UNL d   1      -2.265   0.722  -0.006  0.00  0.00    -0.342 N 
ATOM     12  HN  UNL d   1      -3.167   1.198   0.021  1.00  0.00     0.167 HD
ATOM     13  C   UNL d   1       1.377   1.316   0.125  0.00  0.00     0.124 A 
ATOM     14  C   UNL d   1      -2.164  -0.607  -0.110  0.00  0.00     0.183 A 
ENDROOT
BRANCH   3  15
ATOM     15  N   UNL d   1       3.561  -1.471   0.077  0.00  0.00    -0.214 N 
ATOM     16  C   UNL d   1       3.523  -2.931   0.079  0.00  0.00     0.167 C 
ATOM     17  C   UNL d   1       4.323  -3.466  -1.118  0.00  0.00     0.188 C 
ATOM     18  O   UNL d   1       5.661  -2.935  -1.139  0.00  0.00    -0.388 OA
ATOM     19  C   UNL d   1       5.629  -1.499  -1.226  0.00  0.00     0.188 C 
ATOM     20  C   UNL d   1       4.888  -0.873  -0.032  0.00  0.00     0.167 C 
ENDBRANCH   3  15
BRANCH   8  21
ATOM     21  N   UNL d   1      -1.220   2.771   0.193  0.00  0.00    -0.288 NA
ATOM     22  H   UNL d   1      -0.713   3.273  -0.528  0.00  0.00     0.125 HD
ATOM     23  H   UNL d   1      -2.213   2.998   0.167  0.00  0.00     0.125 HD
ENDBRANCH   8  21
TORSDOF 2
