REMARK  0 active torsions:
REMARK  status: ('A' for Active; 'I' for Inactive)
ROOT
ATOM      1  C   UNL d   1      -1.710  -0.674   0.008  0.00  0.00    -0.007 A 
ATOM      2  N   UNL d   1      -3.542   0.598  -0.006  0.00  0.00    -0.365 N 
ATOM      3  C   UNL d   1      -2.165   0.645   0.002  0.00  0.00     0.042 A 
ATOM      4  C   UNL d   1      -3.971  -0.703  -0.006  0.00  0.00     0.089 A 
ATOM      5  C   UNL d   1      -2.858  -1.514   0.005  0.00  0.00     0.030 A 
ATOM      6  C   UNL d   1      -0.323  -0.916   0.014  0.00  0.00     0.032 A 
ATOM      7  C   UNL d   1      -1.299   1.745   0.003  0.00  0.00     0.031 A 
ATOM      8  C   UNL d   1       0.551   0.175   0.011  0.00  0.00     0.011 A 
ATOM      9  C   UNL d   1       0.075   1.485   0.006  0.00  0.00     0.021 A 
ATOM     10 BR   UNL d   1       2.419  -0.135   0.010  0.00  0.00    -0.051 Br
ATOM     11  H   UNL d   1      -4.143   1.410  -0.012  0.00  0.00     0.165 HD
ENDROOT
TORSDOF 0
