REMARK  7 active torsions:
REMARK  status: ('A' for Active; 'I' for Inactive)
REMARK    1  A    between atoms: C_2  and  S_1 
REMARK    2  A    between atoms: N_6  and  S_1 
REMARK    3  A    between atoms: S_3  and  C_4 
REMARK    4  A    between atoms: C_13  and  S_3 
REMARK    5  A    between atoms: C_14  and  N_6 
REMARK    6  A    between atoms: C_15  and  N_6 
REMARK    7  A    between atoms: C_16  and  C_14 
ROOT
ATOM      1  C   UNL d   1       1.573   1.464   0.928  0.00  0.00     0.121 A 
ATOM      2  C   UNL d   1       1.315   3.402   2.457  0.00  0.00     0.106 A 
ATOM      3  S   UNL d   1       0.272   2.296   1.669  0.00  0.00    -0.065 SA
ATOM      4  C   UNL d   1       2.786   2.043   1.266  0.00  0.00     0.035 A 
ATOM      5  C   UNL d   1       2.637   3.160   2.137  0.00  0.00     0.033 A 
ENDROOT
BRANCH   1   6
ATOM      6  S   UNL d   1       1.185   0.110  -0.196  0.00  0.00     0.268 S 
ATOM      7  O   UNL d   1       2.492  -0.292  -0.658  0.00  0.00    -0.200 OA
ATOM      8  O   UNL d   1       0.231   0.692  -1.114  0.00  0.00    -0.200 OA
BRANCH   6   9
ATOM      9  N   UNL d   1       0.450  -1.172   0.695  0.00  0.00    -0.298 N 
BRANCH   9  10
ATOM     10  C   UNL d   1      -1.035  -1.028   0.839  0.00  0.00     0.174 C 
BRANCH  10  11
ATOM     11  C   UNL d   1      -1.906  -1.240  -0.389  0.00  0.00    -0.040 A 
ATOM     12  C   UNL d   1      -1.892  -2.421  -1.145  0.00  0.00     0.009 A 
ATOM     13  C   UNL d   1      -2.749  -2.599  -2.234  0.00  0.00     0.001 A 
ATOM     14  C   UNL d   1      -3.655  -1.603  -2.576  0.00  0.00     0.000 A 
ATOM     15  C   UNL d   1      -3.688  -0.421  -1.843  0.00  0.00     0.001 A 
ATOM     16  C   UNL d   1      -2.820  -0.239  -0.763  0.00  0.00     0.009 A 
ENDBRANCH  10  11
ENDBRANCH   9  10
BRANCH   9  17
ATOM     17  C   UNL d   1       0.973  -2.581   0.525  0.00  0.00     0.088 C 
ATOM     18  C   UNL d   1       2.457  -2.736   0.874  0.00  0.00     0.032 C 
ATOM     19  C   UNL d   1       0.237  -3.585   1.438  0.00  0.00     0.032 C 
ENDBRANCH   9  17
ENDBRANCH   6   9
ENDBRANCH   1   6
BRANCH   2  20
ATOM     20  S   UNL d   1       0.560   4.649   3.484  0.00  0.00     0.213 S 
ATOM     21  O   UNL d   1      -0.588   4.029   4.119  0.00  0.00    -0.217 OA
ATOM     22  O   UNL d   1       1.654   5.194   4.263  0.00  0.00    -0.217 OA
BRANCH  20  23
ATOM     23  C   UNL d   1      -0.006   5.907   2.370  0.00  0.00     0.064 A 
ATOM     24  C   UNL d   1      -1.320   5.871   1.896  0.00  0.00     0.024 A 
ATOM     25  C   UNL d   1      -1.757   6.860   1.014  0.00  0.00     0.002 A 
ATOM     26  C   UNL d   1      -0.889   7.881   0.622  0.00  0.00     0.000 A 
ATOM     27  C   UNL d   1       0.414   7.927   1.121  0.00  0.00     0.002 A 
ATOM     28  C   UNL d   1       0.859   6.942   2.003  0.00  0.00     0.024 A 
ENDBRANCH  20  23
ENDBRANCH   2  20
TORSDOF 7
