REMARK  9 active torsions:
REMARK  status: ('A' for Active; 'I' for Inactive)
REMARK    1  A    between atoms: C_2  and  C_1 
REMARK    2  A    between atoms: C_4  and  C_1 
REMARK    3  A    between atoms: C_6  and  C_1 
REMARK    4  A    between atoms: C_7  and  C_1 
REMARK       I    between atoms: N_3  and  C_2 
REMARK    5  A    between atoms: C_8  and  C_4 
REMARK    6  A    between atoms: O_9  and  C_8 
REMARK    7  A    between atoms: O_10  and  C_8 
REMARK    8  A    between atoms: C_17  and  O_9 
REMARK    9  A    between atoms: C_18  and  O_10 
ROOT
ATOM      1  C   UNL d   1       1.194   0.370  -0.067  0.00  0.00     0.099 C 
ENDROOT
BRANCH   1   2
ATOM      2  C   UNL d   1       0.690  -0.667  -1.199  0.00  0.00     0.237 C 
ATOM      3  N   UNL d   1       0.609  -0.330  -2.551  0.00  0.00    -0.360 N 
ATOM      4  C   UNL d   1       0.069  -1.321  -3.474  0.00  0.00     0.152 C 
ATOM      5  C   UNL d   1       0.790   0.996  -3.119  0.00  0.00     0.152 C 
ATOM      6  O   UNL d   1       0.382  -1.828  -0.871  0.00  0.00    -0.272 OA
ENDBRANCH   1   2
BRANCH   1   7
ATOM      7  C   UNL d   1       1.046  -0.477   1.269  0.00  0.00     0.090 C 
BRANCH   7   8
ATOM      8  C   UNL d   1       1.504   0.060   2.629  0.00  0.00     0.261 C 
BRANCH   8   9
ATOM      9  O   UNL d   1       0.816   1.274   2.928  0.00  0.00    -0.362 OA
BRANCH   9  10
ATOM     10  C   UNL d   1       1.318   1.893   4.111  0.00  0.00     0.166 C 
ATOM     11  C   UNL d   1       0.509   3.145   4.387  0.00  0.00     0.033 C 
ENDBRANCH   9  10
ENDBRANCH   8   9
BRANCH   8  12
ATOM     12  O   UNL d   1       1.213  -0.899   3.661  0.00  0.00    -0.362 OA
BRANCH  12  13
ATOM     13  C   UNL d   1       2.096  -2.018   3.676  0.00  0.00     0.166 C 
ATOM     14  C   UNL d   1       1.905  -2.768   4.981  0.00  0.00     0.033 C 
ENDBRANCH  12  13
ENDBRANCH   8  12
ENDBRANCH   7   8
ENDBRANCH   1   7
BRANCH   1  15
ATOM     15  C   UNL d   1       0.230   1.601  -0.099  0.00  0.00    -0.035 A 
ATOM     16  C   UNL d   1      -1.154   1.416   0.085  0.00  0.00     0.009 A 
ATOM     17  C   UNL d   1      -2.056   2.481  -0.044  0.00  0.00     0.001 A 
ATOM     18  C   UNL d   1      -1.603   3.757  -0.352  0.00  0.00     0.000 A 
ATOM     19  C   UNL d   1      -0.243   3.977  -0.529  0.00  0.00     0.001 A 
ATOM     20  C   UNL d   1       0.655   2.910  -0.410  0.00  0.00     0.009 A 
ENDBRANCH   1  15
BRANCH   1  21
ATOM     21  C   UNL d   1       2.709   0.722  -0.255  0.00  0.00    -0.035 A 
ATOM     22  C   UNL d   1       3.499   0.162  -1.276  0.00  0.00     0.009 A 
ATOM     23  C   UNL d   1       4.801   0.616  -1.522  0.00  0.00     0.001 A 
ATOM     24  C   UNL d   1       5.368   1.599  -0.720  0.00  0.00     0.000 A 
ATOM     25  C   UNL d   1       4.643   2.115   0.346  0.00  0.00     0.001 A 
ATOM     26  C   UNL d   1       3.335   1.679   0.574  0.00  0.00     0.009 A 
ENDBRANCH   1  21
TORSDOF 9
