REMARK  4 active torsions:
REMARK  status: ('A' for Active; 'I' for Inactive)
REMARK    1  A    between atoms: C_11  and  C_3 
REMARK    2  A    between atoms: N_15  and  C_4 
REMARK    3  A    between atoms: O_17  and  C_11 
REMARK    4  A    between atoms: C_18  and  O_17 
ROOT
ATOM      1  N   UNL d   1       0.255  -0.594  -0.011  0.00  0.00    -0.227 N 
ATOM      2  C   UNL d   1       0.212   0.804  -0.062  0.00  0.00     0.146 A 
ATOM      3  C   UNL d   1       1.531   1.229  -0.037  0.00  0.00     0.102 A 
ATOM      4  C   UNL d   1      -0.930  -1.382   0.050  0.00  0.00     0.124 A 
ATOM      5  N   UNL d   1       1.536  -1.061  -0.051  0.00  0.00    -0.301 N 
ATOM      6  HN  UNL d   1       1.849  -2.031  -0.079  1.00  0.00     0.186 HD
ATOM      7  N   UNL d   1      -0.981   1.474  -0.083  0.00  0.00    -0.348 N 
ATOM      8  HN  UNL d   1      -1.025   2.492  -0.117  1.00  0.00     0.167 HD
ATOM      9  C   UNL d   1      -2.120  -0.747   0.004  0.00  0.00     0.100 A 
ATOM     10  C   UNL d   1       2.287   0.041  -0.045  0.00  0.00     0.129 A 
ATOM     11  C   UNL d   1      -2.054   0.742  -0.056  0.00  0.00     0.116 A 
ATOM     12  C   UNL d   1      -3.383  -1.397   0.026  0.00  0.00     0.104 C 
ATOM     13  N   UNL d   1      -4.413  -1.936   0.018  0.00  0.00    -0.191 NA
ENDROOT
BRANCH   4  14
ATOM     14  N   UNL d   1      -0.749  -2.760   0.157  0.00  0.00    -0.286 NA
ATOM     15  H   UNL d   1       0.200  -3.047  -0.108  0.00  0.00     0.125 HD
ATOM     16  H   UNL d   1      -1.486  -3.353  -0.215  0.00  0.00     0.125 HD
ENDBRANCH   4  14
BRANCH   3  17
ATOM     17  C   UNL d   1       2.065   2.573   0.047  0.00  0.00     0.298 C 
ATOM     18  O   UNL d   1       3.263   2.796   0.158  0.00  0.00    -0.259 OA
BRANCH  17  19
ATOM     19  O   UNL d   1       1.096   3.525   0.099  0.00  0.00    -0.318 OA
BRANCH  19  20
ATOM     20  C   UNL d   1       1.482   4.783   0.664  0.00  0.00     0.174 C 
ATOM     21  C   UNL d   1       1.331   4.689   2.173  0.00  0.00     0.034 C 
ENDBRANCH  19  20
ENDBRANCH  17  19
ENDBRANCH   3  17
TORSDOF 4
