REMARK  8 active torsions:
REMARK  status: ('A' for Active; 'I' for Inactive)
REMARK    1  A    between atoms: C_2  and  S_1 
REMARK    2  A    between atoms: N_5  and  S_1 
REMARK    3  A    between atoms: C_4  and  O_9 
REMARK    4  A    between atoms: C_19  and  N_5 
REMARK       I    between atoms: C_7  and  N_15 
REMARK    5  A    between atoms: C_21  and  C_7 
REMARK    6  A    between atoms: C_22  and  C_8 
REMARK    7  A    between atoms: O_9  and  C_16 
REMARK    8  A    between atoms: N_15  and  C_22 
ROOT
ATOM      1  S   UNL d   1       0.840  -0.038   0.073  0.00  0.00     0.252 S 
ATOM      2  O   UNL d   1       0.098  -1.280  -0.002  0.00  0.00    -0.205 OA
ATOM      3  O   UNL d   1       2.289  -0.037   0.089  0.00  0.00    -0.205 OA
ENDROOT
BRANCH   1   4
ATOM      4  C   UNL d   1       0.296   0.746   1.572  0.00  0.00     0.116 A 
ATOM      5  S   UNL d   1       1.254   2.030   2.166  0.00  0.00    -0.080 SA
ATOM      6  C   UNL d   1       0.221   2.279   3.511  0.00  0.00     0.002 A 
ATOM      7  C   UNL d   1      -0.868   1.430   3.472  0.00  0.00     0.018 A 
ATOM      8  C   UNL d   1      -0.822   0.543   2.359  0.00  0.00     0.033 A 
BRANCH   6   9
ATOM      9  C   UNL d   1       0.556   3.313   4.538  0.00  0.00     0.169 C 
BRANCH   9  10
ATOM     10  N   UNL d   1      -0.079   4.557   4.174  0.00  0.00    -0.352 N 
ATOM     11  C   UNL d   1       0.070   5.664   4.981  0.00  0.00     0.251 C 
ATOM     12  O   UNL d   1       0.698   5.649   6.033  0.00  0.00    -0.268 OA
ATOM     13  H   UNL d   1      -0.369   4.684   3.215  0.00  0.00     0.163 HD
BRANCH  11  14
ATOM     14  C   UNL d   1      -0.556   6.923   4.493  0.00  0.00     0.032 A 
ATOM     15  C   UNL d   1      -1.704   6.912   3.690  0.00  0.00     0.017 A 
ATOM     16  C   UNL d   1      -2.277   8.115   3.272  0.00  0.00     0.001 A 
ATOM     17  C   UNL d   1      -1.710   9.331   3.658  0.00  0.00     0.000 A 
ATOM     18  C   UNL d   1      -0.575   9.347   4.466  0.00  0.00     0.001 A 
ATOM     19  C   UNL d   1      -0.000   8.146   4.888  0.00  0.00     0.017 A 
ENDBRANCH  11  14
ENDBRANCH   9  10
ENDBRANCH   6   9
ENDBRANCH   1   4
BRANCH   1  20
ATOM     20  N   UNL d   1       0.367   0.943  -1.223  0.00  0.00    -0.180 NA
ATOM     21  H   UNL d   1       0.918   0.690  -2.044  0.00  0.00     0.146 HD
BRANCH  20  22
ATOM     22  C   UNL d   1      -1.037   1.047  -1.468  0.00  0.00     0.038 A 
ATOM     23  C   UNL d   1      -1.773   2.084  -0.906  0.00  0.00     0.114 A 
ATOM     24  N   UNL d   1      -3.082   2.307  -1.157  0.00  0.00    -0.345 N 
ATOM     25  C   UNL d   1      -3.674   1.464  -2.037  0.00  0.00     0.148 A 
ATOM     26  HN  UNL d   1      -3.595   3.066  -0.710  1.00  0.00     0.167 HD
ATOM     27  C   UNL d   1      -3.055   0.337  -2.561  0.00  0.00     0.058 A 
ATOM     28  C   UNL d   1      -1.708   0.123  -2.264  0.00  0.00     0.030 A 
BRANCH  25  29
ATOM     29  O   UNL d   1      -4.930   1.775  -2.548  0.00  0.00    -0.290 OA
BRANCH  29  30
ATOM     30  C   UNL d   1      -5.320   3.098  -2.479  0.00  0.00     0.121 A 
ATOM     31  C   UNL d   1      -4.572   4.160  -3.018  0.00  0.00     0.069 A 
ATOM     32 CL   UNL d   1      -3.135   3.924  -3.957  0.00  0.00    -0.081 Cl
ATOM     33  C   UNL d   1      -5.013   5.480  -2.871  0.00  0.00     0.027 A 
ATOM     34  C   UNL d   1      -6.235   5.750  -2.258  0.00  0.00     0.003 A 
ATOM     35  C   UNL d   1      -7.024   4.697  -1.800  0.00  0.00     0.027 A 
ATOM     36  C   UNL d   1      -6.568   3.378  -1.906  0.00  0.00     0.069 A 
ATOM     37 CL   UNL d   1      -7.602   2.116  -1.335  0.00  0.00    -0.081 Cl
ENDBRANCH  29  30
ENDBRANCH  25  29
ENDBRANCH  20  22
ENDBRANCH   1  20
TORSDOF 8
