REMARK  4 active torsions:
REMARK  status: ('A' for Active; 'I' for Inactive)
REMARK    1  A    between atoms: C_3  and  C_1 
REMARK    2  A    between atoms: N_5  and  C_2 
REMARK    3  A    between atoms: O_11  and  C_3 
REMARK       I    between atoms: C_8  and  N_5 
REMARK    4  A    between atoms: C_12  and  C_8 
ROOT
ATOM      1  C   UNL d   1       0.110   1.366   0.022  0.00  0.00     0.106 A 
ATOM      2  C   UNL d   1       1.410   0.923  -0.180  0.00  0.00     0.058 A 
ATOM      3  S   UNL d   1      -0.984   0.041   0.170  0.00  0.00    -0.094 SA
ATOM      4  C   UNL d   1       1.479  -0.508  -0.207  0.00  0.00     0.038 A 
ATOM      5  C   UNL d   1       0.255  -1.107  -0.035  0.00  0.00     0.053 A 
ENDROOT
BRANCH   2   6
ATOM      6  N   UNL d   1       2.508   1.770  -0.340  0.00  0.00    -0.326 N 
ATOM      7  C   UNL d   1       3.581   1.451  -1.155  0.00  0.00     0.221 C 
ATOM      8  O   UNL d   1       3.657   0.447  -1.866  0.00  0.00    -0.273 OA
ATOM      9  H   UNL d   1       2.370   2.744  -0.092  0.00  0.00     0.169 HD
BRANCH   7  10
ATOM     10  C   UNL d   1       4.692   2.479  -1.098  0.00  0.00     0.098 C 
ATOM     11  C   UNL d   1       5.683   2.301  -2.238  0.00  0.00     0.014 C 
ENDBRANCH   7  10
ENDBRANCH   2   6
BRANCH   1  12
ATOM     12  C   UNL d   1      -0.465   2.703   0.039  0.00  0.00     0.302 C 
ATOM     13  O   UNL d   1      -1.655   2.973   0.125  0.00  0.00    -0.259 OA
BRANCH  12  14
ATOM     14  O   UNL d   1       0.515   3.652  -0.098  0.00  0.00    -0.322 OA
ATOM     15  C   UNL d   1       0.020   4.989  -0.233  0.00  0.00     0.213 C 
ENDBRANCH  12  14
ENDBRANCH   1  12
TORSDOF 4
