REMARK  4 active torsions:
REMARK  status: ('A' for Active; 'I' for Inactive)
REMARK    1  A    between atoms: C_13  and  N_4 
REMARK    2  A    between atoms: C_16  and  N_5 
REMARK    3  A    between atoms: C_17  and  C_11 
REMARK    4  A    between atoms: C_14  and  C_12 
ROOT
ATOM      1  C   UNL d   1      -0.401   1.188   0.170  0.00  0.00     0.099 C 
ATOM      2  C   UNL d   1      -0.641   2.447   0.603  0.00  0.00     0.117 C 
ATOM      3  C   UNL d   1       0.952   0.617  -0.112  0.00  0.00     0.282 C 
ATOM      4  N   UNL d   1       0.247   3.465   1.025  0.00  0.00    -0.248 N 
ATOM      5  N   UNL d   1       0.673  -0.402  -1.034  0.00  0.00    -0.219 N 
ATOM      6  S   UNL d   1      -2.306   3.063   0.768  0.00  0.00    -0.047 SA
ATOM      7  N   UNL d   1      -0.668  -0.731  -1.099  0.00  0.00    -0.289 N 
ATOM      8  HN  UNL d   1      -1.082  -1.487  -1.645  1.00  0.00     0.188 HD
ATOM      9  N   UNL d   1      -0.354   4.503   1.768  0.00  0.00    -0.283 N 
ATOM     10  HN  UNL d   1       0.136   5.252   2.257  1.00  0.00     0.188 HD
ATOM     11  C   UNL d   1      -1.303   0.111  -0.327  0.00  0.00     0.077 C 
ATOM     12  C   UNL d   1      -1.635   4.338   1.719  0.00  0.00     0.137 C 
ATOM     13  O   UNL d   1       2.012   0.974   0.375  0.00  0.00    -0.265 OA
ENDROOT
BRANCH  11  14
ATOM     14  C   UNL d   1      -2.717  -0.106   0.014  0.00  0.00    -0.007 A 
ATOM     15  C   UNL d   1      -3.205   0.105   1.308  0.00  0.00     0.014 A 
ATOM     16  C   UNL d   1      -4.560  -0.091   1.582  0.00  0.00     0.001 A 
ATOM     17  C   UNL d   1      -5.409  -0.581   0.591  0.00  0.00     0.000 A 
ATOM     18  C   UNL d   1      -4.905  -0.885  -0.672  0.00  0.00     0.001 A 
ATOM     19  C   UNL d   1      -3.562  -0.646  -0.963  0.00  0.00     0.014 A 
ENDBRANCH  11  14
BRANCH   4  20
ATOM     20  C   UNL d   1       1.460   3.858   0.381  0.00  0.00     0.057 A 
ATOM     21  C   UNL d   1       1.732   3.560  -0.966  0.00  0.00     0.033 A 
ATOM     22  C   UNL d   1       2.955   3.902  -1.552  0.00  0.00     0.026 A 
ATOM     23  C   UNL d   1       3.907   4.594  -0.811  0.00  0.00     0.034 A 
ATOM     24  C   UNL d   1       3.642   4.956   0.506  0.00  0.00     0.026 A 
ATOM     25 CL   UNL d   1       5.412   5.010  -1.531  0.00  0.00    -0.084 Cl
ATOM     26  C   UNL d   1       2.426   4.591   1.095  0.00  0.00     0.033 A 
ENDBRANCH   4  20
BRANCH   5  27
ATOM     27  C   UNL d   1       1.580  -1.158  -1.821  0.00  0.00     0.060 A 
ATOM     28  C   UNL d   1       2.962  -0.929  -1.799  0.00  0.00     0.031 A 
ATOM     29  C   UNL d   1       3.825  -1.677  -2.611  0.00  0.00     0.002 A 
ATOM     30  C   UNL d   1       3.321  -2.657  -3.464  0.00  0.00     0.000 A 
ATOM     31  C   UNL d   1       1.952  -2.891  -3.508  0.00  0.00     0.002 A 
ATOM     32  C   UNL d   1       1.092  -2.148  -2.693  0.00  0.00     0.031 A 
ENDBRANCH   5  27
BRANCH  12  33
ATOM     33  C   UNL d   1      -2.729   5.111   2.374  0.00  0.00     0.180 C 
ATOM     34  O   UNL d   1      -3.555   4.538   3.076  0.00  0.00    -0.291 OA
ATOM     35  C   UNL d   1      -2.714   6.597   2.182  0.00  0.00     0.099 C 
ENDBRANCH  12  33
TORSDOF 4
