REMARK  2 active torsions:
REMARK  status: ('A' for Active; 'I' for Inactive)
REMARK    1  A    between atoms: C_3  and  N_1 
REMARK    2  A    between atoms: N_2  and  C_4 
ROOT
ATOM      1  C   UNL d   1      -0.038   2.315  -0.034  0.00  0.00     0.054 A 
ATOM      2  C   UNL d   1       0.628   4.436  -1.105  0.00  0.00     0.048 A 
ATOM      3  C   UNL d   1       0.616   3.031  -1.059  0.00  0.00     0.061 A 
ATOM      4  C   UNL d   1      -0.660   3.019   1.010  0.00  0.00    -0.034 A 
ATOM      5  C   UNL d   1       0.013   5.114  -0.048  0.00  0.00     0.031 A 
ATOM      6  C   UNL d   1      -0.623   4.420   0.986  0.00  0.00     0.011 A 
ATOM      7  C   UNL d   1      -1.332   2.366   2.188  0.00  0.00     0.050 C 
ENDROOT
BRANCH   1   8
ATOM      8  N   UNL d   1      -0.045   0.905  -0.099  0.00  0.00    -0.245 N 
ATOM      9  C   UNL d   1      -1.163   0.123  -0.043  0.00  0.00     0.255 A 
ATOM     10  C   UNL d   1      -0.724  -1.268  -0.216  0.00  0.00     0.080 A 
ATOM     11  O   UNL d   1      -2.340   0.425   0.062  0.00  0.00    -0.268 OA
ATOM     12  C   UNL d   1       0.595  -1.262  -0.401  0.00  0.00     0.080 A 
ATOM     13  C   UNL d   1       1.050   0.133  -0.365  0.00  0.00     0.255 A 
ATOM     14  O   UNL d   1       2.220   0.443  -0.508  0.00  0.00    -0.268 OA
ENDBRANCH   1   8
BRANCH   2  15
ATOM     15  N   UNL d   1       1.209   5.141  -2.200  0.00  0.00    -0.245 N 
ATOM     16  C   UNL d   1       1.491   4.603  -3.428  0.00  0.00     0.255 A 
ATOM     17  C   UNL d   1       2.029   5.678  -4.271  0.00  0.00     0.080 A 
ATOM     18  O   UNL d   1       1.316   3.484  -3.879  0.00  0.00    -0.268 OA
ATOM     19  C   UNL d   1       2.040   6.794  -3.551  0.00  0.00     0.080 A 
ATOM     20  C   UNL d   1       1.516   6.475  -2.218  0.00  0.00     0.255 A 
ATOM     21  O   UNL d   1       1.440   7.334  -1.354  0.00  0.00    -0.268 OA
ENDBRANCH   2  15
TORSDOF 2
