REMARK  0 active torsions:
REMARK  status: ('A' for Active; 'I' for Inactive)
ROOT
ATOM      1  C   UNL d   1       2.587   1.719  -1.235  0.00  0.00     0.021 C 
ATOM      2  C   UNL d   1       1.281   2.403  -0.796  0.00  0.00     0.006 C 
ATOM      3  C   UNL d   1       0.218   1.358  -0.535  0.00  0.00    -0.004 C 
ATOM      4  C   UNL d   1       0.663   0.204   0.412  0.00  0.00    -0.002 C 
ATOM      5  C   UNL d   1      -0.276  -0.979   0.036  0.00  0.00     0.019 C 
ATOM      6  C   UNL d   1      -1.761  -0.591   0.050  0.00  0.00    -0.079 C 
ATOM      7  C   UNL d   1       3.316   2.950  -1.725  0.00  0.00     0.135 C 
ATOM      8  C   UNL d   1       3.129   0.986  -0.015  0.00  0.00     0.018 C 
ATOM      9  C   UNL d   1       2.175  -0.157   0.387  0.00  0.00     0.007 C 
ATOM     10  C   UNL d   1       0.975   3.394  -1.924  0.00  0.00     0.013 C 
ATOM     11  C   UNL d   1      -1.093   1.900   0.034  0.00  0.00     0.010 C 
ATOM     12  C   UNL d   1      -2.182   0.850  -0.192  0.00  0.00     0.034 C 
ATOM     13  C   UNL d   1       2.344   3.945  -2.337  0.00  0.00     0.079 C 
ATOM     14  O   UNL d   1       4.527   3.100  -1.705  0.00  0.00    -0.297 OA
ATOM     15  C   UNL d   1      -2.710  -1.538   0.177  0.00  0.00    -0.024 C 
ATOM     16  C   UNL d   1       2.491   0.772  -2.455  0.00  0.00     0.024 C 
ATOM     17  C   UNL d   1      -0.052  -2.272   0.838  0.00  0.00     0.010 C 
ATOM     18  C   UNL d   1      -2.430  -3.004   0.332  0.00  0.00     0.027 C 
ATOM     19  C   UNL d   1      -0.947  -3.371   0.264  0.00  0.00     0.004 C 
ENDROOT
TORSDOF 0
