REMARK  6 active torsions:
REMARK  status: ('A' for Active; 'I' for Inactive)
REMARK    1  A    between atoms: C_2  and  S_1 
REMARK    2  A    between atoms: N_7  and  S_1 
REMARK    3  A    between atoms: C_10  and  C_3 
REMARK    4  A    between atoms: C_5  and  C_11 
REMARK       I    between atoms: C_14  and  N_13 
REMARK    5  A    between atoms: O_27  and  C_14 
REMARK    6  A    between atoms: C_28  and  O_27 
ROOT
ATOM      1  C   UNL d   1      -0.293  -0.630  -1.221  0.00  0.00     0.116 A 
ATOM      2  S   UNL d   1      -1.577  -1.547  -0.570  0.00  0.00    -0.075 SA
ATOM      3  C   UNL d   1      -2.367  -1.639  -2.085  0.00  0.00     0.035 A 
ATOM      4  C   UNL d   1      -0.493  -0.352  -2.561  0.00  0.00     0.034 A 
ATOM      5  C   UNL d   1      -1.689  -0.937  -3.060  0.00  0.00     0.023 A 
ENDROOT
BRANCH   1   6
ATOM      6  S   UNL d   1       1.028  -0.173  -0.118  0.00  0.00     0.250 S 
ATOM      7  O   UNL d   1       1.960   0.514  -0.983  0.00  0.00    -0.205 OA
ATOM      8  O   UNL d   1       1.419  -1.385   0.570  0.00  0.00    -0.205 OA
BRANCH   6   9
ATOM      9  N   UNL d   1       0.443   0.930   1.038  0.00  0.00    -0.203 NA
ATOM     10  C   UNL d   1      -0.384   2.069   0.533  0.00  0.00     0.127 C 
ATOM     11  C   UNL d   1       0.467   3.133  -0.166  0.00  0.00     0.143 C 
ATOM     12  N   UNL d   1       1.556   3.584   0.705  0.00  0.00    -0.326 N 
ATOM     13  C   UNL d   1       2.375   2.536   1.321  0.00  0.00     0.143 C 
ATOM     14  C   UNL d   1       1.809   4.910   0.987  0.00  0.00     0.362 C 
ATOM     15  C   UNL d   1       1.506   1.439   1.972  0.00  0.00     0.127 C 
ATOM     16  O   UNL d   1       2.693   5.290   1.746  0.00  0.00    -0.238 OA
BRANCH  14  17
ATOM     17  O   UNL d   1       0.900   5.731   0.404  0.00  0.00    -0.304 OA
BRANCH  17  18
ATOM     18  C   UNL d   1       0.763   7.018   1.012  0.00  0.00     0.176 C 
ATOM     19  C   UNL d   1      -0.200   6.880   2.180  0.00  0.00     0.034 C 
ENDBRANCH  17  18
ENDBRANCH  14  17
ENDBRANCH   6   9
ENDBRANCH   1   6
BRANCH   3  20
ATOM     20  C   UNL d   1      -3.632  -2.400  -2.337  0.00  0.00     0.074 A 
ATOM     21  C   UNL d   1      -4.385  -3.128  -1.389  0.00  0.00     0.077 A 
ATOM     22  C   UNL d   1      -5.428  -3.658  -2.117  0.00  0.00     0.184 A 
ATOM     23  O   UNL d   1      -5.313  -3.262  -3.412  0.00  0.00    -0.233 OA
ATOM     24  N   UNL d   1      -4.191  -2.469  -3.552  0.00  0.00    -0.260 N 
ATOM     25  HN  UNL d   1      -3.855  -2.026  -4.408  1.00  0.00     0.195 HD
BRANCH  22  26
ATOM     26  C   UNL d   1      -6.577  -4.513  -1.788  0.00  0.00     0.441 C 
ATOM     27  F   UNL d   1      -6.638  -4.786  -0.458  0.00  0.00    -0.164 F 
ATOM     28  F   UNL d   1      -7.761  -3.933  -2.117  0.00  0.00    -0.164 F 
ATOM     29  F   UNL d   1      -6.529  -5.708  -2.430  0.00  0.00    -0.164 F 
ENDBRANCH  22  26
ENDBRANCH   3  20
TORSDOF 6
