REMARK  6 active torsions:
REMARK  status: ('A' for Active; 'I' for Inactive)
REMARK    1  A    between atoms: N_11  and  C_9 
REMARK    2  A    between atoms: C_21  and  N_10 
REMARK    3  A    between atoms: N_12  and  N_11 
REMARK    4  A    between atoms: C_17  and  C_16 
REMARK    5  A    between atoms: C_18  and  C_21 
REMARK    6  A    between atoms: C_28  and  C_19 
ROOT
ATOM      1  C   UNL d   1      -1.833  -2.276  -0.035  0.00  0.00     0.160 A 
ATOM      2  C   UNL d   1      -3.143  -1.911  -0.025  0.00  0.00     0.165 A 
ATOM      3  N   UNL d   1      -1.010  -1.207  -0.062  0.00  0.00    -0.172 N 
ATOM      4  HN  UNL d   1       0.010  -1.215  -0.059  1.00  0.00     0.186 HD
ATOM      5  N   UNL d   1      -1.437  -3.592  -0.016  0.00  0.00    -0.287 N 
ATOM      6  N   UNL d   1      -3.748  -4.192  -0.013  0.00  0.00    -0.269 N 
ATOM      7  C   UNL d   1      -2.400  -4.598  -0.003  0.00  0.00     0.332 A 
ATOM      8  C   UNL d   1      -4.199  -2.865  -0.015  0.00  0.00     0.282 A 
ATOM      9  C   UNL d   1      -1.799  -0.146  -0.095  0.00  0.00     0.701 A 
ATOM     10  N   UNL d   1      -3.130  -0.533  -0.023  0.00  0.00    -0.169 N 
ATOM     11  O   UNL d   1      -2.079  -5.789   0.016  0.00  0.00    -0.246 OA
ATOM     12  O   UNL d   1      -5.387  -2.555  -0.010  0.00  0.00    -0.265 OA
ATOM     13  C   UNL d   1      -0.036  -3.964  -0.011  0.00  0.00     0.163 C 
ATOM     14  C   UNL d   1      -4.770  -5.221  -0.011  0.00  0.00     0.164 C 
ENDROOT
BRANCH   9  15
ATOM     15  N   UNL d   1      -1.387   1.151  -0.179  0.00  0.00    -0.132 N 
ATOM     16  H   UNL d   1      -2.078   1.876  -0.359  0.00  0.00     0.205 HD
BRANCH  15  17
ATOM     17  N   UNL d   1      -0.161   1.392  -0.726  0.00  0.00    -0.290 N 
ATOM     18  C   UNL d   1       0.641   2.273  -0.207  0.00  0.00     0.032 C 
ATOM     19  C   UNL d   1       1.974   2.435  -0.917  0.00  0.00     0.070 C 
ATOM     20  HN  UNL d   1       0.130   0.873  -1.554  1.00  0.00     0.187 HD
BRANCH  18  21
ATOM     21  C   UNL d   1       0.419   3.121   1.001  0.00  0.00    -0.013 A 
ATOM     22  C   UNL d   1      -0.235   2.619   2.132  0.00  0.00     0.015 A 
ATOM     23  C   UNL d   1      -0.436   3.433   3.252  0.00  0.00     0.024 A 
ATOM     24  C   UNL d   1       0.041   4.743   3.255  0.00  0.00     0.034 A 
ATOM     25  C   UNL d   1       0.726   5.243   2.150  0.00  0.00     0.024 A 
ATOM     26 CL   UNL d   1      -0.210   5.745   4.629  0.00  0.00    -0.084 Cl
ATOM     27  C   UNL d   1       0.913   4.435   1.025  0.00  0.00     0.015 A 
ENDBRANCH  18  21
ENDBRANCH  15  17
ENDBRANCH   9  15
BRANCH  10  28
ATOM     28  C   UNL d   1      -4.299   0.336   0.087  0.00  0.00     0.175 C 
BRANCH  28  29
ATOM     29  C   UNL d   1      -4.913   0.648  -1.250  0.00  0.00    -0.005 C 
ATOM     30  C   UNL d   1      -6.030   1.366  -1.458  0.00  0.00     0.009 C 
BRANCH  30  31
ATOM     31  C   UNL d   1      -6.846   1.994  -0.416  0.00  0.00    -0.036 A 
ATOM     32  C   UNL d   1      -6.580   3.306  -0.009  0.00  0.00     0.011 A 
ATOM     33  C   UNL d   1      -7.390   3.925   0.946  0.00  0.00     0.001 A 
ATOM     34  C   UNL d   1      -8.471   3.238   1.496  0.00  0.00     0.000 A 
ATOM     35  C   UNL d   1      -8.740   1.929   1.096  0.00  0.00     0.001 A 
ATOM     36  C   UNL d   1      -7.929   1.308   0.142  0.00  0.00     0.011 A 
ENDBRANCH  30  31
ENDBRANCH  28  29
ENDBRANCH  10  28
TORSDOF 6
