REMARK  5 active torsions:
REMARK  status: ('A' for Active; 'I' for Inactive)
REMARK    1  A    between atoms: C_7  and  N_1 
REMARK    2  A    between atoms: C_12  and  C_3 
REMARK    3  A    between atoms: C_5  and  O_13 
REMARK    4  A    between atoms: C_21  and  C_7 
REMARK    5  A    between atoms: O_13  and  C_22 
ROOT
ATOM      1  N   UNL d   1      -2.502   0.297  -0.342  0.00  0.00     0.107 N 
ATOM      2  C   UNL d   1      -0.126   0.858   0.008  0.00  0.00    -0.007 A 
ATOM      3  C   UNL d   1      -1.557   1.324   0.169  0.00  0.00     0.290 C 
ATOM      4  C   UNL d   1       0.209  -0.469  -0.166  0.00  0.00    -0.007 A 
ATOM      5  S   UNL d   1       1.887  -0.728  -0.254  0.00  0.00    -0.106 SA
ATOM      6  C   UNL d   1      -2.207  -1.086   0.068  0.00  0.00     0.279 C 
ATOM      7  C   UNL d   1       1.046   1.684   0.025  0.00  0.00     0.018 A 
ATOM      8  C   UNL d   1      -0.784  -1.575  -0.288  0.00  0.00     0.077 C 
ATOM      9  C   UNL d   1       2.206   0.944  -0.089  0.00  0.00     0.051 A 
ENDROOT
BRANCH   3  10
ATOM     10  C   UNL d   1      -1.668   1.736   1.636  0.00  0.00    -0.020 A 
ATOM     11  C   UNL d   1      -2.001   3.067   1.946  0.00  0.00     0.012 A 
ATOM     12  C   UNL d   1      -2.110   3.505   3.275  0.00  0.00     0.037 A 
ATOM     13  C   UNL d   1      -1.922   2.605   4.319  0.00  0.00     0.078 A 
ATOM     14  C   UNL d   1      -1.546   1.293   4.027  0.00  0.00     0.037 A 
ATOM     15  C   UNL d   1      -1.416   0.862   2.706  0.00  0.00     0.012 A 
BRANCH  13  16
ATOM     16  O   UNL d   1      -2.034   2.864   5.650  0.00  0.00    -0.255 OA
BRANCH  16  17
ATOM     17  C   UNL d   1      -2.842   3.943   6.088  0.00  0.00     0.530 C 
ATOM     18  F   UNL d   1      -3.754   4.353   5.183  0.00  0.00    -0.144 F 
ATOM     19  F   UNL d   1      -3.516   3.543   7.192  0.00  0.00    -0.144 F 
ATOM     20  F   UNL d   1      -2.059   4.987   6.432  0.00  0.00    -0.144 F 
ENDBRANCH  16  17
ENDBRANCH  13  16
ENDBRANCH   3  10
BRANCH   1  21
ATOM     21  C   UNL d   1      -3.912   0.641  -0.071  0.00  0.00     0.330 C 
BRANCH  21  22
ATOM     22  C   UNL d   1      -4.372   1.935  -0.718  0.00  0.00     0.037 A 
ATOM     23  N   UNL d   1      -4.806   2.927   0.102  0.00  0.00    -0.368 N 
ATOM     24  C   UNL d   1      -5.177   4.092  -0.472  0.00  0.00     0.088 A 
ATOM     25  HN  UNL d   1      -4.849   2.798   1.113  1.00  0.00     0.165 HD
ATOM     26  C   UNL d   1      -5.132   4.329  -1.836  0.00  0.00     0.017 A 
ATOM     27  C   UNL d   1      -4.695   3.302  -2.664  0.00  0.00     0.003 A 
ATOM     28  C   UNL d   1      -4.313   2.087  -2.105  0.00  0.00     0.027 A 
ENDBRANCH  21  22
ENDBRANCH   1  21
TORSDOF 5
