REMARK  4 active torsions:
REMARK  status: ('A' for Active; 'I' for Inactive)
REMARK    1  A    between atoms: C_5  and  C_1 
REMARK    2  A    between atoms: N_7  and  C_2 
REMARK    3  A    between atoms: N_3  and  C_9 
REMARK       I    between atoms: C_4  and  N_6 
REMARK       I    between atoms: N_8  and  C_4 
REMARK    4  A    between atoms: C_16  and  N_8 
ROOT
ATOM      1  C   UNL d   1      -3.064   6.250  -0.392  0.00  0.00     0.323 C 
ATOM      2  N   UNL d   1      -2.581   4.948  -0.287  0.00  0.00    -0.332 N 
ATOM      3  N   UNL d   1      -1.071   2.518  -0.034  0.00  0.00    -0.266 NA
ATOM      4  N   UNL d   1      -3.996   6.634   0.545  0.00  0.00    -0.309 N 
ATOM      5  O   UNL d   1      -2.648   6.991  -1.280  0.00  0.00    -0.247 OA
ATOM      6  C   UNL d   1      -1.387   4.679  -1.109  0.00  0.00     0.142 C 
ATOM      7  C   UNL d   1      -2.771   4.057   0.875  0.00  0.00     0.142 C 
ATOM      8  C   UNL d   1      -2.394   2.579   0.615  0.00  0.00     0.117 C 
ATOM      9  C   UNL d   1      -1.118   3.190  -1.346  0.00  0.00     0.117 C 
ATOM     10  H   UNL d   1      -4.082   6.062   1.368  0.00  0.00     0.170 HD
ENDROOT
BRANCH   4  11
ATOM     11  C   UNL d   1      -4.649   7.892   0.591  0.00  0.00     0.038 A 
ATOM     12  C   UNL d   1      -4.643   8.802  -0.470  0.00  0.00     0.065 A 
ATOM     13  C   UNL d   1      -5.258  10.054  -0.330  0.00  0.00     0.105 A 
ATOM     14  C   UNL d   1      -5.905  10.401   0.859  0.00  0.00     0.036 A 
ATOM     15  C   UNL d   1      -5.947   9.480   1.906  0.00  0.00     0.005 A 
ATOM     16  C   UNL d   1      -5.327   8.232   1.770  0.00  0.00     0.030 A 
BRANCH  13  17
ATOM     17  N   UNL d   1      -5.212  11.011  -1.443  0.00  0.00    -0.116 N 
ATOM     18  O   UNL d   1      -4.737  10.632  -2.522  0.00  0.00    -0.532 OA
ATOM     19  O   UNL d   1      -5.663  12.148  -1.236  0.00  0.00    -0.532 OA
ENDBRANCH  13  17
ENDBRANCH   4  11
BRANCH   3  20
ATOM     20  C   UNL d   1      -0.464   1.264  -0.059  0.00  0.00     0.097 A 
ATOM     21  C   UNL d   1       0.922   1.129  -0.192  0.00  0.00     0.086 A 
ATOM     22  C   UNL d   1       1.472  -0.167  -0.210  0.00  0.00     0.021 A 
ATOM     23  C   UNL d   1       0.655  -1.276  -0.065  0.00  0.00     0.018 A 
ATOM     24  C   UNL d   1      -0.696  -1.053   0.090  0.00  0.00     0.089 A 
ATOM     25  N   UNL d   1      -1.257   0.176   0.097  0.00  0.00    -0.356 N 
ATOM     26  HN  UNL d   1      -2.264   0.284   0.217  1.00  0.00     0.166 HD
BRANCH  21  27
ATOM     27  C   UNL d   1       1.862   2.294  -0.320  0.00  0.00     0.420 C 
ATOM     28  F   UNL d   1       1.410   3.497   0.129  0.00  0.00    -0.166 F 
ATOM     29  F   UNL d   1       3.034   2.088   0.353  0.00  0.00    -0.166 F 
ATOM     30  F   UNL d   1       2.233   2.503  -1.619  0.00  0.00    -0.166 F 
ENDBRANCH  21  27
ENDBRANCH   3  20
TORSDOF 4
