REMARK  6 active torsions:
REMARK  status: ('A' for Active; 'I' for Inactive)
REMARK    1  A    between atoms: C_8  and  N_1 
REMARK    2  A    between atoms: C_7  and  C_4 
REMARK    3  A    between atoms: S_12  and  C_6 
REMARK    4  A    between atoms: O_17  and  C_7 
REMARK    5  A    between atoms: C_9  and  C_8 
REMARK    6  A    between atoms: C_19  and  O_17 
ROOT
ATOM      1  N   UNL d   1      -0.107  -1.214  -0.169  0.00  0.00    -0.313 N 
ATOM      2  N   UNL d   1      -0.194   1.007  -0.318  0.00  0.00    -0.321 N 
ATOM      3  HN  UNL d   1      -0.534   1.965  -0.393  1.00  0.00     0.169 HD
ATOM      4  C   UNL d   1       1.218  -0.782  -0.160  0.00  0.00     0.157 A 
ATOM      5  C   UNL d   1       1.095   0.588  -0.255  0.00  0.00     0.134 A 
ATOM      6  C   UNL d   1      -0.906  -0.093  -0.260  0.00  0.00     0.148 A 
ATOM      7  N   UNL d   1       2.058   1.509  -0.208  0.00  0.00    -0.383 N 
ATOM      8  H   UNL d   1       3.008   1.278   0.059  0.00  0.00     0.157 HD
ATOM      9  H   UNL d   1       1.791   2.474  -0.049  0.00  0.00     0.157 HD
ENDROOT
BRANCH   1  10
ATOM     10  C   UNL d   1      -0.577  -2.583  -0.006  0.00  0.00     0.196 C 
BRANCH  10  11
ATOM     11  C   UNL d   1      -0.808  -3.258  -1.309  0.00  0.00     0.070 A 
ATOM     12  O   UNL d   1       0.177  -4.096  -1.742  0.00  0.00    -0.325 OA
ATOM     13  C   UNL d   1      -0.263  -4.672  -2.890  0.00  0.00     0.142 A 
ATOM     14  C   UNL d   1      -1.516  -4.209  -3.211  0.00  0.00     0.027 A 
ATOM     15  C   UNL d   1      -1.869  -3.292  -2.192  0.00  0.00     0.036 A 
ENDBRANCH  10  11
ENDBRANCH   1  10
BRANCH   4  16
ATOM     16  C   UNL d   1       2.391  -1.607   0.009  0.00  0.00     0.314 C 
ATOM     17  O   UNL d   1       2.419  -2.685   0.581  0.00  0.00    -0.257 OA
BRANCH  16  18
ATOM     18  O   UNL d   1       3.494  -0.986  -0.504  0.00  0.00    -0.317 OA
BRANCH  18  19
ATOM     19  C   UNL d   1       4.771  -1.554  -0.172  0.00  0.00     0.175 C 
ATOM     20  C   UNL d   1       5.121  -2.776  -1.003  0.00  0.00     0.034 C 
ENDBRANCH  18  19
ENDBRANCH  16  18
ENDBRANCH   4  16
BRANCH   6  21
ATOM     21  S   UNL d   1      -2.640  -0.154  -0.245  0.00  0.00    -0.098 SA
ATOM     22  C   UNL d   1      -3.072   1.598  -0.203  0.00  0.00     0.099 C 
ENDBRANCH   6  21
TORSDOF 6
