REMARK  4 active torsions:
REMARK  status: ('A' for Active; 'I' for Inactive)
REMARK    1  A    between atoms: C_7  and  C_1 
REMARK    2  A    between atoms: C_2  and  C_8 
REMARK       I    between atoms: N_6  and  C_2 
REMARK    3  A    between atoms: C_3  and  C_9 
REMARK    4  A    between atoms: C_19  and  N_6 
ROOT
ATOM      1  C   UNL d   1       0.457   6.255   4.519  0.00  0.00     0.256 C 
ATOM      2  N   UNL d   1       0.007   5.738   3.316  0.00  0.00    -0.323 N 
ATOM      3  O   UNL d   1       1.055   7.316   4.677  0.00  0.00    -0.267 OA
ATOM      4  H   UNL d   1      -0.644   4.965   3.351  0.00  0.00     0.169 HD
ENDROOT
BRANCH   2   5
ATOM      5  C   UNL d   1       0.346   6.216   2.028  0.00  0.00     0.035 A 
ATOM      6  C   UNL d   1       1.318   7.194   1.811  0.00  0.00     0.030 A 
ATOM      7  C   UNL d   1       1.691   7.562   0.516  0.00  0.00     0.018 A 
ATOM      8  C   UNL d   1       1.094   6.955  -0.591  0.00  0.00     0.015 A 
ATOM      9  C   UNL d   1       0.087   6.006  -0.387  0.00  0.00     0.018 A 
ATOM     10  C   UNL d   1      -0.283   5.637   0.916  0.00  0.00     0.030 A 
BRANCH   8  11
ATOM     11  C   UNL d   1       1.563   7.258  -1.956  0.00  0.00     0.148 C 
ATOM     12  N   UNL d   1       1.116   6.742  -3.055  0.00  0.00    -0.368 N 
ATOM     13  C   UNL d   1       1.996   7.307  -4.087  0.00  0.00     0.148 C 
ATOM     14  HN  UNL d   1       0.336   6.095  -3.177  1.00  0.00     0.161 HD
ATOM     15  C   UNL d   1       2.859   8.328  -3.380  0.00  0.00     0.197 C 
ATOM     16  O   UNL d   1       2.587   8.143  -2.002  0.00  0.00    -0.334 OA
ENDBRANCH   8  11
ENDBRANCH   2   5
BRANCH   1  17
ATOM     17  C   UNL d   1       0.154   5.457   5.738  0.00  0.00     0.032 A 
ATOM     18  C   UNL d   1       0.139   4.058   5.732  0.00  0.00     0.018 A 
ATOM     19  C   UNL d   1      -0.086   3.359   6.924  0.00  0.00     0.017 A 
ATOM     20  C   UNL d   1      -0.291   4.046   8.134  0.00  0.00     0.048 A 
ATOM     21  C   UNL d   1      -0.259   5.447   8.132  0.00  0.00     0.017 A 
ATOM     22  C   UNL d   1      -0.032   6.146   6.944  0.00  0.00     0.018 A 
BRANCH  20  23
ATOM     23  C   UNL d   1      -0.544   3.278   9.411  0.00  0.00     0.417 C 
ATOM     24  F   UNL d   1      -0.630   4.069  10.516  0.00  0.00    -0.166 F 
ATOM     25  F   UNL d   1       0.433   2.369   9.677  0.00  0.00    -0.166 F 
ATOM     26  F   UNL d   1      -1.709   2.574   9.365  0.00  0.00    -0.166 F 
ENDBRANCH  20  23
ENDBRANCH   1  17
TORSDOF 4
