REMARK  2 active torsions:
REMARK  status: ('A' for Active; 'I' for Inactive)
REMARK       I    between atoms: N_2  and  C_1 
REMARK    1  A    between atoms: C_4  and  C_1 
REMARK    2  A    between atoms: C_3  and  N_2 
ROOT
ATOM      1  C   UNL d   1       1.085  -0.003   0.054  0.00  0.00     0.257 C 
ATOM      2  N   UNL d   1       0.436   1.221   0.163  0.00  0.00    -0.322 N 
ATOM      3  O   UNL d   1       2.307  -0.139   0.076  0.00  0.00    -0.267 OA
ATOM      4  H   UNL d   1      -0.508   1.186   0.527  0.00  0.00     0.169 HD
ENDROOT
BRANCH   1   5
ATOM      5  C   UNL d   1       0.181  -1.195  -0.061  0.00  0.00     0.043 A 
ATOM      6  C   UNL d   1       0.547  -2.485   0.441  0.00  0.00    -0.010 A 
ATOM      7  C   UNL d   1      -0.378  -3.550   0.269  0.00  0.00    -0.025 A 
ATOM      8  C   UNL d   1       1.757  -2.798   1.114  0.00  0.00     0.013 A 
ATOM      9  C   UNL d   1      -0.070  -4.841   0.728  0.00  0.00     0.012 A 
ATOM     10  C   UNL d   1      -1.609  -3.323  -0.362  0.00  0.00     0.012 A 
ATOM     11  C   UNL d   1       1.133  -5.111   1.370  0.00  0.00     0.001 A 
ATOM     12  C   UNL d   1       2.048  -4.087   1.567  0.00  0.00     0.001 A 
ATOM     13  C   UNL d   1      -1.947  -2.066  -0.852  0.00  0.00     0.002 A 
ATOM     14  C   UNL d   1      -1.051  -1.013  -0.719  0.00  0.00     0.018 A 
ENDBRANCH   1   5
BRANCH   2  15
ATOM     15  C   UNL d   1       1.117   2.448   0.325  0.00  0.00     0.046 A 
ATOM     16  C   UNL d   1       2.063   2.900  -0.622  0.00  0.00    -0.035 A 
ATOM     17  C   UNL d   1       2.642   4.171  -0.451  0.00  0.00     0.009 A 
ATOM     18  C   UNL d   1       2.465   2.151  -1.865  0.00  0.00     0.050 C 
ATOM     19  C   UNL d   1       2.292   4.985   0.622  0.00  0.00     0.001 A 
ATOM     20  C   UNL d   1       1.365   4.533   1.553  0.00  0.00     0.009 A 
ATOM     21  C   UNL d   1       0.776   3.265   1.427  0.00  0.00    -0.035 A 
ATOM     22  C   UNL d   1      -0.129   2.825   2.548  0.00  0.00     0.050 C 
ENDBRANCH   2  15
TORSDOF 2
