REMARK  2 active torsions:
REMARK  status: ('A' for Active; 'I' for Inactive)
REMARK    1  A    between atoms: N_8  and  C_6 
REMARK    2  A    between atoms: C_13  and  C_7 
ROOT
ATOM      1  C   UNL d   1      -6.137  -1.852   0.042  0.00  0.00     0.103 A 
ATOM      2  N   UNL d   1      -5.498  -2.322   1.136  0.00  0.00    -0.352 N 
ATOM      3  HN  UNL d   1      -6.023  -2.617   1.959  1.00  0.00     0.166 HD
ATOM      4  C   UNL d   1      -5.398  -1.412  -1.059  0.00  0.00     0.049 A 
ATOM      5  C   UNL d   1      -3.343  -1.974   0.059  0.00  0.00    -0.020 A 
ATOM      6  C   UNL d   1      -4.140  -2.394   1.115  0.00  0.00     0.101 A 
ATOM      7  C   UNL d   1      -4.000  -1.465  -1.052  0.00  0.00     0.016 A 
ENDROOT
BRANCH   5   8
ATOM      8  C   UNL d   1      -1.881  -2.061   0.102  0.00  0.00     0.030 C 
ATOM      9  C   UNL d   1      -1.169  -3.099  -0.359  0.00  0.00     0.045 A 
ATOM     10  C   UNL d   1      -1.720  -4.357  -0.990  0.00  0.00     0.257 A 
ATOM     11  C   UNL d   1       0.296  -3.237  -0.346  0.00  0.00     0.006 A 
ATOM     12  N   UNL d   1      -0.606  -5.122  -1.293  0.00  0.00    -0.322 N 
ATOM     13  O   UNL d   1      -2.879  -4.655  -1.200  0.00  0.00    -0.267 OA
ATOM     14  C   UNL d   1       0.571  -4.482  -0.925  0.00  0.00     0.046 A 
ATOM     15  H   UNL d   1      -0.677  -6.029  -1.728  0.00  0.00     0.169 HD
ATOM     16  C   UNL d   1       1.854  -4.965  -1.088  0.00  0.00     0.030 A 
ATOM     17  C   UNL d   1       2.903  -4.158  -0.648  0.00  0.00     0.002 A 
ATOM     18  C   UNL d   1       2.646  -2.903  -0.063  0.00  0.00     0.001 A 
ATOM     19  C   UNL d   1       1.334  -2.432   0.091  0.00  0.00     0.015 A 
ENDBRANCH   5   8
BRANCH   1  20
ATOM     20  N   UNL d   1      -7.513  -1.765   0.054  0.00  0.00    -0.363 N 
ATOM     21  C   UNL d   1      -8.328  -1.999  -1.143  0.00  0.00     0.150 C 
ATOM     22  C   UNL d   1      -9.268  -3.199  -0.936  0.00  0.00     0.187 C 
ATOM     23  O   UNL d   1     -10.060  -3.054   0.253  0.00  0.00    -0.388 OA
ATOM     24  C   UNL d   1      -9.198  -2.989   1.403  0.00  0.00     0.187 C 
ATOM     25  C   UNL d   1      -8.245  -1.788   1.327  0.00  0.00     0.150 C 
ENDBRANCH   1  20
TORSDOF 2
