REMARK  4 active torsions:
REMARK  status: ('A' for Active; 'I' for Inactive)
REMARK    1  A    between atoms: S_9  and  C_2 
REMARK    2  A    between atoms: S_12  and  C_3 
REMARK    3  A    between atoms: C_8  and  C_13 
REMARK    4  A    between atoms: C_13  and  S_9 
ROOT
ATOM      1  S   UNL d   1       0.654  -1.133  -0.394  0.00  0.00    -0.038 SA
ATOM      2  C   UNL d   1      -0.449   0.093   0.071  0.00  0.00     0.129 A 
ATOM      3  C   UNL d   1       1.884   0.052  -0.292  0.00  0.00     0.126 A 
ATOM      4  N   UNL d   1       0.101   1.271   0.276  0.00  0.00    -0.287 N 
ATOM      5  HN  UNL d   1      -0.419   2.103   0.555  1.00  0.00     0.188 HD
ATOM      6  N   UNL d   1       1.467   1.246   0.066  0.00  0.00    -0.287 N 
ATOM      7  HN  UNL d   1       2.078   2.056   0.175  1.00  0.00     0.188 HD
ENDROOT
BRANCH   2   8
ATOM      8  S   UNL d   1      -2.161  -0.195   0.265  0.00  0.00    -0.103 SA
BRANCH   8   9
ATOM      9  C   UNL d   1      -2.803   1.460  -0.110  0.00  0.00     0.086 C 
BRANCH   9  10
ATOM     10  C   UNL d   1      -4.300   1.426  -0.031  0.00  0.00    -0.005 A 
ATOM     11  C   UNL d   1      -5.135   0.731  -1.079  0.00  0.00     0.006 A 
ATOM     12  C   UNL d   1      -5.122   2.232  -1.008  0.00  0.00     0.006 A 
ENDBRANCH   9  10
ENDBRANCH   8   9
ENDBRANCH   2   8
BRANCH   3  13
ATOM     13  S   UNL d   1       3.562  -0.276  -0.638  0.00  0.00    -0.117 SA
ATOM     14  H   UNL d   1       3.408  -1.552  -1.015  0.00  0.00     0.109 HD
ENDBRANCH   3  13
TORSDOF 4
