REMARK  4 active torsions:
REMARK  status: ('A' for Active; 'I' for Inactive)
REMARK    1  A    between atoms: C_2  and  S_1 
REMARK    2  A    between atoms: N_4  and  S_1 
REMARK       I    between atoms: C_5  and  N_10 
REMARK    3  A    between atoms: O_16  and  C_5 
REMARK    4  A    between atoms: C_22  and  O_16 
ROOT
ATOM      1  N   UNL d   1       0.418  -1.465   0.350  0.00  0.00    -0.205 NA
ATOM      2  C   UNL d   1      -1.886  -4.673  -0.521  0.00  0.00     0.363 C 
ATOM      3  N   UNL d   1      -1.110  -4.112   0.483  0.00  0.00    -0.327 N 
ATOM      4  C   UNL d   1      -1.072  -1.609   0.291  0.00  0.00     0.127 C 
ATOM      5  C   UNL d   1      -1.555  -2.843   1.062  0.00  0.00     0.143 C 
ATOM      6  O   UNL d   1      -2.876  -4.094  -0.967  0.00  0.00    -0.238 OA
ATOM      7  C   UNL d   1       1.392  -3.728   0.543  0.00  0.00     0.035 C 
ATOM      8  C   UNL d   1       1.124  -2.549  -0.391  0.00  0.00     0.109 C 
ATOM      9  C   UNL d   1       0.189  -4.609   0.915  0.00  0.00     0.129 C 
ENDROOT
BRANCH   1  10
ATOM     10  S   UNL d   1       0.982   0.120   0.008  0.00  0.00     0.246 S 
ATOM     11  O   UNL d   1       2.427   0.123  -0.072  0.00  0.00    -0.206 OA
ATOM     12  O   UNL d   1       0.183   0.623  -1.091  0.00  0.00    -0.206 OA
BRANCH  10  13
ATOM     13  C   UNL d   1       0.549   1.029   1.448  0.00  0.00     0.104 A 
ATOM     14  C   UNL d   1       1.065   0.700   2.722  0.00  0.00     0.090 A 
ATOM     15  N   UNL d   1       1.897  -0.305   3.046  0.00  0.00    -0.309 N 
ATOM     16  C   UNL d   1       0.675   1.527   3.927  0.00  0.00     0.068 A 
ATOM     17  S   UNL d   1       2.189  -0.196   4.672  0.00  0.00     0.068 SA
ATOM     18  HN  UNL d   1       2.278  -1.004   2.408  1.00  0.00     0.176 HD
ATOM     19  N   UNL d   1       1.238   1.105   5.069  0.00  0.00    -0.310 N 
ATOM     20  HN  UNL d   1       1.107   1.505   5.998  1.00  0.00     0.176 HD
ATOM     21  C   UNL d   1      -0.206   2.629   3.804  0.00  0.00     0.032 A 
ATOM     22  C   UNL d   1      -0.678   2.909   2.511  0.00  0.00     0.004 A 
ATOM     23  C   UNL d   1      -0.315   2.146   1.376  0.00  0.00     0.027 A 
ENDBRANCH  10  13
ENDBRANCH   1  10
BRANCH   2  24
ATOM     24  O   UNL d   1      -1.463  -5.895  -0.950  0.00  0.00    -0.294 OA
BRANCH  24  25
ATOM     25  C   UNL d   1      -2.184  -6.575  -2.026  0.00  0.00     0.061 C 
ATOM     26  C   UNL d   1      -2.162  -5.737  -3.314  0.00  0.00     0.046 C 
ATOM     27  C   UNL d   1      -1.430  -7.895  -2.278  0.00  0.00     0.046 C 
ATOM     28  C   UNL d   1      -3.624  -6.933  -1.627  0.00  0.00     0.046 C 
ENDBRANCH  24  25
ENDBRANCH   2  24
TORSDOF 4
