REMARK  2 active torsions:
REMARK  status: ('A' for Active; 'I' for Inactive)
REMARK    1  A    between atoms: N_11  and  C_9 
REMARK    2  A    between atoms: C_17  and  N_11 
ROOT
ATOM      1  C   UNL d   1      -0.386   0.966   0.055  0.00  0.00     0.160 A 
ATOM      2  C   UNL d   1      -0.799  -0.335   0.040  0.00  0.00     0.164 A 
ATOM      3  N   UNL d   1      -1.432   1.833   0.105  0.00  0.00    -0.174 N 
ATOM      4  HN  UNL d   1      -1.390   2.851   0.145  1.00  0.00     0.186 HD
ATOM      5  N   UNL d   1       0.945   1.302   0.024  0.00  0.00    -0.287 N 
ATOM      6  N   UNL d   1       1.452  -1.034  -0.002  0.00  0.00    -0.269 N 
ATOM      7  C   UNL d   1       1.911   0.295  -0.004  0.00  0.00     0.332 A 
ATOM      8  C   UNL d   1       0.110  -1.428  -0.003  0.00  0.00     0.282 A 
ATOM      9  C   UNL d   1      -2.510   1.079   0.092  0.00  0.00     0.682 A 
ATOM     10  N   UNL d   1      -2.168  -0.265   0.079  0.00  0.00    -0.178 N 
ATOM     11  O   UNL d   1       3.115   0.566  -0.027  0.00  0.00    -0.246 OA
ATOM     12  O   UNL d   1      -0.244  -2.607  -0.035  0.00  0.00    -0.265 OA
ATOM     13  C   UNL d   1       1.383   2.683   0.019  0.00  0.00     0.163 C 
ATOM     14  C   UNL d   1       2.431  -2.103  -0.006  0.00  0.00     0.164 C 
ATOM     15  C   UNL d   1      -3.090  -1.370   0.166  0.00  0.00     0.176 C 
ENDROOT
BRANCH   9  16
ATOM     16  N   UNL d   1      -3.798   1.486   0.076  0.00  0.00    -0.221 N 
ATOM     17  H   UNL d   1      -4.560   0.819   0.076  0.00  0.00     0.178 HD
BRANCH  16  18
ATOM     18  C   UNL d   1      -4.152   2.806   0.590  0.00  0.00     0.099 C 
ATOM     19  C   UNL d   1      -4.665   2.684   2.027  0.00  0.00     0.026 C 
ATOM     20  C   UNL d   1      -5.928   3.527   2.139  0.00  0.00     0.002 C 
ATOM     21  C   UNL d   1      -6.213   4.109   0.766  0.00  0.00     0.002 C 
ATOM     22  C   UNL d   1      -5.316   3.380  -0.219  0.00  0.00     0.026 C 
ENDBRANCH  16  18
ENDBRANCH   9  16
TORSDOF 2
