REMARK  4 active torsions:
REMARK  status: ('A' for Active; 'I' for Inactive)
REMARK    1  A    between atoms: C_7  and  C_2 
REMARK    2  A    between atoms: C_12  and  N_3 
REMARK    3  A    between atoms: N_18  and  C_4 
REMARK    4  A    between atoms: N_8  and  C_13 
ROOT
ATOM      1  C   UNL d   1      -0.347  -1.088   0.114  0.00  0.00     0.118 A 
ATOM      2  C   UNL d   1       0.961  -0.551  -0.043  0.00  0.00     0.085 A 
ATOM      3  N   UNL d   1      -0.411   1.114  -0.015  0.00  0.00    -0.238 N 
ATOM      4  C   UNL d   1      -1.219  -0.016   0.125  0.00  0.00     0.144 A 
ATOM      5  N   UNL d   1       0.893   0.781  -0.164  0.00  0.00    -0.290 N 
ATOM      6  HN  UNL d   1       1.671   1.419  -0.335  1.00  0.00     0.188 HD
ATOM      7  C   UNL d   1      -0.742  -2.454   0.200  0.00  0.00     0.105 C 
ATOM      8  N   UNL d   1      -1.062  -3.566   0.282  0.00  0.00    -0.191 NA
ENDROOT
BRANCH   2   9
ATOM      9  C   UNL d   1       2.259  -1.259  -0.065  0.00  0.00     0.015 A 
ATOM     10  C   UNL d   1       3.369  -0.839  -0.830  0.00  0.00     0.048 A 
ATOM     11  C   UNL d   1       4.579  -1.551  -0.789  0.00  0.00     0.048 A 
ATOM     12 CL   UNL d   1       3.347   0.525  -1.900  0.00  0.00    -0.083 Cl
ATOM     13  C   UNL d   1       4.694  -2.694  -0.006  0.00  0.00     0.035 A 
ATOM     14  C   UNL d   1       3.618  -3.129   0.754  0.00  0.00     0.025 A 
ATOM     15 CL   UNL d   1       6.172  -3.572   0.022  0.00  0.00    -0.084 Cl
ATOM     16  C   UNL d   1       2.419  -2.409   0.736  0.00  0.00     0.017 A 
ENDBRANCH   2   9
BRANCH   4  17
ATOM     17  N   UNL d   1      -2.581   0.000   0.184  0.00  0.00    -0.383 N 
ATOM     18  H   UNL d   1      -3.108   0.789  -0.192  0.00  0.00     0.157 HD
ATOM     19  H   UNL d   1      -3.111  -0.869   0.100  0.00  0.00     0.157 HD
ENDBRANCH   4  17
BRANCH   3  20
ATOM     20  C   UNL d   1      -0.791   2.486  -0.023  0.00  0.00     0.058 A 
ATOM     21  C   UNL d   1      -1.893   2.932   0.719  0.00  0.00     0.034 A 
ATOM     22  C   UNL d   1      -2.265   4.279   0.683  0.00  0.00     0.038 A 
ATOM     23  C   UNL d   1      -1.536   5.179  -0.104  0.00  0.00     0.103 A 
ATOM     24  C   UNL d   1      -0.422   4.746  -0.836  0.00  0.00     0.038 A 
ATOM     25  C   UNL d   1      -0.039   3.402  -0.777  0.00  0.00     0.034 A 
BRANCH  23  26
ATOM     26  N   UNL d   1      -1.942   6.590  -0.156  0.00  0.00    -0.116 N 
ATOM     27  O   UNL d   1      -1.291   7.352  -0.882  0.00  0.00    -0.532 OA
ATOM     28  O   UNL d   1      -2.920   6.931   0.526  0.00  0.00    -0.532 OA
ENDBRANCH  23  26
ENDBRANCH   3  20
TORSDOF 4
