REMARK  1 active torsions:
REMARK  status: ('A' for Active; 'I' for Inactive)
REMARK    1  A    between atoms: C_7  and  N_1 
ROOT
ATOM      1  N   UNL d   1       0.622   1.068   0.098  0.00  0.00    -0.224 N 
ATOM      2  C   UNL d   1       1.137  -0.233  -0.027  0.00  0.00     0.248 A 
ATOM      3  N   UNL d   1      -0.761   1.113   0.159  0.00  0.00    -0.299 N 
ATOM      4  HN  UNL d   1      -1.343   1.946   0.255  1.00  0.00     0.187 HD
ATOM      5  C   UNL d   1      -0.070  -1.120  -0.014  0.00  0.00     0.158 A 
ATOM      6  C   UNL d   1      -1.169  -0.114   0.071  0.00  0.00     0.009 A 
ATOM      7  O   UNL d   1       2.286  -0.634  -0.121  0.00  0.00    -0.271 OA
ATOM      8  C   UNL d   1      -2.602  -0.519   0.061  0.00  0.00     0.065 C 
ENDROOT
BRANCH   1   9
ATOM      9  C   UNL d   1       1.340   2.290   0.112  0.00  0.00     0.060 A 
ATOM     10  C   UNL d   1       2.724   2.336  -0.115  0.00  0.00     0.034 A 
ATOM     11  C   UNL d   1       3.411   3.556  -0.126  0.00  0.00     0.044 A 
ATOM     12  C   UNL d   1       2.720   4.737   0.104  0.00  0.00     0.116 A 
ATOM     13  C   UNL d   1       1.354   4.722   0.346  0.00  0.00     0.044 A 
ATOM     14  F   UNL d   1       3.378   5.903   0.089  0.00  0.00    -0.206 F 
ATOM     15  C   UNL d   1       0.667   3.504   0.346  0.00  0.00     0.034 A 
ENDBRANCH   1   9
TORSDOF 1
