REMARK  5 active torsions:
REMARK  status: ('A' for Active; 'I' for Inactive)
REMARK    1  A    between atoms: N_2  and  C_1 
REMARK    2  A    between atoms: N_3  and  C_1 
REMARK    3  A    between atoms: C_12  and  N_3 
REMARK    4  A    between atoms: C_5  and  C_8 
REMARK    5  A    between atoms: O_19  and  C_9 
ROOT
ATOM      1  N   UNL d   1      -0.136   0.161  -0.890  0.00  0.00    -0.358 N 
ATOM      2  C   UNL d   1       0.455   0.506  -2.182  0.00  0.00     0.126 C 
ATOM      3  C   UNL d   1      -1.053   1.173  -0.378  0.00  0.00     0.126 C 
ATOM      4  C   UNL d   1      -1.689   1.780  -2.820  0.00  0.00     0.024 C 
ATOM      5  C   UNL d   1      -2.170   1.490  -1.378  0.00  0.00     0.029 C 
ATOM      6  C   UNL d   1      -0.614   0.756  -3.243  0.00  0.00     0.029 C 
ENDROOT
BRANCH   1   7
ATOM      7  C   UNL d   1       0.702  -0.477   0.011  0.00  0.00     0.174 C 
ATOM      8  S   UNL d   1       1.831   0.305   0.977  0.00  0.00    -0.041 SA
BRANCH   7   9
ATOM      9  N   UNL d   1       0.644  -1.844   0.080  0.00  0.00    -0.333 N 
ATOM     10  H   UNL d   1       1.408  -2.235   0.619  0.00  0.00     0.168 HD
BRANCH   9  11
ATOM     11  C   UNL d   1      -0.424  -2.731  -0.180  0.00  0.00     0.034 A 
ATOM     12  C   UNL d   1      -1.679  -2.335  -0.640  0.00  0.00     0.032 A 
ATOM     13  C   UNL d   1      -2.745  -3.236  -0.697  0.00  0.00     0.044 A 
ATOM     14  C   UNL d   1      -2.550  -4.548  -0.309  0.00  0.00     0.116 A 
ATOM     15  C   UNL d   1      -1.299  -4.986   0.101  0.00  0.00     0.044 A 
ATOM     16  F   UNL d   1      -3.583  -5.401  -0.322  0.00  0.00    -0.206 F 
ATOM     17  C   UNL d   1      -0.235  -4.078   0.165  0.00  0.00     0.032 A 
ENDBRANCH   9  11
ENDBRANCH   7   9
ENDBRANCH   1   7
BRANCH   4  18
ATOM     18  C   UNL d   1      -1.320   3.244  -3.117  0.00  0.00    -0.021 A 
ATOM     19  C   UNL d   1      -1.456   3.786  -4.412  0.00  0.00     0.074 A 
ATOM     20  C   UNL d   1      -1.111   5.129  -4.653  0.00  0.00     0.037 A 
ATOM     21  C   UNL d   1      -0.712   5.961  -3.615  0.00  0.00     0.003 A 
ATOM     22  C   UNL d   1      -0.624   5.454  -2.329  0.00  0.00     0.001 A 
ATOM     23  C   UNL d   1      -0.912   4.107  -2.089  0.00  0.00     0.010 A 
BRANCH  19  24
ATOM     24  O   UNL d   1      -1.938   2.965  -5.405  0.00  0.00    -0.355 OA
ATOM     25  C   UNL d   1      -2.565   3.636  -6.501  0.00  0.00     0.210 C 
ENDBRANCH  19  24
ENDBRANCH   4  18
TORSDOF 5
