REMARK  4 active torsions:
REMARK  status: ('A' for Active; 'I' for Inactive)
REMARK    1  A    between atoms: S_10  and  C_3 
REMARK    2  A    between atoms: C_8  and  C_7 
REMARK    3  A    between atoms: C_12  and  C_8 
REMARK    4  A    between atoms: C_9  and  S_10 
ROOT
ATOM      1  S   UNL d   1      -4.119   0.176  -0.111  0.00  0.00    -0.058 SA
ENDROOT
BRANCH   1   2
ATOM      2  C   UNL d   1      -4.598  -1.487  -0.027  0.00  0.00     0.057 C 
ATOM      3  C   UNL d   1      -5.902  -1.778   0.086  0.00  0.00     0.063 C 
BRANCH   3   4
ATOM      4  C   UNL d   1      -6.374  -3.184   0.174  0.00  0.00     0.182 C 
ATOM      5  O   UNL d   1      -5.690  -4.123  -0.213  0.00  0.00    -0.288 OA
BRANCH   4   6
ATOM      6  C   UNL d   1      -7.744  -3.403   0.717  0.00  0.00     0.014 A 
ATOM      7  C   UNL d   1      -8.485  -4.499   0.258  0.00  0.00     0.015 A 
ATOM      8  C   UNL d   1      -9.771  -4.732   0.754  0.00  0.00     0.001 A 
ATOM      9  C   UNL d   1     -10.315  -3.881   1.717  0.00  0.00     0.000 A 
ATOM     10  C   UNL d   1      -9.575  -2.799   2.191  0.00  0.00     0.001 A 
ATOM     11  C   UNL d   1      -8.291  -2.561   1.696  0.00  0.00     0.015 A 
ENDBRANCH   4   6
ENDBRANCH   3   4
ENDBRANCH   1   2
BRANCH   1  12
ATOM     12  C   UNL d   1      -2.378   0.061  -0.098  0.00  0.00     0.192 A 
ATOM     13  N   UNL d   1      -1.631   1.152  -0.114  0.00  0.00    -0.328 N 
ATOM     14  C   UNL d   1      -0.347   0.679  -0.115  0.00  0.00     0.068 A 
ATOM     15  HN  UNL d   1      -1.941   2.124  -0.122  1.00  0.00     0.168 HD
ATOM     16  C   UNL d   1      -0.358  -0.705  -0.094  0.00  0.00     0.105 A 
ATOM     17  C   UNL d   1       0.879   1.354  -0.137  0.00  0.00     0.032 A 
ATOM     18  C   UNL d   1       0.782  -1.499  -0.095  0.00  0.00     0.040 A 
ATOM     19  O   UNL d   1      -1.662  -1.112  -0.079  0.00  0.00    -0.285 OA
ATOM     20  C   UNL d   1       2.005  -0.811  -0.119  0.00  0.00     0.003 A 
ATOM     21  C   UNL d   1       2.054   0.589  -0.140  0.00  0.00     0.002 A 
ENDBRANCH   1  12
TORSDOF 4
