REMARK  3 active torsions:
REMARK  status: ('A' for Active; 'I' for Inactive)
REMARK    1  A    between atoms: C_9  and  N_1 
REMARK    2  A    between atoms: C_8  and  C_2 
REMARK    3  A    between atoms: C_10  and  C_9 
ROOT
ATOM      1  N   UNL d   1       0.909  -0.698  -0.092  0.00  0.00    -0.304 N 
ATOM      2  C   UNL d   1       0.912   0.671  -0.174  0.00  0.00     0.135 A 
ATOM      3  N   UNL d   1      -0.282   1.202  -0.201  0.00  0.00    -0.282 N 
ATOM      4  HN  UNL d   1      -0.523   2.191  -0.253  1.00  0.00     0.188 HD
ATOM      5  C   UNL d   1      -0.424  -1.044  -0.050  0.00  0.00     0.194 A 
ATOM      6  N   UNL d   1      -1.132   0.142  -0.145  0.00  0.00    -0.274 N 
ATOM      7  S   UNL d   1      -1.154  -2.525   0.103  0.00  0.00    -0.039 SA
ATOM      8  H   UNL d   1      -2.137   0.255  -0.116  0.00  0.00     0.189 HD
ENDROOT
BRANCH   2   9
ATOM      9  C   UNL d   1       2.129   1.513  -0.184  0.00  0.00     0.009 A 
ATOM     10  C   UNL d   1       3.283   1.179  -0.898  0.00  0.00     0.015 A 
ATOM     11  C   UNL d   1       4.393   2.029  -0.881  0.00  0.00     0.001 A 
ATOM     12  C   UNL d   1       4.345   3.231  -0.178  0.00  0.00     0.000 A 
ATOM     13  C   UNL d   1       3.186   3.590   0.506  0.00  0.00     0.001 A 
ATOM     14  C   UNL d   1       2.081   2.734   0.502  0.00  0.00     0.015 A 
ENDBRANCH   2   9
BRANCH   1  15
ATOM     15  C   UNL d   1       2.025  -1.617   0.103  0.00  0.00     0.160 C 
BRANCH  15  16
ATOM     16  C   UNL d   1       2.517  -2.223  -1.187  0.00  0.00    -0.017 C 
ATOM     17  C   UNL d   1       1.966  -2.150  -2.408  0.00  0.00     0.008 C 
ENDBRANCH  15  16
ENDBRANCH   1  15
TORSDOF 3
