REMARK  4 active torsions:
REMARK  status: ('A' for Active; 'I' for Inactive)
REMARK    1  A    between atoms: C_5  and  C_1 
REMARK    2  A    between atoms: O_12  and  C_2 
REMARK    3  A    between atoms: C_9  and  N_3 
REMARK    4  A    between atoms: C_8  and  C_9 
ROOT
ATOM      1  N   UNL d   1       3.758   2.527  -0.050  0.00  0.00    -0.388 N 
ATOM      2  HN  UNL d   1       4.764   2.695  -0.075  1.00  0.00     0.159 HD
ATOM      3  C   UNL d   1       3.289   1.321   0.014  0.00  0.00     0.014 C 
ATOM      4  C   UNL d   1       1.812   0.958   0.005  0.00  0.00     0.068 C 
ENDROOT
BRANCH   3   5
ATOM      5  C   UNL d   1       4.265   0.183   0.080  0.00  0.00     0.019 A 
ATOM      6  C   UNL d   1       5.559   0.314  -0.453  0.00  0.00     0.079 A 
ATOM      7  C   UNL d   1       6.463  -0.746  -0.413  0.00  0.00     0.061 A 
ATOM      8  C   UNL d   1       6.090  -1.946   0.186  0.00  0.00     0.036 A 
ATOM      9  C   UNL d   1       4.816  -2.090   0.740  0.00  0.00     0.025 A 
ATOM     10 CL   UNL d   1       7.200  -3.256   0.260  0.00  0.00    -0.084 Cl
ATOM     11  C   UNL d   1       3.906  -1.031   0.682  0.00  0.00     0.018 A 
BRANCH   6  12
ATOM     12  O   UNL d   1       6.003   1.470  -1.038  0.00  0.00    -0.360 OA
ATOM     13  H   UNL d   1       5.336   2.168  -0.843  0.00  0.00     0.217 HD
ENDBRANCH   6  12
ENDBRANCH   3   5
BRANCH   1  14
ATOM     14  C   UNL d   1       2.807   3.651  -0.085  0.00  0.00     0.160 C 
BRANCH  14  15
ATOM     15  C   UNL d   1       3.476   5.007  -0.012  0.00  0.00    -0.019 A 
ATOM     16  C   UNL d   1       2.885   6.157  -0.567  0.00  0.00     0.042 A 
ATOM     17 CL   UNL d   1       1.366   6.101  -1.396  0.00  0.00    -0.084 Cl
ATOM     18  C   UNL d   1       3.500   7.407  -0.450  0.00  0.00     0.024 A 
ATOM     19  C   UNL d   1       4.702   7.535   0.244  0.00  0.00     0.002 A 
ATOM     20  C   UNL d   1       5.285   6.415   0.828  0.00  0.00     0.001 A 
ATOM     21  C   UNL d   1       4.675   5.164   0.706  0.00  0.00     0.010 A 
ENDBRANCH  14  15
ENDBRANCH   1  14
TORSDOF 4
