REMARK  4 active torsions:
REMARK  status: ('A' for Active; 'I' for Inactive)
REMARK    1  A    between atoms: C_7  and  N_1 
REMARK    2  A    between atoms: C_9  and  C_2 
REMARK    3  A    between atoms: C_10  and  C_7 
REMARK    4  A    between atoms: C_11  and  C_9 
ROOT
ATOM      1  N   UNL d   1       0.781  -0.669   0.193  0.00  0.00    -0.307 N 
ATOM      2  C   UNL d   1       0.876   0.679   0.090  0.00  0.00     0.104 A 
ATOM      3  C   UNL d   1      -0.569  -0.927   0.227  0.00  0.00     0.194 A 
ATOM      4  N   UNL d   1      -0.271   1.300   0.051  0.00  0.00    -0.286 N 
ATOM      5  HN  UNL d   1      -0.437   2.303  -0.025  1.00  0.00     0.188 HD
ATOM      6  N   UNL d   1      -1.196   0.304   0.136  0.00  0.00    -0.275 N 
ATOM      7  S   UNL d   1      -1.388  -2.362   0.354  0.00  0.00    -0.039 SA
ATOM      8  H   UNL d   1      -2.193   0.482   0.123  0.00  0.00     0.189 HD
ENDROOT
BRANCH   1   9
ATOM      9  C   UNL d   1       1.857  -1.653   0.138  0.00  0.00     0.171 C 
BRANCH   9  10
ATOM     10  C   UNL d   1       2.537  -1.954   1.458  0.00  0.00    -0.040 A 
ATOM     11  C   UNL d   1       1.867  -1.913   2.689  0.00  0.00     0.009 A 
ATOM     12  C   UNL d   1       2.518  -2.284   3.870  0.00  0.00     0.001 A 
ATOM     13  C   UNL d   1       3.843  -2.711   3.837  0.00  0.00     0.000 A 
ATOM     14  C   UNL d   1       4.519  -2.771   2.622  0.00  0.00     0.001 A 
ATOM     15  C   UNL d   1       3.871  -2.401   1.443  0.00  0.00     0.009 A 
ENDBRANCH   9  10
ENDBRANCH   1   9
BRANCH   2  16
ATOM     16  C   UNL d   1       2.187   1.422   0.050  0.00  0.00     0.116 C 
BRANCH  16  17
ATOM     17  C   UNL d   1       2.780   1.575  -1.333  0.00  0.00    -0.051 A 
ATOM     18  C   UNL d   1       2.059   2.181  -2.371  0.00  0.00     0.007 A 
ATOM     19  C   UNL d   1       2.636   2.353  -3.632  0.00  0.00     0.001 A 
ATOM     20  C   UNL d   1       3.943   1.931  -3.867  0.00  0.00     0.000 A 
ATOM     21  C   UNL d   1       4.677   1.344  -2.838  0.00  0.00     0.001 A 
ATOM     22  C   UNL d   1       4.102   1.173  -1.578  0.00  0.00     0.007 A 
ENDBRANCH  16  17
ENDBRANCH   2  16
TORSDOF 4
