REMARK  8 active torsions:
REMARK  status: ('A' for Active; 'I' for Inactive)
REMARK    1  A    between atoms: N_10  and  C_1 
REMARK    2  A    between atoms: C_12  and  C_2 
REMARK    3  A    between atoms: C_17  and  N_3 
REMARK    4  A    between atoms: C_6  and  S_16 
REMARK       I    between atoms: C_15  and  N_10 
REMARK    5  A    between atoms: O_21  and  C_12 
REMARK    6  A    between atoms: C_20  and  C_15 
REMARK    7  A    between atoms: S_16  and  C_20 
REMARK    8  A    between atoms: C_26  and  O_21 
ROOT
ATOM      1  C   UNL d   1       0.996  -0.920  -0.014  0.00  0.00     0.147 A 
ATOM      2  C   UNL d   1      -0.329  -1.298   0.110  0.00  0.00     0.102 A 
ATOM      3  N   UNL d   1       1.020   0.472   0.041  0.00  0.00    -0.239 N 
ATOM      4  N   UNL d   1      -0.231   0.976   0.222  0.00  0.00    -0.302 N 
ATOM      5  HN  UNL d   1      -0.498   1.955   0.324  1.00  0.00     0.186 HD
ATOM      6  C   UNL d   1      -1.027  -0.087   0.238  0.00  0.00     0.129 A 
ENDROOT
BRANCH   1   7
ATOM      7  N   UNL d   1       2.077  -1.801  -0.049  0.00  0.00    -0.310 N 
ATOM      8  C   UNL d   1       2.411  -2.529   1.151  0.00  0.00     0.233 C 
ATOM      9  O   UNL d   1       1.841  -2.252   2.198  0.00  0.00    -0.272 OA
ATOM     10  H   UNL d   1       2.412  -2.153  -0.946  0.00  0.00     0.170 HD
BRANCH   8  11
ATOM     11  C   UNL d   1       3.487  -3.574   1.014  0.00  0.00     0.186 C 
BRANCH  11  12
ATOM     12  S   UNL d   1       2.762  -5.207   0.775  0.00  0.00    -0.077 SA
BRANCH  12  13
ATOM     13  C   UNL d   1       2.492  -5.211  -0.944  0.00  0.00     0.188 A 
ATOM     14  N   UNL d   1       2.508  -4.121  -1.700  0.00  0.00    -0.329 N 
ATOM     15  C   UNL d   1       2.473  -4.634  -2.982  0.00  0.00     0.068 A 
ATOM     16  HN  UNL d   1       2.539  -3.144  -1.406  1.00  0.00     0.168 HD
ATOM     17  C   UNL d   1       2.553  -4.007  -4.233  0.00  0.00     0.032 A 
ATOM     18  C   UNL d   1       2.413  -6.017  -2.939  0.00  0.00     0.105 A 
ATOM     19  C   UNL d   1       2.695  -4.822  -5.369  0.00  0.00     0.002 A 
ATOM     20  C   UNL d   1       2.653  -6.220  -5.273  0.00  0.00     0.003 A 
ATOM     21  C   UNL d   1       2.458  -6.857  -4.044  0.00  0.00     0.040 A 
ATOM     22  O   UNL d   1       2.374  -6.387  -1.632  0.00  0.00    -0.285 OA
ENDBRANCH  12  13
ENDBRANCH  11  12
ENDBRANCH   8  11
ENDBRANCH   1   7
BRANCH   2  23
ATOM     23  C   UNL d   1      -0.864  -2.634   0.101  0.00  0.00     0.298 C 
ATOM     24  O   UNL d   1      -0.156  -3.631  -0.013  0.00  0.00    -0.259 OA
BRANCH  23  25
ATOM     25  O   UNL d   1      -2.220  -2.648   0.170  0.00  0.00    -0.318 OA
BRANCH  25  26
ATOM     26  C   UNL d   1      -2.842  -3.917  -0.085  0.00  0.00     0.174 C 
ATOM     27  C   UNL d   1      -2.963  -4.110  -1.586  0.00  0.00     0.034 C 
ENDBRANCH  25  26
ENDBRANCH  23  25
ENDBRANCH   2  23
BRANCH   3  28
ATOM     28  C   UNL d   1       2.129   1.358  -0.049  0.00  0.00     0.058 A 
ATOM     29  C   UNL d   1       3.338   0.974  -0.641  0.00  0.00     0.031 A 
ATOM     30  C   UNL d   1       4.399   1.883  -0.708  0.00  0.00     0.002 A 
ATOM     31  C   UNL d   1       4.266   3.165  -0.174  0.00  0.00     0.000 A 
ATOM     32  C   UNL d   1       3.064   3.553   0.411  0.00  0.00     0.002 A 
ATOM     33  C   UNL d   1       1.992   2.660   0.458  0.00  0.00     0.031 A 
ENDBRANCH   3  28
TORSDOF 8
