REMARK  8 active torsions:
REMARK  status: ('A' for Active; 'I' for Inactive)
REMARK    1  A    between atoms: N_2  and  C_1 
REMARK    2  A    between atoms: N_10  and  C_1 
REMARK       I    between atoms: C_9  and  N_2 
REMARK    3  A    between atoms: C_5  and  O_12 
REMARK    4  A    between atoms: C_14  and  C_9 
REMARK    5  A    between atoms: C_15  and  N_10 
REMARK    6  A    between atoms: O_12  and  C_14 
REMARK    7  A    between atoms: O_24  and  C_19 
REMARK    8  A    between atoms: C_25  and  O_24 
ROOT
ATOM      1  N   UNL d   1       0.405  -0.127  -1.285  0.00  0.00    -0.302 N 
ATOM      2  C   UNL d   1      -0.619   0.644  -1.833  0.00  0.00     0.248 C 
ATOM      3  O   UNL d   1      -1.229   1.535  -1.245  0.00  0.00    -0.271 OA
ATOM      4  H   UNL d   1       1.092  -0.451  -1.952  0.00  0.00     0.171 HD
ENDROOT
BRANCH   1   5
ATOM      5  C   UNL d   1       0.915   0.022  -0.024  0.00  0.00     0.178 C 
ATOM      6  S   UNL d   1       2.568  -0.083   0.192  0.00  0.00    -0.040 SA
BRANCH   5   7
ATOM      7  N   UNL d   1       0.108   0.298   1.033  0.00  0.00    -0.333 N 
ATOM      8  H   UNL d   1       0.543   0.808   1.793  0.00  0.00     0.168 HD
BRANCH   7   9
ATOM      9  C   UNL d   1      -1.238  -0.075   1.220  0.00  0.00     0.034 A 
ATOM     10  C   UNL d   1      -1.789  -1.202   0.596  0.00  0.00     0.032 A 
ATOM     11  C   UNL d   1      -3.145  -1.503   0.757  0.00  0.00     0.039 A 
ATOM     12  C   UNL d   1      -3.955  -0.670   1.524  0.00  0.00     0.068 A 
ATOM     13  C   UNL d   1      -3.387   0.404   2.211  0.00  0.00     0.039 A 
ATOM     14  C   UNL d   1      -2.027   0.693   2.072  0.00  0.00     0.032 A 
BRANCH  12  15
ATOM     15  O   UNL d   1      -5.304  -0.823   1.684  0.00  0.00    -0.352 OA
BRANCH  15  16
ATOM     16  C   UNL d   1      -5.986  -1.454   0.598  0.00  0.00     0.171 C 
ATOM     17  C   UNL d   1      -7.415  -0.950   0.586  0.00  0.00     0.034 C 
ENDBRANCH  15  16
ENDBRANCH  12  15
ENDBRANCH   7   9
ENDBRANCH   5   7
ENDBRANCH   1   5
BRANCH   2  18
ATOM     18  C   UNL d   1      -0.916   0.336  -3.297  0.00  0.00     0.278 C 
BRANCH  18  19
ATOM     19  O   UNL d   1      -0.283   1.341  -4.079  0.00  0.00    -0.340 OA
BRANCH  19  20
ATOM     20  C   UNL d   1      -0.421   1.335  -5.441  0.00  0.00     0.092 A 
ATOM     21  C   UNL d   1       0.718   1.842  -6.092  0.00  0.00     0.064 A 
ATOM     22  C   UNL d   1       0.763   1.983  -7.484  0.00  0.00     0.058 A 
ATOM     23 CL   UNL d   1       2.204   2.623  -8.188  0.00  0.00    -0.082 Cl
ATOM     24  C   UNL d   1      -0.342   1.618  -8.249  0.00  0.00     0.057 A 
ATOM     25  C   UNL d   1      -1.485   1.128  -7.617  0.00  0.00     0.052 A 
ATOM     26 CL   UNL d   1      -0.378   1.765  -9.970  0.00  0.00    -0.082 Cl
ATOM     27  C   UNL d   1      -1.536   0.994  -6.220  0.00  0.00     0.069 A 
ATOM     28 CL   UNL d   1      -3.063   0.484  -5.601  0.00  0.00    -0.081 Cl
ENDBRANCH  19  20
ENDBRANCH  18  19
ENDBRANCH   2  18
TORSDOF 8
