REMARK  5 active torsions:
REMARK  status: ('A' for Active; 'I' for Inactive)
REMARK    1  A    between atoms: C_7  and  C_3 
REMARK    2  A    between atoms: C_11  and  N_4 
REMARK       I    between atoms: N_10  and  C_7 
REMARK    3  A    between atoms: C_8  and  C_13 
REMARK       I    between atoms: C_9  and  N_12 
REMARK       I    between atoms: N_14  and  C_9 
REMARK    4  A    between atoms: N_12  and  N_10 
REMARK    5  A    between atoms: C_22  and  N_14 
ROOT
ATOM      1  C   UNL d   1       1.056  -5.517   1.313  0.00  0.00     0.339 C 
ATOM      2  N   UNL d   1       0.004  -4.704   0.927  0.00  0.00    -0.248 N 
ATOM      3  N   UNL d   1       0.665  -6.820   1.552  0.00  0.00    -0.308 N 
ATOM      4  O   UNL d   1       2.182  -5.051   1.464  0.00  0.00    -0.245 OA
ATOM      5  H   UNL d   1      -0.833  -5.072   0.487  0.00  0.00     0.192 HD
ATOM      6  H   UNL d   1      -0.278  -7.066   1.296  0.00  0.00     0.170 HD
ENDROOT
BRANCH   2   7
ATOM      7  N   UNL d   1       0.295  -3.351   0.642  0.00  0.00    -0.261 N 
ATOM      8  C   UNL d   1      -0.724  -2.506   0.252  0.00  0.00     0.288 C 
ATOM      9  O   UNL d   1      -1.860  -2.922   0.016  0.00  0.00    -0.264 OA
ATOM     10  H   UNL d   1       1.207  -2.980   0.916  0.00  0.00     0.190 HD
BRANCH   8  11
ATOM     11  C   UNL d   1      -0.357  -1.083   0.154  0.00  0.00     0.119 A 
ATOM     12  N   UNL d   1       0.893  -0.616   0.328  0.00  0.00    -0.292 N 
ATOM     13  N   UNL d   1       0.804   0.735   0.152  0.00  0.00    -0.287 N 
ATOM     14  HN  UNL d   1       1.730  -1.156   0.547  1.00  0.00     0.187 HD
ATOM     15  C   UNL d   1      -0.500   1.138  -0.075  0.00  0.00     0.028 A 
ATOM     16  C   UNL d   1      -1.011   2.523  -0.234  0.00  0.00     0.070 C 
ATOM     17  C   UNL d   1      -1.246  -0.022  -0.112  0.00  0.00     0.063 A 
BRANCH  13  18
ATOM     18  C   UNL d   1       2.036   1.553   0.251  0.00  0.00     0.043 C 
ATOM     19  C   UNL d   1       3.296   0.669   0.451  0.00  0.00     0.039 C 
ATOM     20  C   UNL d   1       2.280   2.360  -1.044  0.00  0.00     0.039 C 
ATOM     21  C   UNL d   1       1.963   2.497   1.468  0.00  0.00     0.039 C 
ENDBRANCH  13  18
ENDBRANCH   8  11
ENDBRANCH   2   7
BRANCH   3  22
ATOM     22  C   UNL d   1       1.447  -7.834   2.161  0.00  0.00     0.036 A 
ATOM     23  C   UNL d   1       2.709  -7.604   2.707  0.00  0.00     0.030 A 
ATOM     24  C   UNL d   1       3.396  -8.611   3.394  0.00  0.00     0.018 A 
ATOM     25  C   UNL d   1       2.833  -9.883   3.543  0.00  0.00     0.048 A 
ATOM     26  C   UNL d   1       1.589 -10.137   2.952  0.00  0.00     0.018 A 
ATOM     27  C   UNL d   1       0.900  -9.120   2.271  0.00  0.00     0.030 A 
BRANCH  25  28
ATOM     28  C   UNL d   1       3.538 -10.945   4.354  0.00  0.00     0.417 C 
ATOM     29  F   UNL d   1       4.713 -10.525   4.901  0.00  0.00    -0.166 F 
ATOM     30  F   UNL d   1       2.782 -11.385   5.399  0.00  0.00    -0.166 F 
ATOM     31  F   UNL d   1       3.843 -12.053   3.622  0.00  0.00    -0.166 F 
ENDBRANCH  25  28
ENDBRANCH   3  22
TORSDOF 5
