REMARK  3 active torsions:
REMARK  status: ('A' for Active; 'I' for Inactive)
REMARK    1  A    between atoms: C_2  and  C_1 
REMARK       I    between atoms: N_5  and  C_1 
REMARK    2  A    between atoms: C_3  and  C_4 
REMARK    3  A    between atoms: C_6  and  N_5 
ROOT
ATOM      1  C   UNL d   1       0.002   0.788   1.112  0.00  0.00     0.062 A 
ATOM      2  C   UNL d   1       0.563   2.052   1.337  0.00  0.00     0.066 A 
ATOM      3  N   UNL d   1      -2.015   1.435   2.287  0.00  0.00    -0.374 N 
ATOM      4  HN  UNL d   1      -2.952   1.212   2.624  1.00  0.00     0.164 HD
ATOM      5  C   UNL d   1      -1.255   0.518   1.642  0.00  0.00     0.105 A 
ATOM      6  C   UNL d   1      -0.207   3.004   2.029  0.00  0.00     0.034 A 
ATOM      7  C   UNL d   1      -1.475   2.658   2.464  0.00  0.00     0.088 A 
ENDROOT
BRANCH   1   8
ATOM      8  C   UNL d   1       0.746  -0.290   0.435  0.00  0.00     0.260 C 
ATOM      9  N   UNL d   1       0.250  -0.832  -0.774  0.00  0.00    -0.318 N 
ATOM     10  C   UNL d   1      -1.010  -0.356  -1.369  0.00  0.00     0.159 C 
ATOM     11  O   UNL d   1       1.773  -0.599   1.031  0.00  0.00    -0.267 OA
BRANCH   9  12
ATOM     12  C   UNL d   1       0.958  -1.869  -1.516  0.00  0.00     0.037 A 
ATOM     13  C   UNL d   1       2.209  -2.371  -1.122  0.00  0.00     0.031 A 
ATOM     14  C   UNL d   1       2.894  -3.339  -1.875  0.00  0.00     0.026 A 
ATOM     15  C   UNL d   1       2.342  -3.830  -3.048  0.00  0.00     0.034 A 
ATOM     16  C   UNL d   1       1.101  -3.372  -3.465  0.00  0.00     0.026 A 
ATOM     17 CL   UNL d   1       3.188  -4.997  -3.983  0.00  0.00    -0.084 Cl
ATOM     18  C   UNL d   1       0.418  -2.412  -2.702  0.00  0.00     0.031 A 
ENDBRANCH   9  12
ENDBRANCH   1   8
BRANCH   2  19
ATOM     19  C   UNL d   1       1.967   2.403   0.924  0.00  0.00     0.418 C 
ATOM     20  F   UNL d   1       2.395   1.788  -0.208  0.00  0.00    -0.166 F 
ATOM     21  F   UNL d   1       2.093   3.740   0.662  0.00  0.00    -0.166 F 
ATOM     22  F   UNL d   1       2.881   2.143   1.895  0.00  0.00    -0.166 F 
ENDBRANCH   2  19
TORSDOF 3
