REMARK  6 active torsions:
REMARK  status: ('A' for Active; 'I' for Inactive)
REMARK    1  A    between atoms: N_4  and  S_1 
REMARK    2  A    between atoms: C_12  and  S_1 
REMARK    3  A    between atoms: C_5  and  C_2 
REMARK    4  A    between atoms: C_3  and  N_7 
REMARK    5  A    between atoms: N_7  and  N_4 
REMARK    6  A    between atoms: O_14  and  C_5 
ROOT
ATOM      1  N   UNL d   1       0.609  -0.545  -1.351  0.00  0.00    -0.222 N 
ATOM      2  H   UNL d   1      -0.187  -1.196  -1.283  0.00  0.00     0.200 HD
ENDROOT
BRANCH   1   3
ATOM      3  S   UNL d   1       1.262   0.031   0.099  0.00  0.00     0.276 S 
ATOM      4  O   UNL d   1       0.842   1.407   0.257  0.00  0.00    -0.199 OA
ATOM      5  O   UNL d   1       2.665  -0.328   0.131  0.00  0.00    -0.199 OA
BRANCH   3   6
ATOM      6  C   UNL d   1       0.394  -0.964   1.283  0.00  0.00     0.081 A 
ATOM      7  C   UNL d   1       0.950  -2.175   1.707  0.00  0.00     0.025 A 
ATOM      8  C   UNL d   1       0.283  -2.937   2.665  0.00  0.00     0.002 A 
ATOM      9  C   UNL d   1      -0.928  -2.487   3.196  0.00  0.00     0.000 A 
ATOM     10  C   UNL d   1      -1.479  -1.278   2.768  0.00  0.00     0.002 A 
ATOM     11  C   UNL d   1      -0.818  -0.509   1.809  0.00  0.00     0.025 A 
ENDBRANCH   3   6
ENDBRANCH   1   3
BRANCH   1  12
ATOM     12  N   UNL d   1       1.053  -0.023  -2.634  0.00  0.00    -0.290 N 
ATOM     13  H   UNL d   1       1.774   0.701  -2.555  0.00  0.00     0.187 HD
BRANCH  12  14
ATOM     14  C   UNL d   1       0.566  -0.402  -3.843  0.00  0.00     0.072 A 
ATOM     15  C   UNL d   1      -0.282  -1.462  -4.137  0.00  0.00     0.108 A 
ATOM     16  S   UNL d   1      -0.580  -1.549  -5.840  0.00  0.00    -0.094 SA
ATOM     17  C   UNL d   1       0.414  -0.208  -6.167  0.00  0.00     0.053 A 
ATOM     18  C   UNL d   1       0.963   0.311  -5.019  0.00  0.00     0.039 A 
BRANCH  15  19
ATOM     19  C   UNL d   1      -0.920  -2.433  -3.260  0.00  0.00     0.302 C 
ATOM     20  O   UNL d   1      -1.201  -2.262  -2.077  0.00  0.00    -0.259 OA
BRANCH  19  21
ATOM     21  O   UNL d   1      -1.150  -3.603  -3.928  0.00  0.00    -0.322 OA
ATOM     22  C   UNL d   1      -1.807  -4.621  -3.173  0.00  0.00     0.213 C 
ENDBRANCH  19  21
ENDBRANCH  15  19
ENDBRANCH  12  14
ENDBRANCH   1  12
TORSDOF 6
