REMARK  4 active torsions:
REMARK  status: ('A' for Active; 'I' for Inactive)
REMARK    1  A    between atoms: C_4  and  C_1 
REMARK    2  A    between atoms: N_7  and  N_2 
REMARK       I    between atoms: N_13  and  C_4 
REMARK    3  A    between atoms: C_14  and  N_7 
REMARK    4  A    between atoms: C_8  and  C_9 
ROOT
ATOM      1  C   UNL d   1       3.104  -1.342   0.501  0.00  0.00     0.192 C 
ATOM      2  N   UNL d   1       2.338  -1.855   1.419  0.00  0.00    -0.303 N 
ATOM      3  HN  UNL d   1       2.733  -2.177   2.302  1.00  0.00     0.182 HD
ATOM      4  C   UNL d   1       4.502  -1.414   0.856  0.00  0.00     0.124 C 
ATOM      5  N   UNL d   1       5.626  -1.470   1.139  0.00  0.00    -0.190 NA
ENDROOT
BRANCH   1   6
ATOM      6  C   UNL d   1       2.655  -0.746  -0.811  0.00  0.00     0.277 C 
ATOM      7  O   UNL d   1       3.287  -0.947  -1.835  0.00  0.00    -0.265 OA
ATOM      8  N   UNL d   1       1.515   0.016  -0.778  0.00  0.00    -0.364 N 
ATOM      9  H   UNL d   1       1.055   0.247   0.097  0.00  0.00     0.159 HD
ATOM     10  H   UNL d   1       1.228   0.487  -1.626  0.00  0.00     0.159 HD
ENDBRANCH   1   6
BRANCH   2  11
ATOM     11  N   UNL d   1       0.992  -1.959   1.181  0.00  0.00    -0.205 NA
ATOM     12  H   UNL d   1       0.668  -1.954   0.210  0.00  0.00     0.153 HD
BRANCH  11  13
ATOM     13  C   UNL d   1       0.324  -2.968   1.916  0.00  0.00     0.027 A 
ATOM     14  C   UNL d   1       0.735  -3.357   3.192  0.00  0.00     0.026 A 
ATOM     15  C   UNL d   1       0.065  -4.375   3.882  0.00  0.00     0.010 A 
ATOM     16  C   UNL d   1      -1.051  -5.028   3.329  0.00  0.00    -0.051 A 
ATOM     17  C   UNL d   1      -1.480  -4.598   2.064  0.00  0.00     0.010 A 
ATOM     18  C   UNL d   1      -0.815  -3.573   1.378  0.00  0.00     0.026 A 
BRANCH  16  19
ATOM     19  C   UNL d   1      -1.748  -6.160   4.104  0.00  0.00    -0.024 C 
ATOM     20  C   UNL d   1      -2.973  -6.749   3.369  0.00  0.00     0.019 C 
ATOM     21  C   UNL d   1      -0.753  -7.317   4.340  0.00  0.00     0.019 C 
ATOM     22  C   UNL d   1      -2.243  -5.634   5.468  0.00  0.00     0.019 C 
ENDBRANCH  16  19
ENDBRANCH  11  13
ENDBRANCH   2  11
TORSDOF 4
