REMARK  6 active torsions:
REMARK  status: ('A' for Active; 'I' for Inactive)
REMARK    1  A    between atoms: C_6  and  C_1 
REMARK    2  A    between atoms: C_8  and  C_7 
REMARK       I    between atoms: N_11  and  C_8 
REMARK    3  A    between atoms: C_16  and  N_11 
REMARK    4  A    between atoms: C_12  and  C_16 
REMARK    5  A    between atoms: C_18  and  C_12 
REMARK    6  A    between atoms: O_15  and  C_18 
ROOT
ATOM      1  C   UNL d   1      -2.457  -1.608  -0.011  0.00  0.00     0.015 A 
ATOM      2  C   UNL d   1      -2.719  -2.492   1.058  0.00  0.00     0.045 A 
ATOM      3  C   UNL d   1      -3.458  -1.460  -0.996  0.00  0.00     0.015 A 
ATOM      4  C   UNL d   1      -3.957  -3.165   1.134  0.00  0.00     0.018 A 
ATOM      5  C   UNL d   1      -4.676  -2.141  -0.918  0.00  0.00     0.001 A 
ATOM      6  C   UNL d   1      -4.928  -2.990   0.150  0.00  0.00     0.001 A 
ENDROOT
BRANCH   2   7
ATOM      7  C   UNL d   1      -1.774  -2.700   2.192  0.00  0.00     0.252 C 
ATOM      8  O   UNL d   1      -1.190  -1.755   2.707  0.00  0.00    -0.268 OA
ATOM      9  N   UNL d   1      -1.632  -4.009   2.621  0.00  0.00    -0.357 N 
ATOM     10  H   UNL d   1      -2.090  -4.754   2.115  0.00  0.00     0.162 HD
BRANCH   9  11
ATOM     11  C   UNL d   1      -0.721  -4.361   3.694  0.00  0.00     0.125 C 
BRANCH  11  12
ATOM     12  C   UNL d   1      -1.280  -4.000   5.071  0.00  0.00     0.046 C 
BRANCH  12  13
ATOM     13  C   UNL d   1      -0.342  -4.423   6.196  0.00  0.00     0.168 C 
BRANCH  13  14
ATOM     14  O   UNL d   1       0.920  -3.783   6.029  0.00  0.00    -0.396 OA
ATOM     15  C   UNL d   1       1.827  -4.108   7.072  0.00  0.00     0.201 C 
ENDBRANCH  13  14
ENDBRANCH  12  13
ENDBRANCH  11  12
ENDBRANCH   9  11
ENDBRANCH   2   7
BRANCH   1  16
ATOM     16  C   UNL d   1      -1.225  -0.830  -0.162  0.00  0.00     0.112 A 
ATOM     17  O   UNL d   1      -1.362   0.365  -0.814  0.00  0.00    -0.237 OA
ATOM     18  N   UNL d   1      -0.156   1.037  -0.834  0.00  0.00    -0.265 N 
ATOM     19  C   UNL d   1       0.704   0.251  -0.180  0.00  0.00     0.031 A 
ATOM     20  HN  UNL d   1       0.038   1.944  -1.258  1.00  0.00     0.194 HD
ATOM     21  C   UNL d   1       0.094  -0.964   0.206  0.00  0.00     0.066 A 
ATOM     22  C   UNL d   1       2.086   0.709   0.078  0.00  0.00     0.070 C 
ENDBRANCH   1  16
TORSDOF 6
