REMARK  6 active torsions:
REMARK  status: ('A' for Active; 'I' for Inactive)
REMARK    1  A    between atoms: C_8  and  C_1 
REMARK    2  A    between atoms: C_7  and  C_2 
REMARK    3  A    between atoms: C_4  and  C_7 
REMARK    4  A    between atoms: C_12  and  C_5 
REMARK    5  A    between atoms: S_17  and  C_9 
REMARK    6  A    between atoms: S_18  and  C_9 
ROOT
ATOM      1  C   UNL d   1      -1.476  -3.277  -0.612  0.00  0.00     0.119 C 
ATOM      2  C   UNL d   1      -1.527  -4.607  -0.921  0.00  0.00     0.061 C 
ATOM      3  C   UNL d   1      -2.621  -2.460  -0.869  0.00  0.00     0.105 C 
ATOM      4  N   UNL d   1      -3.561  -1.816  -1.085  0.00  0.00    -0.191 NA
ENDROOT
BRANCH   1   5
ATOM      5  C   UNL d   1      -0.267  -2.613   0.039  0.00  0.00     0.211 C 
ATOM      6  O   UNL d   1       0.477  -3.299   0.742  0.00  0.00    -0.285 OA
BRANCH   5   7
ATOM      7  C   UNL d   1       0.071  -1.187  -0.109  0.00  0.00     0.058 A 
ATOM      8  S   UNL d   1      -1.052   0.084  -0.124  0.00  0.00    -0.081 SA
ATOM      9  C   UNL d   1       0.144   1.318  -0.083  0.00  0.00     0.100 A 
ATOM     10  C   UNL d   1       1.426   0.774  -0.088  0.00  0.00    -0.003 A 
ATOM     11  C   UNL d   1       1.355  -0.669  -0.087  0.00  0.00     0.036 A 
BRANCH   9  12
ATOM     12  C   UNL d   1      -0.331   2.741  -0.015  0.00  0.00     0.424 C 
ATOM     13  F   UNL d   1      -1.673   2.853   0.187  0.00  0.00    -0.166 F 
ATOM     14  F   UNL d   1       0.259   3.432   0.993  0.00  0.00    -0.166 F 
ATOM     15  F   UNL d   1      -0.076   3.418  -1.166  0.00  0.00    -0.166 F 
ENDBRANCH   9  12
BRANCH  10  16
ATOM     16  C   UNL d   1       2.677   1.552  -0.020  0.00  0.00    -0.025 A 
ATOM     17  C   UNL d   1       3.769   1.053   0.711  0.00  0.00     0.012 A 
ATOM     18  C   UNL d   1       4.984   1.747   0.766  0.00  0.00     0.001 A 
ATOM     19  C   UNL d   1       5.122   2.964   0.108  0.00  0.00     0.000 A 
ATOM     20  C   UNL d   1       4.054   3.474  -0.622  0.00  0.00     0.001 A 
ATOM     21  C   UNL d   1       2.851   2.763  -0.703  0.00  0.00     0.012 A 
ENDBRANCH  10  16
ENDBRANCH   5   7
ENDBRANCH   1   5
BRANCH   2  22
ATOM     22  S   UNL d   1      -3.022  -5.276  -1.628  0.00  0.00    -0.126 SA
ATOM     23  C   UNL d   1      -2.724  -7.027  -1.931  0.00  0.00     0.096 C 
ENDBRANCH   2  22
BRANCH   2  24
ATOM     24  S   UNL d   1      -0.152  -5.691  -0.757  0.00  0.00    -0.126 SA
ATOM     25  C   UNL d   1      -0.432  -6.315   0.922  0.00  0.00     0.096 C 
ENDBRANCH   2  24
TORSDOF 6
