REMARK  10 active torsions:
REMARK  status: ('A' for Active; 'I' for Inactive)
REMARK    1  A    between atoms: N_6  and  C_1 
REMARK    2  A    between atoms: C_10  and  C_2 
REMARK    3  A    between atoms: C_9  and  N_6 
REMARK       I    between atoms: C_8  and  N_7 
REMARK    4  A    between atoms: O_18  and  C_8 
REMARK    5  A    between atoms: N_15  and  C_9 
REMARK    6  A    between atoms: O_19  and  C_10 
REMARK    7  A    between atoms: C_20  and  N_15 
REMARK    8  A    between atoms: C_22  and  O_18 
REMARK    9  A    between atoms: C_23  and  O_19 
REMARK   10  A    between atoms: C_21  and  C_20 
ROOT
ATOM      1  C   UNL d   1       2.118   1.009  -0.160  0.00  0.00     0.093 A 
ATOM      2  C   UNL d   1       1.006   1.844  -0.172  0.00  0.00     0.080 A 
ATOM      3  C   UNL d   1       0.061  -0.299  -0.026  0.00  0.00     0.010 A 
ATOM      4  C   UNL d   1      -0.212   1.061  -0.095  0.00  0.00    -0.023 A 
ATOM      5  S   UNL d   1       1.716  -0.626   0.066  0.00  0.00    -0.074 SA
ATOM      6  N   UNL d   1      -2.246  -0.866  -0.367  0.00  0.00    -0.323 N 
ATOM      7  C   UNL d   1      -3.170  -1.587  -1.092  0.00  0.00     0.363 C 
ATOM      8  C   UNL d   1      -0.938  -1.409  -0.009  0.00  0.00     0.174 C 
ATOM      9  C   UNL d   1      -1.644   1.532  -0.143  0.00  0.00     0.061 C 
ATOM     10  C   UNL d   1      -2.620   0.406   0.252  0.00  0.00     0.133 C 
ATOM     11  O   UNL d   1      -4.321  -1.222  -1.293  0.00  0.00    -0.238 OA
ENDROOT
BRANCH   1  12
ATOM     12  N   UNL d   1       3.452   1.381  -0.163  0.00  0.00    -0.327 N 
ATOM     13  H   UNL d   1       3.632   2.386  -0.149  0.00  0.00     0.169 HD
BRANCH  12  14
ATOM     14  C   UNL d   1       4.549   0.586  -0.462  0.00  0.00     0.172 C 
ATOM     15  S   UNL d   1       4.659  -0.458  -1.769  0.00  0.00    -0.041 SA
BRANCH  14  16
ATOM     16  N   UNL d   1       5.583   0.871   0.414  0.00  0.00    -0.363 N 
ATOM     17  H   UNL d   1       5.304   1.405   1.226  0.00  0.00     0.162 HD
BRANCH  16  18
ATOM     18  C   UNL d   1       6.806   0.102   0.591  0.00  0.00     0.160 C 
BRANCH  18  19
ATOM     19  C   UNL d   1       6.725  -0.755   1.831  0.00  0.00    -0.041 A 
ATOM     20  C   UNL d   1       5.994  -1.953   1.826  0.00  0.00     0.009 A 
ATOM     21  C   UNL d   1       5.918  -2.745   2.973  0.00  0.00     0.001 A 
ATOM     22  C   UNL d   1       6.567  -2.346   4.140  0.00  0.00     0.000 A 
ATOM     23  C   UNL d   1       7.285  -1.152   4.162  0.00  0.00     0.001 A 
ATOM     24  C   UNL d   1       7.361  -0.359   3.016  0.00  0.00     0.009 A 
ENDBRANCH  18  19
ENDBRANCH  16  18
ENDBRANCH  14  16
ENDBRANCH  12  14
ENDBRANCH   1  12
BRANCH   2  25
ATOM     25  C   UNL d   1       1.151   3.303  -0.260  0.00  0.00     0.296 C 
ATOM     26  O   UNL d   1       2.235   3.846  -0.444  0.00  0.00    -0.259 OA
BRANCH  25  27
ATOM     27  O   UNL d   1      -0.014   3.975  -0.046  0.00  0.00    -0.318 OA
BRANCH  27  28
ATOM     28  C   UNL d   1       0.078   5.403   0.073  0.00  0.00     0.174 C 
ATOM     29  C   UNL d   1      -0.943   6.037  -0.849  0.00  0.00     0.034 C 
ENDBRANCH  27  28
ENDBRANCH  25  27
ENDBRANCH   2  25
BRANCH   7  30
ATOM     30  O   UNL d   1      -2.656  -2.761  -1.543  0.00  0.00    -0.304 OA
BRANCH  30  31
ATOM     31  C   UNL d   1      -3.571  -3.669  -2.169  0.00  0.00     0.176 C 
ATOM     32  C   UNL d   1      -4.121  -4.597  -1.104  0.00  0.00     0.034 C 
ENDBRANCH  30  31
ENDBRANCH   7  30
TORSDOF 10
