REMARK  1 active torsions:
REMARK  status: ('A' for Active; 'I' for Inactive)
REMARK    1  A    between atoms: C_7  and  C_3 
ROOT
ATOM      1  C   UNL d   1       1.449  -2.209   0.030  0.00  0.00    -0.001 A 
ATOM      2  C   UNL d   1       2.376  -2.408   1.063  0.00  0.00     0.015 A 
ATOM      3  C   UNL d   1       1.393  -3.159  -1.000  0.00  0.00     0.015 A 
ATOM      4  C   UNL d   1       2.222  -4.286  -0.988  0.00  0.00     0.007 A 
ATOM      5  C   UNL d   1       3.206  -3.535   1.077  0.00  0.00     0.007 A 
ATOM      6  C   UNL d   1       3.129  -4.487   0.056  0.00  0.00    -0.062 A 
ATOM      7  C   UNL d   1       3.997  -5.709   0.101  0.00  0.00     0.048 C 
ENDROOT
BRANCH   1   8
ATOM      8  C   UNL d   1       0.557  -1.057   0.046  0.00  0.00     0.102 A 
ATOM      9  C   UNL d   1       0.350   0.023   0.880  0.00  0.00     0.127 A 
ATOM     10  N   UNL d   1      -0.672   0.807   0.407  0.00  0.00    -0.354 N 
ATOM     11  C   UNL d   1      -1.047   0.184  -0.685  0.00  0.00     0.233 A 
ATOM     12  HN  UNL d   1      -1.050   1.666   0.807  1.00  0.00     0.166 HD
ATOM     13  O   UNL d   1      -0.353  -0.949  -0.976  0.00  0.00    -0.304 OA
ENDBRANCH   1   8
TORSDOF 1
