REMARK  8 active torsions:
REMARK  status: ('A' for Active; 'I' for Inactive)
REMARK    1  A    between atoms: C_6  and  C_1 
REMARK    2  A    between atoms: C_7  and  C_2 
REMARK    3  A    between atoms: O_12  and  C_6 
REMARK    4  A    between atoms: C_11  and  C_7 
REMARK    5  A    between atoms: C_8  and  C_11 
REMARK    6  A    between atoms: O_13  and  C_8 
REMARK    7  A    between atoms: C_16  and  O_12 
REMARK    8  A    between atoms: C_17  and  O_13 
ROOT
ATOM      1  C   UNL d   1      -2.431  -0.191  -0.041  0.00  0.00     0.116 A 
ATOM      2  C   UNL d   1      -1.552  -1.270  -0.034  0.00  0.00    -0.012 A 
ATOM      3  N   UNL d   1      -1.662   0.952   0.006  0.00  0.00    -0.350 N 
ATOM      4  C   UNL d   1      -0.219  -0.737  -0.011  0.00  0.00    -0.001 A 
ATOM      5  C   UNL d   1      -0.324   0.651   0.010  0.00  0.00     0.043 A 
ATOM      6  C   UNL d   1       1.067  -1.312  -0.024  0.00  0.00     0.014 A 
ATOM      7  C   UNL d   1       0.792   1.497   0.017  0.00  0.00     0.030 A 
ATOM      8  C   UNL d   1       2.194  -0.483  -0.014  0.00  0.00     0.001 A 
ATOM      9  C   UNL d   1       2.057   0.900   0.004  0.00  0.00     0.002 A 
ATOM     10  H   UNL d   1      -2.045   1.887  -0.005  0.00  0.00     0.166 HD
ENDROOT
BRANCH   2  11
ATOM     11  C   UNL d   1      -1.904  -2.729  -0.104  0.00  0.00     0.052 C 
BRANCH  11  12
ATOM     12  C   UNL d   1      -1.544  -3.479   1.172  0.00  0.00     0.116 C 
BRANCH  12  13
ATOM     13  C   UNL d   1      -2.143  -4.860   1.176  0.00  0.00     0.259 C 
ATOM     14  O   UNL d   1      -2.840  -5.339   0.294  0.00  0.00    -0.265 OA
BRANCH  13  15
ATOM     15  O   UNL d   1      -1.833  -5.471   2.355  0.00  0.00    -0.322 OA
BRANCH  15  16
ATOM     16  C   UNL d   1      -2.625  -6.622   2.674  0.00  0.00     0.174 C 
ATOM     17  C   UNL d   1      -3.848  -6.148   3.437  0.00  0.00     0.034 C 
ENDBRANCH  15  16
ENDBRANCH  13  15
ENDBRANCH  12  13
ENDBRANCH  11  12
ENDBRANCH   2  11
BRANCH   1  18
ATOM     18  C   UNL d   1      -3.876  -0.172  -0.138  0.00  0.00     0.310 C 
ATOM     19  O   UNL d   1      -4.613  -1.144  -0.087  0.00  0.00    -0.258 OA
BRANCH  18  20
ATOM     20  O   UNL d   1      -4.288   1.104  -0.393  0.00  0.00    -0.317 OA
BRANCH  20  21
ATOM     21  C   UNL d   1      -5.610   1.213  -0.942  0.00  0.00     0.175 C 
ATOM     22  C   UNL d   1      -5.488   1.206  -2.457  0.00  0.00     0.034 C 
ENDBRANCH  20  21
ENDBRANCH  18  20
ENDBRANCH   1  18
TORSDOF 8
