REMARK  6 active torsions:
REMARK  status: ('A' for Active; 'I' for Inactive)
REMARK    1  A    between atoms: C_12  and  C_5 
REMARK    2  A    between atoms: N_16  and  C_9 
REMARK    3  A    between atoms: O_26  and  C_12 
REMARK    4  A    between atoms: N_14  and  N_16 
REMARK    5  A    between atoms: C_25  and  C_24 
REMARK    6  A    between atoms: C_30  and  O_26 
ROOT
ATOM      1  C   UNL d   1       1.587  -0.879  -0.002  0.00  0.00     0.162 A 
ATOM      2  N   UNL d   1       0.897   0.304  -0.101  0.00  0.00    -0.221 N 
ATOM      3  N   UNL d   1       0.970  -2.073   0.179  0.00  0.00    -0.324 N 
ATOM      4  HN  UNL d   1       1.519  -2.928   0.266  1.00  0.00     0.169 HD
ATOM      5  C   UNL d   1       2.911  -0.482  -0.084  0.00  0.00     0.167 A 
ATOM      6  N   UNL d   1       1.719   1.357  -0.244  0.00  0.00    -0.013 NA
ATOM      7  N   UNL d   1       2.962   0.888  -0.237  0.00  0.00    -0.275 N 
ATOM      8  HN  UNL d   1       3.811   1.446  -0.330  1.00  0.00     0.184 HD
ATOM      9  C   UNL d   1      -0.336  -2.116   0.240  0.00  0.00     0.134 A 
ATOM     10  C   UNL d   1      -1.168  -0.856   0.112  0.00  0.00     0.038 A 
ATOM     11  C   UNL d   1      -0.497   0.368  -0.035  0.00  0.00     0.070 A 
ATOM     12  C   UNL d   1      -2.564  -0.849   0.185  0.00  0.00     0.017 A 
ATOM     13  C   UNL d   1      -1.181   1.584  -0.097  0.00  0.00     0.032 A 
ATOM     14  C   UNL d   1      -3.260   0.364   0.108  0.00  0.00     0.001 A 
ATOM     15  C   UNL d   1      -2.572   1.573  -0.024  0.00  0.00     0.002 A 
ENDROOT
BRANCH   9  16
ATOM     16  N   UNL d   1      -0.991  -3.325   0.474  0.00  0.00    -0.285 N 
ATOM     17  H   UNL d   1      -1.885  -3.433   0.004  0.00  0.00     0.188 HD
BRANCH  16  18
ATOM     18  N   UNL d   1      -0.403  -4.529   0.785  0.00  0.00    -0.309 N 
ATOM     19  C   UNL d   1       0.535  -4.471   1.677  0.00  0.00     0.118 C 
ATOM     20  HN  UNL d   1      -0.686  -5.405   0.345  1.00  0.00     0.186 HD
BRANCH  19  21
ATOM     21  C   UNL d   1       1.259  -5.661   2.155  0.00  0.00    -0.017 A 
ATOM     22  C   UNL d   1       2.138  -5.505   3.233  0.00  0.00     0.052 A 
ATOM     23  C   UNL d   1       2.685  -6.648   3.770  0.00  0.00     0.105 A 
ATOM     24  O   UNL d   1       3.481  -6.705   4.872  0.00  0.00    -0.323 OA
ATOM     25  C   UNL d   1       2.424  -7.896   3.248  0.00  0.00     0.105 A 
ATOM     26  C   UNL d   1       3.523  -8.131   5.087  0.00  0.00     0.352 C 
ATOM     27  O   UNL d   1       3.021  -8.887   3.965  0.00  0.00    -0.323 OA
ATOM     28  C   UNL d   1       1.614  -8.070   2.146  0.00  0.00     0.040 A 
ATOM     29  C   UNL d   1       1.012  -6.933   1.599  0.00  0.00     0.016 A 
ENDBRANCH  19  21
ENDBRANCH  16  18
ENDBRANCH   9  16
BRANCH   5  30
ATOM     30  C   UNL d   1       4.086  -1.321   0.056  0.00  0.00     0.315 C 
ATOM     31  O   UNL d   1       4.055  -2.530   0.260  0.00  0.00    -0.257 OA
BRANCH  30  32
ATOM     32  O   UNL d   1       5.237  -0.585   0.033  0.00  0.00    -0.317 OA
BRANCH  32  33
ATOM     33  C   UNL d   1       6.387  -1.237   0.582  0.00  0.00     0.175 C 
ATOM     34  C   UNL d   1       6.372  -1.042   2.088  0.00  0.00     0.034 C 
ENDBRANCH  32  33
ENDBRANCH  30  32
ENDBRANCH   5  30
TORSDOF 6
