REMARK  2 active torsions:
REMARK  status: ('A' for Active; 'I' for Inactive)
REMARK       I    between atoms: N_2  and  C_1 
REMARK       I    between atoms: N_3  and  C_1 
REMARK    1  A    between atoms: C_5  and  N_2 
REMARK    2  A    between atoms: C_8  and  N_3 
ROOT
ATOM      1  C   UNL d   1       1.200  -2.274   0.985  0.00  0.00     0.037 A 
ATOM      2  C   UNL d   1       3.126  -3.139   2.214  0.00  0.00    -0.024 A 
ATOM      3  C   UNL d   1       2.440  -2.083   1.599  0.00  0.00     0.042 A 
ATOM      4  C   UNL d   1       2.554  -4.428   2.222  0.00  0.00    -0.026 A 
ATOM      5  C   UNL d   1       1.295  -4.615   1.626  0.00  0.00     0.014 A 
ATOM      6  C   UNL d   1       0.618  -3.545   1.025  0.00  0.00     0.030 A 
ATOM      7  C   UNL d   1       4.373  -2.926   2.818  0.00  0.00     0.012 A 
ATOM      8  C   UNL d   1       3.261  -5.481   2.828  0.00  0.00     0.012 A 
ATOM      9  C   UNL d   1       5.059  -3.980   3.422  0.00  0.00     0.001 A 
ATOM     10  C   UNL d   1       4.505  -5.256   3.424  0.00  0.00     0.001 A 
ENDROOT
BRANCH   1  11
ATOM     11  N   UNL d   1       0.497  -1.232   0.336  0.00  0.00    -0.309 N 
ATOM     12  C   UNL d   1       1.048  -0.032  -0.073  0.00  0.00     0.321 C 
ATOM     13  N   UNL d   1       0.096   0.831  -0.569  0.00  0.00    -0.335 N 
ATOM     14  O   UNL d   1       2.234   0.264  -0.021  0.00  0.00    -0.247 OA
ATOM     15  H   UNL d   1      -0.856   0.506  -0.626  0.00  0.00     0.165 HD
ATOM     16  H   UNL d   1      -0.422  -1.449  -0.007  0.00  0.00     0.170 HD
BRANCH  13  17
ATOM     17  C   UNL d   1       0.403   2.170  -1.104  0.00  0.00     0.023 C 
ATOM     18  C   UNL d   1       1.295   2.069  -2.353  0.00  0.00     0.037 C 
ATOM     19  C   UNL d   1      -0.924   2.842  -1.502  0.00  0.00     0.037 C 
ATOM     20  C   UNL d   1       1.087   3.060  -0.050  0.00  0.00     0.037 C 
ENDBRANCH  13  17
ENDBRANCH   1  11
TORSDOF 2
