REMARK  4 active torsions:
REMARK  status: ('A' for Active; 'I' for Inactive)
REMARK    1  A    between atoms: N_11  and  N_9 
REMARK    2  A    between atoms: O_23  and  C_15 
REMARK    3  A    between atoms: C_21  and  C_16 
REMARK    4  A    between atoms: O_24  and  C_17 
ROOT
ATOM      1  C   UNL d   1       0.245  -0.746   0.296  0.00  0.00     0.121 A 
ATOM      2  C   UNL d   1       0.269   0.565   0.051  0.00  0.00     0.132 A 
ATOM      3  N   UNL d   1       1.550   1.088   0.054  0.00  0.00    -0.321 N 
ATOM      4  C   UNL d   1       2.554   0.149   0.314  0.00  0.00     0.147 A 
ATOM      5  C   UNL d   1      -1.033  -1.470   0.336  0.00  0.00     0.288 A 
ATOM      6  S   UNL d   1       1.791  -1.438   0.549  0.00  0.00    -0.051 SA
ATOM      7  N   UNL d   1      -0.834   1.335  -0.181  0.00  0.00    -0.336 N 
ATOM      8  HN  UNL d   1      -0.769   2.335  -0.368  1.00  0.00     0.168 HD
ATOM      9  N   UNL d   1      -2.143  -0.640   0.102  0.00  0.00    -0.215 N 
ATOM     10  C   UNL d   1      -1.972   0.709  -0.147  0.00  0.00     0.212 A 
ATOM     11  S   UNL d   1       4.199   0.395   0.408  0.00  0.00    -0.052 SA
ATOM     12  O   UNL d   1      -1.077  -2.677   0.555  0.00  0.00    -0.265 OA
ATOM     13  C   UNL d   1       1.817   2.498  -0.182  0.00  0.00     0.159 C 
ENDROOT
BRANCH   9  14
ATOM     14  N   UNL d   1      -3.359  -1.291   0.130  0.00  0.00    -0.301 N 
ATOM     15  C   UNL d   1      -4.503  -0.716  -0.033  0.00  0.00     0.119 C 
ATOM     16  HN  UNL d   1      -3.354  -2.298   0.291  1.00  0.00     0.186 HD
BRANCH  15  17
ATOM     17  C   UNL d   1      -5.740  -1.535   0.017  0.00  0.00    -0.017 A 
ATOM     18  C   UNL d   1      -6.987  -0.939  -0.195  0.00  0.00     0.052 A 
ATOM     19  C   UNL d   1      -8.163  -1.707  -0.152  0.00  0.00     0.102 A 
ATOM     20  C   UNL d   1      -8.068  -3.077   0.130  0.00  0.00     0.099 A 
ATOM     21  C   UNL d   1      -6.820  -3.673   0.335  0.00  0.00     0.040 A 
ATOM     22  C   UNL d   1      -5.659  -2.905   0.274  0.00  0.00     0.016 A 
BRANCH  19  23
ATOM     23  O   UNL d   1      -9.292  -0.974  -0.409  0.00  0.00    -0.353 OA
ATOM     24  C   UNL d   1     -10.540  -1.654  -0.454  0.00  0.00     0.210 C 
ENDBRANCH  19  23
BRANCH  20  25
ATOM     25  O   UNL d   1      -9.178  -3.870   0.222  0.00  0.00    -0.358 OA
ATOM     26  H   UNL d   1      -8.906  -4.782   0.421  0.00  0.00     0.217 HD
ENDBRANCH  20  25
ENDBRANCH  15  17
ENDBRANCH   9  14
TORSDOF 4
