REMARK  8 active torsions:
REMARK  status: ('A' for Active; 'I' for Inactive)
REMARK    1  A    between atoms: N_4  and  C_1 
REMARK    2  A    between atoms: C_21  and  C_2 
REMARK    3  A    between atoms: O_28  and  C_3 
REMARK    4  A    between atoms: N_11  and  C_7 
REMARK    5  A    between atoms: C_8  and  C_17 
REMARK    6  A    between atoms: C_9  and  C_18 
REMARK    7  A    between atoms: O_29  and  C_15 
REMARK    8  A    between atoms: O_30  and  C_16 
ROOT
ATOM      1  C   UNL d   1      -1.158   1.316   0.032  0.00  0.00     0.074 C 
ATOM      2  C   UNL d   1       0.898  -0.068   0.055  0.00  0.00    -0.013 C 
ATOM      3  C   UNL d   1       0.265   1.201   0.131  0.00  0.00     0.102 C 
ATOM      4  C   UNL d   1      -1.946   0.144  -0.144  0.00  0.00    -0.006 C 
ATOM      5  C   UNL d   1      -1.337  -1.117  -0.063  0.00  0.00     0.040 C 
ATOM      6  C   UNL d   1       0.055  -1.196   0.029  0.00  0.00     0.040 C 
ATOM      7  C   UNL d   1      -3.431   0.233  -0.406  0.00  0.00     0.053 C 
ENDROOT
BRANCH   1   8
ATOM      8  N   UNL d   1      -1.783   2.590  -0.009  0.00  0.00    -0.362 N 
ATOM      9  C   UNL d   1      -2.691   2.872   0.872  0.00  0.00     0.102 C 
ATOM     10  HN  UNL d   1      -1.522   3.272  -0.721  1.00  0.00     0.165 HD
BRANCH   9  11
ATOM     11  C   UNL d   1      -3.436   4.147   0.806  0.00  0.00     0.016 A 
ATOM     12  C   UNL d   1      -4.709   4.248   1.370  0.00  0.00     0.099 A 
ATOM     13  C   UNL d   1      -5.420   5.451   1.265  0.00  0.00     0.069 A 
ATOM     14 CL   UNL d   1      -7.007   5.584   1.929  0.00  0.00    -0.081 Cl
ATOM     15  C   UNL d   1      -4.863   6.551   0.614  0.00  0.00     0.050 A 
ATOM     16  C   UNL d   1      -3.593   6.439   0.052  0.00  0.00     0.036 A 
ATOM     17  C   UNL d   1      -2.881   5.243   0.135  0.00  0.00     0.039 A 
ATOM     18 CL   UNL d   1      -2.899   7.792  -0.753  0.00  0.00    -0.084 Cl
BRANCH  12  19
ATOM     19  O   UNL d   1      -5.269   3.159   1.986  0.00  0.00    -0.358 OA
ATOM     20  H   UNL d   1      -6.177   3.402   2.252  0.00  0.00     0.217 HD
ENDBRANCH  12  19
ENDBRANCH   9  11
ENDBRANCH   1   8
BRANCH   3  21
ATOM     21  O   UNL d   1       1.133   2.240   0.359  0.00  0.00    -0.353 OA
ATOM     22  C   UNL d   1       0.732   3.580   0.141  0.00  0.00     0.210 C 
ENDBRANCH   3  21
BRANCH   2  23
ATOM     23  C   UNL d   1       2.438  -0.297   0.004  0.00  0.00    -0.021 C 
ATOM     24  C   UNL d   1       2.953  -0.508   1.439  0.00  0.00     0.019 C 
ATOM     25  C   UNL d   1       2.803  -1.558  -0.833  0.00  0.00     0.019 C 
ATOM     26  C   UNL d   1       3.253   0.847  -0.651  0.00  0.00     0.019 C 
ENDBRANCH   2  23
BRANCH   5  27
ATOM     27  N   UNL d   1      -2.006  -2.347  -0.200  0.00  0.00    -0.364 N 
ATOM     28  C   UNL d   1      -2.942  -2.667   0.632  0.00  0.00     0.102 C 
ATOM     29  HN  UNL d   1      -1.753  -2.985  -0.955  1.00  0.00     0.165 HD
BRANCH  28  30
ATOM     30  C   UNL d   1      -3.597  -3.990   0.536  0.00  0.00     0.016 A 
ATOM     31  C   UNL d   1      -4.836  -4.224   1.132  0.00  0.00     0.099 A 
ATOM     32  C   UNL d   1      -5.417  -5.496   1.038  0.00  0.00     0.069 A 
ATOM     33 CL   UNL d   1      -6.956  -5.805   1.756  0.00  0.00    -0.081 Cl
ATOM     34  C   UNL d   1      -4.764  -6.529   0.368  0.00  0.00     0.050 A 
ATOM     35  C   UNL d   1      -3.527  -6.284  -0.224  0.00  0.00     0.036 A 
ATOM     36  C   UNL d   1      -2.943  -5.021  -0.151  0.00  0.00     0.039 A 
ATOM     37 CL   UNL d   1      -2.708  -7.556  -1.043  0.00  0.00    -0.084 Cl
BRANCH  31  38
ATOM     38  O   UNL d   1      -5.482  -3.207   1.784  0.00  0.00    -0.358 OA
ATOM     39  H   UNL d   1      -6.344  -3.551   2.090  0.00  0.00     0.217 HD
ENDBRANCH  31  38
ENDBRANCH  28  30
ENDBRANCH   5  27
TORSDOF 8
