REMARK  4 active torsions:
REMARK  status: ('A' for Active; 'I' for Inactive)
REMARK       I    between atoms: N_2  and  C_1 
REMARK    1  A    between atoms: C_8  and  C_1 
REMARK    2  A    between atoms: C_3  and  N_2 
REMARK    3  A    between atoms: O_4  and  C_8 
REMARK    4  A    between atoms: C_5  and  O_4 
ROOT
ATOM      1  C   UNL d   1       0.837  -0.585   0.464  0.00  0.00     0.251 C 
ATOM      2  N   UNL d   1       2.220  -0.515   0.346  0.00  0.00    -0.323 N 
ATOM      3  O   UNL d   1       0.172  -1.611   0.350  0.00  0.00    -0.270 OA
ATOM      4  H   UNL d   1       2.645   0.287   0.792  0.00  0.00     0.169 HD
ENDROOT
BRANCH   1   5
ATOM      5  C   UNL d   1       0.212   0.728   0.999  0.00  0.00     0.217 C 
ATOM      6  C   UNL d   1      -1.280   0.785   0.687  0.00  0.00     0.050 C 
BRANCH   5   7
ATOM      7  O   UNL d   1       0.803   1.899   0.441  0.00  0.00    -0.335 OA
BRANCH   7   8
ATOM      8  C   UNL d   1       1.730   2.618   1.145  0.00  0.00     0.091 A 
ATOM      9  C   UNL d   1       2.633   3.391   0.391  0.00  0.00     0.069 A 
ATOM     10  C   UNL d   1       3.642   4.130   1.012  0.00  0.00     0.050 A 
ATOM     11 CL   UNL d   1       2.554   3.427  -1.336  0.00  0.00    -0.081 Cl
ATOM     12  C   UNL d   1       3.745   4.112   2.398  0.00  0.00     0.035 A 
ATOM     13  C   UNL d   1       2.839   3.381   3.162  0.00  0.00     0.026 A 
ATOM     14 CL   UNL d   1       4.999   4.995   3.176  0.00  0.00    -0.084 Cl
ATOM     15  C   UNL d   1       1.825   2.646   2.539  0.00  0.00     0.040 A 
ENDBRANCH   7   8
ENDBRANCH   5   7
ENDBRANCH   1   5
BRANCH   2  16
ATOM     16  C   UNL d   1       3.074  -1.614   0.097  0.00  0.00     0.056 A 
ATOM     17  C   UNL d   1       2.838  -2.657  -0.817  0.00  0.00     0.062 A 
ATOM     18  C   UNL d   1       3.728  -3.737  -0.900  0.00  0.00     0.050 A 
ATOM     19 CL   UNL d   1       1.596  -2.601  -2.022  0.00  0.00    -0.082 Cl
ATOM     20  C   UNL d   1       4.867  -3.764  -0.101  0.00  0.00     0.035 A 
ATOM     21  C   UNL d   1       5.151  -2.705   0.757  0.00  0.00     0.026 A 
ATOM     22 CL   UNL d   1       5.950  -5.095  -0.195  0.00  0.00    -0.084 Cl
ATOM     23  C   UNL d   1       4.265  -1.630   0.844  0.00  0.00     0.033 A 
ENDBRANCH   2  16
TORSDOF 4
