REMARK  2 active torsions:
REMARK  status: ('A' for Active; 'I' for Inactive)
REMARK    1  A    between atoms: N_7  and  C_1 
REMARK    2  A    between atoms: C_13  and  N_7 
ROOT
ATOM      1  C   UNL d   1       2.724  -1.235  -0.015  0.00  0.00     0.146 A 
ATOM      2  N   UNL d   1       1.522  -1.757  -0.061  0.00  0.00    -0.336 N 
ATOM      3  HN  UNL d   1       1.325  -2.756  -0.125  1.00  0.00     0.168 HD
ATOM      4  S   UNL d   1       2.769   0.481   0.104  0.00  0.00    -0.052 SA
ATOM      5  C   UNL d   1       0.559  -0.765  -0.011  0.00  0.00     0.053 A 
ATOM      6  C   UNL d   1       1.051   0.538   0.056  0.00  0.00     0.035 A 
ATOM      7  C   UNL d   1      -0.834  -0.971  -0.032  0.00  0.00     0.054 A 
ATOM      8  C   UNL d   1       0.200   1.655   0.080  0.00  0.00     0.023 A 
ATOM      9  C   UNL d   1      -1.687   0.134  -0.002  0.00  0.00     0.036 A 
ATOM     10  C   UNL d   1      -1.181   1.430   0.046  0.00  0.00     0.025 A 
ATOM     11 CL   UNL d   1      -3.391  -0.111  -0.028  0.00  0.00    -0.084 Cl
ENDROOT
BRANCH   1  12
ATOM     12  N   UNL d   1       3.880  -1.935  -0.070  0.00  0.00    -0.367 N 
ATOM     13  H   UNL d   1       4.731  -1.393  -0.174  0.00  0.00     0.162 HD
BRANCH  12  14
ATOM     14  C   UNL d   1       3.883  -3.254  -0.691  0.00  0.00     0.075 C 
ATOM     15  C   UNL d   1       5.241  -3.490  -1.355  0.00  0.00     0.032 C 
ATOM     16  C   UNL d   1       3.612  -4.330   0.357  0.00  0.00     0.032 C 
ENDBRANCH  12  14
ENDBRANCH   1  12
TORSDOF 2
