REMARK  9 active torsions:
REMARK  status: ('A' for Active; 'I' for Inactive)
REMARK    1  A    between atoms: C_5  and  C_1 
REMARK    2  A    between atoms: C_6  and  C_1 
REMARK    3  A    between atoms: N_8  and  C_2 
REMARK    4  A    between atoms: N_3  and  C_4 
REMARK    5  A    between atoms: O_20  and  C_5 
REMARK    6  A    between atoms: O_19  and  C_6 
REMARK    7  A    between atoms: C_7  and  N_8 
REMARK    8  A    between atoms: C_22  and  O_19 
REMARK    9  A    between atoms: C_21  and  O_20 
ROOT
ATOM      1  N   UNL d   1       1.130  -1.643  -1.618  0.00  0.00    -0.363 N 
ATOM      2  H   UNL d   1       1.987  -1.253  -2.015  0.00  0.00     0.165 HD
ENDROOT
BRANCH   1   3
ATOM      3  C   UNL d   1       0.384  -2.244  -2.673  0.00  0.00     0.060 A 
ATOM      4  C   UNL d   1       0.780  -3.472  -3.254  0.00  0.00     0.065 A 
ATOM      5  C   UNL d   1       0.157  -3.908  -4.440  0.00  0.00     0.033 A 
ATOM      6  C   UNL d   1      -0.842  -3.146  -5.053  0.00  0.00     0.009 A 
ATOM      7  C   UNL d   1      -1.238  -1.930  -4.501  0.00  0.00    -0.060 A 
ATOM      8  C   UNL d   1      -0.618  -1.488  -3.323  0.00  0.00     0.038 A 
ATOM      9  C   UNL d   1      -2.286  -1.090  -5.169  0.00  0.00     0.048 C 
BRANCH   4  10
ATOM     10  N   UNL d   1       1.778  -4.317  -2.667  0.00  0.00    -0.331 N 
ATOM     11  C   UNL d   1       2.526  -5.279  -3.331  0.00  0.00     0.097 A 
ATOM     12  C   UNL d   1       3.364  -5.910  -2.437  0.00  0.00     0.019 A 
ATOM     13  C   UNL d   1       3.131  -5.337  -1.174  0.00  0.00     0.019 A 
ATOM     14  C   UNL d   1       2.170  -4.368  -1.343  0.00  0.00     0.097 A 
ENDBRANCH   4  10
ENDBRANCH   1   3
BRANCH   1  15
ATOM     15  C   UNL d   1       0.584  -0.851  -0.625  0.00  0.00     0.112 C 
ATOM     16  C   UNL d   1      -0.434  -1.065   0.234  0.00  0.00     0.129 C 
BRANCH  16  17
ATOM     17  C   UNL d   1      -0.856   0.009   1.160  0.00  0.00     0.300 C 
ATOM     18  O   UNL d   1      -1.360  -0.186   2.253  0.00  0.00    -0.259 OA
BRANCH  17  19
ATOM     19  O   UNL d   1      -0.692   1.226   0.571  0.00  0.00    -0.318 OA
BRANCH  19  20
ATOM     20  C   UNL d   1      -1.387   2.318   1.189  0.00  0.00     0.174 C 
ATOM     21  C   UNL d   1      -2.704   2.507   0.458  0.00  0.00     0.034 C 
ENDBRANCH  19  20
ENDBRANCH  17  19
ENDBRANCH  16  17
BRANCH  16  22
ATOM     22  C   UNL d   1      -1.157  -2.352   0.273  0.00  0.00     0.300 C 
ATOM     23  O   UNL d   1      -0.659  -3.457   0.132  0.00  0.00    -0.259 OA
BRANCH  22  24
ATOM     24  O   UNL d   1      -2.481  -2.094   0.421  0.00  0.00    -0.318 OA
BRANCH  24  25
ATOM     25  C   UNL d   1      -3.370  -3.192   0.185  0.00  0.00     0.174 C 
ATOM     26  C   UNL d   1      -4.042  -2.927  -1.146  0.00  0.00     0.034 C 
ENDBRANCH  24  25
ENDBRANCH  22  24
ENDBRANCH  16  22
ENDBRANCH   1  15
TORSDOF 9
