REMARK  4 active torsions:
REMARK  status: ('A' for Active; 'I' for Inactive)
REMARK    1  A    between atoms: C_12  and  N_4 
REMARK    2  A    between atoms: C_11  and  C_12 
REMARK       I    between atoms: N_18  and  C_11 
REMARK    3  A    between atoms: N_14  and  N_18 
REMARK    4  A    between atoms: C_23  and  C_22 
ROOT
ATOM      1  C   UNL d   1       0.625   0.611   0.173  0.00  0.00     0.073 A 
ATOM      2  C   UNL d   1       1.108  -0.601   0.634  0.00  0.00     0.091 A 
ATOM      3  C   UNL d   1       1.582   1.690   0.008  0.00  0.00     0.262 A 
ATOM      4  N   UNL d   1       2.885   1.357   0.382  0.00  0.00    -0.301 N 
ATOM      5  C   UNL d   1      -0.797   0.579  -0.011  0.00  0.00    -0.026 C 
ATOM      6  N   UNL d   1       2.358  -0.854   1.085  0.00  0.00    -0.346 N 
ATOM      7  HN  UNL d   1       2.627  -1.749   1.494  1.00  0.00     0.167 HD
ATOM      8  C   UNL d   1      -1.278  -0.712   0.125  0.00  0.00    -0.008 C 
ATOM      9  S   UNL d   1      -0.078  -1.823   0.580  0.00  0.00    -0.075 SA
ATOM     10  C   UNL d   1       3.182   0.133   0.955  0.00  0.00     0.187 A 
ATOM     11  C   UNL d   1      -1.716   1.753  -0.206  0.00  0.00     0.041 C 
ATOM     12  C   UNL d   1      -2.716  -1.107  -0.001  0.00  0.00     0.051 C 
ATOM     13  O   UNL d   1       1.288   2.796  -0.456  0.00  0.00    -0.267 OA
ATOM     14  C   UNL d   1      -3.194   1.342  -0.374  0.00  0.00     0.009 C 
ATOM     15  C   UNL d   1      -3.603   0.081   0.424  0.00  0.00    -0.014 C 
ATOM     16  C   UNL d   1      -3.538   0.299   1.942  0.00  0.00     0.010 C 
ENDROOT
BRANCH   4  17
ATOM     17  C   UNL d   1       3.982   2.211  -0.043  0.00  0.00     0.237 C 
BRANCH  17  18
ATOM     18  C   UNL d   1       4.182   3.449   0.817  0.00  0.00     0.254 C 
ATOM     19  N   UNL d   1       3.228   4.433   0.602  0.00  0.00    -0.269 N 
ATOM     20  H   UNL d   1       2.407   4.239   0.024  0.00  0.00     0.190 HD
ATOM     21  O   UNL d   1       5.142   3.539   1.581  0.00  0.00    -0.270 OA
BRANCH  19  22
ATOM     22  N   UNL d   1       3.358   5.633   1.228  0.00  0.00    -0.308 N 
ATOM     23  C   UNL d   1       2.432   6.504   0.992  0.00  0.00     0.120 C 
ATOM     24  HN  UNL d   1       4.142   5.834   1.850  1.00  0.00     0.186 HD
BRANCH  23  25
ATOM     25  C   UNL d   1       2.479   7.840   1.609  0.00  0.00    -0.004 A 
ATOM     26  C   UNL d   1       1.471   8.755   1.352  0.00  0.00     0.100 A 
ATOM     27  N   UNL d   1       1.447  10.008   1.868  0.00  0.00    -0.374 N 
ATOM     28  C   UNL d   1       2.477  10.352   2.675  0.00  0.00     0.087 A 
ATOM     29  HN  UNL d   1       0.690  10.658   1.658  1.00  0.00     0.164 HD
ATOM     30  C   UNL d   1       3.526   9.503   2.993  0.00  0.00     0.018 A 
ATOM     31  C   UNL d   1       3.526   8.222   2.448  0.00  0.00     0.015 A 
ENDBRANCH  23  25
ENDBRANCH  19  22
ENDBRANCH  17  18
ENDBRANCH   4  17
TORSDOF 4
