REMARK  6 active torsions:
REMARK  status: ('A' for Active; 'I' for Inactive)
REMARK    1  A    between atoms: C_12  and  C_3 
REMARK    2  A    between atoms: C_13  and  N_5 
REMARK    3  A    between atoms: N_11  and  C_8 
REMARK       I    between atoms: C_14  and  N_11 
REMARK    4  A    between atoms: O_20  and  C_12 
REMARK    5  A    between atoms: C_26  and  O_20 
REMARK    6  A    between atoms: O_24  and  C_21 
ROOT
ATOM      1  C   UNL d   1      -0.276  -0.800   0.147  0.00  0.00     0.081 A 
ATOM      2  C   UNL d   1      -0.310   0.622   0.066  0.00  0.00     0.023 A 
ATOM      3  C   UNL d   1       0.924   1.373   0.010  0.00  0.00     0.136 C 
ATOM      4  C   UNL d   1       1.000  -1.499   0.244  0.00  0.00     0.281 C 
ATOM      5  N   UNL d   1       2.128  -0.663  -0.010  0.00  0.00    -0.219 N 
ATOM      6  N   UNL d   1       2.064   0.744  -0.044  0.00  0.00    -0.284 N 
ATOM      7  HN  UNL d   1       2.928   1.282  -0.112  1.00  0.00     0.188 HD
ATOM      8  C   UNL d   1      -1.549  -1.323   0.177  0.00  0.00     0.093 A 
ATOM      9  C   UNL d   1      -1.597   1.119   0.062  0.00  0.00     0.067 A 
ATOM     10  S   UNL d   1      -2.754  -0.122   0.264  0.00  0.00    -0.082 SA
ATOM     11  O   UNL d   1       1.048  -2.673   0.600  0.00  0.00    -0.265 OA
ENDROOT
BRANCH   5  12
ATOM     12  C   UNL d   1       3.462  -1.180  -0.208  0.00  0.00     0.060 A 
ATOM     13  C   UNL d   1       3.715  -2.546  -0.399  0.00  0.00     0.034 A 
ATOM     14  C   UNL d   1       5.010  -3.035  -0.631  0.00  0.00     0.039 A 
ATOM     15  C   UNL d   1       6.094  -2.165  -0.687  0.00  0.00     0.068 A 
ATOM     16  C   UNL d   1       5.867  -0.803  -0.504  0.00  0.00     0.039 A 
ATOM     17  C   UNL d   1       4.570  -0.316  -0.272  0.00  0.00     0.034 A 
BRANCH  15  18
ATOM     18  O   UNL d   1       7.394  -2.519  -0.916  0.00  0.00    -0.356 OA
ATOM     19  C   UNL d   1       7.642  -3.896  -1.176  0.00  0.00     0.210 C 
ENDBRANCH  15  18
ENDBRANCH   5  12
BRANCH   3  20
ATOM     20  C   UNL d   1       0.922   2.904  -0.006  0.00  0.00     0.312 C 
ATOM     21  O   UNL d   1       0.095   3.560   0.596  0.00  0.00    -0.258 OA
BRANCH  20  22
ATOM     22  O   UNL d   1       1.863   3.355  -0.861  0.00  0.00    -0.317 OA
BRANCH  22  23
ATOM     23  C   UNL d   1       1.718   4.720  -1.274  0.00  0.00     0.175 C 
ATOM     24  C   UNL d   1       0.993   4.713  -2.607  0.00  0.00     0.034 C 
ENDBRANCH  22  23
ENDBRANCH  20  22
ENDBRANCH   3  20
BRANCH   8  25
ATOM     25  N   UNL d   1      -2.079  -2.591   0.158  0.00  0.00    -0.321 N 
ATOM     26  C   UNL d   1      -1.603  -3.549  -0.719  0.00  0.00     0.218 C 
ATOM     27  O   UNL d   1      -0.719  -3.386  -1.555  0.00  0.00    -0.274 OA
ATOM     28  C   UNL d   1      -2.354  -4.854  -0.613  0.00  0.00     0.117 C 
ATOM     29  H   UNL d   1      -3.053  -2.662   0.427  0.00  0.00     0.169 HD
ENDBRANCH   8  25
TORSDOF 6
