REMARK  2 active torsions:
REMARK  status: ('A' for Active; 'I' for Inactive)
REMARK    1  A    between atoms: N_5  and  C_2 
REMARK    2  A    between atoms: C_8  and  N_5 
ROOT
ATOM      1  C   UNL d   1       0.711   1.176  -0.261  0.00  0.00     0.071 C 
ATOM      2  C   UNL d   1       1.269   2.256  -0.833  0.00  0.00     0.107 C 
ATOM      3  C   UNL d   1       1.472  -0.096  -0.125  0.00  0.00     0.164 C 
ATOM      4  C   UNL d   1      -0.752   1.217   0.004  0.00  0.00     0.164 C 
ATOM      5  O   UNL d   1       2.699  -0.106  -0.033  0.00  0.00    -0.292 OA
ATOM      6  O   UNL d   1      -1.340   2.262   0.256  0.00  0.00    -0.292 OA
ATOM      7  C   UNL d   1       0.679  -1.377  -0.231  0.00  0.00     0.084 C 
ATOM      8  C   UNL d   1      -1.496  -0.085  -0.176  0.00  0.00     0.084 C 
ATOM      9  C   UNL d   1      -0.709  -1.261   0.383  0.00  0.00     0.015 C 
ENDROOT
BRANCH   2  10
ATOM     10  N   UNL d   1       2.558   2.416  -1.283  0.00  0.00    -0.365 N 
ATOM     11  H   UNL d   1       3.199   1.651  -1.051  0.00  0.00     0.165 HD
BRANCH  10  12
ATOM     12  C   UNL d   1       3.016   3.301  -2.275  0.00  0.00     0.031 A 
ATOM     13  C   UNL d   1       4.397   3.474  -2.440  0.00  0.00     0.029 A 
ATOM     14  C   UNL d   1       4.907   4.393  -3.361  0.00  0.00     0.002 A 
ATOM     15  C   UNL d   1       4.040   5.161  -4.134  0.00  0.00     0.000 A 
ATOM     16  C   UNL d   1       2.665   5.008  -3.984  0.00  0.00     0.002 A 
ATOM     17  C   UNL d   1       2.160   4.092  -3.055  0.00  0.00     0.029 A 
ENDBRANCH  10  12
ENDBRANCH   2  10
TORSDOF 2
