REMARK  5 active torsions:
REMARK  status: ('A' for Active; 'I' for Inactive)
REMARK    1  A    between atoms: N_2  and  S_1 
REMARK    2  A    between atoms: C_6  and  S_1 
REMARK    3  A    between atoms: C_4  and  N_2 
REMARK    4  A    between atoms: C_3  and  C_5 
REMARK       I    between atoms: C_11  and  N_12 
REMARK    5  A    between atoms: N_12  and  C_21 
ROOT
ATOM      1  S   UNL d   1       1.093  -0.058   0.066  0.00  0.00     0.245 S 
ATOM      2  O   UNL d   1       0.207  -0.560   1.096  0.00  0.00    -0.206 OA
ATOM      3  O   UNL d   1       2.518  -0.291   0.123  0.00  0.00    -0.206 OA
ENDROOT
BRANCH   1   4
ATOM      4  N   UNL d   1       0.791   1.610  -0.029  0.00  0.00    -0.180 NA
ATOM      5  H   UNL d   1       0.467   1.924   0.889  0.00  0.00     0.146 HD
BRANCH   4   6
ATOM      6  C   UNL d   1       1.803   2.429  -0.630  0.00  0.00     0.045 A 
ATOM      7  C   UNL d   1       1.748   2.645  -2.010  0.00  0.00     0.042 A 
ATOM      8  C   UNL d   1       2.734   3.410  -2.655  0.00  0.00     0.049 A 
ATOM      9  C   UNL d   1       3.769   3.973  -1.889  0.00  0.00     0.018 A 
ATOM     10  C   UNL d   1       3.832   3.752  -0.511  0.00  0.00     0.026 A 
ATOM     11  C   UNL d   1       2.859   2.973   0.117  0.00  0.00     0.056 A 
ATOM     12 CL   UNL d   1       2.972   2.730   1.822  0.00  0.00    -0.082 Cl
BRANCH   8  13
ATOM     13  C   UNL d   1       2.705   3.623  -4.150  0.00  0.00     0.417 C 
ATOM     14  F   UNL d   1       1.677   2.982  -4.771  0.00  0.00    -0.166 F 
ATOM     15  F   UNL d   1       2.592   4.935  -4.490  0.00  0.00    -0.166 F 
ATOM     16  F   UNL d   1       3.840   3.174  -4.755  0.00  0.00    -0.166 F 
ENDBRANCH   8  13
ENDBRANCH   4   6
ENDBRANCH   1   4
BRANCH   1  17
ATOM     17  C   UNL d   1       0.501  -0.669  -1.495  0.00  0.00     0.075 A 
ATOM     18  C   UNL d   1       1.383  -0.772  -2.572  0.00  0.00     0.027 A 
ATOM     19  C   UNL d   1       0.929  -1.278  -3.795  0.00  0.00     0.031 A 
ATOM     20  C   UNL d   1      -0.398  -1.704  -3.944  0.00  0.00     0.034 A 
ATOM     21  C   UNL d   1      -1.256  -1.636  -2.841  0.00  0.00     0.031 A 
ATOM     22  C   UNL d   1      -0.812  -1.121  -1.617  0.00  0.00     0.027 A 
BRANCH  20  23
ATOM     23  N   UNL d   1      -0.789  -2.180  -5.216  0.00  0.00    -0.328 N 
ATOM     24  C   UNL d   1      -2.046  -2.615  -5.594  0.00  0.00     0.218 C 
ATOM     25  O   UNL d   1      -3.044  -2.683  -4.882  0.00  0.00    -0.274 OA
ATOM     26  C   UNL d   1      -2.134  -3.022  -7.045  0.00  0.00     0.117 C 
ATOM     27  H   UNL d   1      -0.068  -2.183  -5.928  0.00  0.00     0.169 HD
ENDBRANCH  20  23
ENDBRANCH   1  17
TORSDOF 5
