REMARK  2 active torsions:
REMARK  status: ('A' for Active; 'I' for Inactive)
REMARK       I    between atoms: C_7  and  N_8 
REMARK    1  A    between atoms: C_15  and  C_7 
REMARK    2  A    between atoms: N_8  and  C_12 
ROOT
ATOM      1  C   UNL d   1       1.224  -0.724   0.062  0.00  0.00     0.031 A 
ATOM      2  C   UNL d   1      -0.069  -1.429   0.143  0.00  0.00     0.194 A 
ATOM      3  C   UNL d   1       0.022   1.452  -0.009  0.00  0.00     0.194 A 
ATOM      4  C   UNL d   1       1.273   0.665   0.017  0.00  0.00     0.029 A 
ATOM      5  C   UNL d   1      -1.317  -0.650   0.065  0.00  0.00     0.029 A 
ATOM      6  C   UNL d   1      -1.275   0.740  -0.020  0.00  0.00     0.029 A 
ATOM      7  C   UNL d   1       2.517   1.310  -0.017  0.00  0.00     0.018 A 
ATOM      8  C   UNL d   1       2.407  -1.470   0.026  0.00  0.00     0.046 A 
ATOM      9  O   UNL d   1      -0.114  -2.646   0.276  0.00  0.00    -0.287 OA
ATOM     10  C   UNL d   1       3.654  -0.841  -0.063  0.00  0.00     0.035 A 
ATOM     11  O   UNL d   1       0.062   2.676  -0.031  0.00  0.00    -0.287 OA
ATOM     12  C   UNL d   1       3.701   0.558  -0.045  0.00  0.00     0.030 A 
ATOM     13  C   UNL d   1      -2.471   1.463  -0.113  0.00  0.00     0.016 A 
ATOM     14  C   UNL d   1      -2.546  -1.322   0.069  0.00  0.00     0.016 A 
ATOM     15  C   UNL d   1      -3.735  -0.599  -0.021  0.00  0.00     0.001 A 
ATOM     16  C   UNL d   1      -3.698   0.791  -0.116  0.00  0.00     0.001 A 
ENDROOT
BRANCH  10  17
ATOM     17  N   UNL d   1       4.867  -1.561  -0.169  0.00  0.00    -0.323 N 
ATOM     18  C   UNL d   1       4.964  -2.895  -0.537  0.00  0.00     0.256 C 
ATOM     19  O   UNL d   1       4.031  -3.594  -0.921  0.00  0.00    -0.267 OA
ATOM     20  H   UNL d   1       5.724  -1.024  -0.124  0.00  0.00     0.169 HD
BRANCH  18  21
ATOM     21  C   UNL d   1       6.319  -3.512  -0.522  0.00  0.00     0.032 A 
ATOM     22  C   UNL d   1       7.341  -3.085   0.334  0.00  0.00     0.017 A 
ATOM     23  C   UNL d   1       8.563  -3.766   0.347  0.00  0.00     0.001 A 
ATOM     24  C   UNL d   1       8.766  -4.870  -0.484  0.00  0.00     0.000 A 
ATOM     25  C   UNL d   1       7.752  -5.298  -1.336  0.00  0.00     0.001 A 
ATOM     26  C   UNL d   1       6.534  -4.622  -1.354  0.00  0.00     0.017 A 
ENDBRANCH  18  21
ENDBRANCH  10  17
TORSDOF 2
