REMARK  3 active torsions:
REMARK  status: ('A' for Active; 'I' for Inactive)
REMARK    1  A    between atoms: C_6  and  C_1 
REMARK    2  A    between atoms: C_9  and  C_2 
REMARK    3  A    between atoms: C_10  and  C_5 
REMARK       I    between atoms: N_12  and  C_6 
ROOT
ATOM      1  C   UNL d   1       2.107   0.068   0.060  0.00  0.00     0.085 A 
ATOM      2  C   UNL d   1       1.748  -1.283   0.102  0.00  0.00     0.010 A 
ATOM      3  S   UNL d   1       0.730   1.085   0.035  0.00  0.00    -0.072 SA
ATOM      4  C   UNL d   1      -0.359  -0.217   0.021  0.00  0.00     0.098 A 
ATOM      5  C   UNL d   1       0.277  -1.453   0.052  0.00  0.00     0.014 A 
ATOM      6  C   UNL d   1      -1.761   0.047  -0.037  0.00  0.00     0.108 C 
ATOM      7  N   UNL d   1      -2.905   0.275  -0.053  0.00  0.00    -0.191 NA
ENDROOT
BRANCH   5   8
ATOM      8  C   UNL d   1      -0.493  -2.719  -0.042  0.00  0.00    -0.023 A 
ATOM      9  C   UNL d   1      -1.690  -2.921   0.665  0.00  0.00     0.012 A 
ATOM     10  C   UNL d   1      -2.422  -4.105   0.522  0.00  0.00     0.001 A 
ATOM     11  C   UNL d   1      -1.935  -5.140  -0.269  0.00  0.00     0.000 A 
ATOM     12  C   UNL d   1      -0.725  -4.982  -0.935  0.00  0.00     0.001 A 
ATOM     13  C   UNL d   1      -0.035  -3.769  -0.855  0.00  0.00     0.012 A 
ENDBRANCH   5   8
BRANCH   1  14
ATOM     14  C   UNL d   1       3.416   0.714   0.073  0.00  0.00     0.257 C 
ATOM     15  O   UNL d   1       4.433   0.261   0.587  0.00  0.00    -0.267 OA
ATOM     16  N   UNL d   1       3.507   1.916  -0.589  0.00  0.00    -0.365 N 
ATOM     17  H   UNL d   1       2.707   2.373  -1.000  0.00  0.00     0.159 HD
ATOM     18  H   UNL d   1       4.408   2.373  -0.613  0.00  0.00     0.159 HD
ENDBRANCH   1  14
BRANCH   2  19
ATOM     19  C   UNL d   1       2.745  -2.381   0.101  0.00  0.00    -0.024 A 
ATOM     20  C   UNL d   1       2.504  -3.559   0.829  0.00  0.00     0.012 A 
ATOM     21  C   UNL d   1       3.306  -4.691   0.658  0.00  0.00     0.001 A 
ATOM     22  C   UNL d   1       4.423  -4.636  -0.168  0.00  0.00     0.000 A 
ATOM     23  C   UNL d   1       4.728  -3.453  -0.833  0.00  0.00     0.001 A 
ATOM     24  C   UNL d   1       3.880  -2.346  -0.722  0.00  0.00     0.012 A 
ENDBRANCH   2  19
TORSDOF 3
