REMARK  3 active torsions:
REMARK  status: ('A' for Active; 'I' for Inactive)
REMARK    1  A    between atoms: C_5  and  C_3 
REMARK    2  A    between atoms: C_11  and  C_4 
REMARK    3  A    between atoms: C_8  and  C_10 
ROOT
ATOM      1  N   UNL d   1       1.251   0.155   0.140  0.00  0.00    -0.318 N 
ATOM      2  HN  UNL d   1       2.237   0.298   0.358  1.00  0.00     0.169 HD
ATOM      3  C   UNL d   1       0.266   1.098  -0.042  0.00  0.00     0.140 A 
ATOM      4  C   UNL d   1       0.607  -0.977  -0.037  0.00  0.00     0.182 A 
ATOM      5  N   UNL d   1      -0.933   0.586  -0.350  0.00  0.00    -0.242 N 
ATOM      6  HN  UNL d   1      -1.800   1.084  -0.552  1.00  0.00     0.196 HD
ATOM      7  O   UNL d   1      -0.715  -0.794  -0.327  0.00  0.00    -0.217 OA
ENDROOT
BRANCH   3   8
ATOM      8  C   UNL d   1       0.561   2.519  -0.018  0.00  0.00     0.040 A 
ATOM      9  C   UNL d   1      -0.277   3.509   0.516  0.00  0.00     0.064 A 
ATOM     10  C   UNL d   1       0.110   4.856   0.383  0.00  0.00     0.034 A 
ATOM     11  C   UNL d   1       1.314   5.165  -0.227  0.00  0.00     0.088 A 
ATOM     12  N   UNL d   1       2.156   4.232  -0.708  0.00  0.00    -0.374 N 
ATOM     13  C   UNL d   1       1.761   2.939  -0.592  0.00  0.00     0.103 A 
ATOM     14  HN  UNL d   1       3.046   4.484  -1.138  1.00  0.00     0.164 HD
BRANCH   9  15
ATOM     15  C   UNL d   1      -1.575   3.226   1.226  0.00  0.00     0.418 C 
ATOM     16  F   UNL d   1      -1.665   1.998   1.805  0.00  0.00    -0.166 F 
ATOM     17  F   UNL d   1      -1.787   4.104   2.254  0.00  0.00    -0.166 F 
ATOM     18  F   UNL d   1      -2.655   3.359   0.412  0.00  0.00    -0.166 F 
ENDBRANCH   9  15
ENDBRANCH   3   8
BRANCH   4  19
ATOM     19  C   UNL d   1       1.111  -2.346  -0.015  0.00  0.00     0.021 A 
ATOM     20  C   UNL d   1       2.479  -2.570   0.207  0.00  0.00     0.040 A 
ATOM     21  C   UNL d   1       2.996  -3.867   0.201  0.00  0.00     0.036 A 
ATOM     22 CL   UNL d   1       4.679  -4.114   0.460  0.00  0.00    -0.084 Cl
ATOM     23  C   UNL d   1       2.166  -4.961  -0.020  0.00  0.00     0.047 A 
ATOM     24  C   UNL d   1       0.807  -4.746  -0.231  0.00  0.00     0.036 A 
ATOM     25  C   UNL d   1       0.277  -3.453  -0.229  0.00  0.00     0.040 A 
ATOM     26 CL   UNL d   1      -0.232  -6.089  -0.506  0.00  0.00    -0.084 Cl
ENDBRANCH   4  19
TORSDOF 3
