REMARK  5 active torsions:
REMARK  status: ('A' for Active; 'I' for Inactive)
REMARK       I    between atoms: N_2  and  C_1 
REMARK       I    between atoms: N_8  and  C_1 
REMARK    1  A    between atoms: C_3  and  N_2 
REMARK    2  A    between atoms: C_4  and  N_2 
REMARK    3  A    between atoms: C_9  and  C_3 
REMARK    4  A    between atoms: C_10  and  C_4 
REMARK    5  A    between atoms: C_19  and  N_8 
ROOT
ATOM      1  C   UNL d   1       1.252  -0.258   0.053  0.00  0.00     0.318 C 
ATOM      2  N   UNL d   1       0.428  -0.886  -0.870  0.00  0.00    -0.326 N 
ATOM      3  O   UNL d   1       0.814   0.372   1.016  0.00  0.00    -0.247 OA
ATOM      4  N   UNL d   1       2.597  -0.397  -0.168  0.00  0.00    -0.343 N 
ATOM      5  H   UNL d   1       2.896  -0.553  -1.117  0.00  0.00     0.164 HD
ENDROOT
BRANCH   2   6
ATOM      6  C   UNL d   1      -1.020  -0.710  -0.746  0.00  0.00     0.167 C 
BRANCH   6   7
ATOM      7  C   UNL d   1      -1.736  -1.819  -0.015  0.00  0.00    -0.025 A 
ATOM      8  C   UNL d   1      -2.698  -2.596  -0.657  0.00  0.00     0.096 A 
ATOM      9  N   UNL d   1      -3.465  -3.531  -0.045  0.00  0.00    -0.375 N 
ATOM     10  C   UNL d   1      -3.272  -3.698   1.281  0.00  0.00     0.087 A 
ATOM     11  HN  UNL d   1      -4.152  -4.080  -0.560  1.00  0.00     0.164 HD
ATOM     12  C   UNL d   1      -2.330  -2.995   2.012  0.00  0.00     0.018 A 
ATOM     13  C   UNL d   1      -1.549  -2.049   1.351  0.00  0.00     0.011 A 
ENDBRANCH   6   7
ENDBRANCH   2   6
BRANCH   2  14
ATOM     14  C   UNL d   1       0.897  -1.745  -1.957  0.00  0.00     0.166 C 
BRANCH  14  15
ATOM     15  C   UNL d   1       1.244  -1.026  -3.251  0.00  0.00    -0.040 A 
ATOM     16  C   UNL d   1       1.133   0.364  -3.424  0.00  0.00     0.010 A 
ATOM     17  C   UNL d   1       1.470   0.963  -4.644  0.00  0.00     0.024 A 
ATOM     18  C   UNL d   1       1.922   0.180  -5.702  0.00  0.00     0.034 A 
ATOM     19  C   UNL d   1       2.040  -1.196  -5.553  0.00  0.00     0.024 A 
ATOM     20 CL   UNL d   1       2.337   0.920  -7.201  0.00  0.00    -0.084 Cl
ATOM     21  C   UNL d   1       1.704  -1.796  -4.335  0.00  0.00     0.010 A 
ENDBRANCH  14  15
ENDBRANCH   2  14
BRANCH   4  22
ATOM     22  C   UNL d   1       3.592   0.155   0.732  0.00  0.00     0.120 C 
ATOM     23  C   UNL d   1       3.995   1.569   0.351  0.00  0.00     0.026 C 
ENDBRANCH   4  22
TORSDOF 5
