REMARK  4 active torsions:
REMARK  status: ('A' for Active; 'I' for Inactive)
REMARK    1  A    between atoms: C_8  and  C_2 
REMARK    2  A    between atoms: C_9  and  N_3 
REMARK    3  A    between atoms: N_6  and  C_10 
REMARK    4  A    between atoms: O_19  and  C_8 
ROOT
ATOM      1  C   UNL d   1       0.928  -0.772  -0.358  0.00  0.00     0.139 A 
ATOM      2  C   UNL d   1      -0.379  -1.193  -0.158  0.00  0.00     0.099 A 
ATOM      3  N   UNL d   1       0.992   0.563   0.056  0.00  0.00    -0.240 N 
ATOM      4  N   UNL d   1      -0.182   0.953   0.623  0.00  0.00    -0.302 N 
ATOM      5  HN  UNL d   1      -0.385   1.835   1.095  1.00  0.00     0.186 HD
ATOM      6  C   UNL d   1      -1.006  -0.074   0.425  0.00  0.00     0.130 A 
ATOM      7  N   UNL d   1       1.994  -1.494  -0.804  0.00  0.00    -0.383 N 
ATOM      8  H   UNL d   1       1.859  -2.505  -0.925  0.00  0.00     0.157 HD
ATOM      9  H   UNL d   1       2.931  -1.288  -0.460  0.00  0.00     0.157 HD
ENDROOT
BRANCH   3  10
ATOM     10  C   UNL d   1       2.078   1.481  -0.031  0.00  0.00     0.058 A 
ATOM     11  C   UNL d   1       3.061   1.347  -1.022  0.00  0.00     0.034 A 
ATOM     12  C   UNL d   1       4.139   2.237  -1.069  0.00  0.00     0.038 A 
ATOM     13  C   UNL d   1       4.235   3.260  -0.117  0.00  0.00     0.103 A 
ATOM     14  C   UNL d   1       3.243   3.420   0.859  0.00  0.00     0.038 A 
ATOM     15  C   UNL d   1       2.155   2.541   0.888  0.00  0.00     0.034 A 
BRANCH  13  16
ATOM     16  N   UNL d   1       5.386   4.171  -0.144  0.00  0.00    -0.116 N 
ATOM     17  O   UNL d   1       5.451   5.045   0.732  0.00  0.00    -0.532 OA
ATOM     18  O   UNL d   1       6.230   4.006  -1.036  0.00  0.00    -0.532 OA
ENDBRANCH  13  16
ENDBRANCH   3  10
BRANCH   2  19
ATOM     19  C   UNL d   1      -0.888  -2.525  -0.449  0.00  0.00     0.181 C 
ATOM     20  O   UNL d   1      -0.187  -3.435  -0.871  0.00  0.00    -0.646 OA
BRANCH  19  21
ATOM     21  O   UNL d   1      -2.208  -2.722  -0.201  0.00  0.00    -0.773 OA
ATOM     22  H   UNL d   1      -2.690  -1.946   0.128  0.00  0.00     0.167 HD
ENDBRANCH  19  21
ENDBRANCH   2  19
TORSDOF 4
