REMARK  3 active torsions:
REMARK  status: ('A' for Active; 'I' for Inactive)
REMARK    1  A    between atoms: C_7  and  C_2 
REMARK    2  A    between atoms: C_10  and  C_4 
REMARK    3  A    between atoms: O_18  and  C_17 
ROOT
ATOM      1  C   UNL d   1      -0.492  -0.399   0.019  0.00  0.00     0.124 A 
ATOM      2  C   UNL d   1       0.252  -1.532  -0.008  0.00  0.00     0.009 A 
ATOM      3  C   UNL d   1       0.204   0.923   0.068  0.00  0.00     0.267 A 
ATOM      4  C   UNL d   1       2.321  -0.248   0.081  0.00  0.00     0.046 A 
ATOM      5  N   UNL d   1       1.576   0.898   0.099  0.00  0.00    -0.322 N 
ATOM      6  C   UNL d   1       1.708  -1.439   0.032  0.00  0.00     0.045 A 
ATOM      7  C   UNL d   1      -1.916  -0.383  -0.009  0.00  0.00     0.106 C 
ATOM      8  N   UNL d   1      -3.076  -0.402  -0.031  0.00  0.00    -0.191 NA
ATOM      9  O   UNL d   1      -0.403   1.989   0.069  0.00  0.00    -0.266 OA
ATOM     10  H   UNL d   1       2.038   1.800   0.130  0.00  0.00     0.169 HD
ENDROOT
BRANCH   2  11
ATOM     11  C   UNL d   1      -0.407  -2.802  -0.114  0.00  0.00     0.016 A 
ATOM     12  S   UNL d   1      -0.874  -3.670   1.297  0.00  0.00    -0.101 SA
ATOM     13  C   UNL d   1      -1.568  -4.933   0.376  0.00  0.00     0.050 A 
ATOM     14  C   UNL d   1      -1.421  -4.727  -0.977  0.00  0.00     0.008 A 
ATOM     15  C   UNL d   1      -0.741  -3.506  -1.258  0.00  0.00     0.020 A 
ENDBRANCH   2  11
BRANCH   4  16
ATOM     16  C   UNL d   1       3.781  -0.133   0.112  0.00  0.00    -0.007 A 
ATOM     17  C   UNL d   1       4.460  -0.119   1.339  0.00  0.00     0.050 A 
ATOM     18  C   UNL d   1       5.855  -0.060   1.371  0.00  0.00     0.069 A 
ATOM     19  C   UNL d   1       6.566  -0.003   0.169  0.00  0.00     0.037 A 
ATOM     20  C   UNL d   1       5.896   0.001  -1.055  0.00  0.00     0.004 A 
ATOM     21  C   UNL d   1       4.504  -0.063  -1.084  0.00  0.00     0.014 A 
BRANCH  18  22
ATOM     22  O   UNL d   1       6.630  -0.061   2.498  0.00  0.00    -0.356 OA
ATOM     23  C   UNL d   1       5.947  -0.128   3.744  0.00  0.00     0.210 C 
ENDBRANCH  18  22
ENDBRANCH   4  16
TORSDOF 3
