REMARK  3 active torsions:
REMARK  status: ('A' for Active; 'I' for Inactive)
REMARK    1  A    between atoms: N_8  and  N_1 
REMARK    2  A    between atoms: S_11  and  C_2 
REMARK    3  A    between atoms: C_9  and  C_7 
ROOT
ATOM      1  N   UNL d   1       1.449  -1.039  -0.238  0.00  0.00    -0.216 N 
ATOM      2  C   UNL d   1       0.127  -1.365  -0.091  0.00  0.00     0.165 A 
ATOM      3  C   UNL d   1       1.556   0.330  -0.189  0.00  0.00     0.291 A 
ATOM      4  C   UNL d   1       0.132   0.742  -0.017  0.00  0.00     0.105 A 
ATOM      5  N   UNL d   1      -0.688  -0.362   0.063  0.00  0.00    -0.331 N 
ATOM      6  HN  UNL d   1      -1.697  -0.388   0.209  1.00  0.00     0.168 HD
ATOM      7  C   UNL d   1      -0.239   2.027  -0.004  0.00  0.00     0.048 C 
ATOM      8  O   UNL d   1       2.524   1.062  -0.267  0.00  0.00    -0.264 OA
ENDROOT
BRANCH   7   9
ATOM      9  C   UNL d   1      -1.637   2.453   0.109  0.00  0.00    -0.012 A 
ATOM     10  C   UNL d   1      -2.455   2.680  -1.009  0.00  0.00     0.044 A 
ATOM     11 CL   UNL d   1      -1.875   2.457  -2.624  0.00  0.00    -0.083 Cl
ATOM     12  C   UNL d   1      -3.776   3.106  -0.843  0.00  0.00     0.024 A 
ATOM     13  C   UNL d   1      -4.293   3.300   0.439  0.00  0.00     0.002 A 
ATOM     14  C   UNL d   1      -3.493   3.062   1.554  0.00  0.00     0.001 A 
ATOM     15  C   UNL d   1      -2.173   2.639   1.391  0.00  0.00     0.013 A 
ENDBRANCH   7   9
BRANCH   1  16
ATOM     16  N   UNL d   1       2.512  -1.940  -0.470  0.00  0.00    -0.228 NA
ATOM     17  C   UNL d   1       3.183  -1.673  -1.745  0.00  0.00     0.136 C 
ATOM     18  C   UNL d   1       3.478  -1.940   0.630  0.00  0.00     0.136 C 
ENDBRANCH   1  16
BRANCH   2  19
ATOM     19  S   UNL d   1      -0.395  -3.019  -0.122  0.00  0.00    -0.097 SA
ATOM     20  C   UNL d   1      -2.173  -2.810   0.130  0.00  0.00     0.099 C 
ENDBRANCH   2  19
TORSDOF 3
