REMARK  3 active torsions:
REMARK  status: ('A' for Active; 'I' for Inactive)
REMARK    1  A    between atoms: C_2  and  N_1 
REMARK       I    between atoms: C_3  and  N_1 
REMARK    2  A    between atoms: C_12  and  C_3 
REMARK    3  A    between atoms: C_8  and  C_6 
ROOT
ATOM      1  C   UNL d   1       0.293  -1.174   0.188  0.00  0.00     0.685 A 
ATOM      2  N   UNL d   1      -0.729  -1.309  -0.672  0.00  0.00    -0.191 N 
ATOM      3  HN  UNL d   1      -0.934  -0.591  -1.367  1.00  0.00     0.184 HD
ATOM      4  C   UNL d   1      -1.481  -2.435  -0.582  0.00  0.00     0.060 A 
ATOM      5  N   UNL d   1       0.580  -2.052   1.151  0.00  0.00    -0.202 N 
ATOM      6  HN  UNL d   1       1.343  -1.888   1.808  1.00  0.00     0.183 HD
ATOM      7  C   UNL d   1      -1.213  -3.408   0.364  0.00  0.00     0.048 A 
ATOM      8  C   UNL d   1      -0.174  -3.155   1.222  0.00  0.00     0.108 A 
ENDROOT
BRANCH   1   9
ATOM      9  N   UNL d   1       1.081  -0.045  -0.016  0.00  0.00    -0.155 N 
ATOM     10  C   UNL d   1       2.282   0.194   0.612  0.00  0.00     0.269 C 
ATOM     11  O   UNL d   1       2.813  -0.547   1.439  0.00  0.00    -0.267 OA
ATOM     12  H   UNL d   1       0.736   0.534  -0.760  0.00  0.00     0.187 HD
BRANCH  10  13
ATOM     13  C   UNL d   1       3.028   1.439   0.232  0.00  0.00     0.032 A 
ATOM     14  C   UNL d   1       2.522   2.436  -0.610  0.00  0.00     0.017 A 
ATOM     15  C   UNL d   1       3.299   3.565  -0.914  0.00  0.00     0.007 A 
ATOM     16  C   UNL d   1       4.582   3.721  -0.374  0.00  0.00    -0.062 A 
ATOM     17  C   UNL d   1       5.087   2.729   0.467  0.00  0.00     0.007 A 
ATOM     18  C   UNL d   1       5.411   4.922  -0.725  0.00  0.00     0.048 C 
ATOM     19  C   UNL d   1       4.317   1.603   0.767  0.00  0.00     0.017 A 
ENDBRANCH  10  13
ENDBRANCH   1   9
BRANCH   4  20
ATOM     20  C   UNL d   1      -2.578  -2.570  -1.569  0.00  0.00    -0.006 A 
ATOM     21  C   UNL d   1      -2.510  -1.921  -2.817  0.00  0.00     0.053 A 
ATOM     22  C   UNL d   1      -3.535  -2.047  -3.759  0.00  0.00     0.103 A 
ATOM     23  O   UNL d   1      -3.379  -1.360  -4.936  0.00  0.00    -0.346 OA
ATOM     24  C   UNL d   1      -4.643  -2.850  -3.486  0.00  0.00     0.102 A 
ATOM     25  C   UNL d   1      -4.613  -1.277  -5.657  0.00  0.00     0.202 C 
ATOM     26  C   UNL d   1      -5.307  -2.628  -5.693  0.00  0.00     0.202 C 
ATOM     27  O   UNL d   1      -5.670  -3.046  -4.372  0.00  0.00    -0.346 OA
ATOM     28  C   UNL d   1      -4.747  -3.488  -2.257  0.00  0.00     0.040 A 
ATOM     29  C   UNL d   1      -3.727  -3.346  -1.309  0.00  0.00     0.017 A 
ENDBRANCH   4  20
TORSDOF 3
