REMARK  8 active torsions:
REMARK  status: ('A' for Active; 'I' for Inactive)
REMARK    1  A    between atoms: C_3  and  S_1 
REMARK    2  A    between atoms: N_5  and  S_1 
REMARK    3  A    between atoms: C_2  and  C_10 
REMARK       I    between atoms: N_4  and  C_2 
REMARK    4  A    between atoms: C_11  and  N_4 
REMARK    5  A    between atoms: C_24  and  N_5 
REMARK    6  A    between atoms: C_25  and  N_5 
REMARK    7  A    between atoms: C_26  and  C_24 
REMARK    8  A    between atoms: C_27  and  C_25 
ROOT
ATOM      1  C   UNL d   1       0.840   1.223   1.077  0.00  0.00     0.074 A 
ATOM      2  C   UNL d   1       0.214   3.444   2.700  0.00  0.00     0.032 A 
ATOM      3  C   UNL d   1      -0.122   1.105   2.089  0.00  0.00     0.026 A 
ATOM      4  C   UNL d   1       1.555   2.416   0.945  0.00  0.00     0.026 A 
ATOM      5  C   UNL d   1      -0.438   2.212   2.897  0.00  0.00     0.018 A 
ATOM      6  C   UNL d   1       1.220   3.527   1.729  0.00  0.00     0.018 A 
ENDROOT
BRANCH   2   7
ATOM      7  C   UNL d   1      -0.182   4.614   3.556  0.00  0.00     0.256 C 
ATOM      8  N   UNL d   1       0.380   5.845   3.217  0.00  0.00    -0.323 N 
ATOM      9  H   UNL d   1       0.755   5.924   2.284  0.00  0.00     0.169 HD
ATOM     10  O   UNL d   1      -1.010   4.435   4.443  0.00  0.00    -0.267 OA
BRANCH   8  11
ATOM     11  C   UNL d   1      -0.006   7.079   3.782  0.00  0.00     0.035 C 
ATOM     12  C   UNL d   1      -0.558   7.196   5.062  0.00  0.00     0.041 C 
ATOM     13  C   UNL d   1      -1.320   8.312   5.338  0.00  0.00     0.001 C 
ATOM     14  C   UNL d   1      -2.098   8.613   6.573  0.00  0.00     0.212 C 
ATOM     15  C   UNL d   1      -1.710   9.098   4.263  0.00  0.00     0.080 C 
ATOM     16  O   UNL d   1      -3.448   8.221   6.334  0.00  0.00    -0.362 OA
ATOM     17  C   UNL d   1      -3.813   8.513   4.973  0.00  0.00     0.345 C 
ATOM     18  O   UNL d   1      -3.020   9.542   4.301  0.00  0.00    -0.326 OA
ATOM     19  C   UNL d   1      -0.926   9.201   3.134  0.00  0.00     0.040 C 
ATOM     20  C   UNL d   1       0.005   8.191   2.926  0.00  0.00     0.032 C 
ENDBRANCH   8  11
ENDBRANCH   2   7
BRANCH   1  21
ATOM     21  S   UNL d   1       1.276  -0.183   0.081  0.00  0.00     0.243 S 
ATOM     22  O   UNL d   1       0.553  -1.319   0.636  0.00  0.00    -0.206 OA
ATOM     23  O   UNL d   1       2.722  -0.219  -0.056  0.00  0.00    -0.206 OA
BRANCH  21  24
ATOM     24  N   UNL d   1       0.610   0.173  -1.516  0.00  0.00    -0.206 NA
BRANCH  24  25
ATOM     25  C   UNL d   1       1.421   1.229  -2.235  0.00  0.00     0.107 C 
BRANCH  25  26
ATOM     26  C   UNL d   1       0.904   1.609  -3.628  0.00  0.00     0.011 C 
ATOM     27  C   UNL d   1       1.686   2.777  -4.216  0.00  0.00     0.006 C 
ENDBRANCH  25  26
ENDBRANCH  24  25
BRANCH  24  28
ATOM     28  C   UNL d   1       0.416  -1.061  -2.357  0.00  0.00     0.107 C 
BRANCH  28  29
ATOM     29  C   UNL d   1      -0.755  -1.947  -1.935  0.00  0.00     0.011 C 
ATOM     30  C   UNL d   1      -2.064  -1.192  -1.768  0.00  0.00     0.006 C 
ENDBRANCH  28  29
ENDBRANCH  24  28
ENDBRANCH  21  24
ENDBRANCH   1  21
TORSDOF 8
