REMARK  4 active torsions:
REMARK  status: ('A' for Active; 'I' for Inactive)
REMARK    1  A    between atoms: N_3  and  C_1 
REMARK    2  A    between atoms: N_4  and  C_1 
REMARK    3  A    between atoms: C_2  and  N_3 
REMARK    4  A    between atoms: C_5  and  N_4 
ROOT
ATOM      1  C   UNL d   1       1.061   0.085  -2.252  0.00  0.00     0.176 C 
ATOM      2  S   UNL d   1       2.620  -0.394  -1.883  0.00  0.00    -0.041 SA
ENDROOT
BRANCH   1   3
ATOM      3  N   UNL d   1       0.605   0.491  -3.485  0.00  0.00    -0.330 N 
ATOM      4  H   UNL d   1       0.141   1.394  -3.427  0.00  0.00     0.168 HD
BRANCH   3   5
ATOM      5  C   UNL d   1       1.086   0.154  -4.774  0.00  0.00     0.078 A 
ATOM      6  C   UNL d   1       1.338  -1.164  -5.194  0.00  0.00     0.062 A 
ATOM      7 CL   UNL d   1       0.986  -2.553  -4.222  0.00  0.00    -0.082 Cl
ATOM      8  C   UNL d   1       1.736  -1.421  -6.514  0.00  0.00     0.026 A 
ATOM      9  C   UNL d   1       1.866  -0.380  -7.433  0.00  0.00     0.003 A 
ATOM     10  C   UNL d   1       1.582   0.924  -7.041  0.00  0.00     0.026 A 
ATOM     11  C   UNL d   1       1.183   1.185  -5.728  0.00  0.00     0.062 A 
ATOM     12 CL   UNL d   1       0.818   2.827  -5.309  0.00  0.00    -0.082 Cl
ENDBRANCH   3   5
ENDBRANCH   1   3
BRANCH   1  13
ATOM     13  N   UNL d   1       0.175   0.296  -1.219  0.00  0.00    -0.333 N 
ATOM     14  H   UNL d   1       0.596   0.314  -0.299  0.00  0.00     0.168 HD
BRANCH  13  15
ATOM     15  C   UNL d   1      -1.240   0.348  -1.276  0.00  0.00     0.040 A 
ATOM     16  C   UNL d   1      -1.963   0.993  -0.260  0.00  0.00    -0.035 A 
ATOM     17  C   UNL d   1      -3.370   0.971  -0.310  0.00  0.00     0.009 A 
ATOM     18  C   UNL d   1      -1.322   1.729   0.884  0.00  0.00     0.050 C 
ATOM     19  C   UNL d   1      -4.048   0.334  -1.351  0.00  0.00     0.007 A 
ATOM     20  C   UNL d   1      -3.334  -0.308  -2.362  0.00  0.00    -0.060 A 
ATOM     21  C   UNL d   1      -1.936  -0.302  -2.308  0.00  0.00     0.037 A 
ATOM     22  C   UNL d   1      -4.054  -1.020  -3.469  0.00  0.00     0.048 C 
ENDBRANCH  13  15
ENDBRANCH   1  13
TORSDOF 4
