REMARK  9 active torsions:
REMARK  status: ('A' for Active; 'I' for Inactive)
REMARK    1  A    between atoms: C_8  and  N_1 
REMARK    2  A    between atoms: C_13  and  C_2 
REMARK    3  A    between atoms: S_11  and  C_5 
REMARK    4  A    between atoms: C_9  and  C_10 
REMARK    5  A    between atoms: C_10  and  C_14 
REMARK    6  A    between atoms: O_21  and  C_10 
REMARK    7  A    between atoms: C_14  and  S_11 
REMARK    8  A    between atoms: O_26  and  C_20 
REMARK    9  A    between atoms: O_27  and  C_22 
ROOT
ATOM      1  N   UNL d   1      -0.284  -1.276   0.044  0.00  0.00    -0.275 N 
ATOM      2  C   UNL d   1       0.981  -0.668   0.014  0.00  0.00     0.139 A 
ATOM      3  N   UNL d   1       0.821   0.646   0.044  0.00  0.00    -0.282 N 
ATOM      4  HN  UNL d   1       1.574   1.333   0.077  1.00  0.00     0.188 HD
ATOM      5  C   UNL d   1      -1.170  -0.200   0.006  0.00  0.00     0.168 A 
ATOM      6  N   UNL d   1      -0.511   0.933   0.025  0.00  0.00    -0.278 N 
ATOM      7  HN  UNL d   1      -0.923   1.866   0.024  1.00  0.00     0.189 HD
ENDROOT
BRANCH   5   8
ATOM      8  S   UNL d   1      -2.898  -0.305   0.097  0.00  0.00    -0.089 SA
BRANCH   8   9
ATOM      9  C   UNL d   1      -3.432   1.432  -0.015  0.00  0.00     0.123 C 
BRANCH   9  10
ATOM     10  C   UNL d   1      -3.157   2.201  -1.312  0.00  0.00     0.235 C 
BRANCH  10  11
ATOM     11  C   UNL d   1      -3.723   1.532  -2.578  0.00  0.00     0.413 C 
ATOM     12  F   UNL d   1      -4.495   0.456  -2.319  0.00  0.00    -0.168 F 
ATOM     13  F   UNL d   1      -4.511   2.410  -3.254  0.00  0.00    -0.168 F 
ATOM     14  F   UNL d   1      -2.742   1.144  -3.421  0.00  0.00    -0.168 F 
ENDBRANCH  10  11
BRANCH  10  15
ATOM     15  O   UNL d   1      -3.684   3.544  -1.119  0.00  0.00    -0.386 OA
ATOM     16  H   UNL d   1      -4.564   3.586  -1.540  0.00  0.00     0.210 HD
ENDBRANCH  10  15
ENDBRANCH   9  10
ENDBRANCH   8   9
ENDBRANCH   5   8
BRANCH   1  17
ATOM     17  C   UNL d   1      -0.577  -2.676   0.093  0.00  0.00     0.046 A 
ATOM     18  C   UNL d   1      -1.628  -3.214  -0.667  0.00  0.00     0.066 A 
ATOM     19  C   UNL d   1      -1.841  -4.595  -0.704  0.00  0.00     0.070 A 
ATOM     20  C   UNL d   1      -0.986  -5.442   0.003  0.00  0.00     0.037 A 
ATOM     21  C   UNL d   1       0.048  -4.919   0.776  0.00  0.00     0.005 A 
ATOM     22  C   UNL d   1       0.237  -3.538   0.843  0.00  0.00     0.030 A 
BRANCH  19  23
ATOM     23  O   UNL d   1      -2.820  -5.236  -1.413  0.00  0.00    -0.356 OA
ATOM     24  C   UNL d   1      -3.778  -4.420  -2.077  0.00  0.00     0.210 C 
ENDBRANCH  19  23
ENDBRANCH   1  17
BRANCH   2  25
ATOM     25  C   UNL d   1       2.303  -1.309  -0.097  0.00  0.00     0.010 A 
ATOM     26  C   UNL d   1       2.534  -2.453  -0.873  0.00  0.00     0.018 A 
ATOM     27  C   UNL d   1       3.791  -3.073  -0.897  0.00  0.00     0.037 A 
ATOM     28  C   UNL d   1       4.857  -2.521  -0.191  0.00  0.00     0.068 A 
ATOM     29  C   UNL d   1       4.661  -1.331   0.515  0.00  0.00     0.037 A 
ATOM     30  C   UNL d   1       3.395  -0.738   0.570  0.00  0.00     0.018 A 
BRANCH  28  31
ATOM     31  O   UNL d   1       6.127  -3.016  -0.165  0.00  0.00    -0.356 OA
ATOM     32  C   UNL d   1       6.247  -4.427  -0.321  0.00  0.00     0.210 C 
ENDBRANCH  28  31
ENDBRANCH   2  25
TORSDOF 9
