REMARK  2 active torsions:
REMARK  status: ('A' for Active; 'I' for Inactive)
REMARK    1  A    between atoms: C_2  and  N_1 
REMARK    2  A    between atoms: N_4  and  C_3 
ROOT
ATOM      1  C   UNL d   1       0.159  -1.684  -3.018  0.00  0.00     0.129 A 
ATOM      2  C   UNL d   1       0.740  -1.627  -1.732  0.00  0.00     0.063 A 
ATOM      3  C   UNL d   1      -0.836  -0.792  -3.455  0.00  0.00     0.038 A 
ATOM      4  C   UNL d   1       0.245  -0.611  -0.894  0.00  0.00     0.032 A 
ATOM      5  C   UNL d   1      -1.295   0.193  -2.589  0.00  0.00     0.003 A 
ATOM      6  C   UNL d   1      -0.756   0.281  -1.309  0.00  0.00     0.002 A 
ENDROOT
BRANCH   2   7
ATOM      7  N   UNL d   1       1.702  -2.525  -1.283  0.00  0.00    -0.379 N 
ATOM      8  C   UNL d   1       1.782  -2.880   0.138  0.00  0.00     0.123 C 
ATOM      9  C   UNL d   1       2.261  -4.329   0.250  0.00  0.00     0.020 C 
ATOM     10  C   UNL d   1       3.564  -4.564  -0.517  0.00  0.00     0.003 C 
ATOM     11  C   UNL d   1       3.475  -4.045  -1.953  0.00  0.00     0.020 C 
ATOM     12  C   UNL d   1       2.992  -2.594  -1.986  0.00  0.00     0.123 C 
ENDBRANCH   2   7
BRANCH   1  13
ATOM     13  N   UNL d   1       0.507  -2.741  -3.945  0.00  0.00    -0.113 N 
ATOM     14  O   UNL d   1       0.125  -3.892  -3.681  0.00  0.00    -0.532 OA
ATOM     15  O   UNL d   1       1.109  -2.405  -4.977  0.00  0.00    -0.532 OA
ENDBRANCH   1  13
TORSDOF 2
