REMARK  5 active torsions:
REMARK  status: ('A' for Active; 'I' for Inactive)
REMARK       I    between atoms: C_4  and  N_1 
REMARK    1  A    between atoms: C_6  and  C_2 
REMARK    2  A    between atoms: O_19  and  C_6 
REMARK    3  A    between atoms: C_7  and  N_12 
REMARK    4  A    between atoms: N_12  and  C_17 
REMARK    5  A    between atoms: C_21  and  O_19 
ROOT
ATOM      1  C   UNL d   1      -7.113   0.646  -0.220  0.00  0.00     0.135 C 
ATOM      2  C   UNL d   1      -5.918   1.255  -0.326  0.00  0.00     0.117 C 
ATOM      3  C   UNL d   1      -7.256  -0.627   0.385  0.00  0.00     0.107 C 
ATOM      4  N   UNL d   1      -7.326  -1.670   0.897  0.00  0.00    -0.191 NA
ENDROOT
BRANCH   1   5
ATOM      5  C   UNL d   1      -8.308   1.391  -0.693  0.00  0.00     0.305 C 
ATOM      6  O   UNL d   1      -8.272   2.507  -1.191  0.00  0.00    -0.258 OA
BRANCH   5   7
ATOM      7  O   UNL d   1      -9.437   0.696  -0.404  0.00  0.00    -0.317 OA
BRANCH   7   8
ATOM      8  C   UNL d   1     -10.659   1.450  -0.421  0.00  0.00     0.174 C 
ATOM      9  C   UNL d   1     -10.865   2.033   0.965  0.00  0.00     0.034 C 
ENDBRANCH   7   8
ENDBRANCH   5   7
ENDBRANCH   1   5
BRANCH   2  10
ATOM     10  N   UNL d   1      -4.674   0.806   0.064  0.00  0.00    -0.364 N 
ATOM     11  H   UNL d   1      -4.613  -0.126   0.469  0.00  0.00     0.165 HD
BRANCH  10  12
ATOM     12  C   UNL d   1      -3.454   1.508   0.021  0.00  0.00     0.032 A 
ATOM     13  C   UNL d   1      -2.253   0.772  -0.059  0.00  0.00     0.031 A 
ATOM     14  C   UNL d   1      -1.004   1.402  -0.180  0.00  0.00     0.032 A 
ATOM     15  C   UNL d   1      -0.963   2.783  -0.225  0.00  0.00     0.043 A 
ATOM     16  N   UNL d   1       0.143   3.650  -0.342  0.00  0.00    -0.318 N 
ATOM     17  C   UNL d   1      -2.143   3.521  -0.153  0.00  0.00    -0.027 A 
ATOM     18  C   UNL d   1       1.471   3.270  -0.397  0.00  0.00     0.220 C 
ATOM     19  C   UNL d   1      -0.373   5.024  -0.475  0.00  0.00     0.137 C 
ATOM     20  O   UNL d   1       1.872   2.109  -0.308  0.00  0.00    -0.273 OA
ATOM     21  C   UNL d   1       2.489   4.382  -0.533  0.00  0.00     0.117 C 
ATOM     22  C   UNL d   1      -1.869   4.988  -0.153  0.00  0.00     0.061 C 
ATOM     23  C   UNL d   1      -3.384   2.905  -0.038  0.00  0.00     0.039 A 
ENDBRANCH  10  12
ENDBRANCH   2  10
TORSDOF 5
