REMARK  7 active torsions:
REMARK  status: ('A' for Active; 'I' for Inactive)
REMARK    1  A    between atoms: N_20  and  C_8 
REMARK    2  A    between atoms: S_18  and  C_11 
REMARK       I    between atoms: N_12  and  C_16 
REMARK       I    between atoms: C_13  and  N_12 
REMARK       I    between atoms: N_19  and  C_13 
REMARK    3  A    between atoms: C_16  and  C_24 
REMARK    4  A    between atoms: C_24  and  S_18 
REMARK    5  A    between atoms: C_25  and  N_19 
REMARK    6  A    between atoms: C_28  and  N_20 
REMARK    7  A    between atoms: C_26  and  C_25 
ROOT
ATOM      1  C   UNL d   1       0.909  -0.542  -1.047  0.00  0.00     0.090 A 
ATOM      2  C   UNL d   1       0.454   0.647  -0.481  0.00  0.00     0.044 A 
ATOM      3  C   UNL d   1      -1.487  -0.661  -0.501  0.00  0.00     0.020 C 
ATOM      4  N   UNL d   1       2.154  -0.798  -1.518  0.00  0.00    -0.330 N 
ATOM      5  HN  UNL d   1       2.429  -1.679  -1.952  1.00  0.00     0.168 HD
ATOM      6  N   UNL d   1       2.684   1.397  -0.722  0.00  0.00    -0.327 N 
ATOM      7  HN  UNL d   1       3.411   2.100  -0.586  1.00  0.00     0.169 HD
ATOM      8  C   UNL d   1       1.435   1.631  -0.276  0.00  0.00     0.095 A 
ATOM      9  C   UNL d   1      -0.980   0.614  -0.327  0.00  0.00    -0.025 C 
ATOM     10  S   UNL d   1      -0.318  -1.732  -1.122  0.00  0.00    -0.074 SA
ATOM     11  C   UNL d   1       2.980   0.242  -1.346  0.00  0.00     0.146 A 
ATOM     12  N   UNL d   1      -3.707   0.001   0.413  0.00  0.00     0.089 N 
ATOM     13  C   UNL d   1      -2.922  -1.063  -0.265  0.00  0.00     0.318 C 
ATOM     14  C   UNL d   1      -1.907   1.752   0.004  0.00  0.00     0.071 C 
ATOM     15  C   UNL d   1      -3.387   1.326  -0.163  0.00  0.00     0.277 C 
ATOM     16  C   UNL d   1      -3.509  -0.015   1.864  0.00  0.00     0.310 C 
ENDROOT
BRANCH  11  17
ATOM     17  S   UNL d   1       4.624   0.230  -2.042  0.00  0.00    -0.085 SA
BRANCH  17  18
ATOM     18  C   UNL d   1       4.768  -1.362  -2.895  0.00  0.00     0.185 C 
BRANCH  18  19
ATOM     19  C   UNL d   1       4.127  -1.358  -4.278  0.00  0.00     0.235 C 
ATOM     20  N   UNL d   1       2.814  -1.784  -4.260  0.00  0.00    -0.279 N 
ATOM     21  C   UNL d   1       2.004  -2.230  -5.262  0.00  0.00     0.323 C 
ATOM     22  H   UNL d   1       2.354  -1.830  -3.357  0.00  0.00     0.173 HD
ATOM     23  N   UNL d   1       2.498  -2.303  -6.529  0.00  0.00    -0.339 N 
ATOM     24  O   UNL d   1       0.859  -2.586  -4.960  0.00  0.00    -0.247 OA
ATOM     25  H   UNL d   1       3.276  -1.687  -6.751  0.00  0.00     0.164 HD
ATOM     26  O   UNL d   1       4.719  -1.015  -5.297  0.00  0.00    -0.272 OA
BRANCH  23  27
ATOM     27  C   UNL d   1       1.538  -2.637  -7.567  0.00  0.00     0.162 C 
BRANCH  27  28
ATOM     28  C   UNL d   1       2.000  -2.816  -8.991  0.00  0.00    -0.040 A 
ATOM     29  C   UNL d   1       3.324  -3.006  -9.392  0.00  0.00     0.009 A 
ATOM     30  C   UNL d   1       3.634  -3.220 -10.743  0.00  0.00     0.001 A 
ATOM     31  C   UNL d   1       2.624  -3.257 -11.708  0.00  0.00     0.000 A 
ATOM     32  C   UNL d   1       1.302  -3.087 -11.325  0.00  0.00     0.001 A 
ATOM     33  C   UNL d   1       0.992  -2.874  -9.983  0.00  0.00     0.009 A 
ENDBRANCH  27  28
ENDBRANCH  23  27
ENDBRANCH  18  19
ENDBRANCH  17  18
ENDBRANCH  11  17
BRANCH   8  34
ATOM     34  N   UNL d   1       1.210   2.926   0.205  0.00  0.00    -0.278 NA
ATOM     35  H   UNL d   1       2.068   3.410  -0.072  0.00  0.00     0.129 HD
BRANCH  34  36
ATOM     36  C   UNL d   1       1.075   3.063   1.655  0.00  0.00     0.089 C 
ATOM     37  C   UNL d   1       0.819   4.539   1.958  0.00  0.00     0.021 C 
ENDBRANCH  34  36
ENDBRANCH   8  34
TORSDOF 7
