REMARK  6 active torsions:
REMARK  status: ('A' for Active; 'I' for Inactive)
REMARK    1  A    between atoms: C_2  and  C_1 
REMARK       I    between atoms: N_15  and  C_1 
REMARK    2  A    between atoms: O_20  and  C_5 
REMARK    3  A    between atoms: O_21  and  C_11 
REMARK    4  A    between atoms: C_22  and  N_15 
REMARK    5  A    between atoms: C_18  and  C_25 
REMARK    6  A    between atoms: C_25  and  C_22 
ROOT
ATOM      1  C   UNL d   1       0.963  -0.015   0.281  0.00  0.00     0.251 C 
ATOM      2  O   UNL d   1       0.336  -0.986   0.687  0.00  0.00    -0.268 OA
ATOM      3  N   UNL d   1       2.340   0.005   0.145  0.00  0.00    -0.357 N 
ATOM      4  H   UNL d   1       2.761   0.704  -0.454  0.00  0.00     0.162 HD
ENDROOT
BRANCH   1   5
ATOM      5  C   UNL d   1       0.237   1.220  -0.116  0.00  0.00     0.034 A 
ATOM      6  C   UNL d   1       0.826   2.480   0.016  0.00  0.00     0.049 A 
ATOM      7  C   UNL d   1       0.133   3.635  -0.318  0.00  0.00     0.060 A 
ATOM      8  N   UNL d   1       0.741   4.825  -0.163  0.00  0.00    -0.363 N 
ATOM      9  C   UNL d   1      -1.197   3.542  -0.804  0.00  0.00     0.059 A 
ATOM     10  C   UNL d   1       0.019   5.916  -0.495  0.00  0.00     0.105 A 
ATOM     11  HN  UNL d   1       1.696   4.900   0.186  1.00  0.00     0.165 HD
ATOM     12  C   UNL d   1      -1.270   5.826  -0.979  0.00  0.00     0.105 A 
ATOM     13  N   UNL d   1      -1.896   4.642  -1.143  0.00  0.00    -0.363 N 
ATOM     14  HN  UNL d   1      -2.848   4.583  -1.504  1.00  0.00     0.165 HD
ATOM     15  C   UNL d   1      -1.780   2.283  -0.918  0.00  0.00     0.033 A 
ATOM     16  C   UNL d   1      -1.082   1.125  -0.570  0.00  0.00     0.019 A 
ENDBRANCH   1   5
BRANCH   3  17
ATOM     17  C   UNL d   1       3.118  -1.163   0.517  0.00  0.00     0.127 C 
BRANCH  17  18
ATOM     18  C   UNL d   1       4.630  -0.965   0.378  0.00  0.00     0.058 C 
BRANCH  18  19
ATOM     19  C   UNL d   1       5.368  -2.223   0.777  0.00  0.00    -0.054 A 
ATOM     20  C   UNL d   1       5.598  -3.237  -0.166  0.00  0.00     0.046 A 
ATOM     21  C   UNL d   1       6.166  -4.468   0.204  0.00  0.00     0.102 A 
ATOM     22  C   UNL d   1       6.568  -4.660   1.536  0.00  0.00     0.101 A 
ATOM     23  C   UNL d   1       6.343  -3.645   2.474  0.00  0.00     0.040 A 
ATOM     24  C   UNL d   1       5.748  -2.438   2.104  0.00  0.00     0.010 A 
BRANCH  21  25
ATOM     25  O   UNL d   1       6.343  -5.486  -0.696  0.00  0.00    -0.353 OA
ATOM     26  C   UNL d   1       5.380  -5.566  -1.744  0.00  0.00     0.210 C 
ENDBRANCH  21  25
BRANCH  22  27
ATOM     27  O   UNL d   1       7.112  -5.793   2.087  0.00  0.00    -0.353 OA
ATOM     28  C   UNL d   1       7.929  -6.592   1.242  0.00  0.00     0.210 C 
ENDBRANCH  22  27
ENDBRANCH  18  19
ENDBRANCH  17  18
ENDBRANCH   3  17
TORSDOF 6
