REMARK  3 active torsions:
REMARK  status: ('A' for Active; 'I' for Inactive)
REMARK    1  A    between atoms: C_2  and  C_1 
REMARK       I    between atoms: N_5  and  C_2 
REMARK    2  A    between atoms: C_14  and  N_5 
REMARK    3  A    between atoms: C_19  and  C_11 
ROOT
ATOM      1  C   UNL d   1       0.220   2.998   0.129  0.00  0.00     0.259 C 
ATOM      2  N   UNL d   1      -1.061   3.519   0.079  0.00  0.00    -0.323 N 
ATOM      3  O   UNL d   1       0.508   1.867   0.508  0.00  0.00    -0.267 OA
ATOM      4  H   UNL d   1      -1.155   4.458  -0.293  0.00  0.00     0.169 HD
ENDROOT
BRANCH   1   5
ATOM      5  C   UNL d   1       1.355   3.875  -0.313  0.00  0.00     0.069 A 
ATOM      6  C   UNL d   1       1.272   5.256  -0.569  0.00  0.00     0.096 A 
ATOM      7  C   UNL d   1       2.415   5.967  -0.981  0.00  0.00     0.003 A 
ATOM      8  O   UNL d   1       0.070   5.902  -0.413  0.00  0.00    -0.325 OA
ATOM      9  C   UNL d   1       2.329   7.433  -1.289  0.00  0.00     0.212 C 
ATOM     10  C   UNL d   1       3.650   5.314  -1.074  0.00  0.00     0.054 A 
ATOM     11  O   UNL d   1       0.977   7.845  -1.429  0.00  0.00    -0.362 OA
ATOM     12  C   UNL d   1       0.207   7.325  -0.357  0.00  0.00     0.345 C 
ATOM     13  C   UNL d   1       3.733   3.961  -0.789  0.00  0.00     0.118 A 
ATOM     14  C   UNL d   1       2.607   3.241  -0.423  0.00  0.00     0.062 A 
ATOM     15  F   UNL d   1       4.918   3.342  -0.867  0.00  0.00    -0.206 F 
ENDBRANCH   1   5
BRANCH   2  16
ATOM     16  C   UNL d   1      -2.238   2.911   0.580  0.00  0.00     0.035 A 
ATOM     17  C   UNL d   1      -2.256   1.667   1.211  0.00  0.00     0.030 A 
ATOM     18  C   UNL d   1      -3.427   1.169   1.792  0.00  0.00     0.010 A 
ATOM     19  C   UNL d   1      -4.616   1.903   1.755  0.00  0.00    -0.055 A 
ATOM     20  C   UNL d   1      -4.617   3.123   1.064  0.00  0.00     0.010 A 
ATOM     21  C   UNL d   1      -3.440   3.621   0.482  0.00  0.00     0.030 A 
BRANCH  19  22
ATOM     22  C   UNL d   1      -5.848   1.439   2.511  0.00  0.00     0.010 C 
ATOM     23  C   UNL d   1      -6.333   0.058   2.062  0.00  0.00     0.015 C 
ATOM     24  C   UNL d   1      -5.577   1.447   4.021  0.00  0.00     0.015 C 
ENDBRANCH  19  22
ENDBRANCH   2  16
TORSDOF 3
