REMARK  4 active torsions:
REMARK  status: ('A' for Active; 'I' for Inactive)
REMARK    1  A    between atoms: C_2  and  S_1 
REMARK    2  A    between atoms: N_6  and  S_1 
REMARK    3  A    between atoms: C_3  and  C_11 
REMARK    4  A    between atoms: C_5  and  N_14 
ROOT
ATOM      1  N   UNL d   1       0.551  -0.130  -0.944  0.00  0.00    -0.303 N 
ATOM      2  N   UNL d   1      -2.260  -1.004  -1.364  0.00  0.00     0.105 N 
ATOM      3  C   UNL d   1      -0.476   0.809  -1.456  0.00  0.00     0.165 C 
ATOM      4  C   UNL d   1       0.261  -1.547  -1.250  0.00  0.00     0.165 C 
ATOM      5  C   UNL d   1      -1.204  -1.946  -0.954  0.00  0.00     0.294 C 
ATOM      6  C   UNL d   1      -1.876   0.373  -0.992  0.00  0.00     0.294 C 
ENDROOT
BRANCH   1   7
ATOM      7  S   UNL d   1       1.277   0.240   0.528  0.00  0.00     0.267 S 
ATOM      8  O   UNL d   1       0.348   1.012   1.326  0.00  0.00    -0.200 OA
ATOM      9  O   UNL d   1       1.938  -0.934   1.055  0.00  0.00    -0.200 OA
BRANCH   7  10
ATOM     10  C   UNL d   1       2.600   1.375   0.161  0.00  0.00     0.121 A 
ATOM     11  S   UNL d   1       3.808   0.810  -0.914  0.00  0.00    -0.074 SA
ATOM     12  C   UNL d   1       4.727   2.238  -0.739  0.00  0.00     0.033 A 
ATOM     13  C   UNL d   1       4.091   3.155   0.069  0.00  0.00     0.023 A 
ATOM     14  C   UNL d   1       2.862   2.662   0.587  0.00  0.00     0.034 A 
BRANCH  12  15
ATOM     15  C   UNL d   1       6.072   2.495  -1.347  0.00  0.00     0.056 A 
ATOM     16  N   UNL d   1       6.743   3.676  -1.068  0.00  0.00    -0.353 N 
ATOM     17  C   UNL d   1       7.925   3.671  -1.642  0.00  0.00     0.047 A 
ATOM     18  HN  UNL d   1       6.373   4.437  -0.499  1.00  0.00     0.166 HD
ATOM     19  C   UNL d   1       8.926   4.763  -1.497  0.00  0.00     0.076 C 
ATOM     20  S   UNL d   1       8.278   2.286  -2.595  0.00  0.00    -0.087 SA
ATOM     21  C   UNL d   1       6.752   1.621  -2.170  0.00  0.00     0.082 A 
ENDBRANCH  12  15
ENDBRANCH   7  10
ENDBRANCH   1   7
BRANCH   2  22
ATOM     22  C   UNL d   1      -2.837  -1.210  -2.711  0.00  0.00     0.290 C 
ATOM     23  C   UNL d   1      -1.889  -1.047  -3.896  0.00  0.00    -0.009 C 
ATOM     24  C   UNL d   1      -2.211   0.121  -4.618  0.00  0.00    -0.017 C 
ATOM     25  C   UNL d   1      -0.852  -1.868  -4.308  0.00  0.00     0.010 C 
ATOM     26  C   UNL d   1      -1.372   0.574  -5.625  0.00  0.00     0.013 C 
ATOM     27  C   UNL d   1      -3.458   0.654  -4.119  0.00  0.00    -0.017 A 
ATOM     28  C   UNL d   1      -0.240  -0.181  -5.944  0.00  0.00     0.001 C 
ATOM     29  C   UNL d   1      -0.001  -1.411  -5.313  0.00  0.00     0.001 C 
ATOM     30  C   UNL d   1      -3.893  -0.146  -3.038  0.00  0.00    -0.009 A 
ATOM     31  C   UNL d   1      -4.215   1.731  -4.545  0.00  0.00     0.013 A 
ATOM     32  C   UNL d   1      -5.080   0.123  -2.372  0.00  0.00     0.010 A 
ATOM     33  C   UNL d   1      -5.837   1.218  -2.796  0.00  0.00     0.001 A 
ATOM     34  C   UNL d   1      -5.409   2.013  -3.873  0.00  0.00     0.001 A 
ENDBRANCH   2  22
TORSDOF 4
