REMARK  5 active torsions:
REMARK  status: ('A' for Active; 'I' for Inactive)
REMARK    1  A    between atoms: C_15  and  C_1 
REMARK    2  A    between atoms: O_8  and  C_3 
REMARK    3  A    between atoms: S_5  and  O_8 
REMARK    4  A    between atoms: C_10  and  S_5 
REMARK    5  A    between atoms: C_24  and  C_17 
ROOT
ATOM      1  C   UNL d   1      -1.381   2.344  -0.086  0.00  0.00     0.078 A 
ATOM      2  C   UNL d   1       0.115   2.351   0.011  0.00  0.00     0.262 A 
ATOM      3  C   UNL d   1      -2.089   1.192  -0.130  0.00  0.00     0.118 A 
ATOM      4  N   UNL d   1       0.763   1.135   0.052  0.00  0.00    -0.312 N 
ATOM      5  C   UNL d   1      -1.343  -0.113  -0.111  0.00  0.00     0.028 A 
ATOM      6  C   UNL d   1       0.066  -0.100   0.035  0.00  0.00     0.057 A 
ATOM      7  C   UNL d   1       0.809  -1.306   0.124  0.00  0.00    -0.030 A 
ATOM      8  C   UNL d   1      -1.923  -1.385  -0.241  0.00  0.00     0.023 A 
ATOM      9  O   UNL d   1       0.726   3.420   0.060  0.00  0.00    -0.267 OA
ATOM     10  C   UNL d   1       0.157  -2.539   0.101  0.00  0.00     0.016 A 
ATOM     11  C   UNL d   1      -1.214  -2.587  -0.088  0.00  0.00    -0.060 A 
ATOM     12  C   UNL d   1       2.214   1.154   0.223  0.00  0.00     0.133 C 
ATOM     13  C   UNL d   1       2.307  -1.308   0.284  0.00  0.00     0.042 C 
ATOM     14  C   UNL d   1       2.905  -0.069  -0.346  0.00  0.00     0.025 C 
ATOM     15  C   UNL d   1      -1.925  -3.909  -0.145  0.00  0.00     0.048 C 
ENDROOT
BRANCH   3  16
ATOM     16  O   UNL d   1      -3.499   1.304  -0.200  0.00  0.00    -0.227 OA
BRANCH  16  17
ATOM     17  S   UNL d   1      -4.617   0.231   0.291  0.00  0.00     0.303 S 
ATOM     18  O   UNL d   1      -4.919  -0.651  -0.826  0.00  0.00    -0.193 OA
ATOM     19  O   UNL d   1      -4.226  -0.310   1.578  0.00  0.00    -0.193 OA
BRANCH  17  20
ATOM     20  C   UNL d   1      -6.150   1.118   0.555  0.00  0.00     0.086 A 
ATOM     21  C   UNL d   1      -6.969   1.375  -0.550  0.00  0.00     0.026 A 
ATOM     22  C   UNL d   1      -8.319   1.686  -0.358  0.00  0.00     0.009 A 
ATOM     23  C   UNL d   1      -8.868   1.729   0.933  0.00  0.00    -0.055 A 
ATOM     24  C   UNL d   1      -8.016   1.532   2.033  0.00  0.00     0.009 A 
ATOM     25  C   UNL d   1      -6.665   1.224   1.849  0.00  0.00     0.026 A 
BRANCH  23  26
ATOM     26  C   UNL d   1     -10.365   1.884   1.157  0.00  0.00     0.010 C 
ATOM     27  C   UNL d   1     -10.914   3.179   0.559  0.00  0.00     0.015 C 
ATOM     28  C   UNL d   1     -11.132   0.671   0.616  0.00  0.00     0.015 C 
ENDBRANCH  23  26
ENDBRANCH  17  20
ENDBRANCH  16  17
ENDBRANCH   3  16
BRANCH   1  29
ATOM     29  C   UNL d   1      -2.039   3.672  -0.095  0.00  0.00    -0.018 A 
ATOM     30  C   UNL d   1      -2.054   4.447   1.075  0.00  0.00     0.012 A 
ATOM     31  C   UNL d   1      -2.534   5.758   1.050  0.00  0.00     0.001 A 
ATOM     32  C   UNL d   1      -3.008   6.302  -0.142  0.00  0.00     0.000 A 
ATOM     33  C   UNL d   1      -3.012   5.535  -1.306  0.00  0.00     0.001 A 
ATOM     34  C   UNL d   1      -2.530   4.223  -1.285  0.00  0.00     0.012 A 
ENDBRANCH   1  29
TORSDOF 5
