REMARK  7 active torsions:
REMARK  status: ('A' for Active; 'I' for Inactive)
REMARK    1  A    between atoms: N_7  and  C_1 
REMARK    2  A    between atoms: N_10  and  C_1 
REMARK    3  A    between atoms: C_2  and  N_9 
REMARK    4  A    between atoms: C_3  and  C_4 
REMARK    5  A    between atoms: C_13  and  C_8 
REMARK    6  A    between atoms: C_11  and  N_10 
REMARK    7  A    between atoms: O_26  and  C_13 
ROOT
ATOM      1  N   UNL d   1       0.304   1.445  -0.181  0.00  0.00    -0.355 N 
ATOM      2  N   UNL d   1      -0.610   4.162  -0.208  0.00  0.00    -0.363 N 
ATOM      3  C   UNL d   1       0.668   2.329  -1.302  0.00  0.00     0.145 C 
ATOM      4  C   UNL d   1      -0.917   1.822   0.540  0.00  0.00     0.145 C 
ATOM      5  C   UNL d   1       0.613   3.828  -0.951  0.00  0.00     0.144 C 
ATOM      6  C   UNL d   1      -0.904   3.313   0.950  0.00  0.00     0.144 C 
ENDROOT
BRANCH   1   7
ATOM      7  C   UNL d   1       1.016   0.299   0.150  0.00  0.00     0.174 C 
ATOM      8  S   UNL d   1       2.681   0.321   0.370  0.00  0.00    -0.041 SA
BRANCH   7   9
ATOM      9  N   UNL d   1       0.209  -0.832   0.218  0.00  0.00    -0.332 N 
ATOM     10  H   UNL d   1      -0.390  -0.947  -0.595  0.00  0.00     0.168 HD
BRANCH   9  11
ATOM     11  C   UNL d   1       0.414  -1.996   1.005  0.00  0.00     0.050 A 
ATOM     12  C   UNL d   1       0.042  -3.298   0.585  0.00  0.00     0.066 A 
ATOM     13  C   UNL d   1       0.122  -4.356   1.519  0.00  0.00     0.020 A 
ATOM     14  C   UNL d   1       0.553  -4.149   2.829  0.00  0.00     0.001 A 
ATOM     15  C   UNL d   1       0.942  -2.879   3.227  0.00  0.00     0.002 A 
ATOM     16  C   UNL d   1       0.871  -1.816   2.326  0.00  0.00     0.030 A 
BRANCH  12  17
ATOM     17  C   UNL d   1      -0.369  -3.712  -0.786  0.00  0.00     0.295 C 
ATOM     18  O   UNL d   1      -0.634  -4.878  -1.066  0.00  0.00    -0.259 OA
BRANCH  17  19
ATOM     19  O   UNL d   1      -0.376  -2.692  -1.671  0.00  0.00    -0.322 OA
ATOM     20  C   UNL d   1      -0.667  -3.056  -3.026  0.00  0.00     0.213 C 
ENDBRANCH  17  19
ENDBRANCH  12  17
ENDBRANCH   9  11
ENDBRANCH   7   9
ENDBRANCH   1   7
BRANCH   2  21
ATOM     21  C   UNL d   1      -1.359   5.256  -0.573  0.00  0.00     0.125 A 
ATOM     22  N   UNL d   1      -1.532   5.436  -1.910  0.00  0.00    -0.350 N 
ATOM     23  C   UNL d   1      -2.315   6.453  -2.355  0.00  0.00     0.106 A 
ATOM     24  HN  UNL d   1      -1.076   4.811  -2.575  1.00  0.00     0.166 HD
ATOM     25  C   UNL d   1      -2.961   7.352  -1.527  0.00  0.00     0.065 A 
ATOM     26  C   UNL d   1      -2.766   7.195  -0.158  0.00  0.00     0.045 A 
ATOM     27  C   UNL d   1      -1.959   6.158   0.326  0.00  0.00     0.078 A 
ATOM     28 CL   UNL d   1      -1.678   6.157   2.036  0.00  0.00    -0.080 Cl
BRANCH  25  29
ATOM     29  C   UNL d   1      -3.807   8.446  -2.100  0.00  0.00     0.418 C 
ATOM     30  F   UNL d   1      -4.370   9.244  -1.151  0.00  0.00    -0.166 F 
ATOM     31  F   UNL d   1      -3.104   9.277  -2.917  0.00  0.00    -0.166 F 
ATOM     32  F   UNL d   1      -4.841   7.971  -2.847  0.00  0.00    -0.166 F 
ENDBRANCH  25  29
ENDBRANCH   2  21
TORSDOF 7
