REMARK  7 active torsions:
REMARK  status: ('A' for Active; 'I' for Inactive)
REMARK    1  A    between atoms: N_3  and  C_1 
REMARK    2  A    between atoms: N_2  and  C_9 
REMARK       I    between atoms: C_6  and  N_3 
REMARK    3  A    between atoms: C_11  and  C_6 
REMARK    4  A    between atoms: C_10  and  C_7 
REMARK    5  A    between atoms: C_14  and  C_10 
REMARK    6  A    between atoms: O_19  and  C_14 
REMARK    7  A    between atoms: C_23  and  O_19 
ROOT
ATOM      1  N   UNL d   1       0.044  -2.470  -0.186  0.00  0.00    -0.303 N 
ATOM      2  C   UNL d   1       0.994  -3.406  -0.515  0.00  0.00     0.257 C 
ATOM      3  O   UNL d   1       2.114  -3.194  -0.964  0.00  0.00    -0.267 OA
ATOM      4  H   UNL d   1      -0.915  -2.722  -0.003  0.00  0.00     0.171 HD
ENDROOT
BRANCH   1   5
ATOM      5  C   UNL d   1       0.325  -1.129  -0.176  0.00  0.00     0.151 A 
ATOM      6  N   UNL d   1       1.476  -0.518  -0.284  0.00  0.00    -0.339 N 
ATOM      7  C   UNL d   1       1.298   0.855  -0.170  0.00  0.00     0.027 A 
ATOM      8  HN  UNL d   1       2.373  -0.982  -0.431  1.00  0.00     0.168 HD
ATOM      9  C   UNL d   1      -0.024   1.246  -0.042  0.00  0.00     0.078 A 
ATOM     10  S   UNL d   1      -1.042  -0.132   0.043  0.00  0.00    -0.064 SA
BRANCH   7  11
ATOM     11  C   UNL d   1       2.503   1.741  -0.234  0.00  0.00     0.168 C 
BRANCH  11  12
ATOM     12  C   UNL d   1       2.641   2.641   0.976  0.00  0.00     0.264 C 
ATOM     13  O   UNL d   1       1.809   2.797   1.860  0.00  0.00    -0.265 OA
BRANCH  12  14
ATOM     14  O   UNL d   1       3.833   3.308   0.912  0.00  0.00    -0.322 OA
BRANCH  14  15
ATOM     15  C   UNL d   1       4.085   4.240   1.976  0.00  0.00     0.174 C 
ATOM     16  C   UNL d   1       4.677   3.525   3.177  0.00  0.00     0.034 C 
ENDBRANCH  14  15
ENDBRANCH  12  14
ENDBRANCH  11  12
ENDBRANCH   7  11
ENDBRANCH   1   5
BRANCH   2  17
ATOM     17  C   UNL d   1       0.583  -4.830  -0.343  0.00  0.00     0.034 A 
ATOM     18  C   UNL d   1      -0.247  -5.242   0.707  0.00  0.00     0.053 A 
ATOM     19  C   UNL d   1      -0.511  -6.611   0.874  0.00  0.00     0.103 A 
ATOM     20  C   UNL d   1       0.025  -7.564  -0.005  0.00  0.00     0.036 A 
ATOM     21  C   UNL d   1       0.844  -7.145  -1.053  0.00  0.00     0.003 A 
ATOM     22  C   UNL d   1       1.128  -5.787  -1.214  0.00  0.00     0.017 A 
BRANCH  19  23
ATOM     23  N   UNL d   1      -1.333  -7.058   2.007  0.00  0.00    -0.116 N 
ATOM     24  O   UNL d   1      -1.766  -6.189   2.776  0.00  0.00    -0.532 OA
ATOM     25  O   UNL d   1      -1.546  -8.273   2.123  0.00  0.00    -0.532 OA
ENDBRANCH  19  23
ENDBRANCH   2  17
TORSDOF 7
