REMARK  5 active torsions:
REMARK  status: ('A' for Active; 'I' for Inactive)
REMARK    1  A    between atoms: N_12  and  S_1 
REMARK    2  A    between atoms: C_2  and  C_5 
REMARK    3  A    between atoms: C_6  and  N_3 
REMARK    4  A    between atoms: N_4  and  C_7 
REMARK    5  A    between atoms: C_20  and  N_12 
ROOT
ATOM      1  N   UNL d   1       2.620   8.594  -3.423  0.00  0.00    -0.267 NA
ATOM      2  N   UNL d   1       2.168   5.922  -2.463  0.00  0.00    -0.267 NA
ATOM      3  C   UNL d   1       1.834   8.361  -2.189  0.00  0.00     0.112 C 
ATOM      4  C   UNL d   1       1.149   6.971  -2.250  0.00  0.00     0.112 C 
ATOM      5  C   UNL d   1       2.941   6.150  -3.708  0.00  0.00     0.112 C 
ATOM      6  C   UNL d   1       3.628   7.535  -3.659  0.00  0.00     0.112 C 
ENDROOT
BRANCH   2   7
ATOM      7  C   UNL d   1       1.695   4.611  -2.324  0.00  0.00     0.082 A 
ATOM      8  C   UNL d   1       2.626   3.579  -2.166  0.00  0.00     0.044 A 
ATOM      9  C   UNL d   1       2.200   2.276  -1.919  0.00  0.00     0.029 A 
ATOM     10  C   UNL d   1       0.841   2.024  -1.837  0.00  0.00     0.038 A 
ATOM     11  C   UNL d   1      -0.029   3.083  -2.039  0.00  0.00     0.113 A 
ATOM     12  N   UNL d   1       0.368   4.364  -2.257  0.00  0.00    -0.355 N 
ATOM     13  HN  UNL d   1      -0.314   5.115  -2.367  1.00  0.00     0.166 HD
BRANCH  10  14
ATOM     14  N   UNL d   1       0.363   0.705  -1.571  0.00  0.00    -0.185 NA
ATOM     15  H   UNL d   1       0.848   0.236  -0.801  0.00  0.00     0.146 HD
BRANCH  14  16
ATOM     16  S   UNL d   1       0.312  -0.368  -2.885  0.00  0.00     0.210 S 
ATOM     17  O   UNL d   1       0.741  -1.640  -2.347  0.00  0.00    -0.211 OA
ATOM     18  O   UNL d   1       0.946   0.219  -4.040  0.00  0.00    -0.211 OA
ATOM     19  C   UNL d   1      -1.442  -0.462  -3.165  0.00  0.00     0.180 C 
ENDBRANCH  14  16
ENDBRANCH  10  14
ENDBRANCH   2   7
BRANCH   1  20
ATOM     20  C   UNL d   1       3.075   9.894  -3.646  0.00  0.00     0.082 A 
ATOM     21  N   UNL d   1       4.370  10.104  -3.976  0.00  0.00    -0.356 N 
ATOM     22  C   UNL d   1       4.766  11.352  -4.325  0.00  0.00     0.105 A 
ATOM     23  HN  UNL d   1       5.038   9.334  -3.962  1.00  0.00     0.166 HD
ATOM     24  C   UNL d   1       3.923  12.448  -4.375  0.00  0.00     0.063 A 
ATOM     25  C   UNL d   1       2.595  12.237  -4.014  0.00  0.00     0.021 A 
ATOM     26  C   UNL d   1       2.172  10.958  -3.651  0.00  0.00     0.043 A 
BRANCH  24  27
ATOM     27  C   UNL d   1       4.409  13.783  -4.840  0.00  0.00     0.418 C 
ATOM     28  F   UNL d   1       5.744  13.821  -5.101  0.00  0.00    -0.166 F 
ATOM     29  F   UNL d   1       3.794  14.186  -5.987  0.00  0.00    -0.166 F 
ATOM     30  F   UNL d   1       4.178  14.770  -3.930  0.00  0.00    -0.166 F 
ENDBRANCH  24  27
ENDBRANCH   1  20
TORSDOF 5
