REMARK  6 active torsions:
REMARK  status: ('A' for Active; 'I' for Inactive)
REMARK    1  A    between atoms: N_4  and  C_1 
REMARK       I    between atoms: C_5  and  N_4 
REMARK       I    between atoms: N_11  and  C_5 
REMARK    2  A    between atoms: C_8  and  C_6 
REMARK    3  A    between atoms: C_10  and  C_8 
REMARK    4  A    between atoms: O_15  and  C_10 
REMARK    5  A    between atoms: C_14  and  N_11 
REMARK    6  A    between atoms: C_21  and  O_15 
ROOT
ATOM      1  N   UNL d   1      -0.101  -1.970  -0.093  0.00  0.00    -0.288 N 
ATOM      2  C   UNL d   1       0.814  -2.978  -0.051  0.00  0.00     0.326 C 
ATOM      3  N   UNL d   1       1.956  -2.843  -0.786  0.00  0.00    -0.309 N 
ATOM      4  O   UNL d   1       0.523  -3.977   0.609  0.00  0.00    -0.247 OA
ATOM      5  H   UNL d   1      -0.976  -2.208   0.353  0.00  0.00     0.172 HD
ATOM      6  H   UNL d   1       1.908  -2.181  -1.548  0.00  0.00     0.170 HD
ENDROOT
BRANCH   1   7
ATOM      7  C   UNL d   1      -0.004  -0.639  -0.402  0.00  0.00     0.152 A 
ATOM      8  N   UNL d   1      -1.035   0.160  -0.263  0.00  0.00    -0.339 N 
ATOM      9  C   UNL d   1      -0.680   1.482  -0.531  0.00  0.00     0.027 A 
ATOM     10  HN  UNL d   1      -1.971  -0.145   0.004  1.00  0.00     0.168 HD
ATOM     11  C   UNL d   1       0.651   1.637  -0.872  0.00  0.00     0.078 A 
ATOM     12  S   UNL d   1       1.441   0.114  -0.890  0.00  0.00    -0.064 SA
BRANCH   9  13
ATOM     13  C   UNL d   1      -1.734   2.528  -0.327  0.00  0.00     0.168 C 
BRANCH  13  14
ATOM     14  C   UNL d   1      -1.635   3.764  -1.195  0.00  0.00     0.264 C 
ATOM     15  O   UNL d   1      -0.809   3.984  -2.066  0.00  0.00    -0.265 OA
BRANCH  14  16
ATOM     16  O   UNL d   1      -2.657   4.612  -0.859  0.00  0.00    -0.322 OA
BRANCH  16  17
ATOM     17  C   UNL d   1      -2.843   5.764  -1.695  0.00  0.00     0.174 C 
ATOM     18  C   UNL d   1      -2.046   6.948  -1.181  0.00  0.00     0.034 C 
ENDBRANCH  16  17
ENDBRANCH  14  16
ENDBRANCH  13  14
ENDBRANCH   9  13
ENDBRANCH   1   7
BRANCH   3  19
ATOM     19  C   UNL d   1       3.115  -3.642  -0.713  0.00  0.00     0.036 A 
ATOM     20  C   UNL d   1       4.041  -3.540  -1.758  0.00  0.00     0.030 A 
ATOM     21  C   UNL d   1       5.251  -4.238  -1.708  0.00  0.00     0.009 A 
ATOM     22  C   UNL d   1       5.569  -5.028  -0.598  0.00  0.00    -0.062 A 
ATOM     23  C   UNL d   1       4.633  -5.151   0.433  0.00  0.00     0.009 A 
ATOM     24  C   UNL d   1       6.898  -5.721  -0.526  0.00  0.00     0.048 C 
ATOM     25  C   UNL d   1       3.413  -4.465   0.373  0.00  0.00     0.030 A 
ENDBRANCH   3  19
TORSDOF 6
