REMARK  3 active torsions:
REMARK  status: ('A' for Active; 'I' for Inactive)
REMARK    1  A    between atoms: N_10  and  C_1 
REMARK    2  A    between atoms: S_11  and  C_8 
REMARK    3  A    between atoms: N_12  and  C_9 
ROOT
ATOM      1  C   UNL d   1      -2.272  -0.676   1.343  0.00  0.00     0.684 A 
ATOM      2  N   UNL d   1      -1.439   0.131   0.703  0.00  0.00    -0.170 N 
ATOM      3  HN  UNL d   1      -1.486   0.261  -0.308  1.00  0.00     0.186 HD
ATOM      4  N   UNL d   1      -2.197  -0.893   2.651  0.00  0.00    -0.166 N 
ATOM      5  HN  UNL d   1      -2.837  -1.527   3.129  1.00  0.00     0.187 HD
ATOM      6  N   UNL d   1      -0.384   0.596   2.753  0.00  0.00    -0.312 N 
ATOM      7  HN  UNL d   1       0.339   1.075   3.289  1.00  0.00     0.170 HD
ATOM      8  C   UNL d   1      -0.542   0.760   1.448  0.00  0.00     0.161 A 
ATOM      9  C   UNL d   1      -1.244  -0.240   3.299  0.00  0.00     0.171 A 
ENDROOT
BRANCH   1  10
ATOM     10  N   UNL d   1      -3.282  -1.253   0.607  0.00  0.00    -0.217 N 
ATOM     11  C   UNL d   1      -4.384  -1.945   1.257  0.00  0.00     0.141 C 
ATOM     12  C   UNL d   1      -5.676  -1.639   0.487  0.00  0.00     0.020 C 
ATOM     13  C   UNL d   1      -5.534  -1.870  -1.020  0.00  0.00     0.003 C 
ATOM     14  C   UNL d   1      -4.303  -1.160  -1.580  0.00  0.00     0.020 C 
ATOM     15  C   UNL d   1      -3.053  -1.552  -0.798  0.00  0.00     0.141 C 
ENDBRANCH   1  10
BRANCH   8  16
ATOM     16  S   UNL d   1       0.535   1.936   0.656  0.00  0.00    -0.098 SA
ATOM     17  C   UNL d   1      -0.251   2.041  -0.973  0.00  0.00     0.099 C 
ENDBRANCH   8  16
BRANCH   9  18
ATOM     18  N   UNL d   1      -1.110  -0.483   4.654  0.00  0.00    -0.273 NA
ATOM     19  H   UNL d   1      -0.168  -0.267   4.951  0.00  0.00     0.127 HD
ATOM     20  H   UNL d   1      -1.469  -1.399   4.883  0.00  0.00     0.127 HD
ENDBRANCH   9  18
TORSDOF 3
