REMARK  4 active torsions:
REMARK  status: ('A' for Active; 'I' for Inactive)
REMARK    1  A    between atoms: C_16  and  C_2 
REMARK       I    between atoms: N_3  and  C_12 
REMARK    2  A    between atoms: S_15  and  C_6 
REMARK    3  A    between atoms: C_12  and  C_17 
REMARK    4  A    between atoms: C_17  and  S_15 
ROOT
ATOM      1  C   UNL d   1       2.387  -2.843  -0.079  0.00  0.00     0.186 C 
ENDROOT
BRANCH   1   2
ATOM      2  C   UNL d   1       2.848  -4.310  -0.078  0.00  0.00     0.238 C 
ATOM      3  N   UNL d   1       1.847  -5.280  -0.331  0.00  0.00    -0.279 N 
ATOM      4  C   UNL d   1       2.017  -6.662   0.060  0.00  0.00     0.059 A 
ATOM      5  C   UNL d   1       0.623  -4.980  -1.032  0.00  0.00     0.059 A 
ATOM      6  C   UNL d   1       0.921  -7.453   0.465  0.00  0.00     0.033 A 
ATOM      7  C   UNL d   1       3.280  -7.279   0.032  0.00  0.00     0.031 A 
ATOM      8  C   UNL d   1       1.095  -8.800   0.822  0.00  0.00     0.021 A 
ATOM      9  S   UNL d   1      -0.718  -6.774   0.612  0.00  0.00    -0.086 SA
ATOM     10  C   UNL d   1       2.356  -9.387   0.774  0.00  0.00     0.002 A 
ATOM     11  C   UNL d   1       3.448  -8.625   0.379  0.00  0.00     0.002 A 
ATOM     12  C   UNL d   1      -0.602  -5.578  -0.692  0.00  0.00     0.033 A 
ATOM     13  C   UNL d   1      -1.777  -5.229  -1.375  0.00  0.00     0.021 A 
ATOM     14  C   UNL d   1      -1.738  -4.320  -2.429  0.00  0.00     0.002 A 
ATOM     15  C   UNL d   1      -0.524  -3.769  -2.819  0.00  0.00     0.002 A 
ATOM     16  C   UNL d   1       0.647  -4.108  -2.135  0.00  0.00     0.031 A 
ATOM     17  O   UNL d   1       4.016  -4.581   0.216  0.00  0.00    -0.272 OA
ENDBRANCH   1   2
BRANCH   1  18
ATOM     18  S   UNL d   1       3.242  -1.867   1.202  0.00  0.00    -0.083 SA
BRANCH  18  19
ATOM     19  C   UNL d   1       2.400  -0.366   1.045  0.00  0.00     0.163 A 
ATOM     20  N   UNL d   1       2.319   0.577   2.037  0.00  0.00    -0.315 N 
ATOM     21  C   UNL d   1       1.514   1.585   1.537  0.00  0.00     0.134 A 
ATOM     22  C   UNL d   1       2.894   0.467   3.354  0.00  0.00     0.160 C 
ATOM     23  N   UNL d   1       1.161   1.244   0.307  0.00  0.00    -0.283 N 
ATOM     24  N   UNL d   1       1.718   0.030  -0.002  0.00  0.00    -0.278 N 
ATOM     25  HN  UNL d   1       0.567   1.797  -0.312  1.00  0.00     0.188 HD
ATOM     26  HN  UNL d   1       1.621  -0.472  -0.884  1.00  0.00     0.189 HD
BRANCH  21  27
ATOM     27  C   UNL d   1       1.021   2.778   2.234  0.00  0.00     0.012 A 
ATOM     28  C   UNL d   1       1.781   3.504   3.154  0.00  0.00     0.032 A 
ATOM     29  C   UNL d   1       1.191   4.580   3.803  0.00  0.00     0.088 A 
ATOM     30  N   UNL d   1      -0.072   4.994   3.578  0.00  0.00    -0.375 N 
ATOM     31  C   UNL d   1      -0.774   4.317   2.648  0.00  0.00     0.088 A 
ATOM     32  HN  UNL d   1      -0.476   5.780   4.087  1.00  0.00     0.164 HD
ATOM     33  C   UNL d   1      -0.277   3.222   1.960  0.00  0.00     0.032 A 
ENDBRANCH  21  27
ENDBRANCH  18  19
ENDBRANCH   1  18
TORSDOF 4
