REMARK  2 active torsions:
REMARK  status: ('A' for Active; 'I' for Inactive)
REMARK    1  A    between atoms: C_4  and  N_1 
REMARK    2  A    between atoms: C_5  and  C_3 
ROOT
ATOM      1  N   UNL d   1       0.971   0.110   0.084  0.00  0.00    -0.365 N 
ATOM      2  HN  UNL d   1       0.501  -0.756   0.347  1.00  0.00     0.165 HD
ATOM      3  C   UNL d   1       0.272   1.163  -0.190  0.00  0.00     0.099 C 
ENDROOT
BRANCH   1   4
ATOM      4  C   UNL d   1       2.376   0.149   0.022  0.00  0.00     0.031 A 
ATOM      5  C   UNL d   1       3.150   1.275   0.335  0.00  0.00     0.029 A 
ATOM      6  C   UNL d   1       4.548   1.204   0.356  0.00  0.00     0.002 A 
ATOM      7  C   UNL d   1       5.190   0.000   0.079  0.00  0.00     0.000 A 
ATOM      8  C   UNL d   1       4.437  -1.127  -0.239  0.00  0.00     0.002 A 
ATOM      9  C   UNL d   1       3.042  -1.047  -0.269  0.00  0.00     0.029 A 
ENDBRANCH   1   4
BRANCH   3  10
ATOM     10  C   UNL d   1      -1.207   1.171  -0.067  0.00  0.00    -0.021 A 
ATOM     11  C   UNL d   1      -1.908   0.018   0.295  0.00  0.00     0.013 A 
ATOM     12  C   UNL d   1      -3.294   0.071   0.440  0.00  0.00     0.001 A 
ATOM     13  C   UNL d   1      -3.977   1.269   0.219  0.00  0.00     0.000 A 
ATOM     14  C   UNL d   1      -3.274   2.417  -0.152  0.00  0.00     0.001 A 
ATOM     15  C   UNL d   1      -1.887   2.369  -0.297  0.00  0.00     0.013 A 
ENDBRANCH   3  10
TORSDOF 2
