REMARK  10 active torsions:
REMARK  status: ('A' for Active; 'I' for Inactive)
REMARK    1  A    between atoms: N_7  and  C_1 
REMARK    2  A    between atoms: C_9  and  C_2 
REMARK       I    between atoms: C_8  and  N_6 
REMARK       I    between atoms: C_11  and  N_7 
REMARK    3  A    between atoms: O_18  and  C_8 
REMARK    4  A    between atoms: O_20  and  C_9 
REMARK    5  A    between atoms: C_17  and  C_11 
REMARK    6  A    between atoms: N_19  and  C_17 
REMARK    7  A    between atoms: C_23  and  O_18 
REMARK    8  A    between atoms: C_21  and  N_19 
REMARK    9  A    between atoms: C_22  and  N_19 
REMARK   10  A    between atoms: C_24  and  O_20 
ROOT
ATOM      1  C   UNL d   1       2.063   1.134   0.081  0.00  0.00     0.094 C 
ATOM      2  C   UNL d   1       0.935   1.891  -0.189  0.00  0.00     0.080 C 
ATOM      3  C   UNL d   1       0.071  -0.293  -0.003  0.00  0.00     0.010 C 
ATOM      4  C   UNL d   1      -0.250   1.053  -0.115  0.00  0.00    -0.023 C 
ATOM      5  S   UNL d   1       1.743  -0.539   0.164  0.00  0.00    -0.074 SA
ATOM      6  N   UNL d   1      -2.255  -0.918  -0.235  0.00  0.00    -0.323 N 
ATOM      7  C   UNL d   1      -2.986  -1.439  -1.282  0.00  0.00     0.363 C 
ATOM      8  C   UNL d   1      -0.909  -1.439   0.040  0.00  0.00     0.174 C 
ATOM      9  C   UNL d   1      -1.695   1.479  -0.150  0.00  0.00     0.061 C 
ATOM     10  C   UNL d   1      -2.594   0.358   0.400  0.00  0.00     0.133 C 
ATOM     11  O   UNL d   1      -2.641  -2.409  -1.944  0.00  0.00    -0.238 OA
ENDROOT
BRANCH   1  12
ATOM     12  N   UNL d   1       3.380   1.565   0.205  0.00  0.00    -0.319 N 
ATOM     13  C   UNL d   1       4.160   1.168   1.283  0.00  0.00     0.251 C 
ATOM     14  O   UNL d   1       3.819   0.405   2.187  0.00  0.00    -0.271 OA
ATOM     15  H   UNL d   1       3.581   2.521  -0.099  0.00  0.00     0.169 HD
BRANCH  13  16
ATOM     16  C   UNL d   1       5.559   1.790   1.281  0.00  0.00     0.374 C 
BRANCH  16  17
ATOM     17  N   UNL d   1       5.553   3.275   1.188  0.00  0.00     0.096 N 
BRANCH  17  18
ATOM     18  C   UNL d   1       4.781   3.917   2.270  0.00  0.00     0.268 C 
ATOM     19  C   UNL d   1       5.297   3.732   3.696  0.00  0.00     0.037 C 
ENDBRANCH  17  18
BRANCH  17  20
ATOM     20  C   UNL d   1       6.958   3.735   1.126  0.00  0.00     0.268 C 
ATOM     21  C   UNL d   1       7.135   5.241   0.954  0.00  0.00     0.037 C 
ENDBRANCH  17  20
ENDBRANCH  16  17
ENDBRANCH  13  16
ENDBRANCH   1  12
BRANCH   2  22
ATOM     22  C   UNL d   1       0.995   3.339  -0.378  0.00  0.00     0.296 C 
ATOM     23  O   UNL d   1       2.046   3.973  -0.387  0.00  0.00    -0.259 OA
BRANCH  22  24
ATOM     24  O   UNL d   1      -0.239   3.907  -0.486  0.00  0.00    -0.318 OA
BRANCH  24  25
ATOM     25  C   UNL d   1      -0.326   5.326  -0.303  0.00  0.00     0.174 C 
ATOM     26  C   UNL d   1      -0.752   5.992  -1.594  0.00  0.00     0.034 C 
ENDBRANCH  24  25
ENDBRANCH  22  24
ENDBRANCH   2  22
BRANCH   7  27
ATOM     27  O   UNL d   1      -4.115  -0.724  -1.522  0.00  0.00    -0.304 OA
BRANCH  27  28
ATOM     28  C   UNL d   1      -4.800  -1.000  -2.748  0.00  0.00     0.176 C 
ATOM     29  C   UNL d   1      -4.222  -0.102  -3.827  0.00  0.00     0.034 C 
ENDBRANCH  27  28
ENDBRANCH   7  27
TORSDOF 10
