REMARK  1 active torsions:
REMARK  status: ('A' for Active; 'I' for Inactive)
REMARK       I    between atoms: C_8  and  N_1 
REMARK    1  A    between atoms: C_10  and  C_6 
ROOT
ATOM      1  N   UNL d   1      -2.996   1.064  -0.186  0.00  0.00    -0.251 N 
ATOM      2  N   UNL d   1      -1.689   1.479  -0.286  0.00  0.00    -0.298 N 
ATOM      3  HN  UNL d   1      -1.356   2.394  -0.589  1.00  0.00     0.187 HD
ATOM      4  C   UNL d   1      -0.969   0.468   0.086  0.00  0.00     0.043 C 
ATOM      5  C   UNL d   1      -1.725  -0.703   0.660  0.00  0.00     0.068 C 
ATOM      6  C   UNL d   1      -3.123  -0.370   0.120  0.00  0.00     0.154 C 
ATOM      7  C   UNL d   1       0.489   0.406   0.039  0.00  0.00    -0.005 A 
ATOM      8  C   UNL d   1      -4.072   1.919  -0.300  0.00  0.00     0.234 C 
ATOM      9  C   UNL d   1      -1.075  -2.067   0.426  0.00  0.00     0.018 C 
ATOM     10  C   UNL d   1       1.064  -0.855  -0.163  0.00  0.00    -0.046 A 
ATOM     11  O   UNL d   1      -5.237   1.549  -0.129  0.00  0.00    -0.272 OA
ATOM     12  C   UNL d   1       0.176  -2.036  -0.460  0.00  0.00     0.040 C 
ATOM     13  C   UNL d   1       1.266   1.554   0.188  0.00  0.00     0.014 A 
ATOM     14  C   UNL d   1      -3.768   3.366  -0.607  0.00  0.00     0.119 C 
ATOM     15  C   UNL d   1       2.458  -0.956  -0.191  0.00  0.00     0.008 A 
ATOM     16  C   UNL d   1       2.653   1.436   0.174  0.00  0.00     0.001 A 
ATOM     17  C   UNL d   1       3.247   0.184  -0.007  0.00  0.00     0.001 A 
ENDROOT
BRANCH   6  18
ATOM     18  C   UNL d   1      -3.580  -1.181  -1.082  0.00  0.00    -0.033 A 
ATOM     19  C   UNL d   1      -4.731  -1.982  -0.978  0.00  0.00     0.012 A 
ATOM     20  C   UNL d   1      -5.129  -2.801  -2.037  0.00  0.00     0.043 A 
ATOM     21  C   UNL d   1      -4.378  -2.821  -3.205  0.00  0.00     0.116 A 
ATOM     22  C   UNL d   1      -3.256  -2.015  -3.345  0.00  0.00     0.043 A 
ATOM     23  F   UNL d   1      -4.741  -3.629  -4.209  0.00  0.00    -0.206 F 
ATOM     24  C   UNL d   1      -2.866  -1.185  -2.293  0.00  0.00     0.012 A 
ENDBRANCH   6  18
TORSDOF 1
