REMARK  4 active torsions:
REMARK  status: ('A' for Active; 'I' for Inactive)
REMARK    1  A    between atoms: S_3  and  C_1 
REMARK    2  A    between atoms: S_4  and  C_2 
REMARK    3  A    between atoms: C_6  and  C_5 
REMARK    4  A    between atoms: C_7  and  C_8 
ROOT
ATOM      1  C   UNL d   1      -0.233  -1.505  -5.895  0.00  0.00     0.140 C 
ATOM      2  C   UNL d   1      -0.797  -2.105  -4.828  0.00  0.00     0.054 C 
ATOM      3  C   UNL d   1      -0.634  -0.254  -6.425  0.00  0.00     0.111 C 
ATOM      4  N   UNL d   1      -0.933   0.800  -6.811  0.00  0.00    -0.191 NA
ENDROOT
BRANCH   1   5
ATOM      5  S   UNL d   1       1.033  -2.329  -6.760  0.00  0.00     0.181 S 
ATOM      6  O   UNL d   1       1.192  -3.677  -6.245  0.00  0.00    -0.222 OA
ATOM      7  O   UNL d   1       0.848  -2.124  -8.184  0.00  0.00    -0.222 OA
ATOM      8  C   UNL d   1       2.487  -1.429  -6.288  0.00  0.00     0.168 C 
ENDBRANCH   1   5
BRANCH   2   9
ATOM      9  C   UNL d   1      -1.996  -1.613  -4.224  0.00  0.00     0.017 A 
ATOM     10  C   UNL d   1      -2.265  -1.089  -2.966  0.00  0.00    -0.017 A 
ATOM     11  C   UNL d   1      -3.643  -0.742  -2.796  0.00  0.00     0.020 A 
ATOM     12  C   UNL d   1      -4.402  -1.060  -3.896  0.00  0.00     0.051 A 
ATOM     13  S   UNL d   1      -3.469  -1.763  -5.130  0.00  0.00    -0.101 SA
BRANCH  10  14
ATOM     14  C   UNL d   1      -1.310  -0.898  -1.913  0.00  0.00     0.047 C 
ATOM     15  C   UNL d   1      -0.997  -1.828  -0.990  0.00  0.00     0.139 C 
ATOM     16  C   UNL d   1      -1.497  -3.150  -1.011  0.00  0.00     0.111 C 
ATOM     17  N   UNL d   1      -1.939  -4.223  -1.060  0.00  0.00    -0.191 NA
BRANCH  15  18
ATOM     18  S   UNL d   1       0.030  -1.392   0.341  0.00  0.00     0.181 S 
ATOM     19  O   UNL d   1       0.670  -2.579   0.874  0.00  0.00    -0.222 OA
ATOM     20  O   UNL d   1       0.837  -0.243  -0.027  0.00  0.00    -0.222 OA
ATOM     21  C   UNL d   1      -1.136  -0.836   1.566  0.00  0.00     0.168 C 
ENDBRANCH  15  18
ENDBRANCH  10  14
ENDBRANCH   2   9
TORSDOF 4
