REMARK  4 active torsions:
REMARK  status: ('A' for Active; 'I' for Inactive)
REMARK    1  A    between atoms: C_7  and  C_1 
REMARK    2  A    between atoms: C_9  and  N_2 
REMARK    3  A    between atoms: O_8  and  C_7 
REMARK    4  A    between atoms: C_11  and  O_8 
ROOT
ATOM      1  C   UNL d   1      -0.123  -1.180   0.064  0.00  0.00     0.087 C 
ATOM      2  N   UNL d   1       1.157   0.648   0.121  0.00  0.00    -0.260 N 
ATOM      3  N   UNL d   1      -0.092   1.079   0.411  0.00  0.00    -0.297 N 
ATOM      4  HN  UNL d   1      -0.375   2.025   0.665  1.00  0.00     0.187 HD
ATOM      5  C   UNL d   1       1.201  -0.738   0.028  0.00  0.00     0.049 C 
ATOM      6  C   UNL d   1      -0.875   0.004   0.295  0.00  0.00     0.041 C 
ATOM      7  C   UNL d   1       2.462  -1.532   0.027  0.00  0.00     0.071 C 
ATOM      8  C   UNL d   1      -2.344   0.182   0.443  0.00  0.00     0.071 C 
ENDROOT
BRANCH   1   9
ATOM      9  C   UNL d   1      -0.615  -2.558  -0.010  0.00  0.00     0.302 C 
ATOM     10  O   UNL d   1      -1.779  -2.867   0.201  0.00  0.00    -0.259 OA
BRANCH   9  11
ATOM     11  O   UNL d   1       0.405  -3.470  -0.328  0.00  0.00    -0.275 OA
BRANCH  11  12
ATOM     12  C   UNL d   1       0.485  -4.833   0.060  0.00  0.00     0.079 A 
ATOM     13  C   UNL d   1      -0.455  -5.474   0.858  0.00  0.00     0.038 A 
ATOM     14  C   UNL d   1      -0.159  -6.736   1.384  0.00  0.00     0.009 A 
ATOM     15  C   UNL d   1       1.071  -7.356   1.119  0.00  0.00    -0.062 A 
ATOM     16  C   UNL d   1       1.976  -6.729   0.256  0.00  0.00     0.009 A 
ATOM     17  C   UNL d   1       1.454  -8.607   1.855  0.00  0.00     0.048 C 
ATOM     18  C   UNL d   1       1.683  -5.471  -0.277  0.00  0.00     0.038 A 
ENDBRANCH  11  12
ENDBRANCH   9  11
ENDBRANCH   1   9
BRANCH   2  19
ATOM     19  C   UNL d   1       2.204   1.601  -0.015  0.00  0.00     0.056 A 
ATOM     20  C   UNL d   1       3.289   1.367  -0.873  0.00  0.00     0.031 A 
ATOM     21  C   UNL d   1       4.321   2.303  -0.960  0.00  0.00     0.002 A 
ATOM     22  C   UNL d   1       4.275   3.472  -0.201  0.00  0.00     0.000 A 
ATOM     23  C   UNL d   1       3.179   3.727   0.622  0.00  0.00     0.002 A 
ATOM     24  C   UNL d   1       2.135   2.803   0.702  0.00  0.00     0.031 A 
ENDBRANCH   2  19
TORSDOF 4
