REMARK  5 active torsions:
REMARK  status: ('A' for Active; 'I' for Inactive)
REMARK    1  A    between atoms: C_5  and  C_1 
REMARK    2  A    between atoms: C_6  and  C_2 
REMARK       I    between atoms: N_9  and  C_5 
REMARK    3  A    between atoms: C_11  and  N_9 
REMARK    4  A    between atoms: O_18  and  C_16 
REMARK    5  A    between atoms: C_22  and  O_18 
ROOT
ATOM      1  C   UNL d   1      -3.133   1.717   0.903  0.00  0.00     0.275 C 
ATOM      2  N   UNL d   1      -3.916   0.899   0.107  0.00  0.00    -0.322 N 
ATOM      3  O   UNL d   1      -2.678   1.417   2.000  0.00  0.00    -0.266 OA
ATOM      4  H   UNL d   1      -4.293   1.341  -0.727  0.00  0.00     0.169 HD
ENDROOT
BRANCH   1   5
ATOM      5  C   UNL d   1      -2.873   3.027   0.313  0.00  0.00     0.142 A 
ATOM      6  C   UNL d   1      -2.173   4.072   0.884  0.00  0.00     0.193 A 
ATOM      7  O   UNL d   1      -2.127   5.088  -0.041  0.00  0.00    -0.291 OA
ATOM      8  C   UNL d   1      -2.791   4.604  -1.127  0.00  0.00     0.121 A 
ATOM      9  N   UNL d   1      -3.280   3.389  -0.970  0.00  0.00    -0.334 N 
ATOM     10  C   UNL d   1      -2.838   5.504  -2.298  0.00  0.00     0.098 C 
ATOM     11  HN  UNL d   1      -3.829   2.842  -1.634  1.00  0.00     0.168 HD
BRANCH   6  12
ATOM     12  C   UNL d   1      -1.493   4.337   2.170  0.00  0.00     0.442 C 
ATOM     13  F   UNL d   1      -1.478   3.305   3.043  0.00  0.00    -0.164 F 
ATOM     14  F   UNL d   1      -0.192   4.687   1.972  0.00  0.00    -0.164 F 
ATOM     15  F   UNL d   1      -2.072   5.382   2.823  0.00  0.00    -0.164 F 
ENDBRANCH   6  12
ENDBRANCH   1   5
BRANCH   2  16
ATOM     16  C   UNL d   1      -4.192  -0.471   0.313  0.00  0.00     0.037 A 
ATOM     17  C   UNL d   1      -3.554  -1.246   1.289  0.00  0.00     0.066 A 
ATOM     18  C   UNL d   1      -3.772  -2.625   1.365  0.00  0.00     0.070 A 
ATOM     19  C   UNL d   1      -4.716  -3.223   0.535  0.00  0.00     0.037 A 
ATOM     20  C   UNL d   1      -5.387  -2.458  -0.418  0.00  0.00     0.005 A 
ATOM     21  C   UNL d   1      -5.109  -1.092  -0.543  0.00  0.00     0.029 A 
BRANCH  18  22
ATOM     22  O   UNL d   1      -3.106  -3.474   2.210  0.00  0.00    -0.351 OA
BRANCH  22  23
ATOM     23  C   UNL d   1      -1.790  -3.054   2.586  0.00  0.00     0.171 C 
ATOM     24  C   UNL d   1      -0.956  -4.289   2.871  0.00  0.00     0.034 C 
ENDBRANCH  22  23
ENDBRANCH  18  22
ENDBRANCH   2  16
TORSDOF 5
