REMARK  2 active torsions:
REMARK  status: ('A' for Active; 'I' for Inactive)
REMARK    1  A    between atoms: N_6  and  C_1 
REMARK    2  A    between atoms: C_10  and  N_2 
ROOT
ATOM      1  C   UNL d   1       0.964  -0.797  -0.044  0.00  0.00     0.155 C 
ATOM      2  N   UNL d   1       0.959   0.578   0.139  0.00  0.00    -0.238 N 
ATOM      3  N   UNL d   1      -0.304   1.034   0.370  0.00  0.00    -0.302 N 
ATOM      4  HN  UNL d   1      -0.586   1.967   0.670  1.00  0.00     0.186 HD
ATOM      5  C   UNL d   1      -0.356  -1.186  -0.148  0.00  0.00     0.107 C 
ATOM      6  C   UNL d   1      -1.087  -0.015   0.114  0.00  0.00     0.134 C 
ATOM      7  C   UNL d   1      -0.898  -2.496  -0.305  0.00  0.00     0.105 C 
ATOM      8  N   UNL d   1      -1.342  -3.560  -0.421  0.00  0.00    -0.191 NA
ENDROOT
BRANCH   1   9
ATOM      9  N   UNL d   1       2.106  -1.595  -0.024  0.00  0.00    -0.316 N 
ATOM     10  C   UNL d   1       2.308  -2.765  -0.726  0.00  0.00     0.098 A 
ATOM     11  C   UNL d   1       3.583  -3.228  -0.480  0.00  0.00     0.019 A 
ATOM     12  C   UNL d   1       4.174  -2.353   0.452  0.00  0.00     0.019 A 
ATOM     13  C   UNL d   1       3.245  -1.378   0.731  0.00  0.00     0.098 A 
ENDBRANCH   1   9
BRANCH   2  14
ATOM     14  C   UNL d   1       2.026   1.510   0.009  0.00  0.00     0.058 A 
ATOM     15  C   UNL d   1       3.074   1.279  -0.894  0.00  0.00     0.031 A 
ATOM     16  C   UNL d   1       4.150   2.165  -0.956  0.00  0.00     0.002 A 
ATOM     17  C   UNL d   1       4.178   3.284  -0.126  0.00  0.00     0.000 A 
ATOM     18  C   UNL d   1       3.118   3.536   0.746  0.00  0.00     0.002 A 
ATOM     19  C   UNL d   1       2.029   2.664   0.801  0.00  0.00     0.031 A 
ENDBRANCH   2  14
TORSDOF 2
