REMARK  0 active torsions:
REMARK  status: ('A' for Active; 'I' for Inactive)
ROOT
ATOM      1  C   UNL d   1      -2.499   0.679  -0.326  0.00  0.00     0.258 C 
ATOM      2  C   UNL d   1      -2.439  -0.806   0.023  0.00  0.00     0.269 C 
ATOM      3  C   UNL d   1      -1.237   1.466  -0.035  0.00  0.00     0.210 C 
ATOM      4  N   UNL d   1      -1.196  -1.380   0.122  0.00  0.00    -0.323 N 
ATOM      5  C   UNL d   1       0.034   0.712  -0.010  0.00  0.00     0.040 A 
ATOM      6  C   UNL d   1       0.009  -0.680   0.051  0.00  0.00     0.048 A 
ATOM      7  O   UNL d   1      -3.424  -1.536   0.147  0.00  0.00    -0.269 OA
ATOM      8  O   UNL d   1      -1.189   2.688   0.101  0.00  0.00    -0.288 OA
ATOM      9 CL   UNL d   1      -2.784   0.788  -2.096  0.00  0.00    -0.082 Cl
ATOM     10 CL   UNL d   1      -3.868   1.422   0.550  0.00  0.00    -0.082 Cl
ATOM     11  C   UNL d   1       1.258   1.392  -0.037  0.00  0.00     0.017 A 
ATOM     12  C   UNL d   1       1.206  -1.399   0.069  0.00  0.00     0.030 A 
ATOM     13  C   UNL d   1       2.453   0.672  -0.026  0.00  0.00     0.001 A 
ATOM     14  C   UNL d   1       2.426  -0.721   0.021  0.00  0.00     0.002 A 
ATOM     15  H   UNL d   1      -1.196  -2.385   0.263  0.00  0.00     0.169 HD
ENDROOT
TORSDOF 0
