REMARK  2 active torsions:
REMARK  status: ('A' for Active; 'I' for Inactive)
REMARK    1  A    between atoms: C_7  and  C_1 
REMARK    2  A    between atoms: O_9  and  C_7 
ROOT
ATOM      1  C   UNL d   1       0.040  -1.628   0.046  0.00  0.00     0.155 A 
ATOM      2  O   UNL d   1       0.005   1.298   0.092  0.00  0.00    -0.310 OA
ATOM      3  C   UNL d   1      -1.230  -0.805   0.008  0.00  0.00    -0.005 A 
ATOM      4  C   UNL d   1       1.290  -0.776   0.014  0.00  0.00    -0.005 A 
ATOM      5  C   UNL d   1      -1.167   0.590   0.035  0.00  0.00     0.083 A 
ATOM      6  C   UNL d   1       1.195   0.617   0.048  0.00  0.00     0.083 A 
ATOM      7  C   UNL d   1      -2.490  -1.426  -0.043  0.00  0.00     0.011 A 
ATOM      8  C   UNL d   1       2.564  -1.367  -0.038  0.00  0.00     0.011 A 
ATOM      9  C   UNL d   1       2.346   1.407   0.049  0.00  0.00     0.038 A 
ATOM     10  C   UNL d   1      -2.336   1.354   0.023  0.00  0.00     0.038 A 
ATOM     11  C   UNL d   1       3.714  -0.575  -0.032  0.00  0.00     0.001 A 
ATOM     12  C   UNL d   1      -3.658  -0.660  -0.046  0.00  0.00     0.001 A 
ATOM     13  C   UNL d   1       3.605   0.812   0.014  0.00  0.00     0.003 A 
ATOM     14  C   UNL d   1      -3.581   0.730  -0.014  0.00  0.00     0.003 A 
ENDROOT
BRANCH   1  15
ATOM     15  C   UNL d   1       0.049  -2.564   1.256  0.00  0.00     0.153 C 
ATOM     16  O   UNL d   1       0.088  -3.786   1.166  0.00  0.00    -0.649 OA
BRANCH  15  17
ATOM     17  O   UNL d   1       0.011  -1.939   2.459  0.00  0.00    -0.776 OA
ATOM     18  H   UNL d   1      -0.016  -0.963   2.384  0.00  0.00     0.167 HD
ENDBRANCH  15  17
ENDBRANCH   1  15
TORSDOF 2
