REMARK  6 active torsions:
REMARK  status: ('A' for Active; 'I' for Inactive)
REMARK    1  A    between atoms: C_27  and  N_1 
REMARK    2  A    between atoms: N_5  and  N_15 
REMARK    3  A    between atoms: S_17  and  C_6 
REMARK    4  A    between atoms: C_18  and  N_7 
REMARK       I    between atoms: N_15  and  C_16 
REMARK    5  A    between atoms: C_16  and  C_26 
REMARK    6  A    between atoms: C_26  and  S_17 
ROOT
ATOM      1  N   UNL d   1      -5.734  -0.638  -0.197  0.00  0.00    -0.264 N 
ATOM      2  C   UNL d   1      -5.091  -1.778   0.259  0.00  0.00     0.245 C 
ATOM      3  O   UNL d   1      -5.694  -2.802   0.591  0.00  0.00    -0.271 OA
ATOM      4  H   UNL d   1      -5.243   0.255  -0.127  0.00  0.00     0.190 HD
ENDROOT
BRANCH   2   5
ATOM      5  C   UNL d   1      -3.569  -1.784   0.231  0.00  0.00     0.186 C 
BRANCH   5   6
ATOM      6  S   UNL d   1      -2.778  -0.156   0.112  0.00  0.00    -0.083 SA
BRANCH   6   7
ATOM      7  C   UNL d   1      -1.126  -0.646  -0.118  0.00  0.00     0.163 C 
ATOM      8  N   UNL d   1      -0.061   0.216  -0.223  0.00  0.00    -0.311 N 
ATOM      9  C   UNL d   1       1.002  -0.562  -0.640  0.00  0.00     0.141 C 
ATOM     10  N   UNL d   1       0.619  -1.828  -0.599  0.00  0.00    -0.282 N 
ATOM     11  C   UNL d   1       2.284  -0.147  -1.161  0.00  0.00     0.050 A 
ATOM     12  N   UNL d   1      -0.713  -1.879  -0.277  0.00  0.00    -0.278 N 
ATOM     13  HN  UNL d   1       1.217  -2.634  -0.777  1.00  0.00     0.188 HD
ATOM     14  HN  UNL d   1      -1.278  -2.722  -0.178  1.00  0.00     0.189 HD
ATOM     15  S   UNL d   1       3.123  -1.196  -2.251  0.00  0.00    -0.098 SA
ATOM     16  C   UNL d   1       3.014   1.012  -0.967  0.00  0.00     0.023 A 
ATOM     17  C   UNL d   1       4.370  -0.064  -2.519  0.00  0.00     0.050 A 
ATOM     18  C   UNL d   1       4.197   1.073  -1.767  0.00  0.00     0.009 A 
BRANCH   8  19
ATOM     19  C   UNL d   1      -0.080   1.628   0.084  0.00  0.00     0.128 C 
ATOM     20  C   UNL d   1      -0.323   2.510  -1.127  0.00  0.00     0.027 C 
ENDBRANCH   8  19
ENDBRANCH   6   7
ENDBRANCH   5   6
ENDBRANCH   2   5
BRANCH   1  21
ATOM     21  N   UNL d   1      -7.156  -0.531  -0.246  0.00  0.00    -0.248 N 
ATOM     22  C   UNL d   1      -7.769   0.535   0.395  0.00  0.00     0.257 C 
ATOM     23  C   UNL d   1      -9.295   0.399   0.432  0.00  0.00     0.236 C 
ATOM     24  O   UNL d   1      -7.155   1.439   0.950  0.00  0.00    -0.270 OA
ATOM     25  N   UNL d   1      -9.816  -0.180  -0.819  0.00  0.00    -0.308 N 
ATOM     26  C   UNL d   1      -9.217  -1.382  -1.263  0.00  0.00     0.244 C 
ATOM     27  C   UNL d   1      -7.913  -1.737  -0.549  0.00  0.00     0.255 C 
ATOM     28  O   UNL d   1      -9.671  -2.150  -2.102  0.00  0.00    -0.271 OA
BRANCH  25  29
ATOM     29  C   UNL d   1     -11.027   0.345  -1.400  0.00  0.00     0.037 A 
ATOM     30  C   UNL d   1     -11.910  -0.460  -2.143  0.00  0.00     0.033 A 
ATOM     31  C   UNL d   1     -13.064   0.064  -2.741  0.00  0.00     0.044 A 
ATOM     32  C   UNL d   1     -13.353   1.410  -2.603  0.00  0.00     0.116 A 
ATOM     33  C   UNL d   1     -12.511   2.236  -1.875  0.00  0.00     0.044 A 
ATOM     34  F   UNL d   1     -14.448   1.918  -3.182  0.00  0.00    -0.206 F 
ATOM     35  C   UNL d   1     -11.357   1.708  -1.278  0.00  0.00     0.033 A 
ENDBRANCH  25  29
ENDBRANCH   1  21
TORSDOF 6
