REMARK  7 active torsions:
REMARK  status: ('A' for Active; 'I' for Inactive)
REMARK    1  A    between atoms: C_3  and  S_1 
REMARK    2  A    between atoms: C_4  and  S_1 
REMARK    3  A    between atoms: S_2  and  C_5 
REMARK    4  A    between atoms: C_7  and  S_2 
REMARK    5  A    between atoms: C_6  and  C_4 
REMARK    6  A    between atoms: C_5  and  C_6 
REMARK    7  A    between atoms: O_15  and  C_6 
ROOT
ATOM      1  C   UNL d   1       0.770   2.513  -1.121  0.00  0.00     0.081 C 
ATOM      2  C   UNL d   1       0.478   3.178  -2.480  0.00  0.00     0.047 C 
ENDROOT
BRANCH   1   3
ATOM      3  C   UNL d   1       0.021   3.324  -0.060  0.00  0.00     0.184 C 
BRANCH   3   4
ATOM      4  S   UNL d   1       0.333   2.847   1.624  0.00  0.00     0.178 S 
ATOM      5  O   UNL d   1      -0.167   1.503   1.850  0.00  0.00    -0.223 OA
ATOM      6  O   UNL d   1       1.714   3.166   1.937  0.00  0.00    -0.223 OA
BRANCH   4   7
ATOM      7  C   UNL d   1      -0.715   3.983   2.503  0.00  0.00     0.059 A 
ATOM      8  C   UNL d   1      -2.025   3.607   2.809  0.00  0.00     0.025 A 
ATOM      9  C   UNL d   1      -2.891   4.548   3.369  0.00  0.00     0.025 A 
ATOM     10  C   UNL d   1      -2.440   5.844   3.622  0.00  0.00     0.034 A 
ATOM     11  C   UNL d   1      -1.120   6.205   3.344  0.00  0.00     0.025 A 
ATOM     12 CL   UNL d   1      -3.527   7.016   4.260  0.00  0.00    -0.084 Cl
ATOM     13  C   UNL d   1      -0.246   5.269   2.788  0.00  0.00     0.025 A 
ENDBRANCH   4   7
ENDBRANCH   3   4
ENDBRANCH   1   3
BRANCH   1  14
ATOM     14  C   UNL d   1       0.505   1.000  -1.167  0.00  0.00     0.184 C 
BRANCH  14  15
ATOM     15  S   UNL d   1      -1.173   0.526  -1.540  0.00  0.00     0.180 S 
ATOM     16  O   UNL d   1      -2.014   1.018  -0.462  0.00  0.00    -0.222 OA
ATOM     17  O   UNL d   1      -1.498   0.891  -2.906  0.00  0.00    -0.222 OA
BRANCH  15  18
ATOM     18  C   UNL d   1      -1.183  -1.248  -1.464  0.00  0.00     0.081 A 
ATOM     19  C   UNL d   1      -0.463  -2.031  -2.372  0.00  0.00     0.055 A 
ATOM     20 CL   UNL d   1       0.498  -1.401  -3.659  0.00  0.00    -0.083 Cl
ATOM     21  C   UNL d   1      -0.507  -3.427  -2.265  0.00  0.00     0.025 A 
ATOM     22  C   UNL d   1      -1.284  -4.040  -1.282  0.00  0.00     0.002 A 
ATOM     23  C   UNL d   1      -2.027  -3.262  -0.399  0.00  0.00     0.002 A 
ATOM     24  C   UNL d   1      -1.977  -1.868  -0.484  0.00  0.00     0.025 A 
ENDBRANCH  15  18
ENDBRANCH  14  15
ENDBRANCH   1  14
BRANCH   1  25
ATOM     25  O   UNL d   1       2.192   2.697  -0.956  0.00  0.00    -0.388 OA
ATOM     26  H   UNL d   1       2.484   2.360  -0.086  0.00  0.00     0.210 HD
ENDBRANCH   1  25
TORSDOF 7
