REMARK  9 active torsions:
REMARK  status: ('A' for Active; 'I' for Inactive)
REMARK    1  A    between atoms: C_3  and  C_1 
REMARK    2  A    between atoms: O_10  and  C_3 
REMARK    3  A    between atoms: C_20  and  O_10 
REMARK    4  A    between atoms: C_12  and  O_19 
REMARK    5  A    between atoms: O_19  and  C_21 
REMARK    6  A    between atoms: C_23  and  C_20 
REMARK    7  A    between atoms: C_21  and  C_22 
REMARK    8  A    between atoms: C_22  and  C_24 
REMARK    9  A    between atoms: C_24  and  C_23 
ROOT
ATOM      1  C   UNL d   1      -4.926  -2.279   0.085  0.00  0.00     0.179 C 
ENDROOT
BRANCH   1   2
ATOM      2  O   UNL d   1      -5.019  -3.068   1.276  0.00  0.00    -0.317 OA
BRANCH   2   3
ATOM      3  C   UNL d   1      -4.450  -2.534   2.378  0.00  0.00     0.295 C 
ATOM      4  O   UNL d   1      -3.932  -1.429   2.458  0.00  0.00    -0.259 OA
BRANCH   3   5
ATOM      5  C   UNL d   1      -4.633  -3.416   3.553  0.00  0.00     0.061 A 
ATOM      6  C   UNL d   1      -4.589  -4.817   3.518  0.00  0.00     0.051 A 
ATOM      7  C   UNL d   1      -4.754  -5.549   4.702  0.00  0.00     0.048 A 
ATOM      8 CL   UNL d   1      -4.269  -5.738   2.090  0.00  0.00    -0.083 Cl
ATOM      9  C   UNL d   1      -4.944  -4.887   5.915  0.00  0.00     0.035 A 
ATOM     10  C   UNL d   1      -4.977  -3.497   5.963  0.00  0.00     0.025 A 
ATOM     11 CL   UNL d   1      -5.119  -5.796   7.363  0.00  0.00    -0.084 Cl
ATOM     12  C   UNL d   1      -4.822  -2.763   4.786  0.00  0.00     0.021 A 
ENDBRANCH   3   5
ENDBRANCH   2   3
ENDBRANCH   1   2
BRANCH   1  13
ATOM     13  C   UNL d   1      -6.076  -1.280   0.011  0.00  0.00     0.027 C 
BRANCH  13  14
ATOM     14  C   UNL d   1      -7.447  -1.967   0.011  0.00  0.00     0.004 C 
BRANCH  14  15
ATOM     15  C   UNL d   1      -8.618  -0.981  -0.027  0.00  0.00     0.027 C 
BRANCH  15  16
ATOM     16  C   UNL d   1      -8.575  -0.069  -1.250  0.00  0.00     0.175 C 
BRANCH  16  17
ATOM     17  O   UNL d   1      -9.747   0.744  -1.280  0.00  0.00    -0.351 OA
BRANCH  17  18
ATOM     18  C   UNL d   1      -9.831   1.598  -2.350  0.00  0.00     0.068 A 
ATOM     19  C   UNL d   1     -11.118   2.046  -2.651  0.00  0.00     0.038 A 
ATOM     20  C   UNL d   1     -11.331   2.912  -3.726  0.00  0.00     0.026 A 
ATOM     21  C   UNL d   1     -10.251   3.343  -4.492  0.00  0.00     0.034 A 
ATOM     22  C   UNL d   1      -8.961   2.922  -4.186  0.00  0.00     0.026 A 
ATOM     23 CL   UNL d   1     -10.508   4.403  -5.822  0.00  0.00    -0.084 Cl
ATOM     24  C   UNL d   1      -8.751   2.051  -3.114  0.00  0.00     0.038 A 
ENDBRANCH  17  18
ENDBRANCH  16  17
ENDBRANCH  15  16
ENDBRANCH  14  15
ENDBRANCH  13  14
ENDBRANCH   1  13
TORSDOF 9
