REMARK  3 active torsions:
REMARK  status: ('A' for Active; 'I' for Inactive)
REMARK    1  A    between atoms: C_6  and  C_1 
REMARK    2  A    between atoms: O_11  and  C_6 
REMARK    3  A    between atoms: O_12  and  C_9 
ROOT
ATOM      1  C   UNL d   1      -1.851  -1.365  -0.080  0.00  0.00     0.114 A 
ATOM      2  C   UNL d   1      -2.165   0.067  -0.058  0.00  0.00     0.305 A 
ATOM      3  O   UNL d   1      -1.111   0.959  -0.059  0.00  0.00    -0.271 OA
ATOM      4  C   UNL d   1      -0.572  -1.776  -0.044  0.00  0.00     0.039 A 
ATOM      5  C   UNL d   1       0.238   0.554  -0.038  0.00  0.00     0.123 A 
ATOM      6  C   UNL d   1       0.524  -0.816  -0.002  0.00  0.00     0.002 A 
ATOM      7  O   UNL d   1      -3.334   0.453  -0.050  0.00  0.00    -0.259 OA
ATOM      8  C   UNL d   1       1.256   1.513  -0.042  0.00  0.00     0.102 A 
ATOM      9  C   UNL d   1       1.854  -1.239   0.054  0.00  0.00     0.014 A 
ATOM     10  C   UNL d   1       2.882  -0.297   0.065  0.00  0.00     0.004 A 
ATOM     11  C   UNL d   1       2.582   1.066   0.011  0.00  0.00     0.040 A 
ENDROOT
BRANCH   1  12
ATOM     12  C   UNL d   1      -2.910  -2.397  -0.148  0.00  0.00     0.182 C 
ATOM     13  O   UNL d   1      -2.671  -3.596  -0.183  0.00  0.00    -0.646 OA
BRANCH  12  14
ATOM     14  O   UNL d   1      -4.178  -1.930  -0.180  0.00  0.00    -0.772 OA
ATOM     15  H   UNL d   1      -4.272  -0.948  -0.138  0.00  0.00     0.167 HD
ENDBRANCH  12  14
ENDBRANCH   1  12
BRANCH   8  16
ATOM     16  O   UNL d   1       1.148   2.875  -0.095  0.00  0.00    -0.353 OA
ATOM     17  C   UNL d   1      -0.144   3.458  -0.176  0.00  0.00     0.210 C 
ENDBRANCH   8  16
TORSDOF 3
