REMARK  4 active torsions:
REMARK  status: ('A' for Active; 'I' for Inactive)
REMARK    1  A    between atoms: C_7  and  C_1 
REMARK       I    between atoms: N_10  and  C_7 
REMARK    2  A    between atoms: C_22  and  C_8 
REMARK    3  A    between atoms: C_9  and  C_12 
REMARK    4  A    between atoms: C_13  and  N_11 
ROOT
ATOM      1  C   UNL d   1      -0.724  -2.453  -0.079  0.00  0.00     0.296 C 
ATOM      2  N   UNL d   1       0.295  -3.404  -0.255  0.00  0.00    -0.342 N 
ATOM      3  N   UNL d   1       2.312  -5.321  -0.744  0.00  0.00    -0.364 N 
ATOM      4  O   UNL d   1      -1.751  -2.514  -0.759  0.00  0.00    -0.263 OA
ATOM      5  C   UNL d   1       1.281  -3.752   0.790  0.00  0.00     0.146 C 
ATOM      6  C   UNL d   1       0.111  -4.441  -1.288  0.00  0.00     0.146 C 
ATOM      7  C   UNL d   1       1.457  -4.930  -1.870  0.00  0.00     0.144 C 
ATOM      8  C   UNL d   1       2.611  -4.220   0.178  0.00  0.00     0.144 C 
ENDROOT
BRANCH   1   9
ATOM      9  C   UNL d   1      -0.527  -1.399   0.905  0.00  0.00     0.233 A 
ATOM     10  O   UNL d   1      -1.616  -0.811   1.498  0.00  0.00    -0.268 OA
ATOM     11  C   UNL d   1      -1.019   0.084   2.347  0.00  0.00     0.175 A 
ATOM     12  N   UNL d   1       0.297   0.062   2.265  0.00  0.00    -0.277 N 
ATOM     13  N   UNL d   1       0.615  -0.884   1.316  0.00  0.00    -0.273 N 
ATOM     14  HN  UNL d   1       0.952   0.634   2.799  1.00  0.00     0.189 HD
ATOM     15  HN  UNL d   1       1.549  -1.136   0.994  1.00  0.00     0.189 HD
BRANCH  11  16
ATOM     16  C   UNL d   1      -1.881   0.879   3.207  0.00  0.00     0.017 A 
ATOM     17  C   UNL d   1      -3.280   0.758   3.178  0.00  0.00     0.016 A 
ATOM     18  C   UNL d   1      -4.077   1.529   4.025  0.00  0.00     0.001 A 
ATOM     19  C   UNL d   1      -3.491   2.431   4.913  0.00  0.00     0.000 A 
ATOM     20  C   UNL d   1      -2.102   2.562   4.951  0.00  0.00     0.001 A 
ATOM     21  C   UNL d   1      -1.306   1.793   4.105  0.00  0.00     0.016 A 
ENDBRANCH  11  16
ENDBRANCH   1   9
BRANCH   3  22
ATOM     22  C   UNL d   1       3.239  -6.326  -0.911  0.00  0.00     0.103 A 
ATOM     23  N   UNL d   1       3.641  -6.680  -2.148  0.00  0.00    -0.352 N 
ATOM     24  C   UNL d   1       4.482  -7.738  -2.273  0.00  0.00     0.106 A 
ATOM     25  HN  UNL d   1       3.322  -6.165  -2.969  1.00  0.00     0.166 HD
ATOM     26  C   UNL d   1       4.936  -8.504  -1.211  0.00  0.00     0.063 A 
ATOM     27  C   UNL d   1       4.508  -8.138   0.062  0.00  0.00     0.021 A 
ATOM     28  C   UNL d   1       3.666  -7.041   0.209  0.00  0.00     0.049 A 
BRANCH  26  29
ATOM     29  C   UNL d   1       5.820  -9.689  -1.420  0.00  0.00     0.418 C 
ATOM     30  F   UNL d   1       6.187  -9.879  -2.717  0.00  0.00    -0.166 F 
ATOM     31  F   UNL d   1       6.981  -9.601  -0.713  0.00  0.00    -0.166 F 
ATOM     32  F   UNL d   1       5.232 -10.851  -1.023  0.00  0.00    -0.166 F 
ENDBRANCH  26  29
ENDBRANCH   3  22
TORSDOF 4
