REMARK  6 active torsions:
REMARK  status: ('A' for Active; 'I' for Inactive)
REMARK    1  A    between atoms: C_10  and  C_1 
REMARK    2  A    between atoms: N_16  and  C_3 
REMARK    3  A    between atoms: C_12  and  C_6 
REMARK    4  A    between atoms: C_13  and  C_9 
REMARK    5  A    between atoms: O_24  and  C_10 
REMARK    6  A    between atoms: C_25  and  O_24 
ROOT
ATOM      1  C   UNL d   1       2.348   0.075   0.049  0.00  0.00     0.179 A 
ATOM      2  C   UNL d   1       0.240   0.908   0.084  0.00  0.00     0.058 A 
ATOM      3  C   UNL d   1       1.623   1.245   0.143  0.00  0.00     0.082 A 
ATOM      4  C   UNL d   1       0.218  -0.487  -0.011  0.00  0.00     0.162 A 
ATOM      5  O   UNL d   1       1.485  -0.985  -0.020  0.00  0.00    -0.284 OA
ATOM      6  C   UNL d   1      -1.011   1.559   0.088  0.00  0.00     0.017 A 
ATOM      7  N   UNL d   1      -0.857  -1.289  -0.108  0.00  0.00    -0.334 N 
ATOM      8  HN  UNL d   1      -0.790  -2.305  -0.175  1.00  0.00     0.168 HD
ATOM      9  C   UNL d   1      -2.034  -0.626  -0.109  0.00  0.00     0.069 A 
ATOM     10  C   UNL d   1      -2.156   0.754  -0.002  0.00  0.00     0.048 A 
ENDROOT
BRANCH   1  11
ATOM     11  C   UNL d   1       3.768  -0.138  -0.065  0.00  0.00     0.319 C 
ATOM     12  O   UNL d   1       4.610   0.750  -0.157  0.00  0.00    -0.257 OA
BRANCH  11  13
ATOM     13  O   UNL d   1       4.042  -1.472  -0.161  0.00  0.00    -0.316 OA
BRANCH  13  14
ATOM     14  C   UNL d   1       5.341  -1.796  -0.671  0.00  0.00     0.175 C 
ATOM     15  C   UNL d   1       5.261  -1.832  -2.187  0.00  0.00     0.034 C 
ENDBRANCH  13  14
ENDBRANCH  11  13
ENDBRANCH   1  11
BRANCH   3  16
ATOM     16  N   UNL d   1       2.154   2.483   0.233  0.00  0.00    -0.396 N 
ATOM     17  H   UNL d   1       1.571   3.293   0.023  0.00  0.00     0.156 HD
ATOM     18  H   UNL d   1       3.143   2.643   0.039  0.00  0.00     0.156 HD
ENDBRANCH   3  16
BRANCH   6  19
ATOM     19  C   UNL d   1      -1.134   3.003   0.179  0.00  0.00     0.086 A 
ATOM     20  O   UNL d   1      -0.182   3.755  -0.451  0.00  0.00    -0.322 OA
ATOM     21  C   UNL d   1      -0.508   5.061  -0.268  0.00  0.00     0.142 A 
ATOM     22  C   UNL d   1      -1.671   5.168   0.454  0.00  0.00     0.027 A 
ATOM     23  C   UNL d   1      -2.083   3.842   0.731  0.00  0.00     0.040 A 
ENDBRANCH   6  19
BRANCH   9  24
ATOM     24  C   UNL d   1      -3.209  -1.476  -0.279  0.00  0.00     0.101 A 
ATOM     25  O   UNL d   1      -4.429  -0.851  -0.238  0.00  0.00    -0.321 OA
ATOM     26  C   UNL d   1      -5.378  -1.798  -0.449  0.00  0.00     0.142 A 
ATOM     27  C   UNL d   1      -4.796  -3.030  -0.622  0.00  0.00     0.027 A 
ATOM     28  C   UNL d   1      -3.399  -2.827  -0.503  0.00  0.00     0.041 A 
ENDBRANCH   9  24
TORSDOF 6
