REMARK  3 active torsions:
REMARK  status: ('A' for Active; 'I' for Inactive)
REMARK    1  A    between atoms: N_2  and  S_1 
REMARK    2  A    between atoms: C_9  and  S_1 
REMARK    3  A    between atoms: C_3  and  N_4 
ROOT
ATOM      1  N   UNL d   1       0.476   1.139  -0.695  0.00  0.00    -0.203 NA
ATOM      2  N   UNL d   1      -0.867   2.837   1.247  0.00  0.00    -0.378 N 
ATOM      3  C   UNL d   1       1.048   2.472  -0.319  0.00  0.00     0.127 C 
ATOM      4  C   UNL d   1      -1.014   1.161  -0.562  0.00  0.00     0.127 C 
ATOM      5  C   UNL d   1       0.605   2.925   1.097  0.00  0.00     0.138 C 
ATOM      6  C   UNL d   1      -1.451   1.542   0.860  0.00  0.00     0.138 C 
ENDROOT
BRANCH   2   7
ATOM      7  C   UNL d   1      -1.566   3.795   1.986  0.00  0.00     0.044 A 
ATOM      8  C   UNL d   1      -2.636   3.529   2.904  0.00  0.00     0.017 A 
ATOM      9  C   UNL d   1      -3.350   4.643   3.417  0.00  0.00     0.044 A 
ATOM     10  C   UNL d   1      -3.041   2.250   3.378  0.00  0.00     0.016 A 
ATOM     11  C   UNL d   1      -4.452   4.444   4.240  0.00  0.00     0.030 A 
ATOM     12  N   UNL d   1      -3.029   5.916   3.159  0.00  0.00    -0.359 N 
ATOM     13  C   UNL d   1      -4.877   3.172   4.619  0.00  0.00     0.002 A 
ATOM     14  C   UNL d   1      -4.155   2.070   4.201  0.00  0.00     0.001 A 
ATOM     15  C   UNL d   1      -1.980   6.160   2.357  0.00  0.00     0.007 A 
ATOM     16  HN  UNL d   1      -3.567   6.683   3.563  1.00  0.00     0.166 HD
ATOM     17  C   UNL d   1      -1.256   5.145   1.751  0.00  0.00     0.054 A 
ATOM     18  C   UNL d   1      -1.621   7.593   2.104  0.00  0.00     0.068 C 
ENDBRANCH   2   7
BRANCH   1  19
ATOM     19  S   UNL d   1       1.249  -0.228  -0.044  0.00  0.00     0.243 S 
ATOM     20  O   UNL d   1       0.358  -1.360  -0.146  0.00  0.00    -0.206 OA
ATOM     21  O   UNL d   1       1.859   0.137   1.217  0.00  0.00    -0.206 OA
BRANCH  19  22
ATOM     22  C   UNL d   1       2.554  -0.503  -1.222  0.00  0.00     0.074 A 
ATOM     23  C   UNL d   1       3.894  -0.353  -0.847  0.00  0.00     0.028 A 
ATOM     24  C   UNL d   1       4.897  -0.664  -1.767  0.00  0.00     0.044 A 
ATOM     25  C   UNL d   1       4.552  -1.121  -3.037  0.00  0.00     0.116 A 
ATOM     26  C   UNL d   1       3.221  -1.268  -3.413  0.00  0.00     0.044 A 
ATOM     27  F   UNL d   1       5.520  -1.435  -3.908  0.00  0.00    -0.206 F 
ATOM     28  C   UNL d   1       2.212  -0.960  -2.501  0.00  0.00     0.028 A 
ENDBRANCH  19  22
ENDBRANCH   1  19
TORSDOF 3
