REMARK  3 active torsions:
REMARK  status: ('A' for Active; 'I' for Inactive)
REMARK    1  A    between atoms: C_6  and  C_2 
REMARK    2  A    between atoms: C_10  and  C_3 
REMARK    3  A    between atoms: S_17  and  C_7 
ROOT
ATOM      1  S   UNL d   1      -1.049  -0.046   0.001  0.00  0.00    -0.087 SA
ATOM      2  C   UNL d   1       0.116   1.215   0.010  0.00  0.00     0.022 A 
ATOM      3  C   UNL d   1       0.143  -1.279   0.023  0.00  0.00     0.032 A 
ATOM      4  C   UNL d   1       1.393   0.695   0.093  0.00  0.00     0.021 A 
ATOM      5  C   UNL d   1       1.408  -0.729   0.121  0.00  0.00     0.023 A 
ENDROOT
BRANCH   3   6
ATOM      6  C   UNL d   1      -0.219  -2.701  -0.049  0.00  0.00     0.052 A 
ATOM      7  N   UNL d   1       0.628  -3.521   0.606  0.00  0.00    -0.336 N 
ATOM      8  C   UNL d   1       0.375  -4.835   0.517  0.00  0.00     0.141 A 
ATOM      9  HN  UNL d   1       1.419  -3.162   1.141  1.00  0.00     0.168 HD
ATOM     10  N   UNL d   1      -0.631  -5.385  -0.180  0.00  0.00    -0.347 N 
ATOM     11  C   UNL d   1      -1.444  -4.531  -0.821  0.00  0.00     0.092 A 
ATOM     12  HN  UNL d   1      -0.770  -6.394  -0.221  1.00  0.00     0.167 HD
ATOM     13  C   UNL d   1      -1.290  -3.167  -0.786  0.00  0.00     0.048 A 
BRANCH   8  14
ATOM     14  S   UNL d   1       1.461  -5.919   1.391  0.00  0.00    -0.107 SA
ATOM     15  H   UNL d   1       2.126  -4.919   1.980  0.00  0.00     0.110 HD
ENDBRANCH   8  14
ENDBRANCH   3   6
BRANCH   2  16
ATOM     16  C   UNL d   1      -0.271   2.605  -0.081  0.00  0.00     0.021 A 
ATOM     17  S   UNL d   1       0.758   3.773  -0.814  0.00  0.00    -0.101 SA
ATOM     18  C   UNL d   1      -0.366   5.034  -0.565  0.00  0.00     0.050 A 
ATOM     19  C   UNL d   1      -1.501   4.593   0.073  0.00  0.00     0.008 A 
ATOM     20  C   UNL d   1      -1.447   3.195   0.353  0.00  0.00     0.021 A 
ENDBRANCH   2  16
TORSDOF 3
