REMARK  4 active torsions:
REMARK  status: ('A' for Active; 'I' for Inactive)
REMARK    1  A    between atoms: C_5  and  C_1 
REMARK       I    between atoms: N_10  and  C_5 
REMARK    2  A    between atoms: N_6  and  C_11 
REMARK    3  A    between atoms: C_19  and  N_10 
REMARK    4  A    between atoms: C_20  and  C_19 
ROOT
ATOM      1  C   UNL d   1      -8.202   1.770  -0.101  0.00  0.00     0.030 A 
ATOM      2  C   UNL d   1      -7.846   0.413  -0.062  0.00  0.00     0.030 A 
ATOM      3  C   UNL d   1      -7.151   2.696  -0.108  0.00  0.00     0.030 A 
ATOM      4  C   UNL d   1      -5.474   0.933  -0.033  0.00  0.00    -0.040 A 
ATOM      5  C   UNL d   1      -6.509  -0.005  -0.035  0.00  0.00     0.011 A 
ATOM      6  C   UNL d   1      -5.809   2.289  -0.077  0.00  0.00     0.011 A 
ENDROOT
BRANCH   4   7
ATOM      7  C   UNL d   1      -4.037   0.498   0.017  0.00  0.00     0.161 C 
BRANCH   7   8
ATOM      8  N   UNL d   1      -3.449   0.347  -1.288  0.00  0.00    -0.351 N 
ATOM      9  C   UNL d   1      -2.118   0.005  -1.412  0.00  0.00     0.270 C 
ATOM     10  O   UNL d   1      -1.390  -0.175  -0.441  0.00  0.00    -0.266 OA
ATOM     11  H   UNL d   1      -4.002   0.467  -2.131  0.00  0.00     0.163 HD
BRANCH   9  12
ATOM     12  C   UNL d   1      -1.620  -0.128  -2.784  0.00  0.00     0.124 A 
ATOM     13  N   UNL d   1      -2.395   0.060  -3.866  0.00  0.00    -0.256 N 
ATOM     14  O   UNL d   1      -1.572  -0.153  -4.963  0.00  0.00    -0.242 OA
ATOM     15  HN  UNL d   1      -3.385   0.308  -3.879  1.00  0.00     0.195 HD
ATOM     16  C   UNL d   1      -0.318  -0.465  -4.539  0.00  0.00     0.075 A 
ATOM     17  C   UNL d   1      -0.295  -0.462  -3.168  0.00  0.00     0.071 A 
ATOM     18  C   UNL d   1       0.693  -0.726  -5.579  0.00  0.00     0.079 C 
ENDBRANCH   9  12
ENDBRANCH   7   8
ENDBRANCH   4   7
BRANCH   1  19
ATOM     19  N   UNL d   1      -9.535   2.136  -0.212  0.00  0.00    -0.378 N 
ATOM     20  C   UNL d   1      -9.919   3.463  -0.720  0.00  0.00     0.153 C 
ATOM     21  C   UNL d   1     -11.320   3.372  -1.370  0.00  0.00     0.291 C 
ATOM     22  N   UNL d   1     -12.353   2.847  -0.446  0.00  0.00     0.087 N 
ATOM     23  C   UNL d   1     -11.912   1.534   0.084  0.00  0.00     0.291 C 
ATOM     24  C   UNL d   1     -13.633   2.715  -1.139  0.00  0.00     0.310 C 
ATOM     25  C   UNL d   1     -10.513   1.590   0.749  0.00  0.00     0.153 C 
ENDBRANCH   1  19
TORSDOF 4
