REMARK  1 active torsions:
REMARK  status: ('A' for Active; 'I' for Inactive)
REMARK    1  A    between atoms: C_7  and  C_6 
ROOT
ATOM      1  N   UNL d   1       0.894   0.659  -0.060  0.00  0.00    -0.307 N 
ATOM      2  C   UNL d   1       0.725  -0.691  -0.054  0.00  0.00     0.146 A 
ATOM      3  C   UNL d   1      -1.438   0.592  -0.022  0.00  0.00     0.077 A 
ATOM      4  C   UNL d   1      -0.223   1.447  -0.050  0.00  0.00     0.264 A 
ATOM      5  S   UNL d   1      -0.981  -1.074  -0.031  0.00  0.00    -0.055 SA
ATOM      6  C   UNL d   1      -2.665   1.125   0.024  0.00  0.00     0.043 C 
ATOM      7  S   UNL d   1       1.978  -1.772  -0.071  0.00  0.00    -0.052 SA
ATOM      8  O   UNL d   1      -0.213   2.667  -0.064  0.00  0.00    -0.267 OA
ATOM      9  H   UNL d   1       1.811   1.080  -0.074  0.00  0.00     0.170 HD
ENDROOT
BRANCH   6  10
ATOM     10  C   UNL d   1      -3.846   0.341   0.083  0.00  0.00     0.006 A 
ATOM     11  S   UNL d   1      -4.565  -0.013   1.604  0.00  0.00    -0.102 SA
ATOM     12  C   UNL d   1      -5.828  -0.908   0.879  0.00  0.00     0.050 A 
ATOM     13  C   UNL d   1      -5.727  -0.924  -0.493  0.00  0.00     0.008 A 
ATOM     14  C   UNL d   1      -4.587  -0.201  -0.952  0.00  0.00     0.019 A 
ENDBRANCH   6  10
TORSDOF 1
