REMARK  7 active torsions:
REMARK  status: ('A' for Active; 'I' for Inactive)
REMARK    1  A    between atoms: C_7  and  C_1 
REMARK    2  A    between atoms: C_12  and  C_2 
REMARK    3  A    between atoms: N_6  and  C_5 
REMARK    4  A    between atoms: C_9  and  C_10 
REMARK    5  A    between atoms: N_24  and  C_10 
REMARK    6  A    between atoms: O_18  and  C_12 
REMARK    7  A    between atoms: N_14  and  O_18 
ROOT
ATOM      1  C   UNL d   1      -1.491  -1.146   0.364  0.00  0.00     0.320 C 
ATOM      2  O   UNL d   1      -2.204  -2.057   0.764  0.00  0.00    -0.257 OA
ENDROOT
BRANCH   1   3
ATOM      3  C   UNL d   1      -0.067  -1.313   0.106  0.00  0.00     0.102 A 
ATOM      4  C   UNL d   1       0.659  -2.523  -0.174  0.00  0.00     0.088 A 
ATOM      5  N   UNL d   1       1.956  -2.245  -0.379  0.00  0.00    -0.259 N 
ATOM      6  O   UNL d   1       2.107  -0.898  -0.213  0.00  0.00    -0.241 OA
ATOM      7  HN  UNL d   1       2.690  -2.913  -0.615  1.00  0.00     0.195 HD
ATOM      8  C   UNL d   1       0.907  -0.329   0.060  0.00  0.00     0.091 A 
ATOM      9  C   UNL d   1       0.975   1.133   0.242  0.00  0.00     0.080 C 
BRANCH   4  10
ATOM     10  C   UNL d   1       0.191  -3.898  -0.357  0.00  0.00     0.054 A 
ATOM     11  C   UNL d   1       0.858  -5.013   0.185  0.00  0.00     0.049 A 
ATOM     12 CL   UNL d   1       2.197  -4.880   1.277  0.00  0.00    -0.083 Cl
ATOM     13  C   UNL d   1       0.445  -6.317  -0.131  0.00  0.00     0.025 A 
ATOM     14  C   UNL d   1      -0.652  -6.530  -0.963  0.00  0.00     0.005 A 
ATOM     15  C   UNL d   1      -1.336  -5.438  -1.485  0.00  0.00     0.043 A 
ATOM     16  C   UNL d   1      -0.905  -4.143  -1.194  0.00  0.00     0.130 A 
ATOM     17  F   UNL d   1      -1.550  -3.126  -1.786  0.00  0.00    -0.205 F 
ENDBRANCH   4  10
ENDBRANCH   1   3
BRANCH   1  18
ATOM     18  O   UNL d   1      -1.911   0.140   0.091  0.00  0.00    -0.193 OA
BRANCH  18  19
ATOM     19  N   UNL d   1      -3.322   0.248   0.116  0.00  0.00    -0.244 N 
ATOM     20  C   UNL d   1      -3.698   1.442  -0.253  0.00  0.00     0.133 C 
ATOM     21  HN  UNL d   1      -3.957  -0.504   0.385  1.00  0.00     0.196 HD
BRANCH  20  22
ATOM     22  C   UNL d   1      -5.126   1.690  -0.363  0.00  0.00     0.117 A 
ATOM     23  O   UNL d   1      -5.513   2.954  -0.741  0.00  0.00    -0.285 OA
ATOM     24  C   UNL d   1      -6.869   2.938  -0.815  0.00  0.00     0.215 A 
ATOM     25  C   UNL d   1      -7.380   1.709  -0.476  0.00  0.00     0.066 A 
ATOM     26  C   UNL d   1      -6.249   0.902  -0.176  0.00  0.00     0.045 A 
BRANCH  24  27
ATOM     27  N   UNL d   1      -7.490   4.157  -1.229  0.00  0.00    -0.090 N 
ATOM     28  O   UNL d   1      -8.713   4.113  -1.422  0.00  0.00    -0.530 OA
ATOM     29  O   UNL d   1      -6.769   5.155  -1.360  0.00  0.00    -0.530 OA
ENDBRANCH  24  27
ENDBRANCH  20  22
BRANCH  20  30
ATOM     30  N   UNL d   1      -2.809   2.458  -0.528  0.00  0.00    -0.285 NA
ATOM     31  H   UNL d   1      -3.214   3.390  -0.494  0.00  0.00     0.125 HD
ATOM     32  H   UNL d   1      -1.936   2.378  -0.028  0.00  0.00     0.125 HD
ENDBRANCH  20  30
ENDBRANCH  18  19
ENDBRANCH   1  18
TORSDOF 7
