REMARK  3 active torsions:
REMARK  status: ('A' for Active; 'I' for Inactive)
REMARK    1  A    between atoms: C_6  and  C_1 
REMARK    2  A    between atoms: N_2  and  C_8 
REMARK    3  A    between atoms: C_14  and  C_6 
ROOT
ATOM      1  N   UNL d   1      -6.563   5.516   2.814  0.00  0.00    -0.191 NA
ATOM      2  C   UNL d   1      -6.117   4.554   2.343  0.00  0.00     0.099 C 
ATOM      3  C   UNL d   1      -4.394   1.098   0.598  0.00  0.00     0.017 A 
ATOM      4  C   UNL d   1      -3.792   1.709   1.708  0.00  0.00     0.017 A 
ATOM      5  C   UNL d   1      -5.602   1.605   0.102  0.00  0.00     0.017 A 
ATOM      6  C   UNL d   1      -5.549   3.373   1.764  0.00  0.00     0.044 A 
ATOM      7  C   UNL d   1      -6.173   2.744   0.680  0.00  0.00     0.023 A 
ATOM      8  C   UNL d   1      -4.361   2.846   2.282  0.00  0.00     0.023 A 
ENDROOT
BRANCH   3   9
ATOM      9  C   UNL d   1      -3.792  -0.109  -0.040  0.00  0.00     0.215 C 
ATOM     10  O   UNL d   1      -4.547  -0.956  -0.511  0.00  0.00    -0.284 OA
BRANCH   9  11
ATOM     11  C   UNL d   1      -2.350  -0.240  -0.051  0.00  0.00     0.127 A 
ATOM     12  O   UNL d   1      -1.573   0.887  -0.037  0.00  0.00    -0.306 OA
ATOM     13  C   UNL d   1      -0.275   0.491  -0.039  0.00  0.00     0.086 A 
ATOM     14  C   UNL d   1       0.824   1.346  -0.018  0.00  0.00     0.040 A 
ATOM     15  C   UNL d   1      -0.195  -0.896  -0.056  0.00  0.00     0.003 A 
ATOM     16  C   UNL d   1       2.086   0.742  -0.004  0.00  0.00     0.039 A 
ATOM     17  C   UNL d   1       2.208  -0.657  -0.009  0.00  0.00     0.103 A 
ATOM     18  C   UNL d   1       1.076  -1.499  -0.034  0.00  0.00     0.050 A 
ATOM     19  C   UNL d   1      -1.538  -1.358  -0.095  0.00  0.00     0.055 A 
BRANCH  17  20
ATOM     20  N   UNL d   1       3.547  -1.262   0.012  0.00  0.00    -0.116 N 
ATOM     21  O   UNL d   1       3.619  -2.499   0.027  0.00  0.00    -0.532 OA
ATOM     22  O   UNL d   1       4.524  -0.500   0.016  0.00  0.00    -0.532 OA
ENDBRANCH  17  20
ENDBRANCH   9  11
ENDBRANCH   3   9
TORSDOF 3
