REMARK  0 active torsions:
REMARK  status: ('A' for Active; 'I' for Inactive)
ROOT
ATOM      1  C   UNL d   1       0.945  -1.986   0.167  0.00  0.00     0.021 A 
ATOM      2  C   UNL d   1      -0.191  -1.167   0.170  0.00  0.00     0.010 A 
ATOM      3  N   UNL d   1       1.232   0.664  -0.532  0.00  0.00    -0.359 N 
ATOM      4  HN  UNL d   1       1.338   1.648  -0.779  1.00  0.00     0.166 HD
ATOM      5  C   UNL d   1       2.198  -1.495  -0.200  0.00  0.00    -0.018 A 
ATOM      6  C   UNL d   1       0.021   0.177  -0.196  0.00  0.00     0.044 A 
ATOM      7  C   UNL d   1       2.308  -0.160  -0.540  0.00  0.00     0.013 A 
ATOM      8  S   UNL d   1       1.049  -3.715   0.603  0.00  0.00    -0.128 SA
ATOM      9  C   UNL d   1      -1.492  -1.607   0.510  0.00  0.00     0.039 A 
ATOM     10  C   UNL d   1      -1.069   1.035  -0.219  0.00  0.00     0.032 A 
ATOM     11  C   UNL d   1      -2.563  -0.720   0.474  0.00  0.00     0.035 A 
ATOM     12  C   UNL d   1       2.860  -3.646   0.698  0.00  0.00     0.084 C 
ATOM     13  C   UNL d   1       3.279  -2.533  -0.261  0.00  0.00     0.052 C 
ATOM     14  C   UNL d   1      -2.358   0.604   0.111  0.00  0.00     0.026 A 
ATOM     15 CL   UNL d   1      -4.144  -1.263   0.877  0.00  0.00    -0.084 Cl
ATOM     16  C   UNL d   1       3.619   0.450  -0.931  0.00  0.00     0.068 C 
ENDROOT
TORSDOF 0
