REMARK  3 active torsions:
REMARK  status: ('A' for Active; 'I' for Inactive)
REMARK    1  A    between atoms: C_5  and  N_1 
REMARK    2  A    between atoms: C_13  and  C_7 
REMARK    3  A    between atoms: C_9  and  C_8 
ROOT
ATOM      1  C   UNL d   1      -0.522  -2.589   0.182  0.00  0.00     0.147 A 
ATOM      2  C   UNL d   1      -0.343  -3.339   1.344  0.00  0.00     0.093 A 
ATOM      3  N   UNL d   1      -0.840  -3.156  -1.010  0.00  0.00    -0.350 N 
ATOM      4  HN  UNL d   1      -1.007  -2.581  -1.836  1.00  0.00     0.166 HD
ATOM      5  C   UNL d   1      -0.461  -4.738   1.241  0.00  0.00     0.021 A 
ATOM      6  C   UNL d   1      -0.929  -4.503  -1.073  0.00  0.00     0.090 A 
ATOM      7  C   UNL d   1      -0.743  -5.331   0.017  0.00  0.00     0.018 A 
ENDROOT
BRANCH   1   8
ATOM      8  N   UNL d   1      -0.279  -1.215   0.199  0.00  0.00    -0.180 N 
ATOM      9  N   UNL d   1       0.997  -0.773   0.426  0.00  0.00    -0.270 N 
ATOM     10  C   UNL d   1       0.931   0.462   0.029  0.00  0.00     0.147 A 
ATOM     11  HN  UNL d   1       1.794  -1.282   0.808  1.00  0.00     0.189 HD
ATOM     12  O   UNL d   1      -0.258   0.872  -0.457  0.00  0.00    -0.245 OA
ATOM     13  C   UNL d   1      -1.048  -0.240  -0.394  0.00  0.00     0.394 A 
ATOM     14  O   UNL d   1      -2.215  -0.270  -0.743  0.00  0.00    -0.236 OA
BRANCH  10  15
ATOM     15  C   UNL d   1       2.044   1.460  -0.002  0.00  0.00     0.054 C 
ATOM     16  C   UNL d   1       2.714   1.550   1.365  0.00  0.00     0.018 C 
ATOM     17  C   UNL d   1       3.041   1.073  -1.087  0.00  0.00     0.018 C 
ENDBRANCH  10  15
ENDBRANCH   1   8
BRANCH   2  18
ATOM     18  C   UNL d   1      -0.117  -2.720   2.687  0.00  0.00     0.421 C 
ATOM     19  F   UNL d   1      -0.249  -1.367   2.765  0.00  0.00    -0.166 F 
ATOM     20  F   UNL d   1      -1.009  -3.200   3.606  0.00  0.00    -0.166 F 
ATOM     21  F   UNL d   1       1.111  -3.011   3.195  0.00  0.00    -0.166 F 
ENDBRANCH   2  18
TORSDOF 3
