REMARK  3 active torsions:
REMARK  status: ('A' for Active; 'I' for Inactive)
REMARK    1  A    between atoms: C_2  and  S_1 
REMARK    2  A    between atoms: N_3  and  S_1 
REMARK    3  A    between atoms: C_9  and  N_3 
ROOT
ATOM      1  C   UNL d   1       2.489   1.923  -3.894  0.00  0.00     0.104 A 
ATOM      2  C   UNL d   1       2.169   0.980  -2.918  0.00  0.00     0.069 A 
ATOM      3  C   UNL d   1       0.841   0.589  -2.746  0.00  0.00     0.045 A 
ATOM      4  C   UNL d   1       1.494   2.452  -4.723  0.00  0.00     0.102 A 
ATOM      5  O   UNL d   1       3.809   2.292  -3.977  0.00  0.00    -0.346 OA
ATOM      6  O   UNL d   1       1.745   3.378  -5.702  0.00  0.00    -0.346 OA
ATOM      7  C   UNL d   1       0.171   2.048  -4.558  0.00  0.00     0.042 A 
ATOM      8  C   UNL d   1      -0.156   1.112  -3.572  0.00  0.00     0.033 A 
ATOM      9  C   UNL d   1       3.957   3.522  -4.695  0.00  0.00     0.202 C 
ATOM     10  C   UNL d   1       3.147   3.491  -5.981  0.00  0.00     0.202 C 
ENDROOT
BRANCH   3  11
ATOM     11  N   UNL d   1       0.479  -0.296  -1.694  0.00  0.00    -0.280 N 
ATOM     12  H   UNL d   1       0.786  -0.057  -0.755  0.00  0.00     0.179 HD
BRANCH  11  13
ATOM     13  S   UNL d   1       0.465  -1.961  -1.965  0.00  0.00     0.269 S 
ATOM     14  O   UNL d   1       0.265  -2.579  -0.676  0.00  0.00    -0.200 OA
ATOM     15  O   UNL d   1      -0.408  -2.245  -3.083  0.00  0.00    -0.200 OA
BRANCH  13  16
ATOM     16  C   UNL d   1       2.078  -2.508  -2.502  0.00  0.00     0.120 A 
ATOM     17  S   UNL d   1       3.370  -2.302  -1.397  0.00  0.00    -0.088 SA
ATOM     18  C   UNL d   1       4.500  -2.977  -2.493  0.00  0.00     0.051 A 
ATOM     19  C   UNL d   1       3.905  -3.377  -3.668  0.00  0.00     0.009 A 
ATOM     20  C   UNL d   1       2.505  -3.111  -3.671  0.00  0.00     0.033 A 
ENDBRANCH  13  16
ENDBRANCH  11  13
ENDBRANCH   3  11
TORSDOF 3
