REMARK  0 active torsions:
REMARK  status: ('A' for Active; 'I' for Inactive)
REMARK       I    between atoms: C_5  and  N_1 
ROOT
ATOM      1  N   UNL d   1       0.370  -1.490   0.704  0.00  0.00    -0.316 N 
ATOM      2  N   UNL d   1       0.814   1.314   0.049  0.00  0.00    -0.325 N 
ATOM      3  C   UNL d   1      -0.689  -0.636   0.289  0.00  0.00     0.064 A 
ATOM      4  C   UNL d   1      -0.465   0.734   0.048  0.00  0.00     0.061 A 
ATOM      5  C   UNL d   1       0.291  -2.322   1.821  0.00  0.00     0.220 C 
ATOM      6  C   UNL d   1       1.977   0.730  -0.377  0.00  0.00     0.223 C 
ATOM      7  C   UNL d   1       1.488  -1.712  -0.204  0.00  0.00     0.141 C 
ATOM      8  C   UNL d   1       1.860  -0.572  -1.123  0.00  0.00     0.123 C 
ATOM      9  O   UNL d   1       1.013  -3.309   1.966  0.00  0.00    -0.273 OA
ATOM     10  O   UNL d   1       3.051   1.316  -0.250  0.00  0.00    -0.273 OA
ATOM     11  C   UNL d   1      -2.002  -1.133   0.253  0.00  0.00     0.032 A 
ATOM     12  C   UNL d   1      -1.556   1.593  -0.121  0.00  0.00     0.032 A 
ATOM     13  C   UNL d   1      -0.655  -1.924   2.937  0.00  0.00     0.117 C 
ATOM     14  C   UNL d   1      -3.079  -0.278   0.016  0.00  0.00     0.002 A 
ATOM     15  C   UNL d   1      -2.858   1.086  -0.151  0.00  0.00     0.002 A 
ATOM     16  H   UNL d   1       0.909   2.297   0.272  0.00  0.00     0.169 HD
ENDROOT
TORSDOF 0
