REMARK  1 active torsions:
REMARK  status: ('A' for Active; 'I' for Inactive)
REMARK    1  A    between atoms: O_16  and  C_4 
ROOT
ATOM      1  C   UNL d   1       0.476   0.449  -0.051  0.00  0.00     0.053 A 
ATOM      2  C   UNL d   1       1.102  -0.809   0.018  0.00  0.00     0.047 A 
ATOM      3  C   UNL d   1      -0.942   0.487  -0.083  0.00  0.00     0.075 A 
ATOM      4  C   UNL d   1       1.292   1.589  -0.087  0.00  0.00     0.082 A 
ATOM      5  N   UNL d   1       2.441  -0.932   0.034  0.00  0.00    -0.359 N 
ATOM      6  HN  UNL d   1       2.875  -1.853   0.091  1.00  0.00     0.166 HD
ATOM      7  N   UNL d   1      -3.126   1.139  -0.148  0.00  0.00    -0.311 N 
ATOM      8  HN  UNL d   1      -3.959   1.727  -0.172  1.00  0.00     0.186 HD
ATOM      9  N   UNL d   1      -1.837   1.516  -0.217  0.00  0.00    -0.299 N 
ATOM     10  C   UNL d   1      -1.722  -0.660  -0.009  0.00  0.00     0.010 A 
ATOM     11  C   UNL d   1       2.672   1.465  -0.093  0.00  0.00     0.062 A 
ATOM     12  C   UNL d   1       3.209   0.186  -0.028  0.00  0.00     0.008 A 
ATOM     13  C   UNL d   1       0.316  -1.953   0.074  0.00  0.00     0.031 A 
ATOM     14  C   UNL d   1      -3.052  -0.190  -0.041  0.00  0.00     0.120 A 
ATOM     15  C   UNL d   1      -1.088  -1.909   0.072  0.00  0.00     0.017 A 
ATOM     16  C   UNL d   1       4.692  -0.032  -0.013  0.00  0.00     0.068 C 
ATOM     17  H   UNL d   1      -1.624   2.497  -0.366  0.00  0.00     0.187 HD
ENDROOT
BRANCH   4  18
ATOM     18  O   UNL d   1       0.758   2.848  -0.076  0.00  0.00    -0.360 OA
ATOM     19  H   UNL d   1       0.457   2.990   0.841  0.00  0.00     0.217 HD
ENDBRANCH   4  18
TORSDOF 1
