REMARK  2 active torsions:
REMARK  status: ('A' for Active; 'I' for Inactive)
REMARK    1  A    between atoms: C_13  and  C_4 
REMARK    2  A    between atoms: C_8  and  C_7 
ROOT
ATOM      1  N   UNL d   1       1.469   0.373  -0.028  0.00  0.00    -0.337 N 
ATOM      2  HN  UNL d   1       2.299   0.966  -0.014  1.00  0.00     0.167 HD
ATOM      3  N   UNL d   1       0.170  -1.455  -0.073  0.00  0.00    -0.307 N 
ATOM      4  C   UNL d   1       1.419  -0.925  -0.094  0.00  0.00     0.119 A 
ATOM      5  C   UNL d   1       0.142   0.769   0.019  0.00  0.00     0.105 A 
ATOM      6  C   UNL d   1      -0.733  -0.445   0.031  0.00  0.00     0.274 A 
ATOM      7  C   UNL d   1      -0.250   2.047   0.046  0.00  0.00     0.072 C 
ATOM      8  O   UNL d   1      -1.936  -0.554   0.144  0.00  0.00    -0.266 OA
ATOM      9  H   UNL d   1      -0.099  -2.423  -0.044  0.00  0.00     0.170 HD
ENDROOT
BRANCH   7  10
ATOM     10  C   UNL d   1      -1.612   2.427   0.101  0.00  0.00     0.078 A 
ATOM     11  O   UNL d   1      -2.408   2.553  -1.013  0.00  0.00    -0.316 OA
ATOM     12  C   UNL d   1      -3.657   2.907  -0.607  0.00  0.00     0.050 A 
ATOM     13  C   UNL d   1      -4.681   3.059  -1.658  0.00  0.00     0.076 C 
ATOM     14  C   UNL d   1      -3.688   3.043   0.760  0.00  0.00     0.035 A 
ATOM     15  C   UNL d   1      -2.381   2.746   1.211  0.00  0.00     0.040 A 
ENDBRANCH   7  10
BRANCH   4  16
ATOM     16  C   UNL d   1       2.590  -1.812  -0.177  0.00  0.00     0.008 A 
ATOM     17  C   UNL d   1       2.509  -3.050  -0.826  0.00  0.00     0.015 A 
ATOM     18  C   UNL d   1       3.642  -3.859  -0.926  0.00  0.00     0.001 A 
ATOM     19  C   UNL d   1       4.852  -3.438  -0.376  0.00  0.00     0.000 A 
ATOM     20  C   UNL d   1       4.935  -2.206   0.274  0.00  0.00     0.001 A 
ATOM     21  C   UNL d   1       3.807  -1.389   0.370  0.00  0.00     0.015 A 
ENDBRANCH   4  16
TORSDOF 2
