REMARK  2 active torsions:
REMARK  status: ('A' for Active; 'I' for Inactive)
REMARK    1  A    between atoms: N_2  and  C_1 
REMARK    2  A    between atoms: C_4  and  N_2 
ROOT
ATOM      1  C   UNL d   1       1.181  -2.259  -1.008  0.00  0.00     0.034 A 
ATOM      2  C   UNL d   1       2.257  -2.862  -0.350  0.00  0.00     0.036 A 
ATOM      3  C   UNL d   1       2.860  -4.019  -0.866  0.00  0.00    -0.060 A 
ATOM      4  C   UNL d   1       1.255  -4.012  -2.679  0.00  0.00     0.003 A 
ATOM      5  C   UNL d   1       0.656  -2.868  -2.152  0.00  0.00     0.029 A 
ATOM      6  C   UNL d   1       2.362  -4.577  -2.047  0.00  0.00     0.007 A 
ATOM      7  C   UNL d   1       4.038  -4.642  -0.177  0.00  0.00     0.048 C 
ENDROOT
BRANCH   1   8
ATOM      8  N   UNL d   1       0.569  -1.069  -0.568  0.00  0.00    -0.334 N 
ATOM      9  H   UNL d   1      -0.370  -0.895  -0.911  0.00  0.00     0.168 HD
BRANCH   8  10
ATOM     10  C   UNL d   1       1.047  -0.065   0.207  0.00  0.00     0.169 C 
ATOM     11  S   UNL d   1       0.039   1.135   0.762  0.00  0.00    -0.041 SA
ATOM     12  N   UNL d   1       2.369  -0.010   0.472  0.00  0.00    -0.376 N 
ATOM     13  H   UNL d   1       3.002  -0.408  -0.207  0.00  0.00     0.158 HD
ATOM     14  H   UNL d   1       2.700   0.831   0.929  0.00  0.00     0.158 HD
ENDBRANCH   8  10
ENDBRANCH   1   8
TORSDOF 2
