REMARK  1 active torsions:
REMARK  status: ('A' for Active; 'I' for Inactive)
REMARK    1  A    between atoms: C_10  and  C_5 
ROOT
ATOM      1  C   UNL d   1      -0.735   0.372   0.004  0.00  0.00     0.050 C 
ATOM      2  C   UNL d   1      -1.383  -0.808  -0.019  0.00  0.00    -0.025 C 
ATOM      3  N   UNL d   1      -1.480   1.527  -0.040  0.00  0.00    -0.332 N 
ATOM      4  C   UNL d   1      -2.834   1.580   0.069  0.00  0.00     0.173 C 
ATOM      5  C   UNL d   1      -2.887  -0.868  -0.155  0.00  0.00     0.148 C 
ATOM      6  N   UNL d   1      -3.487   0.400   0.200  0.00  0.00    -0.354 N 
ATOM      7  C   UNL d   1       0.745   0.431   0.059  0.00  0.00    -0.003 A 
ATOM      8  C   UNL d   1      -0.682  -2.135   0.066  0.00  0.00     0.043 C 
ATOM      9  S   UNL d   1      -3.651   3.026   0.076  0.00  0.00    -0.041 SA
ATOM     10  C   UNL d   1       1.496  -0.759   0.029  0.00  0.00    -0.045 A 
ATOM     11  C   UNL d   1       0.841  -2.111  -0.074  0.00  0.00     0.044 C 
ATOM     12  C   UNL d   1       1.449   1.649   0.128  0.00  0.00     0.014 A 
ATOM     13  C   UNL d   1       2.902  -0.713   0.046  0.00  0.00     0.008 A 
ATOM     14  C   UNL d   1       2.847   1.685   0.145  0.00  0.00     0.001 A 
ATOM     15  C   UNL d   1       3.574   0.504   0.100  0.00  0.00     0.001 A 
ATOM     16  H   UNL d   1      -1.023   2.426  -0.094  0.00  0.00     0.168 HD
ATOM     17  H   UNL d   1      -4.497   0.454   0.224  0.00  0.00     0.163 HD
ENDROOT
BRANCH   5  18
ATOM     18  C   UNL d   1      -3.333  -1.281  -1.553  0.00  0.00    -0.031 A 
ATOM     19  C   UNL d   1      -4.109  -2.437  -1.740  0.00  0.00     0.012 A 
ATOM     20  C   UNL d   1      -4.502  -2.825  -3.023  0.00  0.00     0.043 A 
ATOM     21  C   UNL d   1      -4.125  -2.059  -4.121  0.00  0.00     0.116 A 
ATOM     22  C   UNL d   1      -3.368  -0.908  -3.962  0.00  0.00     0.043 A 
ATOM     23  F   UNL d   1      -4.499  -2.438  -5.350  0.00  0.00    -0.206 F 
ATOM     24  C   UNL d   1      -2.974  -0.518  -2.681  0.00  0.00     0.012 A 
ENDBRANCH   5  18
TORSDOF 1
