REMARK  6 active torsions:
REMARK  status: ('A' for Active; 'I' for Inactive)
REMARK    1  A    between atoms: C_6  and  C_1 
REMARK    2  A    between atoms: C_5  and  C_2 
REMARK    3  A    between atoms: N_19  and  C_6 
REMARK    4  A    between atoms: O_12  and  N_9 
REMARK    5  A    between atoms: C_11  and  O_12 
REMARK    6  A    between atoms: C_13  and  C_11 
ROOT
ATOM      1  C   UNL d   1      -2.758   1.375  -0.112  0.00  0.00     0.128 C 
ATOM      2  N   UNL d   1      -3.945   0.876  -0.086  0.00  0.00    -0.244 N 
ATOM      3  HN  UNL d   1      -4.797   1.435  -0.042  1.00  0.00     0.196 HD
ENDROOT
BRANCH   1   4
ATOM      4  C   UNL d   1      -2.619   2.821  -0.079  0.00  0.00     0.113 A 
ATOM      5  C   UNL d   1      -3.537   3.780  -0.454  0.00  0.00     0.191 A 
ATOM      6  O   UNL d   1      -2.974   5.010  -0.194  0.00  0.00    -0.291 OA
ATOM      7  C   UNL d   1      -1.737   4.725   0.308  0.00  0.00     0.120 A 
ATOM      8  N   UNL d   1      -1.458   3.441   0.376  0.00  0.00    -0.336 N 
ATOM      9  C   UNL d   1      -0.912   5.885   0.697  0.00  0.00     0.098 C 
ATOM     10  HN  UNL d   1      -0.592   3.001   0.689  1.00  0.00     0.168 HD
BRANCH   5  11
ATOM     11  C   UNL d   1      -4.887   3.774  -1.050  0.00  0.00     0.441 C 
ATOM     12  F   UNL d   1      -5.246   2.594  -1.609  0.00  0.00    -0.164 F 
ATOM     13  F   UNL d   1      -5.844   4.105  -0.145  0.00  0.00    -0.164 F 
ATOM     14  F   UNL d   1      -4.978   4.694  -2.052  0.00  0.00    -0.164 F 
ENDBRANCH   5  11
ENDBRANCH   1   4
BRANCH   1  15
ATOM     15  N   UNL d   1      -1.550   0.736  -0.117  0.00  0.00    -0.285 NA
ATOM     16  H   UNL d   1      -0.783   1.315   0.224  0.00  0.00     0.125 HD
ATOM     17  H   UNL d   1      -1.568  -0.192   0.282  0.00  0.00     0.125 HD
ENDBRANCH   1  15
BRANCH   2  18
ATOM     18  O   UNL d   1      -3.929  -0.532  -0.127  0.00  0.00    -0.193 OA
BRANCH  18  19
ATOM     19  C   UNL d   1      -5.212  -0.991   0.019  0.00  0.00     0.315 C 
ATOM     20  O   UNL d   1      -6.209  -0.325   0.263  0.00  0.00    -0.257 OA
BRANCH  19  21
ATOM     21  C   UNL d   1      -5.279  -2.469  -0.152  0.00  0.00     0.043 A 
ATOM     22  C   UNL d   1      -4.155  -3.263  -0.398  0.00  0.00     0.041 A 
ATOM     23  C   UNL d   1      -4.308  -4.646  -0.543  0.00  0.00     0.035 A 
ATOM     24 CL   UNL d   1      -2.926  -5.628  -0.840  0.00  0.00    -0.084 Cl
ATOM     25  C   UNL d   1      -5.566  -5.241  -0.452  0.00  0.00     0.024 A 
ATOM     26  C   UNL d   1      -6.688  -4.451  -0.210  0.00  0.00     0.003 A 
ATOM     27  C   UNL d   1      -6.544  -3.071  -0.061  0.00  0.00     0.018 A 
ENDBRANCH  19  21
ENDBRANCH  18  19
ENDBRANCH   2  18
TORSDOF 6
