REMARK  3 active torsions:
REMARK  status: ('A' for Active; 'I' for Inactive)
REMARK    1  A    between atoms: N_4  and  C_1 
REMARK       I    between atoms: C_5  and  N_4 
REMARK    2  A    between atoms: C_6  and  C_5 
REMARK    3  A    between atoms: C_8  and  C_9 
ROOT
ATOM      1  N   UNL d   1      -3.385  -1.213   0.359  0.00  0.00    -0.303 N 
ATOM      2  C   UNL d   1      -4.440  -0.559  -0.233  0.00  0.00     0.259 C 
ATOM      3  O   UNL d   1      -5.486  -1.027  -0.658  0.00  0.00    -0.267 OA
ATOM      4  H   UNL d   1      -2.581  -0.703   0.702  0.00  0.00     0.171 HD
ENDROOT
BRANCH   2   5
ATOM      5  C   UNL d   1      -4.280   0.902  -0.352  0.00  0.00     0.062 A 
ATOM      6  C   UNL d   1      -5.274   1.791   0.080  0.00  0.00     0.066 A 
ATOM      7  C   UNL d   1      -5.104   3.158  -0.197  0.00  0.00     0.034 A 
ATOM      8  C   UNL d   1      -3.955   3.575  -0.848  0.00  0.00     0.088 A 
ATOM      9  N   UNL d   1      -2.975   2.735  -1.241  0.00  0.00    -0.374 N 
ATOM     10  C   UNL d   1      -3.165   1.416  -1.002  0.00  0.00     0.105 A 
ATOM     11  HN  UNL d   1      -2.129   3.078  -1.696  1.00  0.00     0.164 HD
BRANCH   6  12
ATOM     12  C   UNL d   1      -6.508   1.333   0.811  0.00  0.00     0.418 C 
ATOM     13  F   UNL d   1      -6.325   0.228   1.581  0.00  0.00    -0.166 F 
ATOM     14  F   UNL d   1      -6.952   2.289   1.683  0.00  0.00    -0.166 F 
ATOM     15  F   UNL d   1      -7.557   1.086  -0.014  0.00  0.00    -0.166 F 
ENDBRANCH   6  12
ENDBRANCH   2   5
BRANCH   1  16
ATOM     16  C   UNL d   1      -3.321  -2.551   0.662  0.00  0.00     0.152 A 
ATOM     17  N   UNL d   1      -2.279  -3.048   1.285  0.00  0.00    -0.335 N 
ATOM     18  C   UNL d   1      -2.494  -4.394   1.546  0.00  0.00     0.051 A 
ATOM     19  HN  UNL d   1      -1.440  -2.526   1.538  1.00  0.00     0.168 HD
ATOM     20  C   UNL d   1      -1.618  -5.260   2.234  0.00  0.00     0.031 A 
ATOM     21  C   UNL d   1      -3.709  -4.902   1.084  0.00  0.00     0.035 A 
ATOM     22  C   UNL d   1      -1.990  -6.591   2.458  0.00  0.00     0.002 A 
ATOM     23  C   UNL d   1      -3.211  -7.071   1.995  0.00  0.00     0.002 A 
ATOM     24  C   UNL d   1      -4.088  -6.238   1.293  0.00  0.00     0.021 A 
ATOM     25  S   UNL d   1      -4.565  -3.645   0.285  0.00  0.00    -0.052 SA
ENDBRANCH   1  16
TORSDOF 3
