REMARK  4 active torsions:
REMARK  status: ('A' for Active; 'I' for Inactive)
REMARK    1  A    between atoms: C_2  and  C_1 
REMARK    2  A    between atoms: N_3  and  C_1 
REMARK    3  A    between atoms: C_6  and  N_3 
REMARK    4  A    between atoms: O_13  and  N_4 
ROOT
ATOM      1  C   UNL d   1       0.995   0.091   0.058  0.00  0.00     0.142 C 
ATOM      2  N   UNL d   1       2.293   0.140  -0.089  0.00  0.00    -0.252 N 
ATOM      3  HN  UNL d   1       2.774  -0.061  -0.966  1.00  0.00     0.196 HD
ENDROOT
BRANCH   1   4
ATOM      4  C   UNL d   1       0.223  -0.437  -1.119  0.00  0.00     0.087 A 
ATOM      5  C   UNL d   1       0.748  -0.370  -2.414  0.00  0.00     0.133 A 
ATOM      6  F   UNL d   1       1.949   0.175  -2.661  0.00  0.00    -0.205 F 
ATOM      7  C   UNL d   1       0.028  -0.838  -3.515  0.00  0.00     0.043 A 
ATOM      8  C   UNL d   1      -1.239  -1.388  -3.340  0.00  0.00     0.006 A 
ATOM      9  C   UNL d   1      -1.774  -1.474  -2.056  0.00  0.00     0.043 A 
ATOM     10  C   UNL d   1      -1.045  -1.002  -0.960  0.00  0.00     0.133 A 
ATOM     11  F   UNL d   1      -1.600  -1.117   0.257  0.00  0.00    -0.205 F 
ENDBRANCH   1   4
BRANCH   1  12
ATOM     12  N   UNL d   1       0.296   0.450   1.199  0.00  0.00    -0.339 N 
ATOM     13  H   UNL d   1      -0.573  -0.035   1.411  0.00  0.00     0.167 HD
BRANCH  12  14
ATOM     14  C   UNL d   1       0.425   1.665   1.916  0.00  0.00     0.055 A 
ATOM     15  C   UNL d   1       0.033   1.741   3.267  0.00  0.00     0.060 A 
ATOM     16 CL   UNL d   1      -0.671   0.374   4.062  0.00  0.00    -0.082 Cl
ATOM     17  C   UNL d   1       0.219   2.911   4.012  0.00  0.00     0.026 A 
ATOM     18  C   UNL d   1       0.801   4.031   3.420  0.00  0.00     0.002 A 
ATOM     19  C   UNL d   1       1.202   3.977   2.089  0.00  0.00     0.002 A 
ATOM     20  C   UNL d   1       1.024   2.802   1.349  0.00  0.00     0.031 A 
ENDBRANCH  12  14
ENDBRANCH   1  12
BRANCH   2  21
ATOM     21  O   UNL d   1       2.947   0.502   1.095  0.00  0.00    -0.288 OA
ATOM     22  H   UNL d   1       3.880   0.526   0.818  0.00  0.00     0.244 HD
ENDBRANCH   2  21
TORSDOF 4
