REMARK  5 active torsions:
REMARK  status: ('A' for Active; 'I' for Inactive)
REMARK    1  A    between atoms: O_12  and  C_7 
REMARK    2  A    between atoms: O_15  and  C_8 
REMARK    3  A    between atoms: O_17  and  C_10 
REMARK    4  A    between atoms: C_14  and  O_12 
REMARK    5  A    between atoms: C_16  and  C_14 
ROOT
ATOM      1  N   UNL d   1      -2.055  -0.471  -0.618  0.00  0.00    -0.340 N 
ATOM      2  HN  UNL d   1      -3.032  -0.253  -0.813  1.00  0.00     0.167 HD
ATOM      3  C   UNL d   1       0.250   0.254  -0.434  0.00  0.00    -0.001 A 
ATOM      4  C   UNL d   1       0.619  -1.062  -0.108  0.00  0.00    -0.017 A 
ATOM      5  C   UNL d   1      -1.103   0.481  -0.742  0.00  0.00     0.018 A 
ATOM      6  C   UNL d   1       1.240   1.265  -0.419  0.00  0.00     0.054 A 
ATOM      7  C   UNL d   1      -1.697  -1.711  -0.235  0.00  0.00     0.143 A 
ATOM      8  C   UNL d   1       2.578   0.989  -0.113  0.00  0.00     0.102 A 
ATOM      9  C   UNL d   1       1.974  -1.347   0.137  0.00  0.00     0.052 A 
ATOM     10  C   UNL d   1       2.954  -0.344   0.109  0.00  0.00     0.102 A 
ATOM     11  C   UNL d   1      -0.373  -2.058  -0.027  0.00  0.00     0.068 A 
ATOM     12  C   UNL d   1      -1.600   1.813  -1.227  0.00  0.00     0.069 C 
ENDROOT
BRANCH   7  13
ATOM     13  O   UNL d   1      -2.785  -2.501  -0.075  0.00  0.00    -0.331 OA
BRANCH  13  14
ATOM     14  C   UNL d   1      -2.663  -3.841   0.380  0.00  0.00     0.216 C 
BRANCH  14  15
ATOM     15  C   UNL d   1      -2.819  -4.831  -0.753  0.00  0.00    -0.034 A 
ATOM     16  C   UNL d   1      -2.361  -6.149  -0.599  0.00  0.00     0.016 A 
ATOM     17  C   UNL d   1      -2.556  -7.101  -1.609  0.00  0.00    -0.061 A 
ATOM     18  C   UNL d   1      -2.100  -8.518  -1.430  0.00  0.00     0.048 C 
ATOM     19  C   UNL d   1      -3.232  -6.730  -2.778  0.00  0.00     0.007 A 
ATOM     20  C   UNL d   1      -3.700  -5.429  -2.938  0.00  0.00     0.001 A 
ATOM     21  C   UNL d   1      -3.501  -4.487  -1.930  0.00  0.00     0.009 A 
ENDBRANCH  14  15
ENDBRANCH  13  14
ENDBRANCH   7  13
BRANCH  10  22
ATOM     22  O   UNL d   1       4.220  -0.803   0.372  0.00  0.00    -0.353 OA
ATOM     23  C   UNL d   1       5.287  -0.102  -0.260  0.00  0.00     0.210 C 
ENDBRANCH  10  22
BRANCH   8  24
ATOM     24  O   UNL d   1       3.538   1.961  -0.012  0.00  0.00    -0.353 OA
ATOM     25  C   UNL d   1       3.100   3.309   0.117  0.00  0.00     0.210 C 
ENDBRANCH   8  24
TORSDOF 5
