REMARK  5 active torsions:
REMARK  status: ('A' for Active; 'I' for Inactive)
REMARK    1  A    between atoms: N_2  and  S_1 
REMARK    2  A    between atoms: C_7  and  S_1 
REMARK    3  A    between atoms: N_4  and  N_2 
REMARK    4  A    between atoms: C_3  and  N_4 
REMARK    5  A    between atoms: C_10  and  C_3 
ROOT
ATOM      1  N   UNL d   1       1.044  -0.115  -2.625  0.00  0.00    -0.274 N 
ATOM      2  H   UNL d   1       1.753   0.625  -2.617  0.00  0.00     0.189 HD
ENDROOT
BRANCH   1   3
ATOM      3  C   UNL d   1       0.706  -0.656  -3.842  0.00  0.00     0.141 C 
ATOM      4  N   UNL d   1      -0.085  -1.673  -3.999  0.00  0.00    -0.383 N 
ATOM      5  H   UNL d   1      -0.372  -1.999  -3.079  0.00  0.00     0.157 HD
ATOM      6  HN  UNL d   1      -0.369  -2.077  -4.892  1.00  0.00     0.157 HD
BRANCH   3   7
ATOM      7  C   UNL d   1       1.335  -0.006  -5.046  0.00  0.00     0.077 A 
ATOM      8  N   UNL d   1       2.118   1.075  -4.770  0.00  0.00    -0.363 N 
ATOM      9  C   UNL d   1       2.718   1.660  -5.830  0.00  0.00     0.088 A 
ATOM     10  HN  UNL d   1       2.244   1.422  -3.819  1.00  0.00     0.165 HD
ATOM     11  C   UNL d   1       2.581   1.219  -7.138  0.00  0.00     0.017 A 
ATOM     12  C   UNL d   1       1.773   0.112  -7.385  0.00  0.00     0.004 A 
ATOM     13  C   UNL d   1       1.132  -0.515  -6.322  0.00  0.00     0.033 A 
ENDBRANCH   3   7
ENDBRANCH   1   3
BRANCH   1  14
ATOM     14  N   UNL d   1       0.473  -0.581  -1.376  0.00  0.00    -0.221 N 
ATOM     15  H   UNL d   1      -0.273  -1.271  -1.301  0.00  0.00     0.200 HD
BRANCH  14  16
ATOM     16  S   UNL d   1       0.985   0.062   0.105  0.00  0.00     0.276 S 
ATOM     17  O   UNL d   1       2.430   0.035   0.132  0.00  0.00    -0.199 OA
ATOM     18  O   UNL d   1       0.183  -0.568   1.133  0.00  0.00    -0.199 OA
BRANCH  16  19
ATOM     19  C   UNL d   1       0.470   1.757  -0.038  0.00  0.00     0.081 A 
ATOM     20  C   UNL d   1      -0.827   2.122   0.328  0.00  0.00     0.025 A 
ATOM     21  C   UNL d   1      -1.213   3.459   0.233  0.00  0.00     0.002 A 
ATOM     22  C   UNL d   1      -0.305   4.421  -0.217  0.00  0.00     0.000 A 
ATOM     23  C   UNL d   1       0.995   4.051  -0.567  0.00  0.00     0.002 A 
ATOM     24  C   UNL d   1       1.389   2.718  -0.472  0.00  0.00     0.025 A 
ENDBRANCH  16  19
ENDBRANCH  14  16
ENDBRANCH   1  14
TORSDOF 5
