REMARK  6 active torsions:
REMARK  status: ('A' for Active; 'I' for Inactive)
REMARK    1  A    between atoms: C_16  and  N_1 
REMARK    2  A    between atoms: C_13  and  C_2 
REMARK    3  A    between atoms: C_6  and  C_8 
REMARK       I    between atoms: C_8  and  N_15 
REMARK    4  A    between atoms: O_23  and  C_13 
REMARK    5  A    between atoms: N_15  and  C_21 
REMARK    6  A    between atoms: C_29  and  O_23 
ROOT
ATOM      1  C   UNL d   1      -0.424  -2.486  -0.127  0.00  0.00     0.056 A 
ATOM      2  C   UNL d   1       0.399  -3.303   0.671  0.00  0.00     0.034 A 
ATOM      3  C   UNL d   1      -1.351  -3.115  -0.956  0.00  0.00     0.034 A 
ATOM      4  C   UNL d   1      -0.702  -5.315  -0.120  0.00  0.00     0.035 A 
ATOM      5  C   UNL d   1      -1.486  -4.515  -0.951  0.00  0.00     0.032 A 
ATOM      6  C   UNL d   1       0.263  -4.697   0.674  0.00  0.00     0.032 A 
ENDROOT
BRANCH   1   7
ATOM      7  N   UNL d   1      -0.250  -1.062  -0.055  0.00  0.00    -0.260 N 
ATOM      8  N   UNL d   1       0.784  -0.600   0.695  0.00  0.00    -0.297 N 
ATOM      9  C   UNL d   1       0.810   0.717   0.525  0.00  0.00     0.041 A 
ATOM     10  HN  UNL d   1       1.415  -1.155   1.274  1.00  0.00     0.187 HD
ATOM     11  C   UNL d   1       1.893   1.500   1.174  0.00  0.00     0.071 C 
ATOM     12  C   UNL d   1      -0.253   1.165  -0.298  0.00  0.00     0.087 A 
ATOM     13  C   UNL d   1      -0.958   0.002  -0.621  0.00  0.00     0.049 A 
ATOM     14  C   UNL d   1      -2.220  -0.129  -1.400  0.00  0.00     0.071 C 
BRANCH  12  15
ATOM     15  C   UNL d   1      -0.529   2.526  -0.744  0.00  0.00     0.297 C 
ATOM     16  O   UNL d   1      -1.403   2.825  -1.547  0.00  0.00    -0.259 OA
BRANCH  15  17
ATOM     17  O   UNL d   1       0.359   3.423  -0.224  0.00  0.00    -0.318 OA
BRANCH  17  18
ATOM     18  C   UNL d   1       0.464   4.681  -0.900  0.00  0.00     0.174 C 
ATOM     19  C   UNL d   1       1.456   4.527  -2.039  0.00  0.00     0.034 C 
ENDBRANCH  17  18
ENDBRANCH  15  17
ENDBRANCH  12  15
ENDBRANCH   1   7
BRANCH   4  20
ATOM     20  N   UNL d   1      -0.824  -6.721  -0.020  0.00  0.00    -0.323 N 
ATOM     21  C   UNL d   1      -1.793  -7.514  -0.606  0.00  0.00     0.260 C 
ATOM     22  O   UNL d   1      -2.708  -7.101  -1.309  0.00  0.00    -0.267 OA
ATOM     23  H   UNL d   1      -0.203  -7.163   0.643  0.00  0.00     0.169 HD
BRANCH  21  24
ATOM     24  C   UNL d   1      -1.711  -8.935  -0.286  0.00  0.00     0.087 A 
ATOM     25  C   UNL d   1      -0.628  -9.713   0.071  0.00  0.00     0.090 A 
ATOM     26  O   UNL d   1      -1.033 -10.999   0.253  0.00  0.00    -0.242 OA
ATOM     27  C   UNL d   1       0.818  -9.491   0.274  0.00  0.00     0.080 C 
ATOM     28  N   UNL d   1      -2.386 -11.100   0.019  0.00  0.00    -0.265 N 
ATOM     29  C   UNL d   1      -2.791  -9.869  -0.311  0.00  0.00     0.047 A 
ATOM     30  HN  UNL d   1      -2.961 -11.940   0.084  1.00  0.00     0.194 HD
ATOM     31  C   UNL d   1      -4.225  -9.619  -0.601  0.00  0.00     0.071 C 
ENDBRANCH  21  24
ENDBRANCH   4  20
TORSDOF 6
