REMARK  5 active torsions:
REMARK  status: ('A' for Active; 'I' for Inactive)
REMARK    1  A    between atoms: C_7  and  N_1 
REMARK    2  A    between atoms: C_12  and  C_2 
REMARK    3  A    between atoms: C_8  and  C_7 
REMARK    4  A    between atoms: C_10  and  C_8 
REMARK    5  A    between atoms: C_18  and  C_9 
ROOT
ATOM      1  N   UNL d   1       0.177  -1.378   0.270  0.00  0.00    -0.290 N 
ATOM      2  C   UNL d   1       1.428  -0.928  -0.051  0.00  0.00     0.121 A 
ATOM      3  N   UNL d   1       1.542   0.370  -0.113  0.00  0.00    -0.337 N 
ATOM      4  HN  UNL d   1       2.383   0.911  -0.313  1.00  0.00     0.167 HD
ATOM      5  C   UNL d   1       0.279   0.853   0.150  0.00  0.00     0.103 A 
ATOM      6  C   UNL d   1      -0.623  -0.287   0.478  0.00  0.00     0.276 A 
ATOM      7  C   UNL d   1      -0.070   2.140   0.038  0.00  0.00     0.046 C 
ATOM      8  O   UNL d   1      -1.787  -0.262   0.828  0.00  0.00    -0.265 OA
ENDROOT
BRANCH   1   9
ATOM      9  C   UNL d   1      -0.378  -2.716   0.390  0.00  0.00     0.220 C 
BRANCH   9  10
ATOM     10  C   UNL d   1       0.138  -3.503   1.592  0.00  0.00     0.201 C 
ATOM     11  O   UNL d   1       0.823  -2.989   2.475  0.00  0.00    -0.288 OA
BRANCH  10  12
ATOM     12  C   UNL d   1      -0.246  -4.901   1.607  0.00  0.00     0.122 A 
ATOM     13  O   UNL d   1      -1.019  -5.389   0.586  0.00  0.00    -0.319 OA
ATOM     14  C   UNL d   1      -1.237  -6.705   0.835  0.00  0.00     0.142 A 
ATOM     15  C   UNL d   1      -0.610  -7.080   1.999  0.00  0.00     0.027 A 
ATOM     16  C   UNL d   1       0.030  -5.919   2.498  0.00  0.00     0.043 A 
ENDBRANCH  10  12
ENDBRANCH   9  10
ENDBRANCH   1   9
BRANCH   2  17
ATOM     17  C   UNL d   1       2.604  -1.811  -0.256  0.00  0.00     0.008 A 
ATOM     18  C   UNL d   1       2.547  -3.049  -0.902  0.00  0.00     0.015 A 
ATOM     19  C   UNL d   1       3.697  -3.837  -1.022  0.00  0.00     0.001 A 
ATOM     20  C   UNL d   1       4.918  -3.374  -0.537  0.00  0.00     0.000 A 
ATOM     21  C   UNL d   1       4.997  -2.119   0.060  0.00  0.00     0.001 A 
ATOM     22  C   UNL d   1       3.845  -1.342   0.200  0.00  0.00     0.015 A 
ENDBRANCH   2  17
BRANCH   7  23
ATOM     23  C   UNL d   1      -1.439   2.639   0.169  0.00  0.00    -0.034 A 
ATOM     24  C   UNL d   1      -1.913   3.117   1.396  0.00  0.00     0.014 A 
ATOM     25  C   UNL d   1      -3.238   3.542   1.514  0.00  0.00     0.043 A 
ATOM     26  C   UNL d   1      -4.079   3.487   0.408  0.00  0.00     0.116 A 
ATOM     27  C   UNL d   1      -3.621   3.021  -0.819  0.00  0.00     0.043 A 
ATOM     28  F   UNL d   1      -5.352   3.887   0.525  0.00  0.00    -0.206 F 
ATOM     29  C   UNL d   1      -2.297   2.597  -0.939  0.00  0.00     0.014 A 
ENDBRANCH   7  23
TORSDOF 5
