REMARK  7 active torsions:
REMARK  status: ('A' for Active; 'I' for Inactive)
REMARK    1  A    between atoms: C_8  and  N_6 
REMARK    2  A    between atoms: C_9  and  C_8 
REMARK    3  A    between atoms: C_15  and  C_9 
REMARK    4  A    between atoms: O_14  and  N_11 
REMARK    5  A    between atoms: C_13  and  O_14 
REMARK    6  A    between atoms: C_16  and  C_13 
REMARK    7  A    between atoms: C_17  and  C_18 
ROOT
ATOM      1  C   UNL d   1       2.899   0.489  -0.353  0.00  0.00     0.064 C 
ATOM      2  N   UNL d   1       2.461  -0.737  -0.478  0.00  0.00    -0.259 N 
ATOM      3  HN  UNL d   1       3.086  -1.524  -0.653  1.00  0.00     0.194 HD
ENDROOT
BRANCH   1   4
ATOM      4  C   UNL d   1       4.404   0.719  -0.466  0.00  0.00     0.227 C 
BRANCH   4   5
ATOM      5  N   UNL d   1       4.954   0.798  -1.812  0.00  0.00    -0.197 N 
ATOM      6  N   UNL d   1       4.437   1.573  -2.797  0.00  0.00    -0.116 N 
ATOM      7  C   UNL d   1       5.454   1.567  -3.681  0.00  0.00     0.709 A 
ATOM      8  HN  UNL d   1       3.529   2.034  -2.854  1.00  0.00     0.207 HD
ATOM      9  N   UNL d   1       6.551   0.891  -3.199  0.00  0.00    -0.113 N 
ATOM     10  N   UNL d   1       5.511   2.148  -4.908  0.00  0.00    -0.211 N 
ATOM     11  N   UNL d   1       6.237   0.430  -2.001  0.00  0.00     0.011 NA
ATOM     12  HN  UNL d   1       7.443   0.768  -3.679  1.00  0.00     0.203 HD
ATOM     13  C   UNL d   1       6.575   1.728  -5.832  0.00  0.00     0.167 C 
ATOM     14  C   UNL d   1       4.341   2.786  -5.494  0.00  0.00     0.167 C 
ATOM     15  C   UNL d   1       6.383   2.283  -7.249  0.00  0.00     0.188 C 
ATOM     16  O   UNL d   1       5.987   3.651  -7.215  0.00  0.00    -0.388 OA
ATOM     17  C   UNL d   1       4.707   3.815  -6.590  0.00  0.00     0.188 C 
ENDBRANCH   4   5
ENDBRANCH   1   4
BRANCH   1  18
ATOM     18  C   UNL d   1       2.088   1.679   0.059  0.00  0.00    -0.010 A 
ATOM     19  C   UNL d   1       2.352   2.949  -0.474  0.00  0.00     0.015 A 
ATOM     20  C   UNL d   1       1.644   4.069  -0.024  0.00  0.00     0.024 A 
ATOM     21  C   UNL d   1       0.663   3.923   0.954  0.00  0.00     0.034 A 
ATOM     22  C   UNL d   1       0.405   2.673   1.506  0.00  0.00     0.024 A 
ATOM     23 CL   UNL d   1      -0.217   5.297   1.496  0.00  0.00    -0.084 Cl
ATOM     24  C   UNL d   1       1.131   1.558   1.076  0.00  0.00     0.015 A 
ENDBRANCH   1  18
BRANCH   2  25
ATOM     25  O   UNL d   1       1.051  -0.901  -0.355  0.00  0.00    -0.195 OA
BRANCH  25  26
ATOM     26  C   UNL d   1       0.755  -2.022   0.402  0.00  0.00     0.315 C 
ATOM     27  O   UNL d   1       1.555  -2.655   1.087  0.00  0.00    -0.257 OA
BRANCH  26  28
ATOM     28  C   UNL d   1      -0.703  -2.373   0.365  0.00  0.00     0.041 A 
ATOM     29  C   UNL d   1      -1.204  -3.317   1.275  0.00  0.00     0.018 A 
ATOM     30  C   UNL d   1      -2.547  -3.751   1.226  0.00  0.00     0.009 A 
ATOM     31  C   UNL d   1      -3.439  -3.276   0.250  0.00  0.00    -0.051 A 
ATOM     32  C   UNL d   1      -2.936  -2.281  -0.616  0.00  0.00     0.009 A 
ATOM     33  C   UNL d   1      -1.593  -1.842  -0.568  0.00  0.00     0.018 A 
BRANCH  31  34
ATOM     34  C   UNL d   1      -4.884  -3.823   0.111  0.00  0.00    -0.024 C 
ATOM     35  C   UNL d   1      -5.377  -3.781  -1.359  0.00  0.00     0.019 C 
ATOM     36  C   UNL d   1      -5.018  -5.301   0.558  0.00  0.00     0.019 C 
ATOM     37  C   UNL d   1      -5.867  -2.993   0.963  0.00  0.00     0.019 C 
ENDBRANCH  31  34
ENDBRANCH  26  28
ENDBRANCH  25  26
ENDBRANCH   2  25
TORSDOF 7
