REMARK  5 active torsions:
REMARK  status: ('A' for Active; 'I' for Inactive)
REMARK    1  A    between atoms: C_11  and  N_2 
REMARK    2  A    between atoms: N_12  and  C_9 
REMARK    3  A    between atoms: C_13  and  C_11 
REMARK    4  A    between atoms: N_14  and  N_12 
REMARK    5  A    between atoms: C_23  and  C_20 
ROOT
ATOM      1  C   UNL d   1      -0.095  -1.178   0.019  0.00  0.00     0.160 A 
ATOM      2  N   UNL d   1       2.600  -0.909  -0.001  0.00  0.00    -0.260 N 
ATOM      3  C   UNL d   1       0.685  -2.294   0.022  0.00  0.00     0.164 A 
ATOM      4  N   UNL d   1      -1.411  -1.474   0.077  0.00  0.00    -0.172 N 
ATOM      5  HN  UNL d   1      -2.190  -0.816   0.097  1.00  0.00     0.186 HD
ATOM      6  N   UNL d   1       0.431   0.088  -0.028  0.00  0.00    -0.287 N 
ATOM      7  C   UNL d   1       1.811   0.255  -0.061  0.00  0.00     0.333 A 
ATOM      8  C   UNL d   1       2.111  -2.223   0.018  0.00  0.00     0.283 A 
ATOM      9  C   UNL d   1      -1.481  -2.793   0.101  0.00  0.00     0.701 A 
ATOM     10  N   UNL d   1      -0.207  -3.340   0.037  0.00  0.00    -0.177 N 
ATOM     11  O   UNL d   1       2.317   1.379  -0.126  0.00  0.00    -0.246 OA
ATOM     12  O   UNL d   1       2.833  -3.216   0.044  0.00  0.00    -0.265 OA
ATOM     13  C   UNL d   1      -0.420   1.262  -0.049  0.00  0.00     0.163 C 
ATOM     14  C   UNL d   1       0.097  -4.748   0.028  0.00  0.00     0.176 C 
ENDROOT
BRANCH   9  15
ATOM     15  N   UNL d   1      -2.613  -3.541   0.198  0.00  0.00    -0.132 N 
ATOM     16  H   UNL d   1      -2.556  -4.555   0.205  0.00  0.00     0.205 HD
BRANCH  15  17
ATOM     17  N   UNL d   1      -3.725  -2.965   0.729  0.00  0.00    -0.290 N 
ATOM     18  C   UNL d   1      -4.899  -3.516   0.646  0.00  0.00     0.032 C 
ATOM     19  C   UNL d   1      -5.194  -4.816  -0.069  0.00  0.00     0.070 C 
ATOM     20  HN  UNL d   1      -3.634  -2.069   1.209  1.00  0.00     0.187 HD
BRANCH  18  21
ATOM     21  C   UNL d   1      -6.048  -2.794   1.305  0.00  0.00    -0.013 A 
ATOM     22  C   UNL d   1      -5.806  -1.557   1.923  0.00  0.00     0.013 A 
ATOM     23  C   UNL d   1      -6.840  -0.856   2.549  0.00  0.00     0.001 A 
ATOM     24  C   UNL d   1      -8.128  -1.383   2.563  0.00  0.00     0.000 A 
ATOM     25  C   UNL d   1      -8.382  -2.610   1.953  0.00  0.00     0.001 A 
ATOM     26  C   UNL d   1      -7.348  -3.317   1.327  0.00  0.00     0.013 A 
ENDBRANCH  18  21
ENDBRANCH  15  17
ENDBRANCH   9  15
BRANCH   2  27
ATOM     27  C   UNL d   1       4.047  -0.720   0.022  0.00  0.00     0.177 C 
BRANCH  27  28
ATOM     28  C   UNL d   1       4.652  -0.463   1.398  0.00  0.00    -0.018 A 
ATOM     29  C   UNL d   1       6.026  -0.175   1.522  0.00  0.00     0.043 A 
ATOM     30  C   UNL d   1       6.616   0.029   2.774  0.00  0.00     0.048 A 
ATOM     31 CL   UNL d   1       7.059  -0.065   0.138  0.00  0.00    -0.084 Cl
ATOM     32  C   UNL d   1       5.838  -0.050   3.923  0.00  0.00     0.035 A 
ATOM     33  C   UNL d   1       4.476  -0.317   3.830  0.00  0.00     0.024 A 
ATOM     34 CL   UNL d   1       6.563   0.174   5.467  0.00  0.00    -0.084 Cl
ATOM     35  C   UNL d   1       3.887  -0.523   2.579  0.00  0.00     0.012 A 
ENDBRANCH  27  28
ENDBRANCH   2  27
TORSDOF 5
