REMARK  1 active torsions:
REMARK  status: ('A' for Active; 'I' for Inactive)
REMARK       I    between atoms: N_2  and  C_1 
REMARK       I    between atoms: N_4  and  C_1 
REMARK       I    between atoms: C_3  and  N_2 
REMARK       I    between atoms: N_13  and  C_3 
REMARK    1  A    between atoms: C_5  and  N_4 
ROOT
ATOM      1  C   UNL d   1       1.007   1.891   0.763  0.00  0.00     0.678 C 
ATOM      2  N   UNL d   1       2.142   1.959   0.005  0.00  0.00    -0.167 N 
ATOM      3  C   UNL d   1       2.461   1.579  -1.258  0.00  0.00     0.163 C 
ATOM      4  N   UNL d   1       0.122   0.913   0.403  0.00  0.00    -0.192 N 
ATOM      5  N   UNL d   1       0.821   2.688   1.766  0.00  0.00    -0.234 N 
ATOM      6  HN  UNL d   1       0.007   2.662   2.380  1.00  0.00     0.174 HD
ATOM      7  N   UNL d   1       1.682   1.067  -2.145  0.00  0.00    -0.376 N 
ATOM      8  HN  UNL d   1       1.963   0.749  -3.072  1.00  0.00     0.158 HD
ATOM      9  N   UNL d   1       3.752   1.797  -1.594  0.00  0.00    -0.274 NA
ATOM     10  H   UNL d   1       2.894   2.452   0.460  0.00  0.00     0.187 HD
ATOM     11  H   UNL d   1       0.520   0.037   0.093  0.00  0.00     0.184 HD
ATOM     12  H   UNL d   1       1.593   3.346   1.862  0.00  0.00     0.174 HD
ATOM     13  H   UNL d   1       0.729   1.033  -1.761  0.00  0.00     0.158 HD
ATOM     14  H   UNL d   1       4.068   2.751  -1.455  0.00  0.00     0.127 HD
ATOM     15  H   UNL d   1       3.872   1.559  -2.577  0.00  0.00     0.127 HD
ENDROOT
BRANCH   4  16
ATOM     16  C   UNL d   1      -1.269   0.919   0.621  0.00  0.00     0.055 A 
ATOM     17  C   UNL d   1      -1.976  -0.258   0.944  0.00  0.00    -0.033 A 
ATOM     18  C   UNL d   1      -3.380  -0.213   1.062  0.00  0.00     0.028 A 
ATOM     19  C   UNL d   1      -1.306  -1.586   1.174  0.00  0.00     0.050 C 
ATOM     20  C   UNL d   1      -4.067   0.991   0.921  0.00  0.00     0.011 A 
ATOM     21  C   UNL d   1      -3.373   2.167   0.682  0.00  0.00     0.021 A 
ATOM     22 BR   UNL d   1      -5.951   1.023   1.060  0.00  0.00    -0.051 Br
ATOM     23  C   UNL d   1      -1.984   2.128   0.544  0.00  0.00     0.032 A 
ENDBRANCH   4  16
TORSDOF 1
