REMARK  2 active torsions:
REMARK  status: ('A' for Active; 'I' for Inactive)
REMARK    1  A    between atoms: N_6  and  C_1 
REMARK       I    between atoms: C_8  and  N_6 
REMARK    2  A    between atoms: C_10  and  C_8 
ROOT
ATOM      1  C   UNL d   1      -3.142   0.894  -0.193  0.00  0.00     0.152 A 
ATOM      2  C   UNL d   1      -1.012   0.308  -0.100  0.00  0.00     0.058 A 
ATOM      3  N   UNL d   1      -1.909   1.373  -0.192  0.00  0.00    -0.335 N 
ATOM      4  HN  UNL d   1      -1.655   2.359  -0.249  1.00  0.00     0.168 HD
ATOM      5  C   UNL d   1      -1.598  -0.934  -0.012  0.00  0.00     0.014 A 
ATOM      6  S   UNL d   1      -3.265  -0.815  -0.173  0.00  0.00    -0.056 SA
ATOM      7  C   UNL d   1       0.447   0.379  -0.049  0.00  0.00    -0.002 A 
ATOM      8  C   UNL d   1      -0.895  -2.217   0.227  0.00  0.00     0.053 C 
ATOM      9  C   UNL d   1       1.192  -0.827  -0.150  0.00  0.00    -0.045 A 
ATOM     10  C   UNL d   1       0.497  -2.156  -0.401  0.00  0.00     0.044 C 
ATOM     11  C   UNL d   1       1.128   1.586   0.116  0.00  0.00     0.014 A 
ATOM     12  C   UNL d   1       2.591  -0.800  -0.096  0.00  0.00     0.008 A 
ATOM     13  C   UNL d   1       2.526   1.598   0.184  0.00  0.00     0.001 A 
ATOM     14  C   UNL d   1       3.255   0.410   0.079  0.00  0.00     0.001 A 
ENDROOT
BRANCH   1  15
ATOM     15  N   UNL d   1      -4.278   1.687  -0.178  0.00  0.00    -0.303 N 
ATOM     16  C   UNL d   1      -5.571   1.197  -0.109  0.00  0.00     0.257 C 
ATOM     17  O   UNL d   1      -5.905   0.013  -0.134  0.00  0.00    -0.267 OA
ATOM     18  H   UNL d   1      -4.082   2.677  -0.199  0.00  0.00     0.171 HD
BRANCH  16  19
ATOM     19  C   UNL d   1      -6.703   2.157   0.017  0.00  0.00     0.034 A 
ATOM     20  C   UNL d   1      -6.581   3.444   0.546  0.00  0.00     0.044 A 
ATOM     21  C   UNL d   1      -7.735   4.219   0.733  0.00  0.00     0.073 A 
ATOM     22 CL   UNL d   1      -7.588   5.795   1.414  0.00  0.00    -0.081 Cl
ATOM     23  C   UNL d   1      -8.995   3.717   0.397  0.00  0.00     0.138 A 
ATOM     24  C   UNL d   1      -9.124   2.441  -0.132  0.00  0.00     0.045 A 
ATOM     25  F   UNL d   1     -10.103   4.443   0.601  0.00  0.00    -0.204 F 
ATOM     26  C   UNL d   1      -7.983   1.669  -0.324  0.00  0.00     0.020 A 
ENDBRANCH  16  19
ENDBRANCH   1  15
TORSDOF 2
