REMARK  2 active torsions:
REMARK  status: ('A' for Active; 'I' for Inactive)
REMARK    1  A    between atoms: C_7  and  C_4 
REMARK    2  A    between atoms: C_13  and  N_8 
ROOT
ATOM      1  N   UNL d   1       1.439  -0.560   0.049  0.00  0.00    -0.335 N 
ATOM      2  HN  UNL d   1       2.347  -1.025   0.061  1.00  0.00     0.168 HD
ATOM      3  C   UNL d   1       0.288  -1.188   0.050  0.00  0.00     0.149 A 
ATOM      4  C   UNL d   1       1.268   0.810   0.029  0.00  0.00     0.051 A 
ATOM      5  S   UNL d   1      -1.083  -0.146   0.160  0.00  0.00    -0.064 SA
ATOM      6  C   UNL d   1      -0.048   1.221   0.074  0.00  0.00     0.083 A 
ATOM      7  N   UNL d   1       0.119  -2.532  -0.020  0.00  0.00    -0.335 N 
ATOM      8  H   UNL d   1      -0.823  -2.886   0.081  0.00  0.00     0.168 HD
ENDROOT
BRANCH   7   9
ATOM      9  C   UNL d   1       1.011  -3.437  -0.630  0.00  0.00     0.049 A 
ATOM     10  C   UNL d   1       2.191  -3.076  -1.290  0.00  0.00     0.117 A 
ATOM     11  N   UNL d   1       3.069  -3.943  -1.854  0.00  0.00    -0.373 N 
ATOM     12  C   UNL d   1       2.782  -5.251  -1.739  0.00  0.00     0.088 A 
ATOM     13  HN  UNL d   1       3.904  -3.618  -2.341  1.00  0.00     0.164 HD
ATOM     14  C   UNL d   1       1.660  -5.730  -1.087  0.00  0.00     0.019 A 
ATOM     15  C   UNL d   1       0.773  -4.812  -0.522  0.00  0.00     0.032 A 
ENDBRANCH   7   9
BRANCH   4  16
ATOM     16  C   UNL d   1       2.425   1.694  -0.030  0.00  0.00    -0.006 A 
ATOM     17  C   UNL d   1       2.355   2.964  -0.615  0.00  0.00     0.056 A 
ATOM     18  C   UNL d   1       3.491   3.766  -0.662  0.00  0.00     0.117 A 
ATOM     19  F   UNL d   1       3.413   4.977  -1.229  0.00  0.00    -0.206 F 
ATOM     20  C   UNL d   1       4.704   3.335  -0.139  0.00  0.00     0.042 A 
ATOM     21  C   UNL d   1       4.791   2.071   0.436  0.00  0.00     0.004 A 
ATOM     22  C   UNL d   1       3.656   1.254   0.485  0.00  0.00     0.014 A 
ENDBRANCH   4  16
TORSDOF 2
