REMARK  2 active torsions:
REMARK  status: ('A' for Active; 'I' for Inactive)
REMARK    1  A    between atoms: C_6  and  N_1 
REMARK    2  A    between atoms: C_8  and  C_5 
ROOT
ATOM      1  N   UNL d   1       0.883  -0.704   0.018  0.00  0.00    -0.296 N 
ATOM      2  C   UNL d   1      -0.492  -1.106   0.150  0.00  0.00     0.183 A 
ATOM      3  N   UNL d   1      -1.225   0.096   0.100  0.00  0.00    -0.331 N 
ATOM      4  C   UNL d   1       0.878   0.684  -0.104  0.00  0.00     0.130 A 
ATOM      5  C   UNL d   1      -0.373   1.160  -0.031  0.00  0.00     0.060 A 
ATOM      6  S   UNL d   1      -1.242  -2.561   0.418  0.00  0.00    -0.040 SA
ATOM      7  H   UNL d   1      -2.230   0.137   0.177  0.00  0.00     0.168 HD
ENDROOT
BRANCH   1   8
ATOM      8  C   UNL d   1       2.038  -1.547   0.023  0.00  0.00     0.047 A 
ATOM      9  C   UNL d   1       3.275  -1.162   0.594  0.00  0.00    -0.035 A 
ATOM     10  C   UNL d   1       3.516   0.104   1.374  0.00  0.00     0.050 C 
ATOM     11  C   UNL d   1       4.388  -2.025   0.485  0.00  0.00     0.009 A 
ATOM     12  C   UNL d   1       4.286  -3.268  -0.132  0.00  0.00     0.001 A 
ATOM     13  C   UNL d   1       3.071  -3.663  -0.667  0.00  0.00     0.002 A 
ATOM     14  C   UNL d   1       1.968  -2.806  -0.600  0.00  0.00     0.030 A 
ENDBRANCH   1   8
BRANCH   5  15
ATOM     15  C   UNL d   1      -0.821   2.557  -0.030  0.00  0.00    -0.008 A 
ATOM     16  C   UNL d   1      -0.053   3.562  -0.641  0.00  0.00     0.015 A 
ATOM     17  C   UNL d   1      -0.455   4.901  -0.597  0.00  0.00     0.020 A 
ATOM     18  C   UNL d   1      -1.635   5.249   0.053  0.00  0.00     0.011 A 
ATOM     19  C   UNL d   1      -2.419   4.270   0.656  0.00  0.00     0.020 A 
ATOM     20 BR   UNL d   1      -2.170   7.059   0.125  0.00  0.00    -0.051 Br
ATOM     21  C   UNL d   1      -2.012   2.932   0.614  0.00  0.00     0.015 A 
ENDBRANCH   5  15
TORSDOF 2
