REMARK  6 active torsions:
REMARK  status: ('A' for Active; 'I' for Inactive)
REMARK    1  A    between atoms: S_3  and  N_12 
REMARK    2  A    between atoms: C_11  and  S_3 
REMARK    3  A    between atoms: C_9  and  C_4 
REMARK    4  A    between atoms: C_14  and  N_5 
REMARK    5  A    between atoms: C_10  and  C_7 
REMARK       I    between atoms: N_13  and  C_9 
REMARK    6  A    between atoms: N_12  and  N_13 
ROOT
ATOM      1  N   UNL d   1      -0.178  -4.894  -0.053  0.00  0.00    -0.220 N 
ATOM      2  H   UNL d   1      -1.163  -5.134   0.127  0.00  0.00     0.200 HD
ENDROOT
BRANCH   1   3
ATOM      3  S   UNL d   1       0.881  -6.169  -0.259  0.00  0.00     0.277 S 
ATOM      4  O   UNL d   1       0.167  -7.417  -0.106  0.00  0.00    -0.199 OA
ATOM      5  O   UNL d   1       1.656  -5.886  -1.450  0.00  0.00    -0.199 OA
BRANCH   3   6
ATOM      6  C   UNL d   1       1.967  -6.017   1.146  0.00  0.00     0.096 A 
ATOM      7  C   UNL d   1       1.517  -6.112   2.475  0.00  0.00     0.071 A 
ATOM      8  C   UNL d   1       2.487  -6.019   3.500  0.00  0.00     0.018 A 
ATOM      9  C   UNL d   1       3.841  -5.832   3.216  0.00  0.00     0.001 A 
ATOM     10  C   UNL d   1       4.264  -5.737   1.898  0.00  0.00     0.002 A 
ATOM     11  C   UNL d   1       3.334  -5.832   0.866  0.00  0.00     0.026 A 
BRANCH   7  12
ATOM     12  C   UNL d   1       0.087  -6.311   2.922  0.00  0.00     0.419 C 
ATOM     13  F   UNL d   1      -0.870  -6.274   1.964  0.00  0.00    -0.166 F 
ATOM     14  F   UNL d   1      -0.081  -7.494   3.576  0.00  0.00    -0.166 F 
ATOM     15  F   UNL d   1      -0.281  -5.349   3.820  0.00  0.00    -0.166 F 
ENDBRANCH   7  12
ENDBRANCH   3   6
ENDBRANCH   1   3
BRANCH   1  16
ATOM     16  N   UNL d   1       0.200  -3.497  -0.126  0.00  0.00    -0.255 N 
ATOM     17  C   UNL d   1      -0.812  -2.558  -0.018  0.00  0.00     0.288 C 
ATOM     18  O   UNL d   1      -1.992  -2.891   0.103  0.00  0.00    -0.264 OA
ATOM     19  H   UNL d   1       1.162  -3.211  -0.303  0.00  0.00     0.191 HD
BRANCH  17  20
ATOM     20  C   UNL d   1      -0.388  -1.153  -0.043  0.00  0.00     0.119 A 
ATOM     21  N   UNL d   1       0.891  -0.740  -0.098  0.00  0.00    -0.292 N 
ATOM     22  N   UNL d   1       0.826   0.627  -0.055  0.00  0.00    -0.287 N 
ATOM     23  HN  UNL d   1       1.728  -1.320  -0.158  1.00  0.00     0.187 HD
ATOM     24  C   UNL d   1      -0.480   1.076   0.019  0.00  0.00     0.028 A 
ATOM     25  C   UNL d   1      -0.967   2.480   0.097  0.00  0.00     0.070 C 
ATOM     26  C   UNL d   1      -1.267  -0.052   0.018  0.00  0.00     0.063 A 
BRANCH  22  27
ATOM     27  C   UNL d   1       2.081   1.415  -0.069  0.00  0.00     0.043 C 
ATOM     28  C   UNL d   1       3.331   0.504  -0.191  0.00  0.00     0.039 C 
ATOM     29  C   UNL d   1       2.121   2.368  -1.282  0.00  0.00     0.039 C 
ATOM     30  C   UNL d   1       2.241   2.203   1.248  0.00  0.00     0.039 C 
ENDBRANCH  22  27
ENDBRANCH  17  20
ENDBRANCH   1  16
TORSDOF 6
