REMARK  4 active torsions:
REMARK  status: ('A' for Active; 'I' for Inactive)
REMARK    1  A    between atoms: CA_2  and  C_6 
REMARK    2  A    between atoms: C_7  and  C_4 
REMARK    3  A    between atoms: OXT_11  and  C_6 
REMARK    4  A    between atoms: O_17  and  C_12 
ROOT
ATOM      1  N   UNL d   1      -1.325   1.210   0.229  0.00  0.00     0.118 N 
ATOM      2  CA  UNL d   1      -0.025   1.368  -0.494  0.00  0.00     0.336 C 
ATOM      3  S   UNL d   1      -0.212  -1.191   0.042  0.00  0.00    -0.117 SA
ATOM      4  C   UNL d   1      -1.744  -0.188   0.015  0.00  0.00     0.317 C 
ATOM      5  C   UNL d   1       0.913   0.251  -0.003  0.00  0.00     0.044 C 
ATOM      6  C   UNL d   1       1.458   0.450   1.419  0.00  0.00     0.029 C 
ATOM      7  C   UNL d   1       2.055  -0.019  -0.982  0.00  0.00     0.029 C 
ATOM      8  H   UNL d   1      -2.035   1.829  -0.160  0.00  0.00     0.319 HD
ENDROOT
BRANCH   4   9
ATOM      9  C   UNL d   1      -2.569  -0.469  -1.242  0.00  0.00    -0.015 A 
ATOM     10  C   UNL d   1      -3.042  -1.780  -1.458  0.00  0.00     0.013 A 
ATOM     11  C   UNL d   1      -3.808  -2.114  -2.583  0.00  0.00     0.037 A 
ATOM     12  C   UNL d   1      -4.137  -1.139  -3.519  0.00  0.00     0.068 A 
ATOM     13  C   UNL d   1      -3.692   0.166  -3.315  0.00  0.00     0.037 A 
ATOM     14  C   UNL d   1      -2.919   0.500  -2.195  0.00  0.00     0.013 A 
BRANCH  12  15
ATOM     15  O   UNL d   1      -4.871  -1.325  -4.656  0.00  0.00    -0.356 OA
ATOM     16  C   UNL d   1      -5.348  -2.642  -4.907  0.00  0.00     0.210 C 
ENDBRANCH  12  15
ENDBRANCH   4   9
BRANCH   2  17
ATOM     17  C   UNL d   1       0.548   2.759  -0.219  0.00  0.00     0.175 C 
ATOM     18  O   UNL d   1       1.385   3.313  -0.910  0.00  0.00    -0.648 OA
BRANCH  17  19
ATOM     19  OXT UNL d   1       0.034   3.310   0.911  0.00  0.00    -0.775 OA
ATOM     20  HXT UNL d   1      -0.606   2.667   1.297  0.00  0.00     0.167 HD
ENDBRANCH  17  19
ENDBRANCH   2  17
TORSDOF 4
