REMARK  2 active torsions:
REMARK  status: ('A' for Active; 'I' for Inactive)
REMARK    1  A    between atoms: C_7  and  C_1 
REMARK    2  A    between atoms: O_14  and  C_9 
ROOT
ATOM      1  C   UNL d   1      -2.316  -0.018  -0.087  0.00  0.00     0.063 A 
ATOM      2  N   UNL d   1      -1.505  -1.115   0.050  0.00  0.00    -0.340 N 
ATOM      3  HN  UNL d   1      -1.799  -2.083   0.180  1.00  0.00     0.167 HD
ATOM      4  C   UNL d   1      -0.269  -0.666  -0.020  0.00  0.00     0.112 A 
ATOM      5  N   UNL d   1      -0.240   0.716  -0.070  0.00  0.00    -0.317 N 
ATOM      6  C   UNL d   1      -1.547   1.133  -0.133  0.00  0.00     0.128 A 
ATOM      7  C   UNL d   1       0.973  -1.354  -0.036  0.00  0.00     0.056 A 
ATOM      8  C   UNL d   1       0.940   1.455  -0.047  0.00  0.00     0.098 A 
ATOM      9  C   UNL d   1       2.132  -0.660  -0.030  0.00  0.00    -0.057 A 
ATOM     10  C   UNL d   1       2.119   0.806  -0.015  0.00  0.00     0.024 A 
ATOM     11  C   UNL d   1       3.467  -1.339  -0.035  0.00  0.00     0.048 C 
ENDROOT
BRANCH   1  12
ATOM     12  C   UNL d   1      -3.777  -0.070  -0.063  0.00  0.00     0.027 A 
ATOM     13  C   UNL d   1      -4.596  -1.025  -0.709  0.00  0.00     0.102 A 
ATOM     14  C   UNL d   1      -6.003  -0.931  -0.528  0.00  0.00     0.068 A 
ATOM     15 CL   UNL d   1      -7.091  -2.077  -1.257  0.00  0.00    -0.081 Cl
ATOM     16  C   UNL d   1      -6.594   0.075   0.238  0.00  0.00     0.027 A 
ATOM     17  C   UNL d   1      -5.794   1.021   0.853  0.00  0.00     0.003 A 
ATOM     18  C   UNL d   1      -4.409   0.941   0.710  0.00  0.00     0.017 A 
BRANCH  13  19
ATOM     19  O   UNL d   1      -4.275  -2.043  -1.566  0.00  0.00    -0.353 OA
ATOM     20  C   UNL d   1      -2.957  -2.488  -1.794  0.00  0.00     0.210 C 
ENDBRANCH  13  19
ENDBRANCH   1  12
TORSDOF 2
