REMARK  5 active torsions:
REMARK  status: ('A' for Active; 'I' for Inactive)
REMARK    1  A    between atoms: C_2  and  S_1 
REMARK    2  A    between atoms: N_6  and  S_1 
REMARK    3  A    between atoms: N_7  and  C_13 
REMARK    4  A    between atoms: C_13  and  C_20 
REMARK    5  A    between atoms: C_20  and  N_14 
ROOT
ATOM      1  N   UNL d   1       0.587   0.949  -0.575  0.00  0.00    -0.203 NA
ATOM      2  N   UNL d   1      -0.806   2.703   1.409  0.00  0.00     0.092 N 
ATOM      3  C   UNL d   1       1.077   2.333  -0.310  0.00  0.00     0.138 C 
ATOM      4  C   UNL d   1      -0.887   0.881  -0.371  0.00  0.00     0.138 C 
ATOM      5  C   UNL d   1       0.624   2.871   1.067  0.00  0.00     0.288 C 
ATOM      6  C   UNL d   1      -1.270   1.344   1.049  0.00  0.00     0.288 C 
ENDROOT
BRANCH   1   7
ATOM      7  S   UNL d   1       1.456  -0.332   0.143  0.00  0.00     0.250 S 
ATOM      8  O   UNL d   1       1.692  -0.018   1.533  0.00  0.00    -0.205 OA
ATOM      9  O   UNL d   1       0.839  -1.579  -0.247  0.00  0.00    -0.205 OA
BRANCH   7  10
ATOM     10  C   UNL d   1       3.081  -0.383  -0.568  0.00  0.00     0.117 A 
ATOM     11  S   UNL d   1       3.163  -0.425  -2.278  0.00  0.00    -0.068 SA
ATOM     12  C   UNL d   1       4.862  -0.456  -2.248  0.00  0.00     0.070 A 
ATOM     13 BR   UNL d   1       5.880  -0.502  -3.823  0.00  0.00    -0.042 Br
ATOM     14  C   UNL d   1       5.364  -0.440  -0.972  0.00  0.00     0.037 A 
ATOM     15  C   UNL d   1       4.338  -0.404   0.007  0.00  0.00     0.053 A 
ATOM     16 BR   UNL d   1       7.180  -0.459  -0.453  0.00  0.00    -0.049 Br
ENDBRANCH   7  10
ENDBRANCH   1   7
BRANCH   2  17
ATOM     17  C   UNL d   1      -1.649   3.778   0.861  0.00  0.00     0.292 C 
BRANCH  17  18
ATOM     18  C   UNL d   1      -3.024   3.850   1.549  0.00  0.00     0.159 C 
BRANCH  18  19
ATOM     19  N   UNL d   1      -3.864   4.902   0.988  0.00  0.00    -0.353 N 
ATOM     20  C   UNL d   1      -4.038   6.168   1.516  0.00  0.00     0.008 A 
ATOM     21  C   UNL d   1      -4.950   6.826   0.712  0.00  0.00     0.026 A 
ATOM     22  C   UNL d   1      -3.364   6.691   2.737  0.00  0.00     0.068 C 
ATOM     23  C   UNL d   1      -5.325   5.951  -0.326  0.00  0.00     0.026 A 
ATOM     24  C   UNL d   1      -4.643   4.764  -0.148  0.00  0.00     0.008 A 
ATOM     25  C   UNL d   1      -4.714   3.537  -0.991  0.00  0.00     0.068 C 
ENDBRANCH  18  19
ENDBRANCH  17  18
ENDBRANCH   2  17
TORSDOF 5
