REMARK  7 active torsions:
REMARK  status: ('A' for Active; 'I' for Inactive)
REMARK    1  A    between atoms: C_5  and  C_1 
REMARK    2  A    between atoms: C_2  and  C_4 
REMARK       I    between atoms: C_3  and  N_8 
REMARK    3  A    between atoms: C_6  and  C_3 
REMARK    4  A    between atoms: C_7  and  N_12 
REMARK    5  A    between atoms: N_13  and  C_7 
REMARK    6  A    between atoms: N_8  and  N_13 
REMARK    7  A    between atoms: N_12  and  C_10 
ROOT
ATOM      1  N   UNL d   1      -2.122   2.780   1.875  0.00  0.00    -0.332 N 
ATOM      2  H   UNL d   1      -2.360   3.701   2.216  0.00  0.00     0.168 HD
ENDROOT
BRANCH   1   3
ATOM      3  C   UNL d   1      -2.573   1.766   2.712  0.00  0.00     0.191 C 
ATOM      4  S   UNL d   1      -1.800   0.339   3.132  0.00  0.00    -0.039 SA
BRANCH   3   5
ATOM      5  N   UNL d   1      -3.766   2.019   3.350  0.00  0.00    -0.273 N 
ATOM      6  H   UNL d   1      -4.091   1.207   3.889  0.00  0.00     0.189 HD
BRANCH   5   7
ATOM      7  N   UNL d   1      -4.824   2.663   2.678  0.00  0.00    -0.263 N 
ATOM      8  C   UNL d   1      -6.091   2.108   2.849  0.00  0.00     0.277 C 
ATOM      9  O   UNL d   1      -6.221   1.007   3.390  0.00  0.00    -0.265 OA
ATOM     10  H   UNL d   1      -4.731   3.642   2.432  0.00  0.00     0.190 HD
BRANCH   8  11
ATOM     11  C   UNL d   1      -7.225   2.910   2.419  0.00  0.00     0.074 A 
ATOM     12  S   UNL d   1      -7.039   4.423   1.635  0.00  0.00    -0.097 SA
ATOM     13  C   UNL d   1      -8.730   4.642   1.502  0.00  0.00     0.050 A 
ATOM     14  C   UNL d   1      -9.432   3.591   2.045  0.00  0.00     0.009 A 
ATOM     15  C   UNL d   1      -8.567   2.590   2.573  0.00  0.00     0.025 A 
ENDBRANCH   8  11
ENDBRANCH   5   7
ENDBRANCH   3   5
ENDBRANCH   1   3
BRANCH   1  16
ATOM     16  C   UNL d   1      -1.001   2.694   1.014  0.00  0.00     0.035 C 
ATOM     17  C   UNL d   1      -0.745   1.533   0.282  0.00  0.00     0.045 C 
ATOM     18  C   UNL d   1       0.454   1.365  -0.422  0.00  0.00     0.050 C 
ATOM     19  C   UNL d   1       1.358   2.433  -0.479  0.00  0.00     0.032 C 
ATOM     20  C   UNL d   1       1.077   3.650   0.167  0.00  0.00     0.050 C 
ATOM     21  C   UNL d   1      -0.118   3.774   0.907  0.00  0.00     0.045 C 
BRANCH  18  22
ATOM     22  C   UNL d   1       0.752   0.027  -1.053  0.00  0.00     0.417 C 
ATOM     23  F   UNL d   1       2.041  -0.092  -1.477  0.00  0.00    -0.166 F 
ATOM     24  F   UNL d   1      -0.028  -0.222  -2.139  0.00  0.00    -0.166 F 
ATOM     25  F   UNL d   1       0.547  -1.010  -0.195  0.00  0.00    -0.166 F 
ENDBRANCH  18  22
BRANCH  20  26
ATOM     26  C   UNL d   1       2.069   4.790   0.114  0.00  0.00     0.417 C 
ATOM     27  F   UNL d   1       3.184   4.507  -0.615  0.00  0.00    -0.166 F 
ATOM     28  F   UNL d   1       1.538   5.915  -0.438  0.00  0.00    -0.166 F 
ATOM     29  F   UNL d   1       2.513   5.151   1.349  0.00  0.00    -0.166 F 
ENDBRANCH  20  26
ENDBRANCH   1  16
TORSDOF 7
