REMARK  4 active torsions:
REMARK  status: ('A' for Active; 'I' for Inactive)
REMARK    1  A    between atoms: N_10  and  C_7 
REMARK    2  A    between atoms: N_11  and  C_8 
REMARK    3  A    between atoms: O_12  and  C_9 
REMARK    4  A    between atoms: C_14  and  O_12 
ROOT
ATOM      1  N   UNL d   1      -0.237   1.151  -0.042  0.00  0.00    -0.309 N 
ATOM      2  HN  UNL d   1      -0.748   2.035  -0.027  1.00  0.00     0.171 HD
ATOM      3  N   UNL d   1      -0.240  -1.191   0.014  0.00  0.00    -0.298 N 
ATOM      4  HN  UNL d   1      -0.739  -2.080   0.060  1.00  0.00     0.172 HD
ATOM      5  N   UNL d   1       1.804   0.004  -0.088  0.00  0.00    -0.298 N 
ATOM      6  HN  UNL d   1       2.823   0.009  -0.096  1.00  0.00     0.172 HD
ATOM      7  C   UNL d   1      -0.859  -0.019   0.012  0.00  0.00     0.162 A 
ATOM      8  C   UNL d   1       1.079   1.107  -0.116  0.00  0.00     0.160 A 
ATOM      9  C   UNL d   1       1.087  -1.109  -0.048  0.00  0.00     0.228 A 
ENDROOT
BRANCH   7  10
ATOM     10  N   UNL d   1      -2.244  -0.062   0.039  0.00  0.00    -0.268 NA
ATOM     11  C   UNL d   1      -2.936   1.014   0.716  0.00  0.00     0.116 C 
ATOM     12  H   UNL d   1      -2.534  -1.000   0.290  0.00  0.00     0.130 HD
ENDBRANCH   7  10
BRANCH   9  13
ATOM     13  O   UNL d   1       1.838  -2.265   0.019  0.00  0.00    -0.322 OA
BRANCH  13  14
ATOM     14  C   UNL d   1       1.187  -3.379  -0.586  0.00  0.00     0.174 C 
ATOM     15  C   UNL d   1       2.143  -4.559  -0.539  0.00  0.00     0.034 C 
ENDBRANCH  13  14
ENDBRANCH   9  13
BRANCH   8  16
ATOM     16  N   UNL d   1       1.751   2.310  -0.189  0.00  0.00    -0.274 NA
ATOM     17  H   UNL d   1       2.693   2.211   0.163  0.00  0.00     0.127 HD
ATOM     18  H   UNL d   1       1.184   3.053   0.189  0.00  0.00     0.127 HD
ENDBRANCH   8  16
TORSDOF 4
