REMARK  6 active torsions:
REMARK  status: ('A' for Active; 'I' for Inactive)
REMARK    1  A    between atoms: C_4  and  C_1 
REMARK       I    between atoms: N_8  and  C_1 
REMARK    2  A    between atoms: O_12  and  C_2 
REMARK    3  A    between atoms: O_13  and  C_3 
REMARK    4  A    between atoms: C_14  and  N_8 
REMARK    5  A    between atoms: C_10  and  C_16 
REMARK    6  A    between atoms: C_16  and  C_14 
ROOT
ATOM      1  C   UNL d   1       4.783  -0.445  -0.925  0.00  0.00     0.058 C 
ENDROOT
BRANCH   1   2
ATOM      2  C   UNL d   1       5.512  -1.300  -1.946  0.00  0.00    -0.054 A 
ATOM      3  C   UNL d   1       6.717  -1.942  -1.598  0.00  0.00     0.046 A 
ATOM      4  C   UNL d   1       7.418  -2.744  -2.518  0.00  0.00     0.102 A 
ATOM      5  C   UNL d   1       6.893  -2.911  -3.810  0.00  0.00     0.101 A 
ATOM      6  C   UNL d   1       5.729  -2.230  -4.175  0.00  0.00     0.040 A 
ATOM      7  C   UNL d   1       5.051  -1.428  -3.260  0.00  0.00     0.010 A 
BRANCH   4   8
ATOM      8  O   UNL d   1       8.609  -3.360  -2.240  0.00  0.00    -0.353 OA
ATOM      9  C   UNL d   1       9.193  -3.155  -0.962  0.00  0.00     0.210 C 
ENDBRANCH   4   8
BRANCH   5  10
ATOM     10  O   UNL d   1       7.434  -3.641  -4.837  0.00  0.00    -0.353 OA
ATOM     11  C   UNL d   1       8.081  -4.854  -4.475  0.00  0.00     0.210 C 
ENDBRANCH   5  10
ENDBRANCH   1   2
BRANCH   1  12
ATOM     12  C   UNL d   1       3.254  -0.483  -1.058  0.00  0.00     0.127 C 
BRANCH  12  13
ATOM     13  N   UNL d   1       2.561   0.305  -0.060  0.00  0.00    -0.359 N 
ATOM     14  C   UNL d   1       2.248   1.630  -0.264  0.00  0.00     0.246 C 
ATOM     15  O   UNL d   1       2.572   2.253  -1.269  0.00  0.00    -0.271 OA
ATOM     16  H   UNL d   1       2.320  -0.093   0.842  0.00  0.00     0.162 HD
BRANCH  14  17
ATOM     17  C   UNL d   1       1.361   2.228   0.843  0.00  0.00     0.213 C 
ATOM     18  O   UNL d   1       1.578   1.604   2.119  0.00  0.00    -0.376 OA
ATOM     19  C   UNL d   1       1.831   2.628   3.088  0.00  0.00     0.168 C 
ATOM     20  C   UNL d   1       1.372   3.936   2.485  0.00  0.00     0.029 C 
ATOM     21  C   UNL d   1       1.599   3.718   1.012  0.00  0.00     0.043 C 
ENDBRANCH  14  17
ENDBRANCH  12  13
ENDBRANCH   1  12
TORSDOF 6
