REMARK  3 active torsions:
REMARK  status: ('A' for Active; 'I' for Inactive)
REMARK    1  A    between atoms: N_2  and  S_1 
REMARK    2  A    between atoms: C_9  and  S_1 
REMARK    3  A    between atoms: C_4  and  N_2 
ROOT
ATOM      1  C   UNL d   1       2.107  -2.591   2.317  0.00  0.00     0.021 A 
ATOM      2  C   UNL d   1       0.901  -2.215   1.679  0.00  0.00     0.055 A 
ATOM      3  N   UNL d   1       3.542  -4.364   3.042  0.00  0.00    -0.300 N 
ATOM      4  HN  UNL d   1       3.766  -5.358   3.073  1.00  0.00     0.187 HD
ATOM      5  N   UNL d   1       4.388  -3.463   3.634  0.00  0.00    -0.305 N 
ATOM      6  HN  UNL d   1       5.224  -3.789   4.119  1.00  0.00     0.186 HD
ATOM      7  C   UNL d   1       2.425  -3.957   2.423  0.00  0.00     0.060 A 
ATOM      8  C   UNL d   1       2.997  -1.676   2.907  0.00  0.00     0.042 A 
ATOM      9  C   UNL d   1       4.114  -2.146   3.576  0.00  0.00     0.023 A 
ATOM     10  C   UNL d   1       0.009  -3.189   1.224  0.00  0.00     0.031 A 
ATOM     11  C   UNL d   1       0.342  -4.534   1.315  0.00  0.00     0.005 A 
ATOM     12  C   UNL d   1       1.552  -4.902   1.900  0.00  0.00     0.032 A 
ATOM     13  C   UNL d   1       5.023  -1.216   4.313  0.00  0.00     0.070 C 
ENDROOT
BRANCH   2  14
ATOM     14  N   UNL d   1       0.581  -0.835   1.456  0.00  0.00    -0.280 N 
ATOM     15  H   UNL d   1      -0.344  -0.517   1.736  0.00  0.00     0.179 HD
BRANCH  14  16
ATOM     16  S   UNL d   1       1.069  -0.129  -0.015  0.00  0.00     0.263 S 
ATOM     17  O   UNL d   1       2.499  -0.284  -0.153  0.00  0.00    -0.200 OA
ATOM     18  O   UNL d   1       0.440   1.177  -0.065  0.00  0.00    -0.200 OA
BRANCH  16  19
ATOM     19  C   UNL d   1       0.266  -1.141  -1.238  0.00  0.00     0.079 A 
ATOM     20  C   UNL d   1      -1.131  -1.125  -1.321  0.00  0.00     0.026 A 
ATOM     21  C   UNL d   1      -1.780  -2.047  -2.143  0.00  0.00     0.008 A 
ATOM     22  C   UNL d   1      -1.040  -2.961  -2.907  0.00  0.00    -0.062 A 
ATOM     23  C   UNL d   1       0.361  -2.911  -2.873  0.00  0.00     0.008 A 
ATOM     24  C   UNL d   1      -1.753  -4.009  -3.711  0.00  0.00     0.048 C 
ATOM     25  C   UNL d   1       1.018  -2.002  -2.040  0.00  0.00     0.026 A 
ENDBRANCH  16  19
ENDBRANCH  14  16
ENDBRANCH   2  14
TORSDOF 3
