REMARK  0 active torsions:
REMARK  status: ('A' for Active; 'I' for Inactive)
ROOT
ATOM      1  C   UNL d   1      -2.527   0.683  -0.001  0.00  0.00    -0.001 A 
ATOM      2  C   UNL d   1      -2.535  -0.664   0.004  0.00  0.00    -0.001 A 
ATOM      3  C   UNL d   1      -1.241   1.444  -0.002  0.00  0.00     0.189 A 
ATOM      4  C   UNL d   1      -1.253  -1.437   0.005  0.00  0.00     0.189 A 
ATOM      5  C   UNL d   1       0.023   0.693   0.000  0.00  0.00     0.029 A 
ATOM      6  C   UNL d   1       0.019  -0.695   0.002  0.00  0.00     0.029 A 
ATOM      7  O   UNL d   1      -1.228   2.670  -0.004  0.00  0.00    -0.287 OA
ATOM      8  O   UNL d   1      -1.252  -2.663   0.007  0.00  0.00    -0.287 OA
ATOM      9  C   UNL d   1      -3.736   1.580  -0.002  0.00  0.00     0.053 C 
ATOM     10  C   UNL d   1      -3.761  -1.537   0.007  0.00  0.00     0.053 C 
ATOM     11  C   UNL d   1       1.239   1.392  -0.001  0.00  0.00     0.016 A 
ATOM     12  C   UNL d   1       1.236  -1.394   0.003  0.00  0.00     0.016 A 
ATOM     13  C   UNL d   1       2.448   0.696  -0.000  0.00  0.00     0.001 A 
ATOM     14  C   UNL d   1       2.446  -0.697   0.002  0.00  0.00     0.001 A 
ENDROOT
TORSDOF 0
