REMARK  4 active torsions:
REMARK  status: ('A' for Active; 'I' for Inactive)
REMARK    1  A    between atoms: N_14  and  C_3 
REMARK    2  A    between atoms: C_8  and  C_4 
REMARK    3  A    between atoms: C_11  and  C_5 
REMARK    4  A    between atoms: N_15  and  C_8 
ROOT
ATOM      1  N   UNL d   1       0.390  -1.078   0.114  0.00  0.00    -0.332 N 
ATOM      2  HN  UNL d   1       0.947  -1.931   0.163  1.00  0.00     0.168 HD
ATOM      3  C   UNL d   1       0.971   0.136   0.107  0.00  0.00     0.094 A 
ATOM      4  C   UNL d   1       0.247   1.323   0.066  0.00  0.00     0.055 A 
ATOM      5  C   UNL d   1      -0.956  -1.123   0.054  0.00  0.00     0.116 A 
ATOM      6  N   UNL d   1      -1.744  -0.036  -0.017  0.00  0.00    -0.351 N 
ATOM      7  HN  UNL d   1      -2.760  -0.112  -0.077  1.00  0.00     0.166 HD
ATOM      8  C   UNL d   1      -1.122   1.162  -0.006  0.00  0.00     0.107 A 
ENDROOT
BRANCH   5   9
ATOM      9  C   UNL d   1      -1.610  -2.444   0.076  0.00  0.00     0.011 A 
ATOM     10  C   UNL d   1      -0.875  -3.629   0.232  0.00  0.00     0.032 A 
ATOM     11  C   UNL d   1      -1.541  -4.846   0.254  0.00  0.00     0.088 A 
ATOM     12  N   UNL d   1      -2.877  -4.972   0.131  0.00  0.00    -0.375 N 
ATOM     13  C   UNL d   1      -3.578  -3.832  -0.020  0.00  0.00     0.088 A 
ATOM     14  HN  UNL d   1      -3.333  -5.884   0.150  1.00  0.00     0.164 HD
ATOM     15  C   UNL d   1      -3.002  -2.572  -0.053  0.00  0.00     0.032 A 
ENDBRANCH   5   9
BRANCH   3  16
ATOM     16  N   UNL d   1       2.370   0.098   0.167  0.00  0.00    -0.288 NA
ATOM     17  H   UNL d   1       2.643  -0.883   0.127  0.00  0.00     0.125 HD
ATOM     18  H   UNL d   1       2.780   0.624  -0.601  0.00  0.00     0.125 HD
ENDBRANCH   3  16
BRANCH   4  19
ATOM     19  C   UNL d   1       0.857   2.675   0.123  0.00  0.00     0.109 C 
ATOM     20  S   UNL d   1       0.262   4.038  -0.644  0.00  0.00    -0.060 SA
BRANCH  19  21
ATOM     21  N   UNL d   1       1.989   2.811   0.883  0.00  0.00    -0.389 N 
ATOM     22  H   UNL d   1       2.423   2.020   1.353  0.00  0.00     0.157 HD
ATOM     23  H   UNL d   1       2.428   3.720   0.979  0.00  0.00     0.157 HD
ENDBRANCH  19  21
ENDBRANCH   4  19
TORSDOF 4
