REMARK  5 active torsions:
REMARK  status: ('A' for Active; 'I' for Inactive)
REMARK    1  A    between atoms: C_7  and  C_1 
REMARK    2  A    between atoms: C_8  and  C_2 
REMARK    3  A    between atoms: C_12  and  C_4 
REMARK    4  A    between atoms: C_6  and  C_8 
REMARK    5  A    between atoms: C_13  and  C_9 
ROOT
ATOM      1  C   UNL d   1      -1.784  -3.163   0.667  0.00  0.00     0.096 C 
ATOM      2  C   UNL d   1      -1.819  -4.448   0.254  0.00  0.00     0.038 C 
ATOM      3  C   UNL d   1      -0.946  -2.737   1.734  0.00  0.00     0.103 C 
ATOM      4  N   UNL d   1      -0.260  -2.392   2.606  0.00  0.00    -0.191 NA
ENDROOT
BRANCH   1   5
ATOM      5  C   UNL d   1      -2.743  -2.195   0.025  0.00  0.00     0.209 C 
ATOM      6  O   UNL d   1      -3.757  -2.652  -0.510  0.00  0.00    -0.285 OA
BRANCH   5   7
ATOM      7  C   UNL d   1      -2.518  -0.751   0.069  0.00  0.00     0.058 A 
ATOM      8  S   UNL d   1      -0.973  -0.047  -0.016  0.00  0.00    -0.081 SA
ATOM      9  C   UNL d   1      -1.585   1.564   0.037  0.00  0.00     0.100 A 
ATOM     10  C   UNL d   1      -2.978   1.573   0.069  0.00  0.00    -0.003 A 
ATOM     11  C   UNL d   1      -3.493   0.227   0.067  0.00  0.00     0.036 A 
BRANCH   9  12
ATOM     12  C   UNL d   1      -0.592   2.689   0.013  0.00  0.00     0.424 C 
ATOM     13  F   UNL d   1       0.677   2.281  -0.262  0.00  0.00    -0.166 F 
ATOM     14  F   UNL d   1      -0.897   3.625  -0.922  0.00  0.00    -0.166 F 
ATOM     15  F   UNL d   1      -0.525   3.329   1.210  0.00  0.00    -0.166 F 
ENDBRANCH   9  12
BRANCH  10  16
ATOM     16  C   UNL d   1      -3.815   2.782   0.044  0.00  0.00    -0.025 A 
ATOM     17  C   UNL d   1      -5.002   2.782  -0.710  0.00  0.00     0.012 A 
ATOM     18  C   UNL d   1      -5.840   3.901  -0.744  0.00  0.00     0.001 A 
ATOM     19  C   UNL d   1      -5.497   5.048  -0.034  0.00  0.00     0.000 A 
ATOM     20  C   UNL d   1      -4.330   5.064   0.724  0.00  0.00     0.001 A 
ATOM     21  C   UNL d   1      -3.506   3.934   0.779  0.00  0.00     0.012 A 
ENDBRANCH  10  16
ENDBRANCH   5   7
ENDBRANCH   1   5
BRANCH   2  22
ATOM     22  C   UNL d   1      -0.992  -5.512   0.833  0.00  0.00    -0.033 A 
ATOM     23  C   UNL d   1      -1.448  -6.226   1.947  0.00  0.00     0.035 A 
ATOM     24  C   UNL d   1      -0.631  -7.194   2.527  0.00  0.00     0.034 A 
ATOM     25 CL   UNL d   1      -1.186  -8.060   3.909  0.00  0.00    -0.084 Cl
ATOM     26  C   UNL d   1       0.635  -7.460   2.009  0.00  0.00     0.024 A 
ATOM     27  C   UNL d   1       1.086  -6.757   0.892  0.00  0.00     0.003 A 
ATOM     28  C   UNL d   1       0.274  -5.784   0.305  0.00  0.00     0.011 A 
ENDBRANCH   2  22
TORSDOF 5
