REMARK  6 active torsions:
REMARK  status: ('A' for Active; 'I' for Inactive)
REMARK    1  A    between atoms: C_3  and  S_1 
REMARK    2  A    between atoms: N_12  and  S_1 
REMARK    3  A    between atoms: C_9  and  C_2 
REMARK    4  A    between atoms: C_4  and  C_10 
REMARK    5  A    between atoms: C_22  and  N_12 
REMARK    6  A    between atoms: N_15  and  C_18 
ROOT
ATOM      1  S   UNL d   1       0.612   1.542  -2.082  0.00  0.00     0.269 S 
ATOM      2  O   UNL d   1       0.426   0.166  -2.497  0.00  0.00    -0.200 OA
ATOM      3  O   UNL d   1      -0.309   2.581  -2.499  0.00  0.00    -0.200 OA
ENDROOT
BRANCH   1   4
ATOM      4  C   UNL d   1       2.185   2.023  -2.781  0.00  0.00     0.121 A 
ATOM      5  S   UNL d   1       3.535   1.077  -2.319  0.00  0.00    -0.074 SA
ATOM      6  C   UNL d   1       4.620   2.067  -3.192  0.00  0.00     0.035 A 
ATOM      7  C   UNL d   1       3.961   3.070  -3.867  0.00  0.00     0.023 A 
ATOM      8  C   UNL d   1       2.552   3.047  -3.632  0.00  0.00     0.034 A 
BRANCH   6   9
ATOM      9  C   UNL d   1       6.105   1.874  -3.215  0.00  0.00     0.074 A 
ATOM     10  C   UNL d   1       6.836   0.862  -2.548  0.00  0.00     0.077 A 
ATOM     11  C   UNL d   1       8.152   1.126  -2.849  0.00  0.00     0.184 A 
ATOM     12  O   UNL d   1       8.208   2.225  -3.650  0.00  0.00    -0.233 OA
ATOM     13  N   UNL d   1       6.926   2.693  -3.882  0.00  0.00    -0.260 N 
ATOM     14  HN  UNL d   1       6.661   3.499  -4.447  1.00  0.00     0.195 HD
BRANCH  11  15
ATOM     15  C   UNL d   1       9.433   0.501  -2.492  0.00  0.00     0.441 C 
ATOM     16  F   UNL d   1       9.250  -0.608  -1.728  0.00  0.00    -0.164 F 
ATOM     17  F   UNL d   1      10.140   0.111  -3.582  0.00  0.00    -0.164 F 
ATOM     18  F   UNL d   1      10.230   1.336  -1.778  0.00  0.00    -0.164 F 
ENDBRANCH  11  15
ENDBRANCH   6   9
ENDBRANCH   1   4
BRANCH   1  19
ATOM     19  N   UNL d   1       0.776   1.544  -0.420  0.00  0.00    -0.280 N 
ATOM     20  H   UNL d   1       0.279   0.786   0.041  0.00  0.00     0.179 HD
BRANCH  19  21
ATOM     21  C   UNL d   1       0.914   2.769   0.280  0.00  0.00     0.042 A 
ATOM     22  C   UNL d   1      -0.168   3.585   0.585  0.00  0.00     0.032 A 
ATOM     23  C   UNL d   1       0.028   4.729   1.378  0.00  0.00     0.031 A 
ATOM     24  C   UNL d   1       1.292   5.081   1.887  0.00  0.00     0.030 A 
ATOM     25  C   UNL d   1       2.358   4.242   1.539  0.00  0.00     0.031 A 
ATOM     26  C   UNL d   1       2.177   3.099   0.755  0.00  0.00     0.032 A 
BRANCH  24  27
ATOM     27  N   UNL d   1       1.472   6.191   2.689  0.00  0.00    -0.381 N 
ATOM     28  C   UNL d   1       2.726   6.947   2.729  0.00  0.00     0.123 C 
ATOM     29  C   UNL d   1       2.420   8.418   2.430  0.00  0.00     0.020 C 
ATOM     30  C   UNL d   1       1.334   8.974   3.352  0.00  0.00     0.003 C 
ATOM     31  C   UNL d   1       0.091   8.082   3.358  0.00  0.00     0.020 C 
ATOM     32  C   UNL d   1       0.457   6.628   3.650  0.00  0.00     0.123 C 
ENDBRANCH  24  27
ENDBRANCH  19  21
ENDBRANCH   1  19
TORSDOF 6
