REMARK  4 active torsions:
REMARK  status: ('A' for Active; 'I' for Inactive)
REMARK    1  A    between atoms: C_6  and  C_1 
REMARK    2  A    between atoms: N_15  and  C_2 
REMARK       I    between atoms: N_14  and  C_6 
REMARK    3  A    between atoms: N_10  and  N_14 
REMARK    4  A    between atoms: C_18  and  C_17 
ROOT
ATOM      1  C   UNL d   1       2.480  -0.051   0.012  0.00  0.00     0.103 A 
ATOM      2  C   UNL d   1       1.640   1.061  -0.009  0.00  0.00     0.062 A 
ATOM      3  C   UNL d   1       0.225   0.736   0.003  0.00  0.00     0.032 A 
ATOM      4  S   UNL d   1       1.574  -1.493   0.046  0.00  0.00    -0.064 SA
ATOM      5  C   UNL d   1       0.093  -0.653   0.021  0.00  0.00     0.088 A 
ATOM      6  N   UNL d   1      -1.047  -1.372   0.024  0.00  0.00    -0.354 N 
ATOM      7  HN  UNL d   1      -1.049  -2.391   0.038  1.00  0.00     0.166 HD
ATOM      8  C   UNL d   1      -0.999   1.479  -0.003  0.00  0.00    -0.045 A 
ATOM      9  C   UNL d   1      -2.201   0.737  -0.004  0.00  0.00     0.032 A 
ATOM     10  C   UNL d   1      -2.178  -0.650   0.007  0.00  0.00     0.006 A 
ATOM     11  C   UNL d   1      -1.160   2.979  -0.001  0.00  0.00     0.049 C 
ATOM     12  C   UNL d   1      -3.464  -1.426   0.006  0.00  0.00     0.068 C 
ENDROOT
BRANCH   1  13
ATOM     13  C   UNL d   1       3.946  -0.066   0.011  0.00  0.00     0.279 C 
ATOM     14  N   UNL d   1       4.588  -1.312   0.015  0.00  0.00    -0.266 N 
ATOM     15  H   UNL d   1       4.048  -2.165  -0.008  0.00  0.00     0.190 HD
ATOM     16  O   UNL d   1       4.597   0.989   0.005  0.00  0.00    -0.265 OA
BRANCH  14  17
ATOM     17  N   UNL d   1       5.957  -1.348  -0.049  0.00  0.00    -0.308 N 
ATOM     18  C   UNL d   1       6.543  -2.503  -0.043  0.00  0.00     0.118 C 
ATOM     19  HN  UNL d   1       6.501  -0.487  -0.100  1.00  0.00     0.186 HD
BRANCH  18  20
ATOM     20  C   UNL d   1       8.023  -2.596  -0.170  0.00  0.00    -0.019 A 
ATOM     21  C   UNL d   1       8.797  -1.430  -0.278  0.00  0.00     0.016 A 
ATOM     22  C   UNL d   1      10.181  -1.518  -0.447  0.00  0.00     0.043 A 
ATOM     23  C   UNL d   1      10.784  -2.768  -0.507  0.00  0.00     0.116 A 
ATOM     24  C   UNL d   1      10.030  -3.933  -0.397  0.00  0.00     0.043 A 
ATOM     25  F   UNL d   1      12.110  -2.854  -0.682  0.00  0.00    -0.206 F 
ATOM     26  C   UNL d   1       8.643  -3.850  -0.224  0.00  0.00     0.016 A 
ENDBRANCH  18  20
ENDBRANCH  14  17
ENDBRANCH   1  13
BRANCH   2  27
ATOM     27  N   UNL d   1       2.149   2.313  -0.043  0.00  0.00    -0.397 N 
ATOM     28  H   UNL d   1       3.164   2.459  -0.012  0.00  0.00     0.156 HD
ATOM     29  H   UNL d   1       1.621   3.171   0.023  0.00  0.00     0.156 HD
ENDBRANCH   2  27
TORSDOF 4
