REMARK  1 active torsions:
REMARK  status: ('A' for Active; 'I' for Inactive)
REMARK    1  A    between atoms: C_10  and  N_1 
ROOT
ATOM      1  N   UNL d   1       3.023   1.184   0.050  0.00  0.00    -0.252 N 
ATOM      2  C   UNL d   1       0.742   0.430  -0.010  0.00  0.00     0.074 A 
ATOM      3  C   UNL d   1       1.245  -0.835  -0.035  0.00  0.00     0.093 A 
ATOM      4  C   UNL d   1       3.508  -0.145   0.043  0.00  0.00     0.186 A 
ATOM      5  C   UNL d   1       1.658   1.552   0.033  0.00  0.00     0.268 A 
ATOM      6  N   UNL d   1       2.568  -1.151  -0.018  0.00  0.00    -0.326 N 
ATOM      7  S   UNL d   1       0.101  -2.063  -0.066  0.00  0.00    -0.075 SA
ATOM      8  C   UNL d   1      -0.688   0.398  -0.019  0.00  0.00    -0.026 A 
ATOM      9  C   UNL d   1      -1.159  -0.907  -0.025  0.00  0.00    -0.008 A 
ATOM     10  S   UNL d   1       5.118  -0.629   0.117  0.00  0.00    -0.040 SA
ATOM     11  O   UNL d   1       1.252   2.709   0.079  0.00  0.00    -0.267 OA
ATOM     12  C   UNL d   1      -1.613   1.579   0.016  0.00  0.00     0.041 C 
ATOM     13  C   UNL d   1      -2.605  -1.298  -0.029  0.00  0.00     0.047 C 
ATOM     14  C   UNL d   1      -3.045   1.177  -0.368  0.00  0.00     0.005 C 
ATOM     15  C   UNL d   1      -3.477  -0.096   0.374  0.00  0.00     0.005 C 
ATOM     16  H   UNL d   1       2.861  -2.120  -0.032  0.00  0.00     0.169 HD
ENDROOT
BRANCH   1  17
ATOM     17  C   UNL d   1       3.938   2.278   0.084  0.00  0.00     0.067 A 
ATOM     18  C   UNL d   1       4.397   2.887  -1.095  0.00  0.00     0.063 A 
ATOM     19  C   UNL d   1       5.291   3.957  -1.028  0.00  0.00     0.050 A 
ATOM     20 CL   UNL d   1       3.875   2.351  -2.653  0.00  0.00    -0.082 Cl
ATOM     21  C   UNL d   1       5.702   4.431   0.216  0.00  0.00     0.035 A 
ATOM     22  C   UNL d   1       5.222   3.857   1.394  0.00  0.00     0.026 A 
ATOM     23 CL   UNL d   1       6.809   5.745   0.304  0.00  0.00    -0.084 Cl
ATOM     24  C   UNL d   1       4.338   2.779   1.331  0.00  0.00     0.034 A 
ENDBRANCH   1  17
TORSDOF 1
