REMARK  5 active torsions:
REMARK  status: ('A' for Active; 'I' for Inactive)
REMARK    1  A    between atoms: C_3  and  C_1 
REMARK       I    between atoms: C_14  and  N_2 
REMARK    2  A    between atoms: C_16  and  C_9 
REMARK    3  A    between atoms: C_19  and  N_10 
REMARK    4  A    between atoms: C_20  and  C_11 
REMARK    5  A    between atoms: N_13  and  C_15 
ROOT
ATOM      1  C   UNL d   1      -0.387   1.258  -0.069  0.00  0.00     0.039 C 
ATOM      2  N   UNL d   1       0.925  -0.595  -0.329  0.00  0.00    -0.293 N 
ATOM      3  HN  UNL d   1       1.732  -1.211  -0.429  1.00  0.00     0.187 HD
ATOM      4  C   UNL d   1       0.937   0.737  -0.200  0.00  0.00     0.071 C 
ATOM      5  N   UNL d   1      -0.379  -0.957  -0.299  0.00  0.00    -0.267 N 
ATOM      6  C   UNL d   1      -1.196   0.151  -0.273  0.00  0.00     0.130 C 
ENDROOT
BRANCH   1   7
ATOM      7  C   UNL d   1      -0.759   2.649   0.347  0.00  0.00     0.293 C 
ATOM      8  N   UNL d   1      -2.165   2.843   0.655  0.00  0.00    -0.225 N 
ATOM      9  N   UNL d   1      -2.604   4.032   0.131  0.00  0.00    -0.272 N 
ATOM     10  C   UNL d   1      -2.780   2.268   1.748  0.00  0.00     0.236 C 
ATOM     11  C   UNL d   1      -1.605   4.442  -0.582  0.00  0.00     0.170 C 
ATOM     12  HN  UNL d   1      -3.507   4.486   0.270  1.00  0.00     0.189 HD
ATOM     13  O   UNL d   1      -0.510   3.642  -0.652  0.00  0.00    -0.302 OA
ATOM     14  O   UNL d   1      -2.229   1.436   2.469  0.00  0.00    -0.272 OA
ATOM     15  C   UNL d   1      -4.184   2.734   2.046  0.00  0.00     0.119 C 
BRANCH  11  16
ATOM     16  C   UNL d   1      -1.479   5.749  -1.243  0.00  0.00     0.019 A 
ATOM     17  C   UNL d   1      -0.449   6.017  -2.143  0.00  0.00     0.033 A 
ATOM     18  C   UNL d   1      -0.340   7.307  -2.633  0.00  0.00     0.088 A 
ATOM     19  N   UNL d   1      -1.169   8.314  -2.286  0.00  0.00    -0.375 N 
ATOM     20  C   UNL d   1      -2.162   8.024  -1.419  0.00  0.00     0.088 A 
ATOM     21  HN  UNL d   1      -1.051   9.254  -2.664  1.00  0.00     0.164 HD
ATOM     22  C   UNL d   1      -2.361   6.767  -0.879  0.00  0.00     0.033 A 
ENDBRANCH  11  16
ENDBRANCH   1   7
BRANCH   4  23
ATOM     23  C   UNL d   1       2.220   1.444  -0.172  0.00  0.00    -0.007 A 
ATOM     24  C   UNL d   1       2.412   2.607  -0.930  0.00  0.00     0.016 A 
ATOM     25  C   UNL d   1       3.644   3.268  -0.929  0.00  0.00     0.037 A 
ATOM     26  C   UNL d   1       4.707   2.743  -0.187  0.00  0.00     0.102 A 
ATOM     27  C   UNL d   1       4.541   1.570   0.561  0.00  0.00     0.037 A 
ATOM     28  C   UNL d   1       3.298   0.929   0.565  0.00  0.00     0.016 A 
BRANCH  26  29
ATOM     29  N   UNL d   1       6.012   3.417  -0.211  0.00  0.00    -0.116 N 
ATOM     30  O   UNL d   1       6.103   4.462  -0.873  0.00  0.00    -0.532 OA
ATOM     31  O   UNL d   1       6.939   2.905   0.428  0.00  0.00    -0.532 OA
ENDBRANCH  26  29
ENDBRANCH   4  23
BRANCH   5  32
ATOM     32  C   UNL d   1      -0.751  -2.333  -0.260  0.00  0.00     0.056 A 
ATOM     33  C   UNL d   1      -2.091  -2.731  -0.350  0.00  0.00     0.031 A 
ATOM     34  C   UNL d   1      -2.426  -4.087  -0.284  0.00  0.00     0.002 A 
ATOM     35  C   UNL d   1      -1.433  -5.051  -0.116  0.00  0.00     0.000 A 
ATOM     36  C   UNL d   1      -0.099  -4.665  -0.018  0.00  0.00     0.002 A 
ATOM     37  C   UNL d   1       0.244  -3.312  -0.095  0.00  0.00     0.031 A 
ENDBRANCH   5  32
TORSDOF 5
