REMARK  5 active torsions:
REMARK  status: ('A' for Active; 'I' for Inactive)
REMARK    1  A    between atoms: C_6  and  C_1 
REMARK    2  A    between atoms: C_13  and  N_2 
REMARK    3  A    between atoms: C_10  and  C_4 
REMARK       I    between atoms: N_8  and  C_6 
REMARK    4  A    between atoms: N_7  and  C_9 
REMARK    5  A    between atoms: C_15  and  N_8 
ROOT
ATOM      1  C   UNL d   1      -0.183   1.039  -0.090  0.00  0.00     0.057 C 
ATOM      2  N   UNL d   1       1.006  -0.882   0.213  0.00  0.00    -0.318 N 
ATOM      3  C   UNL d   1       1.014   0.512   0.406  0.00  0.00     0.029 C 
ATOM      4  C   UNL d   1      -0.329  -1.259  -0.037  0.00  0.00     0.025 C 
ATOM      5  C   UNL d   1      -1.009  -0.085  -0.351  0.00  0.00     0.045 C 
ATOM      6  C   UNL d   1       2.187   1.287   0.928  0.00  0.00     0.070 C 
ENDROOT
BRANCH   1   7
ATOM      7  C   UNL d   1      -0.481   2.484  -0.245  0.00  0.00     0.258 C 
ATOM      8  N   UNL d   1      -1.806   2.797  -0.521  0.00  0.00    -0.323 N 
ATOM      9  H   UNL d   1      -2.425   2.027  -0.722  0.00  0.00     0.169 HD
ATOM     10  O   UNL d   1       0.405   3.324  -0.151  0.00  0.00    -0.267 OA
BRANCH   8  11
ATOM     11  C   UNL d   1      -2.380   4.090  -0.527  0.00  0.00     0.037 A 
ATOM     12  C   UNL d   1      -1.702   5.252  -0.138  0.00  0.00     0.065 A 
ATOM     13  C   UNL d   1      -2.375   6.488  -0.104  0.00  0.00     0.105 A 
ATOM     14  C   UNL d   1      -3.720   6.579  -0.468  0.00  0.00     0.036 A 
ATOM     15  C   UNL d   1      -4.391   5.427  -0.870  0.00  0.00     0.005 A 
ATOM     16  C   UNL d   1      -3.730   4.197  -0.901  0.00  0.00     0.029 A 
BRANCH  13  17
ATOM     17  N   UNL d   1      -1.662   7.688   0.352  0.00  0.00    -0.116 N 
ATOM     18  O   UNL d   1      -0.492   7.562   0.737  0.00  0.00    -0.532 OA
ATOM     19  O   UNL d   1      -2.273   8.760   0.326  0.00  0.00    -0.532 OA
ENDBRANCH  13  17
ENDBRANCH   8  11
ENDBRANCH   1   7
BRANCH   2  20
ATOM     20  C   UNL d   1       2.166  -1.728   0.169  0.00  0.00     0.039 A 
ATOM     21  C   UNL d   1       3.214  -1.619   1.091  0.00  0.00     0.030 A 
ATOM     22  C   UNL d   1       4.320  -2.475   1.022  0.00  0.00     0.002 A 
ATOM     23  C   UNL d   1       4.377  -3.473   0.056  0.00  0.00     0.000 A 
ATOM     24  C   UNL d   1       3.354  -3.580  -0.879  0.00  0.00     0.002 A 
ATOM     25  C   UNL d   1       2.278  -2.686  -0.846  0.00  0.00     0.030 A 
ENDBRANCH   2  20
BRANCH   4  26
ATOM     26  C   UNL d   1      -0.972  -2.667   0.084  0.00  0.00    -0.008 C 
ATOM     27  C   UNL d   1      -1.123  -3.340  -1.294  0.00  0.00     0.021 C 
ATOM     28  C   UNL d   1      -0.258  -3.606   1.074  0.00  0.00     0.021 C 
ATOM     29  C   UNL d   1      -2.416  -2.515   0.651  0.00  0.00     0.021 C 
ENDBRANCH   4  26
TORSDOF 5
