REMARK  1 active torsions:
REMARK  status: ('A' for Active; 'I' for Inactive)
REMARK    1  A    between atoms: C_16  and  C_10 
ROOT
ATOM      1  N   UNL d   1      -0.540  -0.815   0.025  0.00  0.00    -0.213 N 
ATOM      2  C   UNL d   1      -1.906  -1.023  -0.048  0.00  0.00     0.161 A 
ATOM      3  N   UNL d   1       0.434  -1.760   0.249  0.00  0.00    -0.293 N 
ATOM      4  HN  UNL d   1       0.199  -2.703   0.562  1.00  0.00     0.187 HD
ATOM      5  C   UNL d   1      -0.408   0.551  -0.067  0.00  0.00     0.182 A 
ATOM      6  N   UNL d   1      -2.524   0.141  -0.166  0.00  0.00    -0.281 N 
ATOM      7  HN  UNL d   1      -3.532   0.277  -0.236  1.00  0.00     0.188 HD
ATOM      8  N   UNL d   1      -1.573   1.136  -0.179  0.00  0.00    -0.277 N 
ATOM      9  HN  UNL d   1      -1.744   2.139  -0.260  1.00  0.00     0.189 HD
ATOM     10  C   UNL d   1       1.671  -1.399   0.043  0.00  0.00     0.046 C 
ATOM     11  S   UNL d   1       1.136   1.303   0.023  0.00  0.00    -0.085 SA
ATOM     12  C   UNL d   1      -2.562  -2.300  -0.022  0.00  0.00     0.052 A 
ATOM     13  S   UNL d   1      -4.170  -2.454   0.558  0.00  0.00    -0.098 SA
ATOM     14  C   UNL d   1       2.106  -0.085  -0.597  0.00  0.00     0.142 C 
ATOM     15  C   UNL d   1      -2.068  -3.523  -0.438  0.00  0.00     0.023 A 
ATOM     16  C   UNL d   1      -4.189  -4.139   0.272  0.00  0.00     0.050 A 
ATOM     17  C   UNL d   1      -3.006  -4.584  -0.270  0.00  0.00     0.009 A 
ENDROOT
BRANCH  10  18
ATOM     18  C   UNL d   1       2.751  -2.373   0.401  0.00  0.00    -0.011 A 
ATOM     19  C   UNL d   1       3.960  -2.420  -0.303  0.00  0.00     0.013 A 
ATOM     20  C   UNL d   1       4.968  -3.302   0.096  0.00  0.00     0.001 A 
ATOM     21  C   UNL d   1       4.769  -4.145   1.188  0.00  0.00     0.000 A 
ATOM     22  C   UNL d   1       3.556  -4.123   1.874  0.00  0.00     0.001 A 
ATOM     23  C   UNL d   1       2.546  -3.243   1.480  0.00  0.00     0.013 A 
ENDBRANCH  10  18
TORSDOF 1
