REMARK  7 active torsions:
REMARK  status: ('A' for Active; 'I' for Inactive)
REMARK    1  A    between atoms: N_5  and  C_1 
REMARK    2  A    between atoms: C_6  and  N_5 
REMARK    3  A    between atoms: N_9  and  C_6 
REMARK    4  A    between atoms: C_11  and  N_9 
REMARK    5  A    between atoms: O_17  and  C_13 
REMARK    6  A    between atoms: O_18  and  C_15 
REMARK    7  A    between atoms: C_21  and  O_18 
ROOT
ATOM      1  N   UNL d   1      -3.187  -1.243   1.028  0.00  0.00    -0.313 N 
ATOM      2  H   UNL d   1      -3.348  -2.238   0.951  0.00  0.00     0.170 HD
ENDROOT
BRANCH   1   3
ATOM      3  C   UNL d   1      -1.864  -0.899   0.884  0.00  0.00     0.152 C 
ATOM      4  N   UNL d   1      -0.930  -1.728   0.483  0.00  0.00    -0.335 N 
ATOM      5  C   UNL d   1       0.272  -1.040   0.400  0.00  0.00     0.051 A 
ATOM      6  HN  UNL d   1      -1.066  -2.715   0.267  1.00  0.00     0.168 HD
ATOM      7  C   UNL d   1       1.486  -1.524  -0.131  0.00  0.00     0.034 A 
ATOM      8  C   UNL d   1       0.243   0.267   0.894  0.00  0.00     0.037 A 
ATOM      9  C   UNL d   1       2.613  -0.685  -0.188  0.00  0.00     0.039 A 
ATOM     10  C   UNL d   1       2.551   0.617   0.300  0.00  0.00     0.070 A 
ATOM     11  C   UNL d   1       1.371   1.097   0.876  0.00  0.00     0.058 A 
ATOM     12  S   UNL d   1      -1.337   0.614   1.468  0.00  0.00    -0.052 SA
BRANCH  10  13
ATOM     13  O   UNL d   1       3.561   1.538   0.281  0.00  0.00    -0.351 OA
BRANCH  13  14
ATOM     14  C   UNL d   1       4.734   1.218  -0.462  0.00  0.00     0.171 C 
ATOM     15  C   UNL d   1       5.589   2.473  -0.523  0.00  0.00     0.034 C 
ENDBRANCH  13  14
ENDBRANCH  10  13
ENDBRANCH   1   3
BRANCH   1  16
ATOM     16  C   UNL d   1      -4.249  -0.472   0.608  0.00  0.00     0.178 C 
ATOM     17  S   UNL d   1      -4.234   0.804  -0.483  0.00  0.00    -0.040 SA
BRANCH  16  18
ATOM     18  N   UNL d   1      -5.485  -0.899   1.013  0.00  0.00    -0.331 N 
ATOM     19  H   UNL d   1      -6.261  -0.501   0.491  0.00  0.00     0.168 HD
BRANCH  18  20
ATOM     20  C   UNL d   1      -5.868  -1.588   2.185  0.00  0.00     0.068 A 
ATOM     21  C   UNL d   1      -7.143  -2.176   2.255  0.00  0.00     0.095 A 
ATOM     22  C   UNL d   1      -7.609  -2.688   3.470  0.00  0.00     0.039 A 
ATOM     23  C   UNL d   1      -6.812  -2.633   4.613  0.00  0.00     0.003 A 
ATOM     24  C   UNL d   1      -5.543  -2.068   4.545  0.00  0.00     0.002 A 
ATOM     25  C   UNL d   1      -5.069  -1.555   3.336  0.00  0.00     0.032 A 
BRANCH  21  26
ATOM     26  O   UNL d   1      -8.045  -2.234   1.222  0.00  0.00    -0.354 OA
ATOM     27  C   UNL d   1      -7.535  -2.728  -0.016  0.00  0.00     0.210 C 
ENDBRANCH  21  26
ENDBRANCH  18  20
ENDBRANCH  16  18
ENDBRANCH   1  16
TORSDOF 7
