REMARK  5 active torsions:
REMARK  status: ('A' for Active; 'I' for Inactive)
REMARK       I    between atoms: N_8  and  C1_1 
REMARK    1  A    between atoms: O1_2  and  C1_1 
REMARK    2  A    between atoms: C4_4  and  O1_2 
REMARK    3  A    between atoms: CA_10  and  N_8 
REMARK    4  A    between atoms: OXT_12  and  C_9 
REMARK    5  A    between atoms: CA_10  and  C_9 
ROOT
ATOM      1  C1  <1> d   1       2.670  -1.047  -1.704  0.00  0.00     0.362 C 
ATOM      2  O2  <1> d   1       3.826  -1.426  -1.804  0.00  0.00    -0.238 OA
ATOM      3  N   ALA d   1       1.979  -0.632  -2.815  0.00  0.00    -0.323 N 
ATOM      4  H   ALA d   1       2.577  -0.527  -3.626  0.00  0.00     0.165 HD
ENDROOT
BRANCH   3   5
ATOM      5  CA  ALA d   1       0.692   0.079  -2.793  0.00  0.00     0.180 C 
ATOM      6  CB  ALA d   1       0.543   0.925  -4.058  0.00  0.00     0.043 C 
BRANCH   5   7
ATOM      7  C   ALA d   1      -0.498  -0.895  -2.724  0.00  0.00     0.163 C 
ATOM      8  O   ALA d   1      -1.665  -0.545  -2.642  0.00  0.00    -0.648 OA
BRANCH   7   9
ATOM      9  OXT ALA d   1      -0.138  -2.197  -2.833  0.00  0.00    -0.775 OA
ATOM     10  HXT ALA d   1       0.836  -2.269  -2.904  0.00  0.00     0.167 HD
ENDBRANCH   7   9
ENDBRANCH   5   7
ENDBRANCH   3   5
BRANCH   1  11
ATOM     11  O1  <1> d   1       1.919  -1.037  -0.590  0.00  0.00    -0.294 OA
BRANCH  11  12
ATOM     12  C4  <1> d   1       2.465  -1.562   0.659  0.00  0.00     0.061 C 
ATOM     13  C6  <1> d   1       3.749  -0.828   1.077  0.00  0.00     0.046 C 
ATOM     14  C7  <1> d   1       1.375  -1.305   1.712  0.00  0.00     0.046 C 
ATOM     15  C8  <1> d   1       2.686  -3.076   0.545  0.00  0.00     0.046 C 
ENDBRANCH  11  12
ENDBRANCH   1  11
TORSDOF 5
