REMARK  2 active torsions:
REMARK  status: ('A' for Active; 'I' for Inactive)
REMARK       I    between atoms: C_2  and  N_1 
REMARK    1  A    between atoms: C_5  and  C_2 
REMARK    2  A    between atoms: N_3  and  C_5 
ROOT
ATOM      1  N   UNL d   1       1.103   2.188   1.166  0.00  0.00    -0.316 N 
ATOM      2  C   UNL d   1       1.848   2.245  -0.011  0.00  0.00     0.242 C 
ATOM      3  C   UNL d   1      -0.286   1.957   1.269  0.00  0.00     0.043 A 
ATOM      4  C   UNL d   1       1.620   2.450   2.519  0.00  0.00     0.137 C 
ATOM      5  C   UNL d   1      -0.668   1.949   2.615  0.00  0.00    -0.030 A 
ATOM      6  O   UNL d   1       1.393   1.968  -1.123  0.00  0.00    -0.271 OA
ATOM      7  C   UNL d   1       0.512   2.103   3.515  0.00  0.00     0.061 C 
ATOM      8  C   UNL d   1      -1.232   1.780   0.273  0.00  0.00     0.030 A 
ATOM      9  C   UNL d   1      -1.991   1.770   2.997  0.00  0.00     0.009 A 
ATOM     10  C   UNL d   1      -2.575   1.603   0.650  0.00  0.00     0.002 A 
ATOM     11  C   UNL d   1      -2.949   1.603   1.998  0.00  0.00     0.001 A 
ENDROOT
BRANCH   2  12
ATOM     12  C   UNL d   1       3.323   2.691   0.140  0.00  0.00     0.226 C 
BRANCH  12  13
ATOM     13  N   UNL d   1       4.322   1.608   0.115  0.00  0.00    -0.372 N 
ATOM     14  C   UNL d   1       5.694   1.885   0.070  0.00  0.00     0.036 A 
ATOM     15  C   UNL d   1       6.608   0.853  -0.240  0.00  0.00    -0.032 A 
ATOM     16  C   UNL d   1       6.225   3.158   0.331  0.00  0.00     0.030 A 
ATOM     17  C   UNL d   1       7.991   1.107  -0.292  0.00  0.00     0.009 A 
ATOM     18  C   UNL d   1       6.139  -0.562  -0.488  0.00  0.00     0.042 C 
ATOM     19  C   UNL d   1       8.488   2.374  -0.008  0.00  0.00     0.001 A 
ATOM     20  C   UNL d   1       7.605   3.397   0.313  0.00  0.00     0.002 A 
ATOM     21  C   UNL d   1       4.624  -0.729  -0.438  0.00  0.00     0.024 C 
ATOM     22  C   UNL d   1       4.001   0.252   0.543  0.00  0.00     0.124 C 
ENDBRANCH  12  13
ENDBRANCH   2  12
TORSDOF 2
