REMARK  4 active torsions:
REMARK  status: ('A' for Active; 'I' for Inactive)
REMARK    1  A    between atoms: C_3  and  C_1 
REMARK    2  A    between atoms: C_16  and  N_2 
REMARK    3  A    between atoms: C_12  and  C_4 
REMARK    4  A    between atoms: C_17  and  C_11 
ROOT
ATOM      1  C   UNL d   1      -0.361  -2.744  -0.095  0.00  0.00     0.054 A 
ATOM      2  C   UNL d   1       0.021  -3.513   1.002  0.00  0.00     0.059 A 
ATOM      3  N   UNL d   1      -0.172  -4.861   1.016  0.00  0.00    -0.339 N 
ATOM      4  HN  UNL d   1       0.105  -5.412   1.828  1.00  0.00     0.167 HD
ATOM      5  C   UNL d   1      -0.734  -5.462  -0.054  0.00  0.00     0.133 A 
ATOM      6  N   UNL d   1      -1.133  -4.790  -1.147  0.00  0.00    -0.349 N 
ATOM      7  HN  UNL d   1      -1.575  -5.261  -1.937  1.00  0.00     0.166 HD
ATOM      8  C   UNL d   1      -0.917  -3.463  -1.145  0.00  0.00     0.107 A 
ENDROOT
BRANCH   1   9
ATOM      9  C   UNL d   1      -0.145  -1.308  -0.246  0.00  0.00     0.152 A 
ATOM     10  N   UNL d   1      -1.026  -0.380  -0.803  0.00  0.00    -0.224 N 
ATOM     11  N   UNL d   1      -0.342   0.763  -1.035  0.00  0.00     0.001 NA
ATOM     12  N   UNL d   1       0.852   0.591  -0.495  0.00  0.00    -0.007 NA
ATOM     13  N   UNL d   1       0.995  -0.680  -0.016  0.00  0.00    -0.269 N 
ATOM     14  HN  UNL d   1       1.823  -1.071   0.432  1.00  0.00     0.185 HD
BRANCH  10  15
ATOM     15  C   UNL d   1      -2.386  -0.512  -1.174  0.00  0.00     0.056 A 
ATOM     16  C   UNL d   1      -3.249  -1.366  -0.475  0.00  0.00     0.031 A 
ATOM     17  C   UNL d   1      -4.553  -1.563  -0.934  0.00  0.00     0.002 A 
ATOM     18  C   UNL d   1      -4.995  -0.911  -2.085  0.00  0.00     0.000 A 
ATOM     19  C   UNL d   1      -4.150  -0.029  -2.758  0.00  0.00     0.002 A 
ATOM     20  C   UNL d   1      -2.853   0.191  -2.293  0.00  0.00     0.031 A 
ENDBRANCH  10  15
ENDBRANCH   1   9
BRANCH   2  21
ATOM     21  C   UNL d   1       0.657  -3.012   2.252  0.00  0.00    -0.003 A 
ATOM     22  C   UNL d   1       0.372  -1.758   2.821  0.00  0.00     0.056 A 
ATOM     23  C   UNL d   1       1.004  -1.334   3.993  0.00  0.00     0.120 A 
ATOM     24  F   UNL d   1       0.716  -0.121   4.485  0.00  0.00    -0.206 F 
ATOM     25  C   UNL d   1       1.907  -2.142   4.660  0.00  0.00     0.084 A 
ATOM     26  C   UNL d   1       2.176  -3.393   4.136  0.00  0.00     0.120 A 
ATOM     27  C   UNL d   1       1.571  -3.826   2.955  0.00  0.00     0.056 A 
ATOM     28  F   UNL d   1       3.028  -4.205   4.777  0.00  0.00    -0.206 F 
ENDBRANCH   2  21
BRANCH   5  29
ATOM     29  C   UNL d   1      -0.907  -6.939  -0.060  0.00  0.00     0.076 A 
ATOM     30  N   UNL d   1      -0.431  -7.636   1.011  0.00  0.00    -0.363 N 
ATOM     31  C   UNL d   1      -0.564  -8.982   1.000  0.00  0.00     0.088 A 
ATOM     32  HN  UNL d   1       0.010  -7.157   1.795  1.00  0.00     0.165 HD
ATOM     33  C   UNL d   1      -1.153  -9.694  -0.029  0.00  0.00     0.017 A 
ATOM     34  C   UNL d   1      -1.642  -8.987  -1.117  0.00  0.00     0.004 A 
ATOM     35  C   UNL d   1      -1.518  -7.597  -1.133  0.00  0.00     0.033 A 
ENDBRANCH   5  29
TORSDOF 4
