REMARK  3 active torsions:
REMARK  status: ('A' for Active; 'I' for Inactive)
REMARK    1  A    between atoms: N_6  and  C_1 
REMARK    2  A    between atoms: C_9  and  N_2 
REMARK       I    between atoms: C_7  and  N_6 
REMARK    3  A    between atoms: C_11  and  C_7 
ROOT
ATOM      1  C   UNL d   1      -0.475  -1.178  -0.052  0.00  0.00     0.132 C 
ATOM      2  N   UNL d   1       0.829  -0.754   0.185  0.00  0.00    -0.240 N 
ATOM      3  N   UNL d   1       0.874   0.583   0.437  0.00  0.00    -0.297 N 
ATOM      4  HN  UNL d   1       1.656   1.123   0.807  1.00  0.00     0.187 HD
ATOM      5  C   UNL d   1      -1.218  -0.030  -0.219  0.00  0.00     0.076 C 
ATOM      6  C   UNL d   1      -0.340   1.029   0.092  0.00  0.00     0.026 C 
ATOM      7  C   UNL d   1      -0.629   2.484   0.089  0.00  0.00     0.070 C 
ENDROOT
BRANCH   1   8
ATOM      8  N   UNL d   1      -0.876  -2.508  -0.082  0.00  0.00    -0.307 N 
ATOM      9  C   UNL d   1      -1.721  -2.951  -1.081  0.00  0.00     0.257 C 
ATOM     10  O   UNL d   1      -2.137  -2.269  -2.018  0.00  0.00    -0.267 OA
ATOM     11  H   UNL d   1      -0.292  -3.196   0.384  0.00  0.00     0.170 HD
BRANCH   9  12
ATOM     12  C   UNL d   1      -2.044  -4.400  -1.051  0.00  0.00     0.032 A 
ATOM     13  C   UNL d   1      -2.271  -5.071   0.157  0.00  0.00     0.017 A 
ATOM     14  C   UNL d   1      -2.653  -6.415   0.141  0.00  0.00     0.001 A 
ATOM     15  C   UNL d   1      -2.802  -7.088  -1.073  0.00  0.00     0.000 A 
ATOM     16  C   UNL d   1      -2.561  -6.425  -2.276  0.00  0.00     0.001 A 
ATOM     17  C   UNL d   1      -2.184  -5.082  -2.266  0.00  0.00     0.017 A 
ENDBRANCH   9  12
ENDBRANCH   1   8
BRANCH   2  18
ATOM     18  C   UNL d   1       2.034  -1.505   0.076  0.00  0.00     0.058 A 
ATOM     19  C   UNL d   1       2.095  -2.661  -0.718  0.00  0.00     0.031 A 
ATOM     20  C   UNL d   1       3.291  -3.369  -0.841  0.00  0.00     0.002 A 
ATOM     21  C   UNL d   1       4.432  -2.926  -0.178  0.00  0.00     0.000 A 
ATOM     22  C   UNL d   1       4.385  -1.764   0.593  0.00  0.00     0.002 A 
ATOM     23  C   UNL d   1       3.194  -1.045   0.711  0.00  0.00     0.031 A 
ENDBRANCH   2  18
TORSDOF 3
