REMARK  2 active torsions:
REMARK  status: ('A' for Active; 'I' for Inactive)
REMARK    1  A    between atoms: C_14  and  N_7 
REMARK    2  A    between atoms: C_13  and  C_14 
ROOT
ATOM      1  N   UNL d   1       0.696   0.374  -0.034  0.00  0.00    -0.251 N 
ATOM      2  C   UNL d   1       1.277  -0.871  -0.044  0.00  0.00     0.174 A 
ATOM      3  C   UNL d   1       1.474   1.512  -0.041  0.00  0.00     0.324 A 
ATOM      4  C   UNL d   1       2.993   1.271  -0.025  0.00  0.00     0.331 A 
ATOM      5  N   UNL d   1       2.538  -1.127  -0.053  0.00  0.00    -0.274 N 
ATOM      6  HN  UNL d   1       2.882  -2.087  -0.068  1.00  0.00     0.189 HD
ATOM      7  N   UNL d   1       3.406  -0.060  -0.043  0.00  0.00    -0.247 N 
ATOM      8  S   UNL d   1       0.079  -2.154  -0.029  0.00  0.00    -0.050 SA
ATOM      9  C   UNL d   1      -0.724   0.342  -0.019  0.00  0.00     0.062 A 
ATOM     10  C   UNL d   1      -1.230  -0.964  -0.012  0.00  0.00     0.035 A 
ATOM     11  O   UNL d   1       1.061   2.667  -0.047  0.00  0.00    -0.261 OA
ATOM     12  O   UNL d   1       3.753   2.233   0.023  0.00  0.00    -0.260 OA
ATOM     13  C   UNL d   1      -1.606   1.416  -0.010  0.00  0.00     0.031 A 
ATOM     14  C   UNL d   1      -2.591  -1.227   0.002  0.00  0.00     0.021 A 
ATOM     15  C   UNL d   1      -2.984   1.164   0.001  0.00  0.00     0.002 A 
ATOM     16  C   UNL d   1      -3.474  -0.148   0.006  0.00  0.00     0.002 A 
ENDROOT
BRANCH   7  17
ATOM     17  C   UNL d   1       4.827  -0.383   0.054  0.00  0.00     0.179 C 
BRANCH  17  18
ATOM     18  C   UNL d   1       5.405  -0.602  -1.314  0.00  0.00    -0.015 C 
ATOM     19  C   UNL d   1       6.490   0.030  -1.782  0.00  0.00     0.008 C 
ENDBRANCH  17  18
ENDBRANCH   7  17
TORSDOF 2
