REMARK  6 active torsions:
REMARK  status: ('A' for Active; 'I' for Inactive)
REMARK    1  A    between atoms: C_9  and  C_1 
REMARK    2  A    between atoms: C_7  and  O_12 
REMARK    3  A    between atoms: C_8  and  C_7 
REMARK    4  A    between atoms: O_22  and  C_9 
REMARK    5  A    between atoms: O_12  and  C_14 
REMARK    6  A    between atoms: C_23  and  O_22 
ROOT
ATOM      1  C   UNL d   1      -1.853  -1.659   0.009  0.00  0.00     0.154 A 
ATOM      2  C   UNL d   1      -2.417  -0.446  -0.091  0.00  0.00     0.099 A 
ATOM      3  C   UNL d   1       0.357  -0.817  -0.079  0.00  0.00     0.093 A 
ATOM      4  O   UNL d   1      -0.486  -1.892   0.042  0.00  0.00    -0.303 OA
ATOM      5  C   UNL d   1      -1.552   0.737  -0.180  0.00  0.00     0.187 A 
ATOM      6  C   UNL d   1      -0.103   0.491  -0.207  0.00  0.00     0.048 A 
ATOM      7  C   UNL d   1       1.727  -1.073  -0.073  0.00  0.00     0.075 A 
ATOM      8  C   UNL d   1       0.798   1.549  -0.356  0.00  0.00     0.021 A 
ATOM      9  C   UNL d   1       2.630  -0.014  -0.215  0.00  0.00     0.082 A 
ATOM     10  O   UNL d   1      -2.026   1.863  -0.223  0.00  0.00    -0.287 OA
ATOM     11  C   UNL d   1       2.172   1.294  -0.366  0.00  0.00     0.038 A 
ENDROOT
BRANCH   9  12
ATOM     12  O   UNL d   1       3.995  -0.391  -0.183  0.00  0.00    -0.275 OA
BRANCH  12  13
ATOM     13  C   UNL d   1       5.112   0.450  -0.298  0.00  0.00     0.305 C 
ATOM     14  O   UNL d   1       5.062   1.662  -0.468  0.00  0.00    -0.258 OA
BRANCH  13  15
ATOM     15  C   UNL d   1       6.348  -0.307  -0.193  0.00  0.00     0.080 A 
ATOM     16  S   UNL d   1       6.385  -1.994   0.116  0.00  0.00    -0.096 SA
ATOM     17  C   UNL d   1       8.093  -2.038   0.081  0.00  0.00     0.050 A 
ATOM     18  C   UNL d   1       8.636  -0.797  -0.160  0.00  0.00     0.009 A 
ATOM     19  C   UNL d   1       7.631   0.201  -0.314  0.00  0.00     0.025 A 
ENDBRANCH  13  15
ENDBRANCH  12  13
ENDBRANCH   9  12
BRANCH   1  20
ATOM     20  C   UNL d   1      -2.773  -2.822   0.140  0.00  0.00     0.317 C 
ATOM     21  O   UNL d   1      -3.992  -2.740   0.166  0.00  0.00    -0.257 OA
BRANCH  20  22
ATOM     22  O   UNL d   1      -2.046  -3.958   0.288  0.00  0.00    -0.316 OA
BRANCH  22  23
ATOM     23  C   UNL d   1      -2.788  -5.121   0.681  0.00  0.00     0.175 C 
ATOM     24  C   UNL d   1      -2.863  -5.158   2.196  0.00  0.00     0.034 C 
ENDBRANCH  22  23
ENDBRANCH  20  22
ENDBRANCH   1  20
TORSDOF 6
