REMARK  4 active torsions:
REMARK  status: ('A' for Active; 'I' for Inactive)
REMARK    1  A    between atoms: N_8  and  C_2 
REMARK    2  A    between atoms: C_15  and  N_3 
REMARK    3  A    between atoms: C_7  and  C_6 
REMARK    4  A    between atoms: C_18  and  C_10 
ROOT
ATOM      1  C   UNL d   1      -2.898  -2.731   0.128  0.00  0.00     0.120 C 
ATOM      2  C   UNL d   1      -3.888  -3.687   0.005  0.00  0.00     0.157 C 
ATOM      3  N   UNL d   1      -5.085  -2.998  -0.064  0.00  0.00    -0.237 N 
ATOM      4  N   UNL d   1      -4.875  -1.663  -0.236  0.00  0.00    -0.289 N 
ATOM      5  HN  UNL d   1      -5.565  -0.957  -0.493  1.00  0.00     0.188 HD
ATOM      6  C   UNL d   1      -3.563  -1.472   0.003  0.00  0.00     0.094 C 
ATOM      7  C   UNL d   1      -1.490  -2.970   0.176  0.00  0.00     0.106 C 
ATOM      8  N   UNL d   1      -0.349  -3.179   0.190  0.00  0.00    -0.191 NA
ENDROOT
BRANCH   2   9
ATOM      9  N   UNL d   1      -3.750  -5.074  -0.126  0.00  0.00    -0.316 N 
ATOM     10  C   UNL d   1      -4.569  -5.922  -0.852  0.00  0.00     0.098 A 
ATOM     11  C   UNL d   1      -4.144  -7.222  -0.701  0.00  0.00     0.019 A 
ATOM     12  C   UNL d   1      -2.987  -7.184   0.097  0.00  0.00     0.019 A 
ATOM     13  C   UNL d   1      -2.750  -5.863   0.410  0.00  0.00     0.098 A 
ENDBRANCH   2   9
BRANCH   6  14
ATOM     14  C   UNL d   1      -2.940  -0.156   0.033  0.00  0.00     0.075 C 
ATOM     15  C   UNL d   1      -3.410   0.894  -0.676  0.00  0.00     0.036 C 
ATOM     16  C   UNL d   1      -1.796   0.017   0.882  0.00  0.00     0.102 C 
ATOM     17  N   UNL d   1      -0.878   0.138   1.578  0.00  0.00    -0.191 NA
BRANCH  15  18
ATOM     18  C   UNL d   1      -2.773   2.221  -0.711  0.00  0.00    -0.032 A 
ATOM     19  C   UNL d   1      -3.105   3.201   0.235  0.00  0.00     0.051 A 
ATOM     20  C   UNL d   1      -2.422   4.401   0.189  0.00  0.00     0.105 A 
ATOM     21  O   UNL d   1      -2.602   5.452   1.035  0.00  0.00    -0.323 OA
ATOM     22  C   UNL d   1      -1.449   4.649  -0.750  0.00  0.00     0.105 A 
ATOM     23  C   UNL d   1      -1.604   6.372   0.544  0.00  0.00     0.352 A 
ATOM     24  O   UNL d   1      -0.895   5.883  -0.613  0.00  0.00    -0.323 OA
ATOM     25  C   UNL d   1      -1.105   3.714  -1.700  0.00  0.00     0.040 A 
ATOM     26  C   UNL d   1      -1.775   2.485  -1.677  0.00  0.00     0.014 A 
ENDBRANCH  15  18
ENDBRANCH   6  14
BRANCH   3  27
ATOM     27  C   UNL d   1      -6.409  -3.499   0.082  0.00  0.00     0.058 A 
ATOM     28  C   UNL d   1      -6.672  -4.579   0.941  0.00  0.00     0.031 A 
ATOM     29  C   UNL d   1      -7.934  -5.173   0.954  0.00  0.00     0.002 A 
ATOM     30  C   UNL d   1      -8.940  -4.681   0.126  0.00  0.00     0.000 A 
ATOM     31  C   UNL d   1      -8.701  -3.567  -0.680  0.00  0.00     0.002 A 
ATOM     32  C   UNL d   1      -7.443  -2.956  -0.689  0.00  0.00     0.031 A 
ENDBRANCH   3  27
TORSDOF 4
