REMARK  2 active torsions:
REMARK  status: ('A' for Active; 'I' for Inactive)
REMARK    1  A    between atoms: C_6  and  C_1 
REMARK    2  A    between atoms: N_7  and  C_6 
ROOT
ATOM      1  C   UNL d   1      -1.495  -1.201  -0.068  0.00  0.00    -0.002 A 
ATOM      2  N   UNL d   1      -1.559   1.032  -0.011  0.00  0.00    -0.365 N 
ATOM      3  C   UNL d   1      -2.329  -0.099   0.007  0.00  0.00     0.098 A 
ATOM      4  C   UNL d   1      -0.155  -0.693  -0.139  0.00  0.00    -0.000 A 
ATOM      5  C   UNL d   1      -0.227   0.698  -0.075  0.00  0.00     0.043 A 
ATOM      6  C   UNL d   1       1.120  -1.294  -0.237  0.00  0.00     0.014 A 
ATOM      7  C   UNL d   1       0.908   1.519  -0.076  0.00  0.00     0.030 A 
ATOM      8  C   UNL d   1       2.265  -0.488  -0.243  0.00  0.00     0.001 A 
ATOM      9  C   UNL d   1       2.158   0.896  -0.156  0.00  0.00     0.002 A 
ATOM     10  H   UNL d   1      -1.912   1.977   0.031  0.00  0.00     0.165 HD
ENDROOT
BRANCH   1  11
ATOM     11  C   UNL d   1      -1.905  -2.643  -0.029  0.00  0.00     0.312 C 
BRANCH  11  12
ATOM     12  N   UNL d   1      -2.887  -2.962  -1.080  0.00  0.00     0.084 N 
ATOM     13  C   UNL d   1      -2.299  -2.867  -2.419  0.00  0.00     0.309 C 
ATOM     14  C   UNL d   1      -3.404  -4.317  -0.869  0.00  0.00     0.309 C 
ENDBRANCH  11  12
ENDBRANCH   1  11
TORSDOF 2
