REMARK  2 active torsions:
REMARK  status: ('A' for Active; 'I' for Inactive)
REMARK    1  A    between atoms: C_6  and  C_3 
REMARK    2  A    between atoms: C_19  and  C_7 
ROOT
ATOM      1  C   UNL d   1       0.579   2.593  -0.027  0.00  0.00     0.051 A 
ATOM      2  S   UNL d   1      -0.507   3.823   0.427  0.00  0.00    -0.084 SA
ATOM      3  C   UNL d   1       0.656   5.054   0.159  0.00  0.00     0.041 A 
ATOM      4  C   UNL d   1       0.378   6.443   0.399  0.00  0.00     0.117 A 
ATOM      5  C   UNL d   1       1.802   3.102  -0.410  0.00  0.00     0.024 A 
ATOM      6  C   UNL d   1       1.845   4.524  -0.301  0.00  0.00     0.023 A 
ATOM      7  N   UNL d   1       0.792   8.666   0.513  0.00  0.00    -0.272 N 
ATOM      8  HN  UNL d   1       1.264   9.569   0.465  1.00  0.00     0.194 HD
ATOM      9  O   UNL d   1       1.323   7.423   0.214  0.00  0.00    -0.237 OA
ATOM     10  C   UNL d   1      -0.778   7.062   0.832  0.00  0.00     0.059 A 
ATOM     11  C   UNL d   1      -0.468   8.430   0.878  0.00  0.00     0.117 A 
ENDROOT
BRANCH   1  12
ATOM     12  C   UNL d   1       0.274   1.131   0.009  0.00  0.00     0.144 A 
ATOM     13  N   UNL d   1       1.226   0.187  -0.293  0.00  0.00    -0.322 N 
ATOM     14  C   UNL d   1       0.596  -0.936  -0.041  0.00  0.00     0.152 A 
ATOM     15  HN  UNL d   1       2.180   0.324  -0.627  1.00  0.00     0.169 HD
ATOM     16  O   UNL d   1      -0.697  -0.755   0.355  0.00  0.00    -0.222 OA
ATOM     17  N   UNL d   1      -0.910   0.624   0.384  0.00  0.00    -0.242 N 
ATOM     18  HN  UNL d   1      -1.763   1.126   0.632  1.00  0.00     0.196 HD
BRANCH  14  19
ATOM     19  C   UNL d   1       1.118  -2.330  -0.038  0.00  0.00     0.055 C 
ATOM     20  C   UNL d   1       1.643  -2.721  -1.417  0.00  0.00     0.018 C 
ATOM     21  C   UNL d   1       2.218  -2.462   1.016  0.00  0.00     0.018 C 
ENDBRANCH  14  19
ENDBRANCH   1  12
TORSDOF 2
