REMARK  6 active torsions:
REMARK  status: ('A' for Active; 'I' for Inactive)
REMARK    1  A    between atoms: C_10  and  N_1 
REMARK    2  A    between atoms: C_9  and  C_2 
REMARK    3  A    between atoms: C_8  and  C_7 
REMARK    4  A    between atoms: C_15  and  C_8 
REMARK    5  A    between atoms: C_11  and  N_16 
REMARK    6  A    between atoms: N_16  and  C_12 
ROOT
ATOM      1  N   UNL d   1       3.656  -3.457  -0.244  0.00  0.00    -0.365 N 
ATOM      2  H   UNL d   1       4.511  -2.918  -0.054  0.00  0.00     0.165 HD
ENDROOT
BRANCH   1   3
ATOM      3  C   UNL d   1       3.841  -4.860  -0.184  0.00  0.00     0.046 A 
ATOM      4  C   UNL d   1       4.721  -5.451   0.749  0.00  0.00     0.043 A 
ATOM      5  C   UNL d   1       4.818  -6.853   0.841  0.00  0.00     0.041 A 
ATOM      6  C   UNL d   1       3.994  -7.665   0.065  0.00  0.00     0.035 A 
ATOM      7  C   UNL d   1       3.119  -7.104  -0.852  0.00  0.00     0.026 A 
ATOM      8 CL   UNL d   1       4.054  -9.372   0.253  0.00  0.00    -0.084 Cl
ATOM      9  C   UNL d   1       3.063  -5.718  -0.987  0.00  0.00     0.032 A 
BRANCH   4  10
ATOM     10  C   UNL d   1       5.570  -4.606   1.635  0.00  0.00     0.194 C 
ATOM     11  O   UNL d   1       6.016  -3.543   1.200  0.00  0.00    -0.287 OA
BRANCH  10  12
ATOM     12  C   UNL d   1       5.902  -5.020   3.030  0.00  0.00     0.015 A 
ATOM     13  C   UNL d   1       5.007  -5.766   3.812  0.00  0.00     0.015 A 
ATOM     14  C   UNL d   1       5.356  -6.141   5.112  0.00  0.00     0.001 A 
ATOM     15  C   UNL d   1       6.585  -5.755   5.646  0.00  0.00     0.000 A 
ATOM     16  C   UNL d   1       7.470  -4.997   4.880  0.00  0.00     0.001 A 
ATOM     17  C   UNL d   1       7.130  -4.628   3.576  0.00  0.00     0.015 A 
ENDBRANCH  10  12
ENDBRANCH   4  10
ENDBRANCH   1   3
BRANCH   1  18
ATOM     18  C   UNL d   1       2.557  -2.775  -0.722  0.00  0.00     0.092 C 
ATOM     19  C   UNL d   1       1.279  -3.166  -0.609  0.00  0.00     0.068 C 
BRANCH  19  20
ATOM     20  C   UNL d   1       0.192  -2.495  -1.215  0.00  0.00     0.139 C 
ATOM     21  N   UNL d   1      -1.131  -2.896  -1.006  0.00  0.00    -0.225 N 
ATOM     22  N   UNL d   1      -1.883  -2.348  -1.992  0.00  0.00     0.001 NA
ATOM     23  N   UNL d   1      -1.091  -1.508  -2.636  0.00  0.00    -0.007 NA
ATOM     24  N   UNL d   1       0.189  -1.579  -2.168  0.00  0.00    -0.270 N 
ATOM     25  HN  UNL d   1       0.987  -1.033  -2.491  1.00  0.00     0.185 HD
BRANCH  21  26
ATOM     26  C   UNL d   1      -1.739  -3.688   0.010  0.00  0.00     0.056 A 
ATOM     27  C   UNL d   1      -1.153  -3.834   1.278  0.00  0.00     0.034 A 
ATOM     28  C   UNL d   1      -1.796  -4.585   2.267  0.00  0.00     0.044 A 
ATOM     29  C   UNL d   1      -3.022  -5.178   1.995  0.00  0.00     0.116 A 
ATOM     30  C   UNL d   1      -3.621  -5.039   0.750  0.00  0.00     0.044 A 
ATOM     31  F   UNL d   1      -3.642  -5.877   2.954  0.00  0.00    -0.206 F 
ATOM     32  C   UNL d   1      -2.986  -4.288  -0.244  0.00  0.00     0.034 A 
ENDBRANCH  21  26
ENDBRANCH  19  20
ENDBRANCH   1  18
TORSDOF 6
