REMARK  4 active torsions:
REMARK  status: ('A' for Active; 'I' for Inactive)
REMARK    1  A    between atoms: C_2  and  C_1 
REMARK       I    between atoms: N_8  and  C_2 
REMARK    2  A    between atoms: S_10  and  C_5 
REMARK    3  A    between atoms: S_11  and  C_6 
REMARK    4  A    between atoms: C_12  and  N_8 
ROOT
ATOM      1  C   UNL d   1      -1.685  -0.676   0.242  0.00  0.00     0.090 A 
ATOM      2  N   UNL d   1      -0.037   0.942   0.805  0.00  0.00    -0.319 N 
ATOM      3  HN  UNL d   1       0.351   1.817   1.156  1.00  0.00     0.175 HD
ATOM      4  C   UNL d   1      -0.507  -1.334  -0.129  0.00  0.00     0.076 A 
ATOM      5  C   UNL d   1      -1.324   0.616   0.800  0.00  0.00     0.093 A 
ATOM      6  S   UNL d   1       0.827  -0.291   0.153  0.00  0.00    -0.006 SA
ENDROOT
BRANCH   1   7
ATOM      7  C   UNL d   1      -3.024  -1.247   0.049  0.00  0.00     0.256 C 
ATOM      8  N   UNL d   1      -4.018  -0.765   0.864  0.00  0.00    -0.353 N 
ATOM      9  H   UNL d   1      -3.807   0.015   1.474  0.00  0.00     0.163 HD
ATOM     10  O   UNL d   1      -3.247  -2.125  -0.779  0.00  0.00    -0.267 OA
BRANCH   8  11
ATOM     11  C   UNL d   1      -5.401  -1.245   0.867  0.00  0.00     0.076 C 
ATOM     12  C   UNL d   1      -6.096  -1.068  -0.482  0.00  0.00     0.032 C 
ATOM     13  C   UNL d   1      -5.505  -2.688   1.360  0.00  0.00     0.032 C 
ENDBRANCH   8  11
ENDBRANCH   1   7
BRANCH   4  14
ATOM     14  S   UNL d   1      -0.186  -2.920  -0.827  0.00  0.00    -0.125 SA
ATOM     15  C   UNL d   1      -1.141  -4.045   0.212  0.00  0.00     0.096 C 
ENDBRANCH   4  14
BRANCH   5  16
ATOM     16  S   UNL d   1      -2.469   1.785   1.484  0.00  0.00    -0.115 SA
ATOM     17  C   UNL d   1      -1.407   3.198   1.876  0.00  0.00     0.097 C 
ENDBRANCH   5  16
TORSDOF 4
