REMARK  6 active torsions:
REMARK  status: ('A' for Active; 'I' for Inactive)
REMARK    1  A    between atoms: N_4  and  C_1 
REMARK    2  A    between atoms: N_6  and  C_1 
REMARK    3  A    between atoms: C_2  and  N_4 
REMARK    4  A    between atoms: N_7  and  C_3 
REMARK    5  A    between atoms: C_5  and  N_6 
REMARK    6  A    between atoms: C_14  and  C_9 
ROOT
ATOM      1  C   UNL d   1       1.066  -1.332  -2.091  0.00  0.00     0.062 A 
ATOM      2  C   UNL d   1       2.143  -2.201  -1.781  0.00  0.00     0.057 A 
ATOM      3  C   UNL d   1       0.576  -1.252  -3.412  0.00  0.00     0.047 A 
ATOM      4  C   UNL d   1       1.173  -1.948  -4.469  0.00  0.00     0.011 A 
ATOM      5  C   UNL d   1       2.743  -2.860  -2.874  0.00  0.00     0.033 A 
ATOM      6  C   UNL d   1       2.281  -2.740  -4.193  0.00  0.00     0.017 A 
ENDROOT
BRANCH   1   7
ATOM      7  N   UNL d   1       0.361  -0.534  -1.159  0.00  0.00    -0.331 N 
ATOM      8  H   UNL d   1      -0.508  -0.136  -1.497  0.00  0.00     0.168 HD
BRANCH   7   9
ATOM      9  C   UNL d   1       0.837   0.146  -0.072  0.00  0.00     0.176 C 
ATOM     10  S   UNL d   1       2.331   0.899   0.042  0.00  0.00    -0.041 SA
BRANCH   9  11
ATOM     11  N   UNL d   1      -0.052   0.356   0.952  0.00  0.00    -0.332 N 
ATOM     12  H   UNL d   1       0.301   1.011   1.647  0.00  0.00     0.168 HD
BRANCH  11  13
ATOM     13  C   UNL d   1      -1.373  -0.109   1.184  0.00  0.00     0.057 A 
ATOM     14  C   UNL d   1      -1.966  -1.170   0.489  0.00  0.00     0.055 A 
ATOM     15  C   UNL d   1      -3.301  -1.513   0.720  0.00  0.00     0.036 A 
ATOM     16 CL   UNL d   1      -4.013  -2.805  -0.165  0.00  0.00    -0.084 Cl
ATOM     17  C   UNL d   1      -4.063  -0.818   1.655  0.00  0.00     0.026 A 
ATOM     18  C   UNL d   1      -3.472   0.203   2.396  0.00  0.00     0.028 A 
ATOM     19  C   UNL d   1      -2.134   0.543   2.174  0.00  0.00     0.060 A 
ATOM     20 CL   UNL d   1      -1.453   1.812   3.134  0.00  0.00    -0.082 Cl
ENDBRANCH  11  13
ENDBRANCH   9  11
ENDBRANCH   7   9
ENDBRANCH   1   7
BRANCH   2  21
ATOM     21  N   UNL d   1       2.575  -2.534  -0.504  0.00  0.00    -0.379 N 
ATOM     22  C   UNL d   1       1.658  -2.728   0.618  0.00  0.00     0.123 C 
ATOM     23  C   UNL d   1       1.923  -4.071   1.294  0.00  0.00     0.020 C 
ATOM     24  C   UNL d   1       3.397  -4.241   1.652  0.00  0.00     0.003 C 
ATOM     25  C   UNL d   1       4.282  -4.011   0.427  0.00  0.00     0.020 C 
ATOM     26  C   UNL d   1       4.003  -2.642  -0.192  0.00  0.00     0.123 C 
ENDBRANCH   2  21
BRANCH   4  27
ATOM     27  C   UNL d   1       0.575  -1.803  -5.832  0.00  0.00     0.155 C 
ATOM     28  O   UNL d   1      -0.414  -1.081  -5.978  0.00  0.00    -0.293 OA
ATOM     29  C   UNL d   1       1.139  -2.546  -7.018  0.00  0.00     0.096 C 
ENDBRANCH   4  27
TORSDOF 6
