REMARK  1 active torsions:
REMARK  status: ('A' for Active; 'I' for Inactive)
REMARK    1  A    between atoms: N_6  and  C_8 
ROOT
ATOM      1  N   UNL d   1       2.810   0.021   0.004  0.00  0.00    -0.284 N 
ATOM      2  C   UNL d   1       2.163   1.253   0.002  0.00  0.00     0.261 A 
ATOM      3  C   UNL d   1       2.171  -1.219   0.001  0.00  0.00     0.261 A 
ATOM      4  C   UNL d   1       0.682   1.235   0.001  0.00  0.00     0.047 A 
ATOM      5  C   UNL d   1       0.691  -1.210   0.001  0.00  0.00     0.044 A 
ATOM      6  C   UNL d   1       0.003   0.010   0.001  0.00  0.00     0.006 A 
ATOM      7  C   UNL d   1      -1.416   2.433  -0.001  0.00  0.00     0.104 A 
ATOM      8  C   UNL d   1      -0.019   2.450  -0.000  0.00  0.00     0.054 A 
ATOM      9  C   UNL d   1      -1.414   0.002   0.001  0.00  0.00    -0.021 A 
ATOM     10  C   UNL d   1      -2.115   1.219  -0.000  0.00  0.00     0.048 A 
ATOM     11  O   UNL d   1       2.740   2.337   0.002  0.00  0.00    -0.267 OA
ATOM     12  O   UNL d   1       2.768  -2.292  -0.001  0.00  0.00    -0.267 OA
ATOM     13  C   UNL d   1       4.262   0.001   0.006  0.00  0.00     0.163 C 
ATOM     14  C   UNL d   1      -0.006  -2.425   0.000  0.00  0.00     0.018 A 
ATOM     15  C   UNL d   1      -2.097  -1.224   0.001  0.00  0.00     0.012 A 
ATOM     16  C   UNL d   1      -1.398  -2.430   0.001  0.00  0.00     0.002 A 
ENDROOT
BRANCH   7  17
ATOM     17  N   UNL d   1      -2.161   3.699  -0.002  0.00  0.00    -0.116 N 
ATOM     18  O   UNL d   1      -1.510   4.752  -0.004  0.00  0.00    -0.532 OA
ATOM     19  O   UNL d   1      -3.399   3.636  -0.001  0.00  0.00    -0.532 OA
ENDBRANCH   7  17
TORSDOF 1
