REMARK  4 active torsions:
REMARK  status: ('A' for Active; 'I' for Inactive)
REMARK    1  A    between atoms: S_17  and  C_1 
REMARK    2  A    between atoms: N_2  and  C_14 
REMARK    3  A    between atoms: C_5  and  C_16 
REMARK    4  A    between atoms: C_16  and  S_17 
ROOT
ATOM      1  C   UNL d   1      -2.709   0.854  -1.425  0.00  0.00     0.113 A 
ATOM      2  N   UNL d   1      -2.103   0.562  -0.297  0.00  0.00    -0.344 N 
ATOM      3  HN  UNL d   1      -2.568   0.231   0.548  1.00  0.00     0.167 HD
ATOM      4  S   UNL d   1      -1.723   1.541  -2.644  0.00  0.00    -0.063 SA
ATOM      5  C   UNL d   1      -0.332   1.287  -1.656  0.00  0.00     0.036 A 
ATOM      6  C   UNL d   1      -0.745   0.769  -0.426  0.00  0.00     0.050 A 
ATOM      7  C   UNL d   1       1.971   1.146  -0.985  0.00  0.00     0.104 A 
ATOM      8  C   UNL d   1       1.024   1.506  -1.958  0.00  0.00     0.057 A 
ATOM      9  C   UNL d   1       0.226   0.469   0.551  0.00  0.00     0.033 A 
ATOM     10  C   UNL d   1       1.584   0.645   0.261  0.00  0.00     0.038 A 
ENDROOT
BRANCH   1  11
ATOM     11  S   UNL d   1      -4.407   0.502  -1.677  0.00  0.00    -0.100 SA
BRANCH  11  12
ATOM     12  C   UNL d   1      -4.821  -0.225  -0.056  0.00  0.00     0.121 C 
BRANCH  12  13
ATOM     13  C   UNL d   1      -6.232  -0.806   0.009  0.00  0.00    -0.036 A 
ATOM     14  C   UNL d   1      -6.441  -2.212   0.068  0.00  0.00    -0.048 A 
ATOM     15  C   UNL d   1      -7.765  -2.735  -0.010  0.00  0.00    -0.049 A 
ATOM     16  C   UNL d   1      -5.288  -3.186   0.187  0.00  0.00     0.049 C 
ATOM     17  C   UNL d   1      -8.005  -4.232  -0.066  0.00  0.00     0.049 C 
ATOM     18  C   UNL d   1      -8.889  -1.862  -0.002  0.00  0.00    -0.049 A 
ATOM     19  C   UNL d   1      -8.687  -0.462   0.046  0.00  0.00    -0.049 A 
ATOM     20  C   UNL d   1     -10.270  -2.485  -0.018  0.00  0.00     0.049 C 
ATOM     21  C   UNL d   1      -7.360   0.065   0.025  0.00  0.00    -0.048 A 
ATOM     22  C   UNL d   1      -9.842   0.519   0.090  0.00  0.00     0.049 C 
ATOM     23  C   UNL d   1      -7.194   1.575   0.006  0.00  0.00     0.049 C 
ENDBRANCH  12  13
ENDBRANCH  11  12
ENDBRANCH   1  11
BRANCH   7  24
ATOM     24  N   UNL d   1       3.403   1.267  -1.299  0.00  0.00    -0.116 N 
ATOM     25  O   UNL d   1       3.712   1.743  -2.400  0.00  0.00    -0.532 OA
ATOM     26  O   UNL d   1       4.214   0.873  -0.450  0.00  0.00    -0.532 OA
ENDBRANCH   7  24
TORSDOF 4
