REMARK  4 active torsions:
REMARK  status: ('A' for Active; 'I' for Inactive)
REMARK    1  A    between atoms: C_2  and  C_1 
REMARK       I    between atoms: N_7  and  C_1 
REMARK    2  A    between atoms: N_6  and  C_3 
REMARK    3  A    between atoms: C_13  and  N_7 
REMARK    4  A    between atoms: O_21  and  C_14 
ROOT
ATOM      1  C   UNL d   1       0.205  -1.211  -0.167  0.00  0.00     0.047 A 
ATOM      2  C   UNL d   1      -1.051  -3.659  -0.524  0.00  0.00     0.103 A 
ATOM      3  N   UNL d   1      -1.371  -2.637  -1.342  0.00  0.00    -0.351 N 
ATOM      4  HN  UNL d   1      -2.062  -2.754  -2.084  1.00  0.00     0.166 HD
ATOM      5  C   UNL d   1      -0.747  -1.446  -1.150  0.00  0.00     0.106 A 
ATOM      6  C   UNL d   1       0.551  -2.277   0.655  0.00  0.00     0.022 A 
ATOM      7  C   UNL d   1      -0.096  -3.499   0.482  0.00  0.00     0.049 A 
ENDROOT
BRANCH   1   8
ATOM      8  C   UNL d   1       0.839   0.128  -0.084  0.00  0.00     0.257 C 
ATOM      9  N   UNL d   1       1.369   0.467   1.148  0.00  0.00    -0.323 N 
ATOM     10  H   UNL d   1       1.234  -0.179   1.913  0.00  0.00     0.169 HD
ATOM     11  O   UNL d   1       0.835   0.822  -1.097  0.00  0.00    -0.267 OA
BRANCH   9  12
ATOM     12  C   UNL d   1       2.068   1.646   1.480  0.00  0.00     0.035 A 
ATOM     13  C   UNL d   1       2.304   2.688   0.582  0.00  0.00     0.032 A 
ATOM     14  C   UNL d   1       3.034   3.815   0.974  0.00  0.00     0.039 A 
ATOM     15  C   UNL d   1       3.546   3.907   2.265  0.00  0.00     0.068 A 
ATOM     16  C   UNL d   1       3.282   2.889   3.180  0.00  0.00     0.039 A 
ATOM     17  C   UNL d   1       2.553   1.762   2.788  0.00  0.00     0.032 A 
BRANCH  15  18
ATOM     18  O   UNL d   1       4.286   4.954   2.740  0.00  0.00    -0.356 OA
ATOM     19  C   UNL d   1       5.082   5.615   1.760  0.00  0.00     0.210 C 
ENDBRANCH  15  18
ENDBRANCH   9  12
ENDBRANCH   1   8
BRANCH   2  20
ATOM     20  N   UNL d   1      -1.571  -4.924  -0.745  0.00  0.00    -0.363 N 
ATOM     21  C   UNL d   1      -2.169  -5.186  -2.062  0.00  0.00     0.150 C 
ATOM     22  C   UNL d   1      -2.193  -6.715  -2.245  0.00  0.00     0.187 C 
ATOM     23  O   UNL d   1      -2.944  -7.363  -1.197  0.00  0.00    -0.388 OA
ATOM     24  C   UNL d   1      -2.395  -7.046   0.097  0.00  0.00     0.187 C 
ATOM     25  C   UNL d   1      -2.356  -5.528   0.341  0.00  0.00     0.150 C 
ENDBRANCH   2  20
TORSDOF 4
