REMARK  3 active torsions:
REMARK  status: ('A' for Active; 'I' for Inactive)
REMARK    1  A    between atoms: C_8  and  N_1 
REMARK    2  A    between atoms: C_9  and  C_5 
REMARK    3  A    between atoms: O_18  and  C_12 
ROOT
ATOM      1  N   UNL d   1       1.076   0.116   0.158  0.00  0.00    -0.365 N 
ATOM      2  HN  UNL d   1       0.614  -0.618   0.696  1.00  0.00     0.165 HD
ATOM      3  C   UNL d   1       0.373   1.000  -0.470  0.00  0.00     0.099 C 
ENDROOT
BRANCH   1   4
ATOM      4  C   UNL d   1       2.480   0.167   0.099  0.00  0.00     0.032 A 
ATOM      5  C   UNL d   1       3.220   1.355   0.113  0.00  0.00     0.032 A 
ATOM      6  C   UNL d   1       4.622   1.335   0.101  0.00  0.00     0.039 A 
ATOM      7  C   UNL d   1       5.304   0.119   0.098  0.00  0.00     0.068 A 
ATOM      8  C   UNL d   1       4.576  -1.069   0.117  0.00  0.00     0.039 A 
ATOM      9  C   UNL d   1       3.177  -1.044   0.110  0.00  0.00     0.032 A 
BRANCH   7  10
ATOM     10  O   UNL d   1       6.663  -0.029   0.133  0.00  0.00    -0.356 OA
ATOM     11  C   UNL d   1       7.424   1.050  -0.397  0.00  0.00     0.210 C 
ENDBRANCH   7  10
ENDBRANCH   1   4
BRANCH   3  12
ATOM     12  C   UNL d   1      -1.105   0.986  -0.424  0.00  0.00    -0.019 A 
ATOM     13  C   UNL d   1      -1.793  -0.066   0.187  0.00  0.00     0.038 A 
ATOM     14  C   UNL d   1      -3.193  -0.064   0.210  0.00  0.00     0.056 A 
ATOM     15 CL   UNL d   1      -3.987  -1.398   0.967  0.00  0.00    -0.083 Cl
ATOM     16  C   UNL d   1      -3.900   0.997  -0.371  0.00  0.00     0.055 A 
ATOM     17  C   UNL d   1      -3.202   2.050  -0.975  0.00  0.00     0.026 A 
ATOM     18 CL   UNL d   1      -5.624   1.069  -0.379  0.00  0.00    -0.083 Cl
ATOM     19  C   UNL d   1      -1.806   2.046  -1.006  0.00  0.00     0.014 A 
ENDBRANCH   3  12
TORSDOF 3
