REMARK  3 active torsions:
REMARK  status: ('A' for Active; 'I' for Inactive)
REMARK    1  A    between atoms: C_3  and  C_1 
REMARK    2  A    between atoms: C_10  and  N_2 
REMARK    3  A    between atoms: C_8  and  C_9 
ROOT
ATOM      1  C   UNL d   1      -0.171  -1.333   0.042  0.00  0.00     0.151 A 
ATOM      2  N   UNL d   1       1.069  -0.688   0.006  0.00  0.00    -0.224 N 
ATOM      3  N   UNL d   1       0.867   0.623   0.276  0.00  0.00     0.001 NA
ATOM      4  N   UNL d   1      -0.443   0.791   0.325  0.00  0.00    -0.007 NA
ATOM      5  N   UNL d   1      -1.097  -0.401   0.194  0.00  0.00    -0.269 N 
ATOM      6  HN  UNL d   1      -2.107  -0.544   0.211  1.00  0.00     0.185 HD
ENDROOT
BRANCH   1   7
ATOM      7  C   UNL d   1      -0.432  -2.769   0.099  0.00  0.00     0.041 A 
ATOM      8  C   UNL d   1      -1.447  -3.418  -0.629  0.00  0.00     0.064 A 
ATOM      9  C   UNL d   1      -1.615  -4.806  -0.455  0.00  0.00     0.034 A 
ATOM     10  C   UNL d   1      -0.785  -5.494   0.412  0.00  0.00     0.088 A 
ATOM     11  N   UNL d   1       0.180  -4.899   1.130  0.00  0.00    -0.374 N 
ATOM     12  C   UNL d   1       0.317  -3.561   0.979  0.00  0.00     0.103 A 
ATOM     13  HN  UNL d   1       0.782  -5.430   1.760  1.00  0.00     0.164 HD
BRANCH   8  14
ATOM     14  C   UNL d   1      -2.407  -2.726  -1.567  0.00  0.00     0.418 C 
ATOM     15  F   UNL d   1      -2.010  -1.511  -2.021  0.00  0.00    -0.166 F 
ATOM     16  F   UNL d   1      -2.614  -3.468  -2.696  0.00  0.00    -0.166 F 
ATOM     17  F   UNL d   1      -3.637  -2.561  -1.013  0.00  0.00    -0.166 F 
ENDBRANCH   8  14
ENDBRANCH   1   7
BRANCH   2  18
ATOM     18  C   UNL d   1       2.381  -1.190  -0.208  0.00  0.00     0.056 A 
ATOM     19  C   UNL d   1       2.608  -2.367  -0.939  0.00  0.00     0.034 A 
ATOM     20  C   UNL d   1       3.907  -2.869  -1.065  0.00  0.00     0.044 A 
ATOM     21  C   UNL d   1       4.970  -2.198  -0.472  0.00  0.00     0.116 A 
ATOM     22  C   UNL d   1       4.765  -1.012   0.224  0.00  0.00     0.044 A 
ATOM     23  F   UNL d   1       6.207  -2.699  -0.575  0.00  0.00    -0.206 F 
ATOM     24  C   UNL d   1       3.474  -0.495   0.342  0.00  0.00     0.034 A 
ENDBRANCH   2  18
TORSDOF 3
