REMARK  3 active torsions:
REMARK  status: ('A' for Active; 'I' for Inactive)
REMARK    1  A    between atoms: S_11  and  C_6 
REMARK    2  A    between atoms: C_13  and  S_11 
REMARK    3  A    between atoms: C_15  and  C_13 
ROOT
ATOM      1  C   UNL d   1       1.140   0.615  -0.006  0.00  0.00     0.089 A 
ATOM      2  C   UNL d   1       0.566  -0.654   0.036  0.00  0.00     0.039 A 
ATOM      3  S   UNL d   1       0.007   1.882  -0.021  0.00  0.00    -0.075 SA
ATOM      4  C   UNL d   1      -0.885  -0.535   0.024  0.00  0.00    -0.029 A 
ATOM      5  C   UNL d   1      -1.288   0.792   0.029  0.00  0.00    -0.008 A 
ATOM      6  C   UNL d   1       1.505  -1.703   0.093  0.00  0.00     0.084 A 
ATOM      7  N   UNL d   1       2.448   0.919  -0.019  0.00  0.00    -0.346 N 
ATOM      8  HN  UNL d   1       2.805   1.874  -0.048  1.00  0.00     0.167 HD
ATOM      9  N   UNL d   1       2.832  -1.431   0.066  0.00  0.00    -0.346 N 
ATOM     10  HN  UNL d   1       3.517  -2.186   0.089  1.00  0.00     0.167 HD
ATOM     11  C   UNL d   1       3.226  -0.156   0.010  0.00  0.00     0.182 A 
ATOM     12  C   UNL d   1      -1.904  -1.644   0.048  0.00  0.00     0.040 C 
ATOM     13  C   UNL d   1      -2.703   1.284   0.043  0.00  0.00     0.047 C 
ATOM     14  C   UNL d   1      -3.333  -1.144  -0.241  0.00  0.00     0.005 C 
ATOM     15  C   UNL d   1      -3.648   0.166   0.491  0.00  0.00     0.005 C 
ENDROOT
BRANCH   6  16
ATOM     16  S   UNL d   1       1.044  -3.415   0.260  0.00  0.00    -0.107 SA
BRANCH  16  17
ATOM     17  C   UNL d   1       2.278  -3.886   1.508  0.00  0.00     0.119 C 
BRANCH  17  18
ATOM     18  C   UNL d   1       2.403  -5.341   1.919  0.00  0.00    -0.048 A 
ATOM     19  C   UNL d   1       1.925  -6.435   1.189  0.00  0.00     0.011 A 
ATOM     20  C   UNL d   1       2.170  -7.743   1.632  0.00  0.00     0.043 A 
ATOM     21  C   UNL d   1       2.906  -7.959   2.793  0.00  0.00     0.116 A 
ATOM     22  C   UNL d   1       3.412  -6.895   3.521  0.00  0.00     0.043 A 
ATOM     23  F   UNL d   1       3.143  -9.213   3.204  0.00  0.00    -0.206 F 
ATOM     24  C   UNL d   1       3.158  -5.595   3.088  0.00  0.00     0.011 A 
ENDBRANCH  17  18
ENDBRANCH  16  17
ENDBRANCH   6  16
TORSDOF 3
