REMARK  4 active torsions:
REMARK  status: ('A' for Active; 'I' for Inactive)
REMARK    1  A    between atoms: C_6  and  C_1 
REMARK    2  A    between atoms: N_10  and  C_2 
REMARK    3  A    between atoms: C_8  and  C_11 
REMARK       I    between atoms: C_9  and  N_10 
REMARK       I    between atoms: N_12  and  C_9 
REMARK    4  A    between atoms: C_16  and  N_12 
ROOT
ATOM      1  C   UNL d   1       1.655  -2.672  -0.298  0.00  0.00     0.325 C 
ATOM      2  N   UNL d   1       0.383  -2.346   0.141  0.00  0.00    -0.304 N 
ATOM      3  N   UNL d   1       2.075  -3.862   0.276  0.00  0.00    -0.309 N 
ATOM      4  O   UNL d   1       2.314  -1.978  -1.063  0.00  0.00    -0.247 OA
ATOM      5  H   UNL d   1       0.119  -2.706   1.045  0.00  0.00     0.171 HD
ATOM      6  H   UNL d   1       1.378  -4.372   0.800  0.00  0.00     0.170 HD
ENDROOT
BRANCH   2   7
ATOM      7  C   UNL d   1      -0.355  -1.255  -0.310  0.00  0.00     0.097 A 
ATOM      8  C   UNL d   1      -1.350  -0.541   0.436  0.00  0.00     0.096 A 
ATOM      9  N   UNL d   1      -1.817   0.495  -0.275  0.00  0.00    -0.258 N 
ATOM     10  O   UNL d   1      -1.212   0.418  -1.509  0.00  0.00    -0.240 OA
ATOM     11  HN  UNL d   1      -2.486   1.200   0.036  1.00  0.00     0.195 HD
ATOM     12  C   UNL d   1      -0.366  -0.648  -1.548  0.00  0.00     0.101 A 
ATOM     13  C   UNL d   1       0.228  -0.902  -2.875  0.00  0.00     0.081 C 
BRANCH   8  14
ATOM     14  C   UNL d   1      -1.817  -0.762   1.804  0.00  0.00     0.017 A 
ATOM     15  C   UNL d   1      -2.335  -1.988   2.252  0.00  0.00     0.046 A 
ATOM     16 CL   UNL d   1      -2.492  -3.377   1.231  0.00  0.00    -0.083 Cl
ATOM     17  C   UNL d   1      -2.772  -2.130   3.575  0.00  0.00     0.025 A 
ATOM     18  C   UNL d   1      -2.706  -1.054   4.459  0.00  0.00     0.002 A 
ATOM     19  C   UNL d   1      -2.201   0.169   4.025  0.00  0.00     0.001 A 
ATOM     20  C   UNL d   1      -1.761   0.315   2.709  0.00  0.00     0.015 A 
ENDBRANCH   8  14
ENDBRANCH   2   7
BRANCH   3  21
ATOM     21  C   UNL d   1       3.311  -4.516   0.095  0.00  0.00     0.037 A 
ATOM     22  C   UNL d   1       4.349  -4.013  -0.695  0.00  0.00     0.045 A 
ATOM     23  C   UNL d   1       5.535  -4.744  -0.881  0.00  0.00     0.050 A 
ATOM     24  C   UNL d   1       5.684  -5.979  -0.236  0.00  0.00     0.016 A 
ATOM     25  C   UNL d   1       4.666  -6.475   0.576  0.00  0.00     0.003 A 
ATOM     26  C   UNL d   1       3.485  -5.749   0.736  0.00  0.00     0.029 A 
BRANCH  23  27
ATOM     27  C   UNL d   1       6.624  -4.229  -1.790  0.00  0.00     0.417 C 
ATOM     28  F   UNL d   1       6.390  -2.986  -2.291  0.00  0.00    -0.166 F 
ATOM     29  F   UNL d   1       7.833  -4.158  -1.166  0.00  0.00    -0.166 F 
ATOM     30  F   UNL d   1       6.812  -5.037  -2.872  0.00  0.00    -0.166 F 
ENDBRANCH  23  27
ENDBRANCH   3  21
TORSDOF 4
