REMARK  5 active torsions:
REMARK  status: ('A' for Active; 'I' for Inactive)
REMARK    1  A    between atoms: N_3  and  S_1 
REMARK    2  A    between atoms: C_10  and  S_1 
REMARK    3  A    between atoms: N_2  and  C_11 
REMARK    4  A    between atoms: N_4  and  N_3 
REMARK       I    between atoms: C_7  and  N_4 
REMARK    5  A    between atoms: C_14  and  C_7 
ROOT
ATOM      1  N   UNL d   1       1.009   2.376   1.132  0.00  0.00    -0.256 N 
ATOM      2  C   UNL d   1       0.627   3.566   1.728  0.00  0.00     0.270 C 
ATOM      3  O   UNL d   1       1.403   4.265   2.373  0.00  0.00    -0.266 OA
ATOM      4  H   UNL d   1       0.399   1.835   0.529  0.00  0.00     0.191 HD
ENDROOT
BRANCH   2   5
ATOM      5  C   UNL d   1      -0.795   3.976   1.513  0.00  0.00     0.033 A 
ATOM      6  C   UNL d   1      -1.790   3.069   1.131  0.00  0.00     0.019 A 
ATOM      7  C   UNL d   1      -3.107   3.500   0.921  0.00  0.00     0.031 A 
ATOM      8  C   UNL d   1      -3.477   4.830   1.154  0.00  0.00     0.039 A 
ATOM      9  C   UNL d   1      -2.486   5.734   1.562  0.00  0.00     0.031 A 
ATOM     10  C   UNL d   1      -1.153   5.314   1.720  0.00  0.00     0.019 A 
BRANCH   8  11
ATOM     11  N   UNL d   1      -4.846   5.240   0.999  0.00  0.00    -0.320 N 
ATOM     12  C   UNL d   1      -5.306   6.480   0.530  0.00  0.00     0.013 A 
ATOM     13  C   UNL d   1      -6.689   6.466   0.529  0.00  0.00     0.027 A 
ATOM     14  C   UNL d   1      -4.479   7.611   0.016  0.00  0.00     0.068 C 
ATOM     15  C   UNL d   1      -7.107   5.208   0.979  0.00  0.00     0.027 A 
ATOM     16  C   UNL d   1      -5.983   4.467   1.287  0.00  0.00     0.013 A 
ATOM     17  C   UNL d   1      -6.014   3.111   1.911  0.00  0.00     0.068 C 
ENDBRANCH   8  11
ENDBRANCH   2   5
BRANCH   1  18
ATOM     18  N   UNL d   1       2.356   1.873   1.296  0.00  0.00    -0.220 N 
ATOM     19  H   UNL d   1       3.037   2.394   1.856  0.00  0.00     0.200 HD
BRANCH  18  20
ATOM     20  S   UNL d   1       2.736   0.426   0.511  0.00  0.00     0.276 S 
ATOM     21  O   UNL d   1       2.659   0.689  -0.909  0.00  0.00    -0.199 OA
ATOM     22  O   UNL d   1       1.923  -0.612   1.107  0.00  0.00    -0.199 OA
BRANCH  20  23
ATOM     23  C   UNL d   1       4.429   0.122   0.932  0.00  0.00     0.081 A 
ATOM     24  C   UNL d   1       4.736  -0.708   2.015  0.00  0.00     0.026 A 
ATOM     25  C   UNL d   1       6.063  -1.083   2.245  0.00  0.00     0.008 A 
ATOM     26  C   UNL d   1       7.085  -0.644   1.391  0.00  0.00    -0.062 A 
ATOM     27  C   UNL d   1       6.764   0.191   0.313  0.00  0.00     0.008 A 
ATOM     28  C   UNL d   1       8.499  -1.098   1.618  0.00  0.00     0.048 C 
ATOM     29  C   UNL d   1       5.440   0.571   0.080  0.00  0.00     0.026 A 
ENDBRANCH  20  23
ENDBRANCH  18  20
ENDBRANCH   1  18
TORSDOF 5
