REMARK  6 active torsions:
REMARK  status: ('A' for Active; 'I' for Inactive)
REMARK    1  A    between atoms: N_12  and  C_3 
REMARK    2  A    between atoms: S_15  and  C_11 
REMARK    3  A    between atoms: C_16  and  N_12 
REMARK    4  A    between atoms: C_18  and  S_15 
REMARK    5  A    between atoms: C_27  and  C_16 
REMARK    6  A    between atoms: C_20  and  C_18 
ROOT
ATOM      1  C   UNL d   1       1.328  -0.804  -0.016  0.00  0.00     0.090 A 
ATOM      2  C   UNL d   1       0.785   0.467  -0.055  0.00  0.00     0.043 A 
ATOM      3  C   UNL d   1       1.708   1.534  -0.100  0.00  0.00     0.096 A 
ATOM      4  C   UNL d   1      -1.118  -0.898  -0.009  0.00  0.00    -0.008 A 
ATOM      5  N   UNL d   1       2.630  -1.111  -0.013  0.00  0.00    -0.330 N 
ATOM      6  HN  UNL d   1       2.980  -2.068   0.036  1.00  0.00     0.168 HD
ATOM      7  N   UNL d   1       3.035   1.252  -0.127  0.00  0.00    -0.327 N 
ATOM      8  HN  UNL d   1       3.724   2.002  -0.181  1.00  0.00     0.169 HD
ATOM      9  C   UNL d   1      -0.661   0.406  -0.069  0.00  0.00    -0.029 A 
ATOM     10  S   UNL d   1       0.146  -2.032   0.021  0.00  0.00    -0.075 SA
ATOM     11  C   UNL d   1       3.428  -0.040  -0.081  0.00  0.00     0.146 A 
ATOM     12  C   UNL d   1      -1.607   1.576  -0.104  0.00  0.00     0.041 C 
ATOM     13  C   UNL d   1      -2.560  -1.310   0.012  0.00  0.00     0.051 C 
ATOM     14  C   UNL d   1      -3.065   1.146  -0.333  0.00  0.00     0.009 C 
ATOM     15  C   UNL d   1      -3.455  -0.128   0.447  0.00  0.00    -0.014 C 
ATOM     16  C   UNL d   1      -3.395   0.093   1.963  0.00  0.00     0.010 C 
ENDROOT
BRANCH   3  17
ATOM     17  N   UNL d   1       1.228   2.840  -0.115  0.00  0.00    -0.274 NA
ATOM     18  H   UNL d   1       0.784   3.063   0.770  0.00  0.00     0.129 HD
BRANCH  17  19
ATOM     19  C   UNL d   1       2.071   3.903  -0.617  0.00  0.00     0.132 C 
BRANCH  19  20
ATOM     20  C   UNL d   1       1.325   5.215  -0.449  0.00  0.00    -0.045 A 
ATOM     21  C   UNL d   1       1.524   5.998   0.697  0.00  0.00     0.008 A 
ATOM     22  C   UNL d   1       0.823   7.193   0.876  0.00  0.00     0.001 A 
ATOM     23  C   UNL d   1      -0.094   7.616  -0.085  0.00  0.00     0.000 A 
ATOM     24  C   UNL d   1      -0.317   6.838  -1.218  0.00  0.00     0.001 A 
ATOM     25  C   UNL d   1       0.383   5.640  -1.397  0.00  0.00     0.008 A 
ENDBRANCH  19  20
ENDBRANCH  17  19
ENDBRANCH   3  17
BRANCH  11  26
ATOM     26  S   UNL d   1       5.155  -0.445  -0.261  0.00  0.00    -0.089 SA
BRANCH  26  27
ATOM     27  C   UNL d   1       5.942   0.819   0.777  0.00  0.00     0.121 C 
BRANCH  27  28
ATOM     28  C   UNL d   1       7.433   0.555   0.905  0.00  0.00    -0.048 A 
ATOM     29  C   UNL d   1       8.324   1.000  -0.085  0.00  0.00     0.009 A 
ATOM     30  C   UNL d   1       9.694   0.735   0.012  0.00  0.00     0.024 A 
ATOM     31  C   UNL d   1      10.188   0.019   1.100  0.00  0.00     0.034 A 
ATOM     32  C   UNL d   1       9.317  -0.439   2.089  0.00  0.00     0.024 A 
ATOM     33 CL   UNL d   1      11.873  -0.306   1.219  0.00  0.00    -0.084 Cl
ATOM     34  C   UNL d   1       7.949  -0.177   1.991  0.00  0.00     0.009 A 
ENDBRANCH  27  28
ENDBRANCH  26  27
ENDBRANCH  11  26
TORSDOF 6
