REMARK  5 active torsions:
REMARK  status: ('A' for Active; 'I' for Inactive)
REMARK    1  A    between atoms: C_4  and  C_1 
REMARK    2  A    between atoms: O_9  and  C_2 
REMARK       I    between atoms: C_3  and  N_6 
REMARK    3  A    between atoms: C_5  and  C_3 
REMARK    4  A    between atoms: N_6  and  C_4 
REMARK    5  A    between atoms: C_19  and  O_9 
ROOT
ATOM      1  C   UNL d   1      -2.974   2.218   0.606  0.00  0.00     0.252 C 
ATOM      2  N   UNL d   1      -1.992   2.258  -0.346  0.00  0.00    -0.352 N 
ATOM      3  O   UNL d   1      -4.150   2.322   0.238  0.00  0.00    -0.268 OA
ATOM      4  H   UNL d   1      -2.388   2.286  -1.281  0.00  0.00     0.163 HD
ENDROOT
BRANCH   2   5
ATOM      5  C   UNL d   1      -0.543   2.325  -0.271  0.00  0.00     0.166 C 
BRANCH   5   6
ATOM      6  C   UNL d   1       0.232   1.017  -0.284  0.00  0.00     0.015 A 
ATOM      7  C   UNL d   1       1.605   1.071   0.077  0.00  0.00     0.085 A 
ATOM      8  C   UNL d   1       2.407  -0.083   0.052  0.00  0.00     0.038 A 
ATOM      9  C   UNL d   1       1.850  -1.324  -0.213  0.00  0.00     0.004 A 
ATOM     10  C   UNL d   1       0.504  -1.406  -0.536  0.00  0.00     0.024 A 
ATOM     11  C   UNL d   1      -0.291  -0.251  -0.616  0.00  0.00     0.044 A 
ATOM     12 CL   UNL d   1      -1.915  -0.539  -1.134  0.00  0.00    -0.084 Cl
BRANCH   7  13
ATOM     13  O   UNL d   1       2.135   2.304   0.434  0.00  0.00    -0.310 OA
BRANCH  13  14
ATOM     14  C   UNL d   1       3.182   2.318   1.335  0.00  0.00     0.076 A 
ATOM     15  C   UNL d   1       4.311   3.064   1.000  0.00  0.00     0.037 A 
ATOM     16  C   UNL d   1       5.429   3.048   1.837  0.00  0.00     0.003 A 
ATOM     17  C   UNL d   1       5.410   2.297   3.014  0.00  0.00     0.000 A 
ATOM     18  C   UNL d   1       4.263   1.590   3.373  0.00  0.00     0.003 A 
ATOM     19  C   UNL d   1       3.139   1.618   2.546  0.00  0.00     0.037 A 
ENDBRANCH  13  14
ENDBRANCH   7  13
ENDBRANCH   5   6
ENDBRANCH   2   5
BRANCH   1  20
ATOM     20  C   UNL d   1      -2.693   2.060   2.059  0.00  0.00     0.034 A 
ATOM     21  C   UNL d   1      -3.644   2.535   2.973  0.00  0.00     0.049 A 
ATOM     22  C   UNL d   1      -3.471   2.391   4.348  0.00  0.00     0.060 A 
ATOM     23  N   UNL d   1      -4.415   2.838   5.200  0.00  0.00    -0.363 N 
ATOM     24  C   UNL d   1      -2.297   1.753   4.835  0.00  0.00     0.059 A 
ATOM     25  C   UNL d   1      -4.175   2.657   6.516  0.00  0.00     0.105 A 
ATOM     26  HN  UNL d   1      -5.266   3.291   4.868  1.00  0.00     0.165 HD
ATOM     27  C   UNL d   1      -3.025   2.051   6.982  0.00  0.00     0.105 A 
ATOM     28  N   UNL d   1      -2.069   1.591   6.150  0.00  0.00    -0.363 N 
ATOM     29  HN  UNL d   1      -1.220   1.145   6.498  1.00  0.00     0.165 HD
ATOM     30  C   UNL d   1      -1.376   1.265   3.933  0.00  0.00     0.033 A 
ATOM     31  C   UNL d   1      -1.581   1.389   2.560  0.00  0.00     0.019 A 
ENDBRANCH   1  20
TORSDOF 5
