REMARK  6 active torsions:
REMARK  status: ('A' for Active; 'I' for Inactive)
REMARK    1  A    between atoms: C_7  and  C_3 
REMARK    2  A    between atoms: C_5  and  O_10 
REMARK    3  A    between atoms: C_8  and  C_5 
REMARK    4  A    between atoms: C_16  and  C_9 
REMARK    5  A    between atoms: O_10  and  C_16 
REMARK    6  A    between atoms: O_24  and  C_18 
ROOT
ATOM      1  N   UNL d   1       1.111   0.432  -0.019  0.00  0.00    -0.270 N 
ATOM      2  HN  UNL d   1       2.079   0.749  -0.072  1.00  0.00     0.194 HD
ATOM      3  C   UNL d   1       0.060   1.183  -0.083  0.00  0.00     0.045 C 
ATOM      4  O   UNL d   1       0.682  -0.903   0.138  0.00  0.00    -0.272 OA
ATOM      5  C   UNL d   1      -1.238   0.463   0.006  0.00  0.00     0.096 C 
ATOM      6  C   UNL d   1      -0.744  -0.968  -0.023  0.00  0.00     0.182 C 
ENDROOT
BRANCH   6   7
ATOM      7  C   UNL d   1      -1.331  -1.803   1.116  0.00  0.00     0.213 C 
BRANCH   7   8
ATOM      8  O   UNL d   1      -0.814  -3.149   1.121  0.00  0.00    -0.315 OA
BRANCH   8   9
ATOM      9  C   UNL d   1      -1.409  -4.014   0.267  0.00  0.00     0.293 C 
ATOM     10  O   UNL d   1      -2.322  -3.741  -0.497  0.00  0.00    -0.259 OA
BRANCH   9  11
ATOM     11  C   UNL d   1      -0.813  -5.372   0.393  0.00  0.00     0.039 A 
ATOM     12  C   UNL d   1      -1.380  -6.418  -0.350  0.00  0.00     0.019 A 
ATOM     13  C   UNL d   1      -0.857  -7.712  -0.266  0.00  0.00     0.019 A 
ATOM     14  C   UNL d   1       0.236  -7.965   0.561  0.00  0.00     0.006 A 
ATOM     15  C   UNL d   1       0.810  -6.934   1.307  0.00  0.00     0.019 A 
ATOM     16  I   UNL d   1       1.018  -9.887   0.682  0.00  0.00    -0.045 I 
ATOM     17  C   UNL d   1       0.286  -5.639   1.224  0.00  0.00     0.019 A 
ENDBRANCH   9  11
ENDBRANCH   8   9
ENDBRANCH   7   8
ENDBRANCH   6   7
BRANCH   3  18
ATOM     18  C   UNL d   1       0.129   2.660  -0.203  0.00  0.00    -0.011 A 
ATOM     19  C   UNL d   1       1.380   3.285  -0.276  0.00  0.00     0.016 A 
ATOM     20  C   UNL d   1       1.476   4.679  -0.384  0.00  0.00     0.037 A 
ATOM     21  C   UNL d   1       0.321   5.459  -0.416  0.00  0.00     0.068 A 
ATOM     22  C   UNL d   1      -0.926   4.834  -0.337  0.00  0.00     0.037 A 
ATOM     23  C   UNL d   1      -1.028   3.443  -0.230  0.00  0.00     0.016 A 
BRANCH  21  24
ATOM     24  O   UNL d   1       0.268   6.821  -0.515  0.00  0.00    -0.356 OA
ATOM     25  C   UNL d   1       1.506   7.508  -0.638  0.00  0.00     0.210 C 
ENDBRANCH  21  24
ENDBRANCH   3  18
TORSDOF 6
