REMARK  5 active torsions:
REMARK  status: ('A' for Active; 'I' for Inactive)
REMARK    1  A    between atoms: C_9  and  N_1 
REMARK    2  A    between atoms: C_5  and  C_4 
REMARK    3  A    between atoms: C_14  and  C_22 
REMARK    4  A    between atoms: O_19  and  C_21 
REMARK    5  A    between atoms: C_22  and  O_19 
ROOT
ATOM      1  N   UNL d   1      -2.099  -6.105   7.225  0.00  0.00    -0.270 N 
ATOM      2  HN  UNL d   1      -1.966  -6.458   8.173  1.00  0.00     0.194 HD
ATOM      3  C   UNL d   1      -2.304  -6.822   6.172  0.00  0.00     0.046 C 
ATOM      4  O   UNL d   1      -2.091  -4.751   6.842  0.00  0.00    -0.272 OA
ATOM      5  C   UNL d   1      -2.426  -6.048   4.904  0.00  0.00     0.096 C 
ATOM      6  C   UNL d   1      -2.485  -4.644   5.465  0.00  0.00     0.182 C 
ENDROOT
BRANCH   6   7
ATOM      7  C   UNL d   1      -1.508  -3.697   4.765  0.00  0.00     0.210 C 
BRANCH   7   8
ATOM      8  O   UNL d   1      -1.694  -2.378   5.289  0.00  0.00    -0.349 OA
BRANCH   8   9
ATOM      9  C   UNL d   1      -0.867  -1.402   4.809  0.00  0.00     0.069 A 
ATOM     10  C   UNL d   1      -1.363  -0.101   4.949  0.00  0.00     0.039 A 
ATOM     11  C   UNL d   1      -0.625   0.995   4.498  0.00  0.00     0.039 A 
ATOM     12  C   UNL d   1       0.630   0.784   3.919  0.00  0.00     0.103 A 
ATOM     13  C   UNL d   1       1.147  -0.512   3.800  0.00  0.00     0.039 A 
ATOM     14  C   UNL d   1       0.396  -1.603   4.248  0.00  0.00     0.039 A 
BRANCH  12  15
ATOM     15  N   UNL d   1       1.413   1.930   3.437  0.00  0.00    -0.116 N 
ATOM     16  O   UNL d   1       2.534   1.699   2.959  0.00  0.00    -0.532 OA
ATOM     17  O   UNL d   1       0.904   3.054   3.531  0.00  0.00    -0.532 OA
ENDBRANCH  12  15
ENDBRANCH   8   9
ENDBRANCH   7   8
ENDBRANCH   6   7
BRANCH   3  18
ATOM     18  C   UNL d   1      -2.361  -8.304   6.188  0.00  0.00     0.010 A 
ATOM     19  C   UNL d   1      -2.820  -9.037   7.297  0.00  0.00     0.048 A 
ATOM     20  C   UNL d   1      -2.809 -10.437   7.268  0.00  0.00     0.048 A 
ATOM     21 CL   UNL d   1      -3.483  -8.314   8.720  0.00  0.00    -0.083 Cl
ATOM     22  C   UNL d   1      -2.351 -11.109   6.138  0.00  0.00     0.035 A 
ATOM     23  C   UNL d   1      -1.902 -10.397   5.031  0.00  0.00     0.025 A 
ATOM     24 CL   UNL d   1      -2.349 -12.828   6.106  0.00  0.00    -0.084 Cl
ATOM     25  C   UNL d   1      -1.905  -9.000   5.054  0.00  0.00     0.017 A 
ENDBRANCH   3  18
TORSDOF 5
