REMARK  5 active torsions:
REMARK  status: ('A' for Active; 'I' for Inactive)
REMARK    1  A    between atoms: C_10  and  C_3 
REMARK    2  A    between atoms: C_8  and  C_7 
REMARK    3  A    between atoms: C_9  and  C_8 
REMARK    4  A    between atoms: O_12  and  C_9 
REMARK    5  A    between atoms: C_15  and  O_12 
ROOT
ATOM      1  N   UNL d   1       1.033  -0.623   0.355  0.00  0.00    -0.277 N 
ATOM      2  HN  UNL d   1       1.854  -1.202   0.527  1.00  0.00     0.189 HD
ATOM      3  C   UNL d   1      -0.189  -1.048   0.095  0.00  0.00     0.174 A 
ATOM      4  O   UNL d   1      -1.062  -0.014  -0.134  0.00  0.00    -0.277 OA
ATOM      5  N   UNL d   1       0.985   0.755   0.347  0.00  0.00    -0.281 N 
ATOM      6  HN  UNL d   1       1.761   1.396   0.510  1.00  0.00     0.189 HD
ATOM      7  C   UNL d   1      -0.265   1.078   0.088  0.00  0.00     0.149 A 
ENDROOT
BRANCH   3   8
ATOM      8  C   UNL d   1      -0.719  -2.404   0.046  0.00  0.00     0.017 A 
ATOM      9  C   UNL d   1       0.148  -3.490   0.242  0.00  0.00     0.016 A 
ATOM     10  C   UNL d   1      -0.333  -4.801   0.236  0.00  0.00     0.001 A 
ATOM     11  C   UNL d   1      -1.690  -5.043   0.033  0.00  0.00     0.000 A 
ATOM     12  C   UNL d   1      -2.563  -3.977  -0.170  0.00  0.00     0.001 A 
ATOM     13  C   UNL d   1      -2.081  -2.665  -0.164  0.00  0.00     0.016 A 
ENDBRANCH   3   8
BRANCH   7  14
ATOM     14  C   UNL d   1      -0.864   2.416  -0.060  0.00  0.00     0.197 C 
BRANCH  14  15
ATOM     15  C   UNL d   1      -2.038   2.584   0.866  0.00  0.00     0.266 C 
ATOM     16  O   UNL d   1      -2.484   1.757   1.649  0.00  0.00    -0.265 OA
BRANCH  15  17
ATOM     17  O   UNL d   1      -2.587   3.818   0.648  0.00  0.00    -0.322 OA
BRANCH  17  18
ATOM     18  C   UNL d   1      -3.876   4.040   1.241  0.00  0.00     0.174 C 
ATOM     19  C   UNL d   1      -4.937   3.598   0.251  0.00  0.00     0.034 C 
ENDBRANCH  17  18
ENDBRANCH  15  17
ENDBRANCH  14  15
ENDBRANCH   7  14
TORSDOF 5
