REMARK  4 active torsions:
REMARK  status: ('A' for Active; 'I' for Inactive)
REMARK    1  A    between atoms: C_3  and  C_1 
REMARK    2  A    between atoms: C_2  and  C_8 
REMARK    3  A    between atoms: C_4  and  C_3 
REMARK    4  A    between atoms: C_17  and  C_5 
ROOT
ATOM      1  C   UNL d   1       0.883  -0.000   0.005  0.00  0.00     0.096 C 
ATOM      2  C   UNL d   1       0.241  -0.852   0.830  0.00  0.00     0.038 C 
ATOM      3  C   UNL d   1       0.183   0.888  -0.858  0.00  0.00     0.103 C 
ATOM      4  N   UNL d   1      -0.388   1.604  -1.571  0.00  0.00    -0.191 NA
ENDROOT
BRANCH   1   5
ATOM      5  C   UNL d   1       2.378   0.031   0.069  0.00  0.00     0.203 C 
ATOM      6  O   UNL d   1       2.979  -0.284   1.093  0.00  0.00    -0.286 OA
BRANCH   5   7
ATOM      7  C   UNL d   1       3.091   0.485  -1.131  0.00  0.00     0.022 A 
ATOM      8  C   UNL d   1       2.718   0.239  -2.443  0.00  0.00     0.065 A 
ATOM      9  S   UNL d   1       3.784   0.934  -3.588  0.00  0.00    -0.113 SA
ATOM     10  C   UNL d   1       4.803   1.530  -2.357  0.00  0.00     0.050 A 
ATOM     11  C   UNL d   1       4.337   1.205  -1.102  0.00  0.00     0.023 A 
ENDBRANCH   5   7
ENDBRANCH   1   5
BRANCH   2  12
ATOM     12  C   UNL d   1      -1.218  -1.012   0.862  0.00  0.00    -0.035 A 
ATOM     13  C   UNL d   1      -1.822  -1.995   0.072  0.00  0.00     0.012 A 
ATOM     14  C   UNL d   1      -3.212  -2.142   0.069  0.00  0.00     0.017 A 
ATOM     15  C   UNL d   1      -4.021  -1.310   0.858  0.00  0.00     0.048 A 
ATOM     16  C   UNL d   1      -3.409  -0.318   1.639  0.00  0.00     0.017 A 
ATOM     17  C   UNL d   1      -2.017  -0.170   1.642  0.00  0.00     0.012 A 
BRANCH  15  18
ATOM     18  C   UNL d   1      -5.519  -1.500   0.862  0.00  0.00     0.417 C 
ATOM     19  F   UNL d   1      -6.179  -0.634   1.681  0.00  0.00    -0.166 F 
ATOM     20  F   UNL d   1      -6.071  -1.343  -0.372  0.00  0.00    -0.166 F 
ATOM     21  F   UNL d   1      -5.880  -2.748   1.274  0.00  0.00    -0.166 F 
ENDBRANCH  15  18
ENDBRANCH   2  12
TORSDOF 4
