REMARK  7 active torsions:
REMARK  status: ('A' for Active; 'I' for Inactive)
REMARK    1  A    between atoms: N_3  and  C_1 
REMARK    2  A    between atoms: N_7  and  C_1 
REMARK    3  A    between atoms: C_2  and  N_3 
REMARK    4  A    between atoms: C_15  and  N_7 
REMARK    5  A    between atoms: C_13  and  C_15 
REMARK    6  A    between atoms: C_16  and  C_13 
REMARK    7  A    between atoms: O_14  and  C_16 
ROOT
ATOM      1  N   UNL d   1       0.427  -1.177   0.512  0.00  0.00    -0.332 N 
ATOM      2  H   UNL d   1       0.783  -1.444   1.425  0.00  0.00     0.168 HD
ENDROOT
BRANCH   1   3
ATOM      3  C   UNL d   1      -0.760  -1.828   0.093  0.00  0.00     0.057 A 
ATOM      4  C   UNL d   1      -1.139  -1.818  -1.259  0.00  0.00     0.055 A 
ATOM      5  C   UNL d   1      -2.228  -2.572  -1.690  0.00  0.00     0.036 A 
ATOM      6 CL   UNL d   1      -2.643  -2.591  -3.359  0.00  0.00    -0.084 Cl
ATOM      7  C   UNL d   1      -2.962  -3.336  -0.786  0.00  0.00     0.026 A 
ATOM      8  C   UNL d   1      -2.607  -3.340   0.565  0.00  0.00     0.028 A 
ATOM      9  C   UNL d   1      -1.505  -2.597   0.998  0.00  0.00     0.060 A 
ATOM     10 CL   UNL d   1      -1.109  -2.626   2.681  0.00  0.00    -0.082 Cl
ENDBRANCH   1   3
BRANCH   1  11
ATOM     11  C   UNL d   1       0.984  -0.050  -0.022  0.00  0.00     0.172 C 
ATOM     12  S   UNL d   1       0.159   1.298  -0.582  0.00  0.00    -0.041 SA
BRANCH  11  13
ATOM     13  N   UNL d   1       2.350  -0.018  -0.065  0.00  0.00    -0.367 N 
ATOM     14  H   UNL d   1       2.717   0.825  -0.492  0.00  0.00     0.161 HD
BRANCH  13  15
ATOM     15  C   UNL d   1       3.260  -1.149   0.045  0.00  0.00     0.124 C 
BRANCH  15  16
ATOM     16  C   UNL d   1       3.223  -2.041  -1.198  0.00  0.00     0.046 C 
BRANCH  16  17
ATOM     17  C   UNL d   1       4.331  -3.085  -1.181  0.00  0.00     0.165 C 
BRANCH  17  18
ATOM     18  O   UNL d   1       4.223  -3.888  -0.015  0.00  0.00    -0.401 OA
ATOM     19  H   UNL d   1       4.932  -4.553  -0.058  0.00  0.00     0.209 HD
ENDBRANCH  17  18
ENDBRANCH  16  17
ENDBRANCH  15  16
ENDBRANCH  13  15
ENDBRANCH  11  13
ENDBRANCH   1  11
TORSDOF 7
