REMARK  3 active torsions:
REMARK  status: ('A' for Active; 'I' for Inactive)
REMARK    1  A    between atoms: C_10  and  N_1 
REMARK    2  A    between atoms: C_7  and  C_2 
REMARK    3  A    between atoms: N_9  and  C_8 
ROOT
ATOM      1  N   UNL d   1       0.051  -0.801   0.996  0.00  0.00    -0.225 N 
ATOM      2  C   UNL d   1       1.054  -0.750   0.024  0.00  0.00     0.139 C 
ATOM      3  N   UNL d   1      -0.774   0.043  -0.798  0.00  0.00    -0.007 NA
ATOM      4  N   UNL d   1      -1.101  -0.380   0.411  0.00  0.00     0.001 NA
ATOM      5  N   UNL d   1       0.548  -0.183  -1.054  0.00  0.00    -0.270 N 
ATOM      6  HN  UNL d   1       1.049   0.042  -1.914  1.00  0.00     0.185 HD
ENDROOT
BRANCH   2   7
ATOM      7  C   UNL d   1       2.340  -1.288   0.217  0.00  0.00     0.068 C 
ATOM      8  C   UNL d   1       2.595  -2.575  -0.065  0.00  0.00     0.089 C 
BRANCH   8   9
ATOM      9  N   UNL d   1       3.784  -3.279   0.069  0.00  0.00    -0.386 N 
ATOM     10  C   UNL d   1       3.956  -4.666  -0.420  0.00  0.00     0.148 C 
ATOM     11  C   UNL d   1       5.097  -4.721  -1.452  0.00  0.00     0.187 C 
ATOM     12  O   UNL d   1       6.323  -4.189  -0.920  0.00  0.00    -0.388 OA
ATOM     13  C   UNL d   1       6.135  -2.826  -0.500  0.00  0.00     0.187 C 
ATOM     14  C   UNL d   1       5.052  -2.725   0.582  0.00  0.00     0.148 C 
ENDBRANCH   8   9
ENDBRANCH   2   7
BRANCH   1  15
ATOM     15  C   UNL d   1       0.066  -1.144   2.378  0.00  0.00     0.056 A 
ATOM     16  C   UNL d   1       1.243  -1.111   3.137  0.00  0.00     0.032 A 
ATOM     17  C   UNL d   1       1.203  -1.386   4.509  0.00  0.00     0.021 A 
ATOM     18  C   UNL d   1      -0.006  -1.707   5.122  0.00  0.00     0.011 A 
ATOM     19  C   UNL d   1      -1.180  -1.757   4.377  0.00  0.00     0.021 A 
ATOM     20 BR   UNL d   1      -0.054  -2.052   6.979  0.00  0.00    -0.051 Br
ATOM     21  C   UNL d   1      -1.149  -1.464   3.011  0.00  0.00     0.032 A 
ENDBRANCH   1  15
TORSDOF 3
