REMARK  4 active torsions:
REMARK  status: ('A' for Active; 'I' for Inactive)
REMARK    1  A    between atoms: C_9  and  N_3 
REMARK    2  A    between atoms: C_10  and  C_6 
REMARK    3  A    between atoms: C_8  and  C_11 
REMARK    4  A    between atoms: C_12  and  C_9 
ROOT
ATOM      1  N   UNL d   1      -0.466   0.598  -0.866  0.00  0.00    -0.268 N 
ATOM      2  HN  UNL d   1      -0.745   1.152  -1.676  1.00  0.00     0.190 HD
ATOM      3  N   UNL d   1       0.766   0.312  -0.398  0.00  0.00    -0.209 N 
ATOM      4  N   UNL d   1      -0.464  -0.710   0.979  0.00  0.00    -0.266 N 
ATOM      5  HN  UNL d   1      -0.814  -1.271   1.755  1.00  0.00     0.186 HD
ATOM      6  C   UNL d   1      -1.224  -0.055   0.036  0.00  0.00     0.144 A 
ATOM      7  N   UNL d   1       0.805  -0.475   0.686  0.00  0.00    -0.002 NA
ENDROOT
BRANCH   6   8
ATOM      8  C   UNL d   1      -2.683  -0.071   0.050  0.00  0.00     0.010 A 
ATOM      9  C   UNL d   1      -3.374  -0.747   1.066  0.00  0.00     0.016 A 
ATOM     10  C   UNL d   1      -4.773  -0.753   1.099  0.00  0.00     0.017 A 
ATOM     11  C   UNL d   1      -5.513  -0.084   0.115  0.00  0.00     0.048 A 
ATOM     12  C   UNL d   1      -4.823   0.588  -0.906  0.00  0.00     0.017 A 
ATOM     13  C   UNL d   1      -3.424   0.593  -0.937  0.00  0.00     0.016 A 
BRANCH  11  14
ATOM     14  C   UNL d   1      -7.022  -0.093   0.167  0.00  0.00     0.417 C 
ATOM     15  F   UNL d   1      -7.608   0.592  -0.855  0.00  0.00    -0.166 F 
ATOM     16  F   UNL d   1      -7.538  -1.352   0.115  0.00  0.00    -0.166 F 
ATOM     17  F   UNL d   1      -7.506   0.462   1.312  0.00  0.00    -0.166 F 
ENDBRANCH  11  14
ENDBRANCH   6   8
BRANCH   3  18
ATOM     18  C   UNL d   1       1.964   0.724  -1.082  0.00  0.00     0.244 C 
BRANCH  18  19
ATOM     19  C   UNL d   1       2.440   2.066  -0.603  0.00  0.00     0.143 C 
ATOM     20  O   UNL d   1       3.539   2.197  -0.059  0.00  0.00    -0.296 OA
ATOM     21  C   UNL d   1       1.580   3.275  -0.868  0.00  0.00     0.093 C 
ENDBRANCH  18  19
ENDBRANCH   3  18
TORSDOF 4
