REMARK  6 active torsions:
REMARK  status: ('A' for Active; 'I' for Inactive)
REMARK    1  A    between atoms: C_9  and  N_1 
REMARK    2  A    between atoms: C_7  and  C_2 
REMARK    3  A    between atoms: C_8  and  C_6 
REMARK    4  A    between atoms: O_13  and  C_7 
REMARK    5  A    between atoms: C_14  and  C_10 
REMARK    6  A    between atoms: C_17  and  O_13 
ROOT
ATOM      1  N   UNL d   1      -0.274  -1.071   0.065  0.00  0.00    -0.260 N 
ATOM      2  C   UNL d   1      -0.333   1.154  -0.073  0.00  0.00     0.091 C 
ATOM      3  N   UNL d   1       0.999  -0.664   0.264  0.00  0.00    -0.293 N 
ATOM      4  HN  UNL d   1       1.798  -1.244   0.522  1.00  0.00     0.187 HD
ATOM      5  C   UNL d   1      -1.137   0.010  -0.059  0.00  0.00     0.049 C 
ATOM      6  C   UNL d   1       0.995   0.650   0.053  0.00  0.00     0.067 C 
ATOM      7  C   UNL d   1      -2.623  -0.117  -0.047  0.00  0.00     0.071 C 
ENDROOT
BRANCH   6   8
ATOM      8  C   UNL d   1       2.202   1.425   0.005  0.00  0.00     0.033 C 
ATOM      9  C   UNL d   1       3.338   1.144   0.663  0.00  0.00     0.013 C 
BRANCH   9  10
ATOM     10  C   UNL d   1       4.529   2.007   0.639  0.00  0.00    -0.036 A 
ATOM     11  C   UNL d   1       4.437   3.402   0.508  0.00  0.00     0.011 A 
ATOM     12  C   UNL d   1       5.580   4.200   0.533  0.00  0.00     0.001 A 
ATOM     13  C   UNL d   1       6.833   3.617   0.706  0.00  0.00     0.000 A 
ATOM     14  C   UNL d   1       6.939   2.236   0.854  0.00  0.00     0.001 A 
ATOM     15  C   UNL d   1       5.793   1.435   0.824  0.00  0.00     0.011 A 
ENDBRANCH   9  10
ENDBRANCH   6   8
BRANCH   2  16
ATOM     16  C   UNL d   1      -0.803   2.539  -0.140  0.00  0.00     0.297 C 
ATOM     17  O   UNL d   1      -1.982   2.853  -0.256  0.00  0.00    -0.259 OA
BRANCH  16  18
ATOM     18  O   UNL d   1       0.204   3.456  -0.037  0.00  0.00    -0.318 OA
BRANCH  18  19
ATOM     19  C   UNL d   1      -0.178   4.839  -0.034  0.00  0.00     0.174 C 
ATOM     20  C   UNL d   1      -0.418   5.332  -1.448  0.00  0.00     0.034 C 
ENDBRANCH  18  19
ENDBRANCH  16  18
ENDBRANCH   2  16
BRANCH   1  21
ATOM     21  C   UNL d   1      -0.545  -2.472   0.033  0.00  0.00     0.056 A 
ATOM     22  C   UNL d   1       0.287  -3.334   0.763  0.00  0.00     0.031 A 
ATOM     23  C   UNL d   1       0.054  -4.710   0.762  0.00  0.00     0.002 A 
ATOM     24  C   UNL d   1      -0.987  -5.239   0.003  0.00  0.00     0.000 A 
ATOM     25  C   UNL d   1      -1.794  -4.392  -0.756  0.00  0.00     0.002 A 
ATOM     26  C   UNL d   1      -1.579  -3.010  -0.740  0.00  0.00     0.031 A 
ENDBRANCH   1  21
TORSDOF 6
