REMARK  3 active torsions:
REMARK  status: ('A' for Active; 'I' for Inactive)
REMARK    1  A    between atoms: C_14  and  C_4 
REMARK    2  A    between atoms: C_13  and  C_10 
REMARK    3  A    between atoms: O_20  and  C_17 
ROOT
ATOM      1  N   UNL d   1      -0.518  -0.786   0.040  0.00  0.00    -0.214 N 
ATOM      2  N   UNL d   1       0.455  -1.730   0.277  0.00  0.00    -0.293 N 
ATOM      3  HN  UNL d   1       0.219  -2.663   0.614  1.00  0.00     0.187 HD
ATOM      4  C   UNL d   1      -1.890  -0.995  -0.062  0.00  0.00     0.154 A 
ATOM      5  C   UNL d   1      -0.372   0.574  -0.096  0.00  0.00     0.182 A 
ATOM      6  N   UNL d   1      -2.477   0.173  -0.289  0.00  0.00    -0.281 N 
ATOM      7  HN  UNL d   1      -3.476   0.315  -0.439  1.00  0.00     0.188 HD
ATOM      8  N   UNL d   1      -1.524   1.161  -0.289  0.00  0.00    -0.277 N 
ATOM      9  HN  UNL d   1      -1.683   2.160  -0.417  1.00  0.00     0.189 HD
ATOM     10  C   UNL d   1       1.692  -1.383   0.052  0.00  0.00     0.046 C 
ATOM     11  S   UNL d   1       1.175   1.319   0.011  0.00  0.00    -0.085 SA
ATOM     12  C   UNL d   1       2.136  -0.078  -0.601  0.00  0.00     0.142 C 
ENDROOT
BRANCH  10  13
ATOM     13  C   UNL d   1       2.765  -2.366   0.402  0.00  0.00    -0.011 A 
ATOM     14  C   UNL d   1       3.963  -2.439  -0.318  0.00  0.00     0.016 A 
ATOM     15  C   UNL d   1       4.965  -3.341   0.066  0.00  0.00     0.037 A 
ATOM     16  C   UNL d   1       4.770  -4.182   1.162  0.00  0.00     0.068 A 
ATOM     17  C   UNL d   1       3.572  -4.113   1.875  0.00  0.00     0.037 A 
ATOM     18  C   UNL d   1       2.568  -3.221   1.492  0.00  0.00     0.016 A 
BRANCH  16  19
ATOM     19  O   UNL d   1       5.684  -5.074   1.647  0.00  0.00    -0.356 OA
ATOM     20  C   UNL d   1       6.643  -5.557   0.713  0.00  0.00     0.210 C 
ENDBRANCH  16  19
ENDBRANCH  10  13
BRANCH   4  21
ATOM     21  C   UNL d   1      -2.587  -2.285  -0.005  0.00  0.00     0.011 A 
ATOM     22  C   UNL d   1      -2.099  -3.384   0.717  0.00  0.00     0.015 A 
ATOM     23  C   UNL d   1      -2.802  -4.593   0.744  0.00  0.00     0.001 A 
ATOM     24  C   UNL d   1      -4.007  -4.717   0.057  0.00  0.00     0.000 A 
ATOM     25  C   UNL d   1      -4.514  -3.634  -0.653  0.00  0.00     0.001 A 
ATOM     26  C   UNL d   1      -3.810  -2.426  -0.680  0.00  0.00     0.015 A 
ENDBRANCH   4  21
TORSDOF 3
