REMARK  6 active torsions:
REMARK  status: ('A' for Active; 'I' for Inactive)
REMARK       I    between atoms: C_6  and  N_1 
REMARK    1  A    between atoms: C_8  and  C_3 
REMARK    2  A    between atoms: C_9  and  C_6 
REMARK    3  A    between atoms: O_15  and  C_8 
REMARK    4  A    between atoms: C_13  and  C_9 
REMARK    5  A    between atoms: C_21  and  O_15 
REMARK    6  A    between atoms: O_17  and  C_16 
ROOT
ATOM      1  N   UNL d   1       0.903  -0.508  -0.265  0.00  0.00    -0.207 N 
ATOM      2  C   UNL d   1      -0.440  -0.669   0.100  0.00  0.00     0.142 C 
ATOM      3  C   UNL d   1      -1.182   0.136  -0.748  0.00  0.00     0.101 C 
ATOM      4  N   UNL d   1       1.049   0.576  -1.087  0.00  0.00    -0.300 N 
ATOM      5  HN  UNL d   1       1.914   1.032  -1.378  1.00  0.00     0.186 HD
ATOM      6  C   UNL d   1       1.977  -1.398  -0.017  0.00  0.00     0.248 C 
ATOM      7  C   UNL d   1      -0.211   0.899  -1.423  0.00  0.00     0.129 C 
ATOM      8  O   UNL d   1       1.742  -2.550   0.313  0.00  0.00    -0.271 OA
ATOM      9  N   UNL d   1      -0.890  -1.489   1.073  0.00  0.00    -0.383 N 
ATOM     10  H   UNL d   1      -0.298  -2.109   1.626  0.00  0.00     0.157 HD
ATOM     11  H   UNL d   1      -1.897  -1.659   1.168  0.00  0.00     0.157 HD
ENDROOT
BRANCH   6  12
ATOM     12  C   UNL d   1       3.380  -0.819  -0.120  0.00  0.00     0.144 C 
BRANCH  12  13
ATOM     13  C   UNL d   1       3.900  -0.394   1.238  0.00  0.00    -0.047 A 
ATOM     14  C   UNL d   1       4.027  -1.333   2.278  0.00  0.00     0.044 A 
ATOM     15  C   UNL d   1       4.261  -0.916   3.591  0.00  0.00     0.068 A 
ATOM     16  C   UNL d   1       4.455   0.441   3.850  0.00  0.00     0.037 A 
ATOM     17  C   UNL d   1       4.451   1.367   2.806  0.00  0.00     0.003 A 
ATOM     18  C   UNL d   1       4.174   0.951   1.503  0.00  0.00     0.007 A 
BRANCH  15  19
ATOM     19  O   UNL d   1       4.285  -1.724   4.696  0.00  0.00    -0.356 OA
ATOM     20  C   UNL d   1       4.014  -3.104   4.483  0.00  0.00     0.210 C 
ENDBRANCH  15  19
ENDBRANCH  12  13
ENDBRANCH   6  12
BRANCH   3  21
ATOM     21  C   UNL d   1      -2.627   0.086  -0.866  0.00  0.00     0.298 C 
ATOM     22  O   UNL d   1      -3.329  -0.631  -0.157  0.00  0.00    -0.259 OA
BRANCH  21  23
ATOM     23  O   UNL d   1      -3.107   0.795  -1.929  0.00  0.00    -0.318 OA
BRANCH  23  24
ATOM     24  C   UNL d   1      -4.369   0.312  -2.426  0.00  0.00     0.174 C 
ATOM     25  C   UNL d   1      -4.065  -0.760  -3.460  0.00  0.00     0.034 C 
ENDBRANCH  23  24
ENDBRANCH  21  23
ENDBRANCH   3  21
TORSDOF 6
