REMARK  7 active torsions:
REMARK  status: ('A' for Active; 'I' for Inactive)
REMARK    1  A    between atoms: C_21  and  C_7 
REMARK    2  A    between atoms: C_16  and  O_18 
REMARK    3  A    between atoms: O_18  and  C_17 
REMARK    4  A    between atoms: C_27  and  C_21 
REMARK    5  A    between atoms: C_25  and  C_27 
REMARK    6  A    between atoms: C_29  and  C_25 
REMARK    7  A    between atoms: C_30  and  C_29 
ROOT
ATOM      1  C   UNL d   1      15.482   1.537  -2.097  0.00  0.00    -0.036 C 
ATOM      2  C   UNL d   1      11.737   3.439  -0.578  0.00  0.00    -0.018 C 
ATOM      3  C   UNL d   1      10.826   2.625   0.463  0.00  0.00     0.047 C 
ATOM      4  C   UNL d   1      14.736   1.080  -0.806  0.00  0.00    -0.002 C 
ATOM      5  C   UNL d   1      12.581   2.447  -1.505  0.00  0.00    -0.000 C 
ATOM      6  C   UNL d   1      13.204   1.192  -0.828  0.00  0.00    -0.005 C 
ATOM      7  C   UNL d   1      16.069   0.197  -2.647  0.00  0.00    -0.002 C 
ATOM      8  C   UNL d   1      14.539   2.181  -3.131  0.00  0.00     0.010 C 
ATOM      9  C   UNL d   1       9.353   2.596   0.036  0.00  0.00     0.059 C 
ATOM     10  C   UNL d   1      13.559   3.151  -2.479  0.00  0.00     0.006 C 
ATOM     11  C   UNL d   1      15.176  -0.385  -0.556  0.00  0.00     0.006 C 
ATOM     12  C   UNL d   1      10.837   4.301  -1.541  0.00  0.00     0.014 C 
ATOM     13  C   UNL d   1      16.438  -0.569  -1.376  0.00  0.00     0.006 C 
ATOM     14  C   UNL d   1      12.692   0.923   0.587  0.00  0.00     0.007 C 
ATOM     15  C   UNL d   1      11.211   1.147   0.649  0.00  0.00     0.027 C 
ATOM     16  C   UNL d   1       8.726   3.969  -0.088  0.00  0.00     0.133 C 
ATOM     17 CL   UNL d   1      10.883   3.355   2.139  0.00  0.00    -0.118 Cl
ATOM     18  C   UNL d   1       9.540   4.898  -0.991  0.00  0.00     0.033 C 
ATOM     19  C   UNL d   1      16.532   2.575  -1.633  0.00  0.00     0.016 C 
ATOM     20  C   UNL d   1      12.723   4.429   0.108  0.00  0.00     0.018 C 
ENDROOT
BRANCH   7  21
ATOM     21  C   UNL d   1      17.113   0.159  -3.787  0.00  0.00    -0.014 C 
ATOM     22  C   UNL d   1      18.424   0.898  -3.512  0.00  0.00     0.010 C 
BRANCH  21  23
ATOM     23  C   UNL d   1      17.474  -1.301  -4.196  0.00  0.00     0.005 C 
BRANCH  23  24
ATOM     24  C   UNL d   1      16.304  -2.264  -4.452  0.00  0.00     0.001 C 
BRANCH  24  25
ATOM     25  C   UNL d   1      15.367  -1.799  -5.567  0.00  0.00     0.004 C 
BRANCH  25  26
ATOM     26  C   UNL d   1      14.175  -2.746  -5.806  0.00  0.00    -0.023 C 
ATOM     27  C   UNL d   1      13.253  -2.845  -4.588  0.00  0.00     0.009 C 
ATOM     28  C   UNL d   1      13.377  -2.258  -7.018  0.00  0.00     0.009 C 
ENDBRANCH  25  26
ENDBRANCH  24  25
ENDBRANCH  23  24
ENDBRANCH  21  23
ENDBRANCH   7  21
BRANCH  16  29
ATOM     29  O   UNL d   1       7.412   3.772  -0.644  0.00  0.00    -0.316 OA
BRANCH  29  30
ATOM     30  C   UNL d   1       6.502   4.755  -0.384  0.00  0.00     0.255 C 
ATOM     31  O   UNL d   1       6.725   5.780   0.239  0.00  0.00    -0.266 OA
ATOM     32  C   UNL d   1       5.198   4.438  -1.044  0.00  0.00     0.126 C 
ENDBRANCH  29  30
ENDBRANCH  16  29
TORSDOF 7
