REMARK  3 active torsions:
REMARK  status: ('A' for Active; 'I' for Inactive)
REMARK       I    between atoms: N_2  and  C_1 
REMARK       I    between atoms: N_6  and  C_1 
REMARK    1  A    between atoms: C_3  and  C_7 
REMARK    2  A    between atoms: C_5  and  N_4 
REMARK    3  A    between atoms: C_16  and  N_6 
ROOT
ATOM      1  C   UNL d   1       0.864  -0.061   0.085  0.00  0.00     0.319 C 
ATOM      2  N   UNL d   1       0.431  -0.723  -1.050  0.00  0.00    -0.331 N 
ATOM      3  N   UNL d   1      -0.260  -2.252  -3.345  0.00  0.00    -0.364 N 
ATOM      4  N   UNL d   1       0.501   1.264   0.170  0.00  0.00    -0.335 N 
ATOM      5  O   UNL d   1       1.537  -0.614   0.947  0.00  0.00    -0.247 OA
ATOM      6  C   UNL d   1       0.724  -2.166  -1.118  0.00  0.00     0.147 C 
ATOM      7  C   UNL d   1      -0.664  -0.284  -1.945  0.00  0.00     0.147 C 
ATOM      8  C   UNL d   1      -0.504  -0.811  -3.396  0.00  0.00     0.144 C 
ATOM      9  C   UNL d   1       0.908  -2.652  -2.561  0.00  0.00     0.144 C 
ATOM     10  H   UNL d   1       0.474   1.717  -0.729  0.00  0.00     0.165 HD
ENDROOT
BRANCH   3  11
ATOM     11  C   UNL d   1      -0.952  -3.116  -4.155  0.00  0.00     0.103 A 
ATOM     12  C   UNL d   1      -1.184  -4.430  -3.752  0.00  0.00     0.064 A 
ATOM     13  C   UNL d   1      -1.930  -5.304  -4.551  0.00  0.00     0.052 A 
ATOM     14  C   UNL d   1      -2.409  -4.835  -5.771  0.00  0.00     0.033 A 
ATOM     15  C   UNL d   1      -2.148  -3.520  -6.106  0.00  0.00     0.090 A 
ATOM     16  N   UNL d   1      -1.456  -2.664  -5.321  0.00  0.00    -0.352 N 
ATOM     17  HN  UNL d   1      -1.318  -1.694  -5.605  1.00  0.00     0.166 HD
BRANCH  13  18
ATOM     18  C   UNL d   1      -2.227  -6.702  -4.088  0.00  0.00     0.417 C 
ATOM     19  F   UNL d   1      -1.702  -6.993  -2.865  0.00  0.00    -0.166 F 
ATOM     20  F   UNL d   1      -3.563  -6.942  -3.986  0.00  0.00    -0.166 F 
ATOM     21  F   UNL d   1      -1.739  -7.647  -4.937  0.00  0.00    -0.166 F 
ENDBRANCH  13  18
ENDBRANCH   3  11
BRANCH   4  22
ATOM     22  C   UNL d   1       0.903   2.146   1.286  0.00  0.00     0.023 C 
ATOM     23  C   UNL d   1       2.417   2.414   1.264  0.00  0.00     0.037 C 
ATOM     24  C   UNL d   1       0.159   3.485   1.110  0.00  0.00     0.037 C 
ATOM     25  C   UNL d   1       0.499   1.570   2.656  0.00  0.00     0.037 C 
ENDBRANCH   4  22
TORSDOF 3
