REMARK  5 active torsions:
REMARK  status: ('A' for Active; 'I' for Inactive)
REMARK    1  A    between atoms: C_2  and  S_1 
REMARK    2  A    between atoms: C_5  and  S_1 
REMARK    3  A    between atoms: C_3  and  C_2 
REMARK    4  A    between atoms: C_4  and  C_3 
REMARK       I    between atoms: N_10  and  C_4 
REMARK    5  A    between atoms: C_12  and  N_10 
ROOT
ATOM      1  C   UNL d   1      -1.321   1.719  -6.861  0.00  0.00    -0.078 C 
ATOM      2  C   UNL d   1      -1.615   2.630  -7.589  0.00  0.00     0.018 C 
ATOM      3  C   UNL d   1      -0.818   0.056  -3.563  0.00  0.00     0.036 A 
ATOM      4  C   UNL d   1      -1.000   0.703  -5.910  0.00  0.00     0.019 A 
ATOM      5  C   UNL d   1      -1.101   1.006  -4.545  0.00  0.00     0.050 A 
ATOM      6  C   UNL d   1      -0.297  -1.527  -5.344  0.00  0.00     0.004 A 
ATOM      7  C   UNL d   1      -0.410  -1.222  -3.977  0.00  0.00     0.029 A 
ATOM      8  C   UNL d   1      -0.596  -0.568  -6.307  0.00  0.00     0.021 A 
ENDROOT
BRANCH   3   9
ATOM      9  N   UNL d   1      -0.914   0.326  -2.167  0.00  0.00    -0.327 N 
ATOM     10  C   UNL d   1      -1.269   1.536  -1.599  0.00  0.00     0.223 C 
ATOM     11  O   UNL d   1      -1.663   2.534  -2.200  0.00  0.00    -0.273 OA
ATOM     12  H   UNL d   1      -0.667  -0.445  -1.564  0.00  0.00     0.169 HD
BRANCH  10  13
ATOM     13  C   UNL d   1      -1.248   1.613  -0.081  0.00  0.00     0.123 C 
BRANCH  13  14
ATOM     14  C   UNL d   1       0.058   1.409   0.681  0.00  0.00     0.118 C 
ATOM     15  C   UNL d   1       0.320  -0.079   0.945  0.00  0.00     0.027 C 
BRANCH  14  16
ATOM     16  S   UNL d   1       1.509   2.192  -0.019  0.00  0.00     0.179 S 
ATOM     17  O   UNL d   1       1.492   2.046  -1.458  0.00  0.00    -0.222 OA
ATOM     18  O   UNL d   1       2.653   1.692   0.724  0.00  0.00    -0.222 OA
BRANCH  16  19
ATOM     19  C   UNL d   1       1.437   3.945   0.339  0.00  0.00     0.059 A 
ATOM     20  C   UNL d   1       2.162   4.440   1.433  0.00  0.00     0.025 A 
ATOM     21  C   UNL d   1       2.347   5.818   1.589  0.00  0.00     0.025 A 
ATOM     22  C   UNL d   1       1.813   6.699   0.651  0.00  0.00     0.034 A 
ATOM     23  C   UNL d   1       1.078   6.214  -0.433  0.00  0.00     0.025 A 
ATOM     24 CL   UNL d   1       2.104   8.388   0.807  0.00  0.00    -0.084 Cl
ATOM     25  C   UNL d   1       0.892   4.833  -0.597  0.00  0.00     0.025 A 
ENDBRANCH  16  19
ENDBRANCH  14  16
ENDBRANCH  13  14
ENDBRANCH  10  13
ENDBRANCH   3   9
TORSDOF 5
