REMARK  3 active torsions:
REMARK  status: ('A' for Active; 'I' for Inactive)
REMARK    1  A    between atoms: C_2  and  C_1 
REMARK       I    between atoms: N_5  and  C_2 
REMARK    2  A    between atoms: C_3  and  C_4 
REMARK    3  A    between atoms: C_12  and  N_5 
ROOT
ATOM      1  C   UNL d   1       2.693   2.697  -0.338  0.00  0.00     0.062 A 
ATOM      2  C   UNL d   1       3.466   3.745  -0.859  0.00  0.00     0.066 A 
ATOM      3  N   UNL d   1       4.745   1.508   0.286  0.00  0.00    -0.374 N 
ATOM      4  HN  UNL d   1       5.195   0.685   0.687  1.00  0.00     0.164 HD
ATOM      5  C   UNL d   1       3.393   1.607   0.194  0.00  0.00     0.105 A 
ATOM      6  C   UNL d   1       4.875   3.660  -0.745  0.00  0.00     0.034 A 
ATOM      7  C   UNL d   1       5.459   2.544  -0.176  0.00  0.00     0.088 A 
ENDROOT
BRANCH   1   8
ATOM      8  C   UNL d   1       1.204   2.563  -0.244  0.00  0.00     0.258 C 
ATOM      9  N   UNL d   1       0.448   3.712  -0.092  0.00  0.00    -0.323 N 
ATOM     10  H   UNL d   1       0.862   4.606  -0.311  0.00  0.00     0.169 HD
ATOM     11  O   UNL d   1       0.750   1.425  -0.257  0.00  0.00    -0.267 OA
BRANCH   9  12
ATOM     12  C   UNL d   1      -0.914   3.781   0.288  0.00  0.00     0.035 A 
ATOM     13  C   UNL d   1      -1.633   2.701   0.802  0.00  0.00     0.030 A 
ATOM     14  C   UNL d   1      -2.940   2.875   1.272  0.00  0.00     0.009 A 
ATOM     15  C   UNL d   1      -3.554   4.130   1.230  0.00  0.00    -0.062 A 
ATOM     16  C   UNL d   1      -2.857   5.200   0.664  0.00  0.00     0.009 A 
ATOM     17  C   UNL d   1      -4.923   4.310   1.812  0.00  0.00     0.048 C 
ATOM     18  C   UNL d   1      -1.546   5.028   0.204  0.00  0.00     0.030 A 
ENDBRANCH   9  12
ENDBRANCH   1   8
BRANCH   2  19
ATOM     19  C   UNL d   1       2.948   4.962  -1.565  0.00  0.00     0.418 C 
ATOM     20  F   UNL d   1       1.628   4.938  -1.872  0.00  0.00    -0.166 F 
ATOM     21  F   UNL d   1       3.123   6.086  -0.817  0.00  0.00    -0.166 F 
ATOM     22  F   UNL d   1       3.593   5.196  -2.741  0.00  0.00    -0.166 F 
ENDBRANCH   2  19
TORSDOF 3
