REMARK  3 active torsions:
REMARK  status: ('A' for Active; 'I' for Inactive)
REMARK    1  A    between atoms: N_8  and  N_1 
REMARK    2  A    between atoms: C_9  and  N_2 
REMARK       I    between atoms: C_7  and  N_8 
REMARK       I    between atoms: N_10  and  C_7 
REMARK    3  A    between atoms: C_15  and  N_10 
ROOT
ATOM      1  N   UNL d   1       0.412   1.361   0.365  0.00  0.00    -0.264 N 
ATOM      2  N   UNL d   1      -1.208  -0.883   0.511  0.00  0.00    -0.308 N 
ATOM      3  C   UNL d   1      -1.803   0.271  -0.035  0.00  0.00     0.244 C 
ATOM      4  C   UNL d   1       0.984   0.184   0.812  0.00  0.00     0.253 C 
ATOM      5  C   UNL d   1      -0.821   1.399  -0.413  0.00  0.00     0.250 C 
ATOM      6  C   UNL d   1       0.241  -1.047   0.333  0.00  0.00     0.236 C 
ATOM      7  O   UNL d   1       2.045   0.148   1.431  0.00  0.00    -0.270 OA
ATOM      8  O   UNL d   1      -3.004   0.417  -0.260  0.00  0.00    -0.271 OA
ENDROOT
BRANCH   1   9
ATOM      9  N   UNL d   1       1.218   2.542   0.395  0.00  0.00    -0.149 NA
ATOM     10  C   UNL d   1       1.647   3.123  -0.814  0.00  0.00     0.317 C 
ATOM     11  N   UNL d   1       2.538   4.157  -0.580  0.00  0.00    -0.312 N 
ATOM     12  O   UNL d   1       1.237   2.759  -1.907  0.00  0.00    -0.252 OA
ATOM     13  H   UNL d   1       2.800   4.312   0.380  0.00  0.00     0.170 HD
ATOM     14  H   UNL d   1       1.951   2.463   1.098  0.00  0.00     0.158 HD
BRANCH  11  15
ATOM     15  C   UNL d   1       3.144   5.006  -1.542  0.00  0.00     0.037 A 
ATOM     16  C   UNL d   1       2.844   4.986  -2.906  0.00  0.00     0.055 A 
ATOM     17  C   UNL d   1       3.515   5.832  -3.803  0.00  0.00     0.058 A 
ATOM     18 CL   UNL d   1       3.085   5.737  -5.476  0.00  0.00    -0.082 Cl
ATOM     19  C   UNL d   1       4.495   6.712  -3.338  0.00  0.00     0.055 A 
ATOM     20  C   UNL d   1       4.782   6.761  -1.974  0.00  0.00     0.028 A 
ATOM     21 CL   UNL d   1       5.389   7.753  -4.389  0.00  0.00    -0.083 Cl
ATOM     22  C   UNL d   1       4.106   5.919  -1.081  0.00  0.00     0.031 A 
ENDBRANCH  11  15
ENDBRANCH   1   9
BRANCH   2  23
ATOM     23  C   UNL d   1      -1.955  -2.043   0.908  0.00  0.00     0.037 A 
ATOM     24  C   UNL d   1      -3.189  -2.383   0.343  0.00  0.00     0.030 A 
ATOM     25  C   UNL d   1      -3.861  -3.558   0.718  0.00  0.00     0.009 A 
ATOM     26  C   UNL d   1      -3.324  -4.413   1.683  0.00  0.00    -0.062 A 
ATOM     27  C   UNL d   1      -2.112  -4.065   2.279  0.00  0.00     0.009 A 
ATOM     28  C   UNL d   1      -4.030  -5.683   2.054  0.00  0.00     0.048 C 
ATOM     29  C   UNL d   1      -1.441  -2.897   1.898  0.00  0.00     0.030 A 
ENDBRANCH   2  23
TORSDOF 3
