REMARK  1 active torsions:
REMARK  status: ('A' for Active; 'I' for Inactive)
REMARK    1  A    between atoms: C_3  and  N_1 
ROOT
ATOM      1  C   UNL d   1       0.265  -2.446  -0.025  0.00  0.00     0.045 A 
ATOM      2  C   UNL d   1      -0.459  -3.068  -1.051  0.00  0.00     0.037 A 
ATOM      3  C   UNL d   1       0.832  -3.234   0.988  0.00  0.00     0.037 A 
ATOM      4  C   UNL d   1       0.678  -4.626   0.981  0.00  0.00    -0.059 A 
ATOM      5  C   UNL d   1      -0.581  -4.462  -1.098  0.00  0.00    -0.059 A 
ATOM      6  C   UNL d   1      -0.018  -5.231  -0.073  0.00  0.00     0.013 A 
ATOM      7  C   UNL d   1       1.233  -5.468   2.092  0.00  0.00     0.048 C 
ATOM      8  C   UNL d   1      -1.310  -5.133  -2.224  0.00  0.00     0.048 C 
ENDROOT
BRANCH   1   9
ATOM      9  N   UNL d   1       0.383  -1.028   0.010  0.00  0.00    -0.266 N 
ATOM     10  C   UNL d   1       1.592  -0.358   0.073  0.00  0.00     0.148 A 
ATOM     11  S   UNL d   1       1.320   1.375   0.196  0.00  0.00    -0.090 SA
ATOM     12  S   UNL d   1       3.150  -0.959  -0.043  0.00  0.00    -0.052 SA
ATOM     13  C   UNL d   1      -0.465   1.218   0.091  0.00  0.00     0.185 A 
ATOM     14  C   UNL d   1      -0.770  -0.250  -0.022  0.00  0.00     0.239 A 
ATOM     15  O   UNL d   1      -1.927  -0.653  -0.096  0.00  0.00    -0.272 OA
ENDBRANCH   1   9
TORSDOF 1
