REMARK  3 active torsions:
REMARK  status: ('A' for Active; 'I' for Inactive)
REMARK    1  A    between atoms: C_7  and  C_2 
REMARK       I    between atoms: C_6  and  N_3 
REMARK       I    between atoms: N_9  and  C_6 
REMARK    2  A    between atoms: C_13  and  N_9 
REMARK    3  A    between atoms: O_19  and  C_15 
ROOT
ATOM      1  C   UNL d   1       1.030  -0.848   0.428  0.00  0.00     0.049 A 
ATOM      2  C   UNL d   1       2.430  -1.392   0.568  0.00  0.00     0.246 C 
ATOM      3  N   UNL d   1       3.383  -0.292   0.218  0.00  0.00    -0.315 N 
ATOM      4  C   UNL d   1       0.661   0.466   0.232  0.00  0.00    -0.019 A 
ATOM      5  N   UNL d   1      -0.111  -1.608   0.444  0.00  0.00    -0.356 N 
ATOM      6  C   UNL d   1       4.737  -0.542  -0.006  0.00  0.00     0.323 C 
ATOM      7  C   UNL d   1      -0.757   0.515   0.145  0.00  0.00    -0.001 A 
ATOM      8  N   UNL d   1       5.006  -1.817  -0.444  0.00  0.00    -0.306 N 
ATOM      9  C   UNL d   1      -1.212  -0.799   0.275  0.00  0.00     0.043 A 
ATOM     10  C   UNL d   1       3.024   1.069   0.672  0.00  0.00     0.133 C 
ATOM     11  C   UNL d   1       1.675   1.549   0.111  0.00  0.00     0.061 C 
ATOM     12  O   UNL d   1       5.593   0.328   0.130  0.00  0.00    -0.247 OA
ATOM     13  C   UNL d   1      -1.698   1.544  -0.035  0.00  0.00     0.014 A 
ATOM     14  C   UNL d   1      -2.570  -1.135   0.217  0.00  0.00     0.030 A 
ATOM     15  C   UNL d   1      -3.061   1.224  -0.083  0.00  0.00     0.001 A 
ATOM     16  C   UNL d   1      -3.487  -0.094   0.040  0.00  0.00     0.002 A 
ATOM     17  H   UNL d   1      -0.163  -2.609   0.572  0.00  0.00     0.166 HD
ATOM     18  H   UNL d   1       4.285  -2.262  -0.985  0.00  0.00     0.171 HD
ENDROOT
BRANCH   2  19
ATOM     19  C   UNL d   1       2.722  -2.078   1.937  0.00  0.00     0.413 C 
ATOM     20  F   UNL d   1       1.598  -2.285   2.666  0.00  0.00    -0.168 F 
ATOM     21  F   UNL d   1       3.274  -3.302   1.734  0.00  0.00    -0.168 F 
ATOM     22  F   UNL d   1       3.576  -1.371   2.710  0.00  0.00    -0.168 F 
ENDBRANCH   2  19
BRANCH   8  23
ATOM     23  C   UNL d   1       6.295  -2.332  -0.691  0.00  0.00     0.069 A 
ATOM     24  C   UNL d   1       6.473  -3.254  -1.737  0.00  0.00     0.095 A 
ATOM     25  C   UNL d   1       7.706  -3.891  -1.903  0.00  0.00     0.039 A 
ATOM     26  C   UNL d   1       8.770  -3.592  -1.051  0.00  0.00     0.003 A 
ATOM     27  C   UNL d   1       8.606  -2.652  -0.034  0.00  0.00     0.002 A 
ATOM     28  C   UNL d   1       7.374  -2.018   0.142  0.00  0.00     0.032 A 
BRANCH  24  29
ATOM     29  O   UNL d   1       5.472  -3.634  -2.598  0.00  0.00    -0.354 OA
ATOM     30  C   UNL d   1       4.889  -2.557  -3.338  0.00  0.00     0.210 C 
ENDBRANCH  24  29
ENDBRANCH   8  23
TORSDOF 3
