REMARK  5 active torsions:
REMARK  status: ('A' for Active; 'I' for Inactive)
REMARK    1  A    between atoms: C_2  and  N_9 
REMARK    2  A    between atoms: N_6  and  C_2 
REMARK    3  A    between atoms: C_11  and  C_3 
REMARK    4  A    between atoms: C_10  and  N_6 
REMARK    5  A    between atoms: N_9  and  C_16 
ROOT
ATOM      1  N   UNL d   1       5.774  -4.033  -0.125  0.00  0.00    -0.333 N 
ATOM      2  H   UNL d   1       6.641  -3.700   0.272  0.00  0.00     0.168 HD
ENDROOT
BRANCH   1   3
ATOM      3  C   UNL d   1       5.934  -4.892  -1.178  0.00  0.00     0.176 C 
ATOM      4  S   UNL d   1       5.095  -4.822  -2.625  0.00  0.00    -0.041 SA
BRANCH   3   5
ATOM      5  N   UNL d   1       6.966  -5.787  -1.081  0.00  0.00    -0.332 N 
ATOM      6  H   UNL d   1       7.257  -6.173  -1.978  0.00  0.00     0.168 HD
BRANCH   5   7
ATOM      7  C   UNL d   1       7.409  -6.548   0.036  0.00  0.00     0.056 A 
ATOM      8  C   UNL d   1       8.422  -7.506  -0.170  0.00  0.00     0.060 A 
ATOM      9 CL   UNL d   1       9.206  -7.663  -1.707  0.00  0.00    -0.082 Cl
ATOM     10  C   UNL d   1       8.811  -8.378   0.852  0.00  0.00     0.026 A 
ATOM     11  C   UNL d   1       8.194  -8.306   2.098  0.00  0.00     0.002 A 
ATOM     12  C   UNL d   1       7.206  -7.351   2.323  0.00  0.00     0.002 A 
ATOM     13  C   UNL d   1       6.814  -6.480   1.299  0.00  0.00     0.031 A 
ENDBRANCH   5   7
ENDBRANCH   3   5
ENDBRANCH   1   3
BRANCH   1  14
ATOM     14  C   UNL d   1       4.584  -3.528   0.436  0.00  0.00     0.034 A 
ATOM     15  C   UNL d   1       3.364  -4.193   0.322  0.00  0.00     0.030 A 
ATOM     16  C   UNL d   1       2.265  -3.798   1.098  0.00  0.00     0.016 A 
ATOM     17  C   UNL d   1       2.365  -2.724   1.994  0.00  0.00    -0.008 A 
ATOM     18  C   UNL d   1       3.569  -2.006   2.029  0.00  0.00     0.016 A 
ATOM     19  C   UNL d   1       4.674  -2.413   1.271  0.00  0.00     0.030 A 
BRANCH  17  20
ATOM     20  C   UNL d   1       1.299  -2.393   2.941  0.00  0.00     0.063 A 
ATOM     21  N   UNL d   1       1.488  -1.412   3.915  0.00  0.00    -0.292 N 
ATOM     22  N   UNL d   1       0.455  -1.311   4.733  0.00  0.00    -0.061 NA
ATOM     23  HN  UNL d   1       2.328  -0.838   3.987  1.00  0.00     0.183 HD
ATOM     24  S   UNL d   1      -0.773  -2.379   4.360  0.00  0.00    -0.010 SA
ATOM     25  C   UNL d   1       0.077  -3.040   3.023  0.00  0.00     0.096 A 
ENDBRANCH  17  20
ENDBRANCH   1  14
TORSDOF 5
