REMARK  6 active torsions:
REMARK  status: ('A' for Active; 'I' for Inactive)
REMARK    1  A    between atoms: C_5  and  C_1 
REMARK    2  A    between atoms: O_8  and  C_2 
REMARK    3  A    between atoms: C_3  and  C_4 
REMARK       I    between atoms: N_9  and  C_5 
REMARK    4  A    between atoms: C_21  and  O_8 
REMARK    5  A    between atoms: C_19  and  N_9 
REMARK    6  A    between atoms: C_18  and  C_19 
ROOT
ATOM      1  C   UNL d   1       0.935   1.159   0.059  0.00  0.00     0.098 C 
ATOM      2  C   UNL d   1      -0.415   0.784   0.112  0.00  0.00     0.164 C 
ATOM      3  C   UNL d   1       1.869   0.122  -0.158  0.00  0.00     0.069 C 
ATOM      4  N   UNL d   1      -0.853  -0.461  -0.232  0.00  0.00    -0.346 N 
ATOM      5  HN  UNL d   1      -1.851  -0.658  -0.297  1.00  0.00     0.167 HD
ATOM      6  C   UNL d   1       0.044  -1.417  -0.481  0.00  0.00     0.091 C 
ATOM      7  C   UNL d   1       1.396  -1.182  -0.427  0.00  0.00     0.034 C 
ENDROOT
BRANCH   1   8
ATOM      8  C   UNL d   1       1.358   2.554   0.351  0.00  0.00     0.257 C 
ATOM      9  N   UNL d   1       2.196   3.173  -0.573  0.00  0.00    -0.352 N 
ATOM     10  H   UNL d   1       2.473   2.675  -1.409  0.00  0.00     0.163 HD
ATOM     11  O   UNL d   1       1.008   3.080   1.400  0.00  0.00    -0.267 OA
BRANCH   9  12
ATOM     12  C   UNL d   1       3.134   4.202  -0.121  0.00  0.00     0.161 C 
BRANCH  12  13
ATOM     13  C   UNL d   1       3.104   5.516  -0.865  0.00  0.00    -0.039 A 
ATOM     14  C   UNL d   1       1.932   6.039  -1.427  0.00  0.00     0.034 A 
ATOM     15  C   UNL d   1       1.919   7.318  -2.006  0.00  0.00     0.056 A 
ATOM     16 CL   UNL d   1       0.428   7.883  -2.672  0.00  0.00    -0.083 Cl
ATOM     17  C   UNL d   1       3.087   8.100  -2.017  0.00  0.00     0.055 A 
ATOM     18  C   UNL d   1       4.254   7.593  -1.456  0.00  0.00     0.026 A 
ATOM     19 CL   UNL d   1       3.131   9.692  -2.682  0.00  0.00    -0.083 Cl
ATOM     20  C   UNL d   1       4.265   6.317  -0.885  0.00  0.00     0.010 A 
ENDBRANCH  12  13
ENDBRANCH   9  12
ENDBRANCH   1   8
BRANCH   2  21
ATOM     21  O   UNL d   1      -1.391   1.656   0.596  0.00  0.00    -0.293 OA
BRANCH  21  22
ATOM     22  C   UNL d   1      -2.514   1.030   1.123  0.00  0.00     0.077 A 
ATOM     23  C   UNL d   1      -2.421   0.126   2.192  0.00  0.00     0.037 A 
ATOM     24  C   UNL d   1      -3.544  -0.598   2.602  0.00  0.00     0.003 A 
ATOM     25  C   UNL d   1      -4.771  -0.389   1.976  0.00  0.00     0.000 A 
ATOM     26  C   UNL d   1      -4.881   0.558   0.956  0.00  0.00     0.003 A 
ATOM     27  C   UNL d   1      -3.756   1.273   0.532  0.00  0.00     0.037 A 
ENDBRANCH  21  22
ENDBRANCH   2  21
BRANCH   3  28
ATOM     28  C   UNL d   1       3.360   0.221   0.030  0.00  0.00     0.418 C 
ATOM     29  F   UNL d   1       3.893   1.461   0.097  0.00  0.00    -0.166 F 
ATOM     30  F   UNL d   1       3.766  -0.416   1.163  0.00  0.00    -0.166 F 
ATOM     31  F   UNL d   1       4.026  -0.395  -0.990  0.00  0.00    -0.166 F 
ENDBRANCH   3  28
TORSDOF 6
