REMARK  4 active torsions:
REMARK  status: ('A' for Active; 'I' for Inactive)
REMARK    1  A    between atoms: N_2  and  N_1 
REMARK       I    between atoms: N_4  and  C_6 
REMARK       I    between atoms: N_12  and  C_6 
REMARK    2  A    between atoms: N_9  and  C_7 
REMARK    3  A    between atoms: S_11  and  C_7 
REMARK    4  A    between atoms: C_13  and  N_9 
ROOT
ATOM      1  N   UNL d   1       3.279   1.342   4.421  0.00  0.00    -0.215 N 
ATOM      2  HN  UNL d   1       3.750   1.233   5.319  1.00  0.00     0.196 HD
ATOM      3  N   UNL d   1       2.585   0.494   2.365  0.00  0.00    -0.312 N 
ATOM      4  HN  UNL d   1       1.694   0.990   2.365  1.00  0.00     0.170 HD
ATOM      5  C   UNL d   1       3.230   0.376   3.559  0.00  0.00     0.176 C 
ATOM      6  C   UNL d   1       3.003   0.030   1.228  0.00  0.00     0.146 C 
ATOM      7  N   UNL d   1       3.745  -0.825   3.953  0.00  0.00    -0.272 NA
ATOM      8  H   UNL d   1       3.358  -1.633   3.489  0.00  0.00     0.127 HD
ATOM      9  H   UNL d   1       3.845  -0.917   4.955  0.00  0.00     0.127 HD
ENDROOT
BRANCH   6  10
ATOM     10  N   UNL d   1       2.254   0.103   0.076  0.00  0.00    -0.337 N 
ATOM     11  H   UNL d   1       2.671  -0.340  -0.735  0.00  0.00     0.168 HD
BRANCH  10  12
ATOM     12  C   UNL d   1       0.844   0.028   0.025  0.00  0.00     0.034 A 
ATOM     13  C   UNL d   1       0.176   0.538  -1.097  0.00  0.00     0.031 A 
ATOM     14  C   UNL d   1      -1.218   0.472  -1.194  0.00  0.00     0.026 A 
ATOM     15  C   UNL d   1      -1.958  -0.116  -0.172  0.00  0.00     0.034 A 
ATOM     16  C   UNL d   1      -1.315  -0.633   0.947  0.00  0.00     0.026 A 
ATOM     17 CL   UNL d   1      -3.670  -0.213  -0.294  0.00  0.00    -0.084 Cl
ATOM     18  C   UNL d   1       0.078  -0.554   1.045  0.00  0.00     0.031 A 
ENDBRANCH  10  12
ENDBRANCH   6  10
BRANCH   6  19
ATOM     19  S   UNL d   1       4.546  -0.792   0.997  0.00  0.00    -0.098 SA
ATOM     20  C   UNL d   1       5.296   0.206  -0.303  0.00  0.00     0.099 C 
ENDBRANCH   6  19
BRANCH   1  21
ATOM     21  N   UNL d   1       2.680   2.491   4.078  0.00  0.00    -0.036 N 
ATOM     22  O   UNL d   1       3.393   3.497   3.966  0.00  0.00    -0.516 OA
ATOM     23  O   UNL d   1       1.442   2.536   3.995  0.00  0.00    -0.516 OA
ENDBRANCH   1  21
TORSDOF 4
