REMARK  5 active torsions:
REMARK  status: ('A' for Active; 'I' for Inactive)
REMARK    1  A    between atoms: N_2  and  C_1 
REMARK    2  A    between atoms: N_6  and  C_1 
REMARK    3  A    between atoms: C_9  and  N_2 
REMARK    4  A    between atoms: C_13  and  N_6 
REMARK    5  A    between atoms: C_11  and  C_13 
ROOT
ATOM      1  N   UNL d   1       2.483  -0.131   0.098  0.00  0.00    -0.363 N 
ATOM      2  H   UNL d   1       2.845   0.799   0.282  0.00  0.00     0.162 HD
ENDROOT
BRANCH   1   3
ATOM      3  C   UNL d   1       1.117  -0.136  -0.002  0.00  0.00     0.172 C 
ATOM      4  S   UNL d   1       0.341   1.330   0.200  0.00  0.00    -0.041 SA
BRANCH   3   5
ATOM      5  N   UNL d   1       0.554  -1.375  -0.215  0.00  0.00    -0.333 N 
ATOM      6  H   UNL d   1       0.983  -2.104   0.344  0.00  0.00     0.168 HD
BRANCH   5   7
ATOM      7  C   UNL d   1      -0.754  -1.627  -0.679  0.00  0.00     0.034 A 
ATOM      8  C   UNL d   1      -1.297  -0.897  -1.742  0.00  0.00     0.036 A 
ATOM      9  C   UNL d   1      -2.606  -1.130  -2.181  0.00  0.00    -0.060 A 
ATOM     10  C   UNL d   1      -3.186  -0.323  -3.304  0.00  0.00     0.048 C 
ATOM     11  C   UNL d   1      -3.365  -2.123  -1.553  0.00  0.00     0.007 A 
ATOM     12  C   UNL d   1      -2.812  -2.886  -0.523  0.00  0.00     0.003 A 
ATOM     13  C   UNL d   1      -1.501  -2.654  -0.100  0.00  0.00     0.029 A 
ENDBRANCH   5   7
ENDBRANCH   3   5
ENDBRANCH   1   3
BRANCH   1  14
ATOM     14  C   UNL d   1       3.360  -0.981  -0.685  0.00  0.00     0.160 C 
BRANCH  14  15
ATOM     15  C   UNL d   1       3.959  -2.142   0.067  0.00  0.00    -0.040 A 
ATOM     16  C   UNL d   1       4.133  -2.134   1.462  0.00  0.00     0.018 A 
ATOM     17  C   UNL d   1       4.771  -3.210   2.058  0.00  0.00    -0.022 A 
ATOM     18  C   UNL d   1       5.034  -3.485   3.487  0.00  0.00     0.068 C 
ATOM     19  C   UNL d   1       5.227  -4.278   1.301  0.00  0.00     0.075 A 
ATOM     20  C   UNL d   1       6.016  -4.649   3.335  0.00  0.00     0.180 C 
ATOM     21  O   UNL d   1       5.828  -5.263   2.039  0.00  0.00    -0.350 OA
ATOM     22  C   UNL d   1       5.074  -4.321  -0.066  0.00  0.00     0.038 A 
ATOM     23  C   UNL d   1       4.443  -3.240  -0.684  0.00  0.00     0.011 A 
ENDBRANCH  14  15
ENDBRANCH   1  14
TORSDOF 5
