REMARK  5 active torsions:
REMARK  status: ('A' for Active; 'I' for Inactive)
REMARK    1  A    between atoms: C_12  and  N_3 
REMARK    2  A    between atoms: C_19  and  C_5 
REMARK    3  A    between atoms: C_13  and  C_12 
REMARK       I    between atoms: N_23  and  C_13 
REMARK    4  A    between atoms: N_15  and  N_23 
REMARK    5  A    between atoms: C_28  and  C_27 
ROOT
ATOM      1  C   UNL d   1      -1.573  -1.723   1.538  0.00  0.00     0.710 A 
ATOM      2  N   UNL d   1      -1.446  -0.692   2.447  0.00  0.00    -0.047 N 
ATOM      3  N   UNL d   1      -0.849  -1.687   0.381  0.00  0.00    -0.172 N 
ATOM      4  C   UNL d   1       0.078   0.461   0.975  0.00  0.00     0.108 A 
ATOM      5  C   UNL d   1      -0.047  -0.569   0.114  0.00  0.00     0.068 A 
ATOM      6  C   UNL d   1      -0.642   0.434   2.272  0.00  0.00     0.284 A 
ATOM      7  N   UNL d   1      -2.413  -2.622   1.999  0.00  0.00    -0.184 N 
ATOM      8  HN  UNL d   1      -2.730  -3.485   1.556  1.00  0.00     0.185 HD
ATOM      9  N   UNL d   1      -2.196  -0.945   3.549  0.00  0.00    -0.272 N 
ATOM     10  HN  UNL d   1      -2.303  -0.392   4.399  1.00  0.00     0.189 HD
ATOM     11  C   UNL d   1      -2.757  -2.112   3.224  0.00  0.00     0.216 A 
ATOM     12  O   UNL d   1      -0.541   1.307   3.123  0.00  0.00    -0.266 OA
ENDROOT
BRANCH   3  13
ATOM     13  C   UNL d   1      -0.917  -2.902  -0.450  0.00  0.00     0.252 C 
BRANCH  13  14
ATOM     14  C   UNL d   1      -2.074  -2.856  -1.449  0.00  0.00     0.254 C 
ATOM     15  N   UNL d   1      -3.278  -3.301  -0.910  0.00  0.00    -0.269 N 
ATOM     16  H   UNL d   1      -3.319  -3.457   0.099  0.00  0.00     0.190 HD
ATOM     17  O   UNL d   1      -1.889  -2.487  -2.609  0.00  0.00    -0.270 OA
BRANCH  15  18
ATOM     18  N   UNL d   1      -4.454  -3.594  -1.558  0.00  0.00    -0.308 N 
ATOM     19  C   UNL d   1      -4.587  -3.401  -2.831  0.00  0.00     0.118 C 
ATOM     20  HN  UNL d   1      -5.238  -3.970  -1.025  1.00  0.00     0.186 HD
BRANCH  19  21
ATOM     21  C   UNL d   1      -5.832  -3.784  -3.543  0.00  0.00    -0.017 A 
ATOM     22  C   UNL d   1      -6.858  -4.456  -2.868  0.00  0.00     0.052 A 
ATOM     23  C   UNL d   1      -7.955  -4.849  -3.606  0.00  0.00     0.105 A 
ATOM     24  O   UNL d   1      -9.024  -5.543  -3.130  0.00  0.00    -0.323 OA
ATOM     25  C   UNL d   1      -8.062  -4.581  -4.951  0.00  0.00     0.105 A 
ATOM     26  C   UNL d   1      -9.759  -5.775  -4.349  0.00  0.00     0.352 A 
ATOM     27  O   UNL d   1      -9.211  -5.076  -5.487  0.00  0.00    -0.323 OA
ATOM     28  C   UNL d   1      -7.080  -3.899  -5.638  0.00  0.00     0.040 A 
ATOM     29  C   UNL d   1      -5.944  -3.502  -4.922  0.00  0.00     0.016 A 
ENDBRANCH  19  21
ENDBRANCH  15  18
ENDBRANCH  13  14
ENDBRANCH   3  13
BRANCH   5  30
ATOM     30  C   UNL d   1       0.738  -0.473  -1.134  0.00  0.00    -0.009 A 
ATOM     31  C   UNL d   1       2.037  -0.998  -1.192  0.00  0.00     0.014 A 
ATOM     32  C   UNL d   1       2.815  -0.840  -2.342  0.00  0.00     0.001 A 
ATOM     33  C   UNL d   1       2.307  -0.149  -3.440  0.00  0.00     0.000 A 
ATOM     34  C   UNL d   1       1.018   0.378  -3.393  0.00  0.00     0.001 A 
ATOM     35  C   UNL d   1       0.235   0.216  -2.245  0.00  0.00     0.014 A 
ENDBRANCH   5  30
TORSDOF 5
