REMARK  2 active torsions:
REMARK  status: ('A' for Active; 'I' for Inactive)
REMARK    1  A    between atoms: C_4  and  C_1 
REMARK    2  A    between atoms: C_8  and  C_1 
ROOT
ATOM      1  N   UNL d   1      -1.222   2.311   1.728  0.00  0.00    -0.321 N 
ATOM      2  HN  UNL d   1      -2.157   2.220   1.329  1.00  0.00     0.169 HD
ATOM      3  C   UNL d   1      -0.016   1.954   1.176  0.00  0.00     0.117 A 
ATOM      4  C   UNL d   1      -0.871   2.800   2.903  0.00  0.00     0.189 A 
ATOM      5  N   UNL d   1       1.050   2.225   1.939  0.00  0.00    -0.246 N 
ATOM      6  HN  UNL d   1       2.033   2.040   1.741  1.00  0.00     0.196 HD
ATOM      7  O   UNL d   1       0.491   2.821   3.068  0.00  0.00    -0.217 OA
ATOM      8  C   UNL d   1      -1.815   3.161   3.924  0.00  0.00     0.058 A 
ATOM      9  S   UNL d   1      -1.311   3.710   5.467  0.00  0.00    -0.098 SA
ATOM     10  C   UNL d   1      -3.192   3.078   3.848  0.00  0.00     0.024 A 
ATOM     11  C   UNL d   1      -2.921   3.800   6.037  0.00  0.00     0.050 A 
ATOM     12  C   UNL d   1      -3.832   3.438   5.069  0.00  0.00     0.009 A 
ENDROOT
BRANCH   3  13
ATOM     13  C   UNL d   1       0.046   0.999  -0.028  0.00  0.00     0.049 A 
ATOM     14  C   UNL d   1       0.834  -0.291   0.101  0.00  0.00     0.024 A 
ATOM     15  C   UNL d   1      -0.667  -0.335   0.159  0.00  0.00     0.024 A 
BRANCH  13  16
ATOM     16  C   UNL d   1      -0.054   1.678  -1.394  0.00  0.00    -0.020 A 
ATOM     17  C   UNL d   1       1.073   2.094  -2.137  0.00  0.00     0.043 A 
ATOM     18  C   UNL d   1       0.952   2.629  -3.426  0.00  0.00     0.048 A 
ATOM     19 CL   UNL d   1       2.675   1.953  -1.497  0.00  0.00    -0.084 Cl
ATOM     20  C   UNL d   1      -0.307   2.786  -3.992  0.00  0.00     0.035 A 
ATOM     21  C   UNL d   1      -1.444   2.431  -3.276  0.00  0.00     0.024 A 
ATOM     22 CL   UNL d   1      -0.457   3.413  -5.586  0.00  0.00    -0.084 Cl
ATOM     23  C   UNL d   1      -1.315   1.890  -1.991  0.00  0.00     0.012 A 
ENDBRANCH  13  16
ENDBRANCH   3  13
TORSDOF 2
