REMARK  3 active torsions:
REMARK  status: ('A' for Active; 'I' for Inactive)
REMARK    1  A    between atoms: C_10  and  C_3 
REMARK    2  A    between atoms: C_9  and  C_5 
REMARK    3  A    between atoms: O_16  and  C_13 
ROOT
ATOM      1  N   UNL d   1      -0.454   1.550  -0.772  0.00  0.00    -0.358 N 
ATOM      2  HN  UNL d   1      -0.285   2.093  -1.619  1.00  0.00     0.166 HD
ATOM      3  C   UNL d   1      -1.585   1.684  -0.147  0.00  0.00     0.021 C 
ATOM      4  S   UNL d   1      -1.154  -1.592  -0.308  0.00  0.00    -0.118 SA
ATOM      5  C   UNL d   1      -2.371  -0.591   0.655  0.00  0.00     0.091 C 
ATOM      6  C   UNL d   1      -1.970   0.836   1.054  0.00  0.00     0.078 C 
ATOM      7  C   UNL d   1       0.543   0.672  -0.309  0.00  0.00     0.049 A 
ATOM      8  C   UNL d   1       0.376  -0.706  -0.073  0.00  0.00     0.028 A 
ATOM      9  C   UNL d   1       1.817   1.234  -0.133  0.00  0.00     0.031 A 
ATOM     10  C   UNL d   1       1.485  -1.482   0.305  0.00  0.00     0.021 A 
ATOM     11  C   UNL d   1       2.907   0.460   0.263  0.00  0.00     0.002 A 
ATOM     12  C   UNL d   1       2.742  -0.903   0.477  0.00  0.00     0.002 A 
ENDROOT
BRANCH   5  13
ATOM     13  C   UNL d   1      -3.742  -0.609  -0.015  0.00  0.00    -0.043 A 
ATOM     14  C   UNL d   1      -3.888  -0.406  -1.397  0.00  0.00     0.011 A 
ATOM     15  C   UNL d   1      -5.150  -0.360  -1.991  0.00  0.00     0.037 A 
ATOM     16  C   UNL d   1      -6.294  -0.497  -1.211  0.00  0.00     0.068 A 
ATOM     17  C   UNL d   1      -6.166  -0.730   0.158  0.00  0.00     0.037 A 
ATOM     18  C   UNL d   1      -4.902  -0.777   0.756  0.00  0.00     0.011 A 
BRANCH  16  19
ATOM     19  O   UNL d   1      -7.574  -0.452  -1.693  0.00  0.00    -0.356 OA
ATOM     20  C   UNL d   1      -7.751   0.375  -2.840  0.00  0.00     0.210 C 
ENDBRANCH  16  19
ENDBRANCH   5  13
BRANCH   3  21
ATOM     21  C   UNL d   1      -2.539   2.730  -0.642  0.00  0.00    -0.014 A 
ATOM     22  C   UNL d   1      -2.560   3.031  -2.012  0.00  0.00     0.013 A 
ATOM     23  C   UNL d   1      -3.399   4.034  -2.505  0.00  0.00     0.001 A 
ATOM     24  C   UNL d   1      -4.215   4.752  -1.630  0.00  0.00     0.000 A 
ATOM     25  C   UNL d   1      -4.192   4.465  -0.268  0.00  0.00     0.001 A 
ATOM     26  C   UNL d   1      -3.356   3.461   0.229  0.00  0.00     0.013 A 
ENDBRANCH   3  21
TORSDOF 3
