REMARK  3 active torsions:
REMARK  status: ('A' for Active; 'I' for Inactive)
REMARK    1  A    between atoms: C_13  and  C_1 
REMARK    2  A    between atoms: C_5  and  N_15 
REMARK    3  A    between atoms: N_15  and  N_11 
ROOT
ATOM      1  N   UNL d   1       3.575  -3.898   0.010  0.00  0.00    -0.298 N 
ATOM      2  H   UNL d   1       3.171  -4.816  -0.168  0.00  0.00     0.187 HD
ENDROOT
BRANCH   1   3
ATOM      3  C   UNL d   1       4.988  -3.848   0.035  0.00  0.00     0.091 A 
ATOM      4  C   UNL d   1       5.694  -4.869   0.718  0.00  0.00     0.065 A 
ATOM      5  C   UNL d   1       7.090  -4.862   0.813  0.00  0.00     0.050 A 
ATOM      6 CL   UNL d   1       4.851  -6.178   1.479  0.00  0.00    -0.082 Cl
ATOM      7  C   UNL d   1       7.809  -3.830   0.223  0.00  0.00     0.037 A 
ATOM      8  C   UNL d   1       7.151  -2.810  -0.449  0.00  0.00     0.050 A 
ATOM      9 CL   UNL d   1       9.526  -3.831   0.303  0.00  0.00    -0.084 Cl
ATOM     10  C   UNL d   1       5.756  -2.810  -0.538  0.00  0.00     0.065 A 
ATOM     11 CL   UNL d   1       5.075  -1.536  -1.506  0.00  0.00    -0.082 Cl
ENDBRANCH   1   3
BRANCH   1  12
ATOM     12  N   UNL d   1       2.870  -2.752  -0.031  0.00  0.00    -0.310 N 
ATOM     13  C   UNL d   1       1.676  -2.824  -0.525  0.00  0.00     0.120 C 
ATOM     14  HN  UNL d   1       3.257  -1.872   0.310  1.00  0.00     0.186 HD
BRANCH  13  15
ATOM     15  C   UNL d   1       0.919  -1.592  -0.625  0.00  0.00     0.012 A 
ATOM     16  C   UNL d   1      -0.318  -1.483  -1.222  0.00  0.00     0.087 A 
ATOM     17  S   UNL d   1      -0.952   0.093  -1.210  0.00  0.00    -0.065 SA
ATOM     18 CL   UNL d   1      -1.246  -2.730  -1.966  0.00  0.00    -0.075 Cl
ATOM     19  C   UNL d   1       0.417   0.673  -0.406  0.00  0.00     0.077 A 
ATOM     20  C   UNL d   1       1.345  -0.301  -0.143  0.00  0.00     0.046 A 
ATOM     21 CL   UNL d   1       0.536   2.337  -0.005  0.00  0.00    -0.076 Cl
ENDBRANCH  13  15
ENDBRANCH   1  12
TORSDOF 3
