REMARK  7 active torsions:
REMARK  status: ('A' for Active; 'I' for Inactive)
REMARK    1  A    between atoms: O_29  and  C_3 
REMARK    2  A    between atoms: O_30  and  C_5 
REMARK    3  A    between atoms: C_18  and  C_6 
REMARK    4  A    between atoms: C_7  and  C_11 
REMARK    5  A    between atoms: C_8  and  C_12 
REMARK    6  A    between atoms: N_19  and  N_13 
REMARK    7  A    between atoms: C_20  and  N_19 
ROOT
ATOM      1  C   UNL d   1      -0.094   0.621   0.018  0.00  0.00     0.118 A 
ATOM      2  C   UNL d   1      -0.048  -0.768   0.016  0.00  0.00     0.025 A 
ATOM      3  C   UNL d   1       1.104   1.321   0.057  0.00  0.00     0.134 A 
ATOM      4  C   UNL d   1      -1.329  -1.515   0.007  0.00  0.00     0.037 C 
ATOM      5  C   UNL d   1       2.335   0.655   0.046  0.00  0.00     0.108 A 
ATOM      6  C   UNL d   1       2.417  -0.747  -0.002  0.00  0.00    -0.014 A 
ATOM      7  O   UNL d   1      -1.241   1.372  -0.034  0.00  0.00    -0.337 OA
ATOM      8  C   UNL d   1       1.186  -1.442  -0.003  0.00  0.00     0.027 A 
ATOM      9  N   UNL d   1      -1.335  -2.790  -0.250  0.00  0.00    -0.320 N 
ATOM     10  HN  UNL d   1      -0.462  -3.302  -0.376  1.00  0.00     0.181 HD
ATOM     11  C   UNL d   1      -2.424   0.653  -0.437  0.00  0.00     0.066 C 
ATOM     12  C   UNL d   1      -2.544  -0.672   0.319  0.00  0.00     0.096 C 
ATOM     13  C   UNL d   1      -2.431   0.465  -1.966  0.00  0.00     0.046 C 
ATOM     14  C   UNL d   1      -3.614   1.546  -0.059  0.00  0.00     0.046 C 
ENDROOT
BRANCH   9  15
ATOM     15  N   UNL d   1      -2.537  -3.422  -0.345  0.00  0.00    -0.206 NA
ATOM     16  H   UNL d   1      -3.252  -2.946  -0.895  0.00  0.00     0.153 HD
BRANCH  15  17
ATOM     17  C   UNL d   1      -2.484  -4.796  -0.689  0.00  0.00     0.029 A 
ATOM     18  C   UNL d   1      -1.416  -5.612  -0.296  0.00  0.00     0.041 A 
ATOM     19  C   UNL d   1      -1.384  -6.979  -0.614  0.00  0.00     0.050 A 
ATOM     20  C   UNL d   1      -2.455  -7.535  -1.330  0.00  0.00     0.032 A 
ATOM     21  C   UNL d   1      -3.552  -6.747  -1.709  0.00  0.00     0.050 A 
ATOM     22  C   UNL d   1      -3.563  -5.385  -1.361  0.00  0.00     0.041 A 
BRANCH  19  23
ATOM     23  C   UNL d   1      -0.206  -7.817  -0.182  0.00  0.00     0.417 C 
ATOM     24  F   UNL d   1      -0.305  -9.122  -0.563  0.00  0.00    -0.166 F 
ATOM     25  F   UNL d   1       0.972  -7.369  -0.697  0.00  0.00    -0.166 F 
ATOM     26  F   UNL d   1      -0.044  -7.836   1.169  0.00  0.00    -0.166 F 
ENDBRANCH  19  23
BRANCH  21  27
ATOM     27  C   UNL d   1      -4.707  -7.329  -2.487  0.00  0.00     0.417 C 
ATOM     28  F   UNL d   1      -4.544  -8.643  -2.803  0.00  0.00    -0.166 F 
ATOM     29  F   UNL d   1      -5.884  -7.248  -1.808  0.00  0.00    -0.166 F 
ATOM     30  F   UNL d   1      -4.912  -6.684  -3.668  0.00  0.00    -0.166 F 
ENDBRANCH  21  27
ENDBRANCH  15  17
ENDBRANCH   9  15
BRANCH   3  31
ATOM     31  O   UNL d   1       1.115   2.695   0.087  0.00  0.00    -0.356 OA
ATOM     32  H   UNL d   1       0.172   2.958   0.097  0.00  0.00     0.218 HD
ENDBRANCH   3  31
BRANCH   6  33
ATOM     33  C   UNL d   1       3.767  -1.494  -0.051  0.00  0.00    -0.021 C 
ATOM     34  C   UNL d   1       4.584  -1.210   1.228  0.00  0.00     0.019 C 
ATOM     35  C   UNL d   1       3.616  -3.034  -0.144  0.00  0.00     0.019 C 
ATOM     36  C   UNL d   1       4.582  -1.068  -1.293  0.00  0.00     0.019 C 
ENDBRANCH   6  33
BRANCH   5  37
ATOM     37  O   UNL d   1       3.461   1.434   0.073  0.00  0.00    -0.357 OA
ATOM     38  H   UNL d   1       3.132   2.356   0.096  0.00  0.00     0.217 HD
ENDBRANCH   5  37
TORSDOF 7
