REMARK  2 active torsions:
REMARK  status: ('A' for Active; 'I' for Inactive)
REMARK    1  A    between atoms: N_2  and  C_1 
REMARK    2  A    between atoms: O_11  and  C_5 
ROOT
ATOM      1  C   UNL d   1      -1.008   1.209   0.006  0.00  0.00     0.207 A 
ATOM      2  N   UNL d   1       0.364   1.158   0.004  0.00  0.00    -0.339 N 
ATOM      3  HN  UNL d   1       0.922   2.011   0.003  1.00  0.00     0.167 HD
ATOM      4  C   UNL d   1      -1.828   0.070  -0.007  0.00  0.00     0.118 A 
ATOM      5  C   UNL d   1       0.949  -0.058   0.002  0.00  0.00     0.007 A 
ATOM      6  C   UNL d   1      -1.183  -1.168  -0.001  0.00  0.00     0.043 A 
ATOM      7  C   UNL d   1       0.212  -1.235   0.005  0.00  0.00     0.027 A 
ATOM      8  C   UNL d   1       2.447  -0.104  -0.004  0.00  0.00     0.068 C 
ENDROOT
BRANCH   1   9
ATOM      9  N   UNL d   1      -1.689   2.513   0.009  0.00  0.00    -0.095 N 
ATOM     10  O   UNL d   1      -2.392   2.795   0.994  0.00  0.00    -0.530 OA
ATOM     11  O   UNL d   1      -1.478   3.261  -0.957  0.00  0.00    -0.530 OA
ENDBRANCH   1   9
BRANCH   4  12
ATOM     12  O   UNL d   1      -3.186   0.228  -0.051  0.00  0.00    -0.352 OA
ATOM     13  C   UNL d   1      -3.992  -0.944  -0.033  0.00  0.00     0.210 C 
ENDBRANCH   4  12
TORSDOF 2
