REMARK  8 active torsions:
REMARK  status: ('A' for Active; 'I' for Inactive)
REMARK    1  A    between atoms: C_3  and  C_1 
REMARK    2  A    between atoms: C_4  and  C_1 
REMARK    3  A    between atoms: N_5  and  C_2 
REMARK    4  A    between atoms: O_13  and  C_3 
REMARK    5  A    between atoms: O_14  and  C_4 
REMARK    6  A    between atoms: C_6  and  N_5 
REMARK    7  A    between atoms: C_19  and  O_13 
REMARK    8  A    between atoms: C_18  and  O_14 
ROOT
ATOM      1  C   UNL d   1       0.967  -0.011   0.129  0.00  0.00     0.124 C 
ATOM      2  C   UNL d   1       0.316   0.814  -0.715  0.00  0.00     0.086 C 
ENDROOT
BRANCH   1   3
ATOM      3  C   UNL d   1       0.262  -1.052   0.907  0.00  0.00     0.300 C 
ATOM      4  O   UNL d   1       0.730  -1.604   1.890  0.00  0.00    -0.259 OA
BRANCH   3   5
ATOM      5  O   UNL d   1      -0.927  -1.362   0.326  0.00  0.00    -0.318 OA
BRANCH   5   6
ATOM      6  C   UNL d   1      -1.524  -2.597   0.744  0.00  0.00     0.174 C 
ATOM      7  C   UNL d   1      -1.097  -3.673  -0.238  0.00  0.00     0.034 C 
ENDBRANCH   5   6
ENDBRANCH   3   5
ENDBRANCH   1   3
BRANCH   1   8
ATOM      8  C   UNL d   1       2.449   0.034   0.121  0.00  0.00     0.300 C 
ATOM      9  O   UNL d   1       3.107   1.031  -0.130  0.00  0.00    -0.259 OA
BRANCH   8  10
ATOM     10  O   UNL d   1       2.920  -1.233   0.234  0.00  0.00    -0.318 OA
BRANCH  10  11
ATOM     11  C   UNL d   1       4.259  -1.479  -0.211  0.00  0.00     0.174 C 
ATOM     12  C   UNL d   1       4.162  -2.123  -1.583  0.00  0.00     0.034 C 
ENDBRANCH  10  11
ENDBRANCH   8  10
ENDBRANCH   1   8
BRANCH   2  13
ATOM     13  N   UNL d   1       0.831   1.820  -1.524  0.00  0.00    -0.268 NA
ATOM     14  H   UNL d   1       1.710   2.170  -1.120  0.00  0.00     0.133 HD
BRANCH  13  15
ATOM     15  C   UNL d   1       1.117   1.622  -2.912  0.00  0.00     0.018 A 
ATOM     16  C   UNL d   1       1.722   2.661  -3.655  0.00  0.00    -0.039 A 
ATOM     17  C   UNL d   1       1.992   2.470  -5.024  0.00  0.00     0.032 A 
ATOM     18  C   UNL d   1       2.072   4.004  -3.069  0.00  0.00     0.050 C 
ATOM     19  C   UNL d   1       1.696   1.260  -5.644  0.00  0.00     0.034 A 
ATOM     20  C   UNL d   1       1.111   0.230  -4.921  0.00  0.00     0.026 A 
ATOM     21 CL   UNL d   1       2.047   1.047  -7.315  0.00  0.00    -0.084 Cl
ATOM     22  C   UNL d   1       0.807   0.415  -3.569  0.00  0.00     0.026 A 
ENDBRANCH  13  15
ENDBRANCH   2  13
TORSDOF 8
