REMARK  4 active torsions:
REMARK  status: ('A' for Active; 'I' for Inactive)
REMARK    1  A    between atoms: C_6  and  C_1 
REMARK    2  A    between atoms: C_9  and  N_2 
REMARK    3  A    between atoms: C_10  and  C_4 
REMARK       I    between atoms: N_7  and  C_6 
REMARK    4  A    between atoms: C_8  and  N_7 
ROOT
ATOM      1  C   UNL d   1      -0.304   1.062   0.201  0.00  0.00     0.057 C 
ATOM      2  N   UNL d   1       0.930  -0.848   0.342  0.00  0.00    -0.314 N 
ATOM      3  C   UNL d   1       0.946   0.544   0.557  0.00  0.00     0.029 C 
ATOM      4  C   UNL d   1      -0.429  -1.231   0.229  0.00  0.00     0.051 C 
ATOM      5  C   UNL d   1      -1.161  -0.062   0.068  0.00  0.00     0.050 C 
ATOM      6  C   UNL d   1       2.151   1.323   0.975  0.00  0.00     0.070 C 
ENDROOT
BRANCH   1   7
ATOM      7  C   UNL d   1      -0.636   2.489  -0.010  0.00  0.00     0.258 C 
ATOM      8  N   UNL d   1      -1.984   2.790   0.025  0.00  0.00    -0.322 N 
ATOM      9  H   UNL d   1      -2.583   2.121   0.492  0.00  0.00     0.169 HD
ATOM     10  O   UNL d   1       0.244   3.337  -0.190  0.00  0.00    -0.267 OA
BRANCH   8  11
ATOM     11  C   UNL d   1      -2.567   4.023  -0.355  0.00  0.00     0.041 A 
ATOM     12  C   UNL d   1      -3.740   4.473   0.279  0.00  0.00    -0.035 A 
ATOM     13  C   UNL d   1      -4.318   3.816   1.502  0.00  0.00     0.050 C 
ATOM     14  C   UNL d   1      -4.387   5.629  -0.202  0.00  0.00     0.009 A 
ATOM     15  C   UNL d   1      -3.873   6.341  -1.283  0.00  0.00     0.001 A 
ATOM     16  C   UNL d   1      -2.694   5.918  -1.885  0.00  0.00     0.002 A 
ATOM     17  C   UNL d   1      -2.039   4.771  -1.417  0.00  0.00     0.030 A 
ENDBRANCH   8  11
ENDBRANCH   1   7
BRANCH   2  18
ATOM     18  C   UNL d   1       2.067  -1.742   0.234  0.00  0.00     0.039 A 
ATOM     19  C   UNL d   1       3.224  -1.585   1.006  0.00  0.00     0.030 A 
ATOM     20  C   UNL d   1       4.222  -2.572   1.014  0.00  0.00     0.002 A 
ATOM     21  C   UNL d   1       4.073  -3.735   0.267  0.00  0.00     0.000 A 
ATOM     22  C   UNL d   1       2.964  -3.877  -0.556  0.00  0.00     0.002 A 
ATOM     23  C   UNL d   1       1.996  -2.867  -0.608  0.00  0.00     0.030 A 
ENDBRANCH   2  18
BRANCH   4  24
ATOM     24  C   UNL d   1      -0.954  -2.621   0.213  0.00  0.00    -0.009 C 
ATOM     25  C   UNL d   1      -2.007  -2.970  -0.646  0.00  0.00     0.014 C 
ATOM     26  C   UNL d   1      -2.376  -4.309  -0.825  0.00  0.00     0.001 C 
ATOM     27  C   UNL d   1      -1.687  -5.319  -0.160  0.00  0.00     0.000 C 
ATOM     28  C   UNL d   1      -0.694  -4.985   0.755  0.00  0.00     0.001 C 
ATOM     29  C   UNL d   1      -0.372  -3.643   0.980  0.00  0.00     0.014 C 
ENDBRANCH   4  24
TORSDOF 4
