REMARK  5 active torsions:
REMARK  status: ('A' for Active; 'I' for Inactive)
REMARK       I    between atoms: N_3  and  C_1 
REMARK    1  A    between atoms: C_11  and  C_1 
REMARK    2  A    between atoms: O_5  and  C_2 
REMARK    3  A    between atoms: C_4  and  N_3 
REMARK    4  A    between atoms: C_14  and  O_5 
REMARK    5  A    between atoms: C_8  and  C_9 
ROOT
ATOM      1  C   UNL d   1       0.384  -3.564  -0.575  0.00  0.00     0.175 A 
ATOM      2  C   UNL d   1       1.386  -4.539  -0.598  0.00  0.00     0.087 A 
ATOM      3  N   UNL d   1       0.111  -2.795   0.513  0.00  0.00    -0.345 N 
ATOM      4  HN  UNL d   1      -0.668  -2.137   0.514  1.00  0.00     0.167 HD
ATOM      5  C   UNL d   1       2.218  -4.608   0.527  0.00  0.00     0.035 A 
ATOM      6  C   UNL d   1       0.908  -2.936   1.590  0.00  0.00     0.090 A 
ATOM      7  C   UNL d   1       1.982  -3.800   1.634  0.00  0.00     0.019 A 
ENDROOT
BRANCH   1   8
ATOM      8  O   UNL d   1      -0.414  -3.416  -1.707  0.00  0.00    -0.292 OA
BRANCH   8   9
ATOM      9  C   UNL d   1      -1.030  -2.195  -1.899  0.00  0.00     0.077 A 
ATOM     10  C   UNL d   1      -0.396  -0.972  -1.682  0.00  0.00     0.038 A 
ATOM     11  C   UNL d   1      -1.069   0.227  -1.935  0.00  0.00     0.011 A 
ATOM     12  C   UNL d   1      -2.375   0.245  -2.459  0.00  0.00    -0.050 A 
ATOM     13  C   UNL d   1      -2.991  -0.999  -2.684  0.00  0.00     0.011 A 
ATOM     14  C   UNL d   1      -2.325  -2.204  -2.413  0.00  0.00     0.038 A 
BRANCH  12  15
ATOM     15  C   UNL d   1      -3.048   1.590  -2.787  0.00  0.00    -0.024 C 
ATOM     16  C   UNL d   1      -4.447   1.450  -3.427  0.00  0.00     0.019 C 
ATOM     17  C   UNL d   1      -3.212   2.432  -1.504  0.00  0.00     0.019 C 
ATOM     18  C   UNL d   1      -2.166   2.368  -3.790  0.00  0.00     0.019 C 
ENDBRANCH  12  15
ENDBRANCH   8   9
ENDBRANCH   1   8
BRANCH   2  19
ATOM     19  N   UNL d   1       1.582  -5.414  -1.704  0.00  0.00    -0.319 N 
ATOM     20  C   UNL d   1       2.113  -6.685  -1.550  0.00  0.00     0.256 C 
ATOM     21  O   UNL d   1       2.285  -7.232  -0.461  0.00  0.00    -0.267 OA
ATOM     22  H   UNL d   1       1.078  -5.193  -2.557  0.00  0.00     0.169 HD
BRANCH  20  23
ATOM     23  C   UNL d   1       2.495  -7.464  -2.763  0.00  0.00     0.032 A 
ATOM     24  C   UNL d   1       2.724  -6.878  -4.012  0.00  0.00     0.017 A 
ATOM     25  C   UNL d   1       3.226  -7.659  -5.062  0.00  0.00     0.001 A 
ATOM     26  C   UNL d   1       3.502  -9.015  -4.870  0.00  0.00     0.000 A 
ATOM     27  C   UNL d   1       3.261  -9.606  -3.635  0.00  0.00     0.001 A 
ATOM     28  C   UNL d   1       2.757  -8.833  -2.588  0.00  0.00     0.017 A 
ENDBRANCH  20  23
ENDBRANCH   2  19
TORSDOF 5
