REMARK  4 active torsions:
REMARK  status: ('A' for Active; 'I' for Inactive)
REMARK    1  A    between atoms: C_12  and  N_1 
REMARK    2  A    between atoms: C_9  and  C_4 
REMARK    3  A    between atoms: C_8  and  C_7 
REMARK    4  A    between atoms: C_13  and  C_12 
ROOT
ATOM      1  N   UNL d   1       0.076  -1.481  -0.103  0.00  0.00    -0.294 N 
ATOM      2  N   UNL d   1       1.475   0.283  -0.116  0.00  0.00    -0.337 N 
ATOM      3  HN  UNL d   1       2.334   0.833  -0.136  1.00  0.00     0.167 HD
ATOM      4  C   UNL d   1       1.364  -1.018  -0.115  0.00  0.00     0.121 A 
ATOM      5  C   UNL d   1       0.179   0.751  -0.085  0.00  0.00     0.103 A 
ATOM      6  C   UNL d   1      -0.764  -0.403  -0.095  0.00  0.00     0.276 A 
ATOM      7  C   UNL d   1      -0.163   2.044   0.004  0.00  0.00     0.048 C 
ATOM      8  O   UNL d   1      -1.981  -0.389  -0.069  0.00  0.00    -0.265 OA
ENDROOT
BRANCH   7   9
ATOM      9  C   UNL d   1      -1.552   2.514   0.101  0.00  0.00    -0.012 A 
ATOM     10  C   UNL d   1      -2.228   2.634   1.327  0.00  0.00     0.044 A 
ATOM     11 CL   UNL d   1      -1.438   2.336   2.837  0.00  0.00    -0.083 Cl
ATOM     12  C   UNL d   1      -3.579   2.995   1.358  0.00  0.00     0.024 A 
ATOM     13  C   UNL d   1      -4.267   3.238   0.169  0.00  0.00     0.002 A 
ATOM     14  C   UNL d   1      -3.601   3.134  -1.052  0.00  0.00     0.001 A 
ATOM     15  C   UNL d   1      -2.251   2.776  -1.087  0.00  0.00     0.013 A 
ENDBRANCH   7   9
BRANCH   1  16
ATOM     16  C   UNL d   1      -0.462  -2.817   0.093  0.00  0.00     0.160 C 
BRANCH  16  17
ATOM     17  C   UNL d   1      -0.748  -3.529  -1.205  0.00  0.00    -0.017 C 
ATOM     18  C   UNL d   1      -0.933  -2.990  -2.418  0.00  0.00     0.008 C 
ENDBRANCH  16  17
ENDBRANCH   1  16
BRANCH   4  19
ATOM     19  C   UNL d   1       2.562  -1.901  -0.082  0.00  0.00     0.008 A 
ATOM     20  C   UNL d   1       3.718  -1.424   0.552  0.00  0.00     0.015 A 
ATOM     21  C   UNL d   1       4.862  -2.226   0.642  0.00  0.00     0.001 A 
ATOM     22  C   UNL d   1       4.859  -3.510   0.103  0.00  0.00     0.000 A 
ATOM     23  C   UNL d   1       3.730  -3.979  -0.561  0.00  0.00     0.001 A 
ATOM     24  C   UNL d   1       2.598  -3.166  -0.674  0.00  0.00     0.015 A 
ENDBRANCH   4  19
TORSDOF 4
