REMARK  4 active torsions:
REMARK  status: ('A' for Active; 'I' for Inactive)
REMARK    1  A    between atoms: C_10  and  C_8 
REMARK    2  A    between atoms: O_17  and  C_11 
REMARK    3  A    between atoms: O_18  and  C_12 
REMARK    4  A    between atoms: O_19  and  C_13 
ROOT
ATOM      1  C   UNL d   1       0.779  -0.464  -0.083  0.00  0.00     0.072 A 
ATOM      2  C   UNL d   1       1.323   0.803  -0.047  0.00  0.00     0.088 A 
ATOM      3  C   UNL d   1       1.678  -1.603  -0.179  0.00  0.00     0.256 C 
ATOM      4  N   UNL d   1       2.657   1.029  -0.061  0.00  0.00    -0.358 N 
ATOM      5  N   UNL d   1       3.017  -1.286  -0.186  0.00  0.00    -0.332 N 
ATOM      6  S   UNL d   1       0.138   2.016   0.011  0.00  0.00    -0.076 SA
ATOM      7  C   UNL d   1      -0.654  -0.436  -0.022  0.00  0.00    -0.026 A 
ATOM      8  C   UNL d   1       3.490  -0.062   0.407  0.00  0.00     0.219 C 
ATOM      9  C   UNL d   1      -1.124   0.862   0.013  0.00  0.00    -0.008 A 
ATOM     10  O   UNL d   1       1.308  -2.765  -0.283  0.00  0.00    -0.267 OA
ATOM     11  C   UNL d   1      -1.549  -1.624  -0.012  0.00  0.00     0.041 C 
ATOM     12  C   UNL d   1      -2.547   1.285   0.057  0.00  0.00     0.047 C 
ATOM     13  C   UNL d   1      -3.048  -1.320   0.050  0.00  0.00     0.005 C 
ATOM     14  C   UNL d   1      -3.542   0.128  -0.067  0.00  0.00     0.005 C 
ATOM     15  H   UNL d   1       2.985   1.955   0.206  0.00  0.00     0.162 HD
ATOM     16  H   UNL d   1       3.629  -2.087  -0.181  0.00  0.00     0.165 HD
ENDROOT
BRANCH   8  17
ATOM     17  C   UNL d   1       4.938   0.190   0.059  0.00  0.00    -0.011 A 
ATOM     18  C   UNL d   1       5.344   0.361  -1.273  0.00  0.00     0.050 A 
ATOM     19  C   UNL d   1       6.687   0.585  -1.617  0.00  0.00     0.104 A 
ATOM     20  C   UNL d   1       7.669   0.635  -0.600  0.00  0.00     0.135 A 
ATOM     21  C   UNL d   1       7.259   0.493   0.745  0.00  0.00     0.104 A 
ATOM     22  C   UNL d   1       5.913   0.256   1.058  0.00  0.00     0.050 A 
BRANCH  19  23
ATOM     23  O   UNL d   1       7.085   0.763  -2.917  0.00  0.00    -0.353 OA
ATOM     24  C   UNL d   1       6.105   0.702  -3.947  0.00  0.00     0.210 C 
ENDBRANCH  19  23
BRANCH  20  25
ATOM     25  O   UNL d   1       9.020   0.781  -0.784  0.00  0.00    -0.351 OA
ATOM     26  C   UNL d   1       9.570   0.890  -2.086  0.00  0.00     0.210 C 
ENDBRANCH  20  25
BRANCH  21  27
ATOM     27  O   UNL d   1       8.058   0.506   1.865  0.00  0.00    -0.353 OA
ATOM     28  C   UNL d   1       9.222   1.324   1.827  0.00  0.00     0.210 C 
ENDBRANCH  21  27
ENDBRANCH   8  17
TORSDOF 4
