REMARK  5 active torsions:
REMARK  status: ('A' for Active; 'I' for Inactive)
REMARK    1  A    between atoms: C_12  and  C_3 
REMARK    2  A    between atoms: C_16  and  N_6 
REMARK    3  A    between atoms: C_20  and  C_11 
REMARK    4  A    between atoms: N_14  and  C_18 
REMARK    5  A    between atoms: C_30  and  C_20 
ROOT
ATOM      1  N   UNL d   1      -0.245   0.616   0.090  0.00  0.00    -0.065 N 
ATOM      2  C   UNL d   1       0.067  -0.742   0.200  0.00  0.00     0.730 A 
ATOM      3  C   UNL d   1      -1.633   0.755  -0.056  0.00  0.00     0.173 A 
ATOM      4  N   UNL d   1       1.238  -1.266   0.317  0.00  0.00    -0.151 N 
ATOM      5  HN  UNL d   1       1.403  -2.271   0.373  1.00  0.00     0.188 HD
ATOM      6  N   UNL d   1      -1.192  -1.341   0.109  0.00  0.00    -0.083 N 
ATOM      7  N   UNL d   1       0.718   1.597  -0.019  0.00  0.00    -0.276 N 
ATOM      8  HN  UNL d   1       0.496   2.579  -0.179  1.00  0.00     0.188 HD
ATOM      9  N   UNL d   1      -2.236  -0.430  -0.072  0.00  0.00    -0.261 N 
ATOM     10  HN  UNL d   1      -3.229  -0.628  -0.190  1.00  0.00     0.190 HD
ATOM     11  C   UNL d   1       1.944   1.152   0.102  0.00  0.00     0.099 C 
ATOM     12  C   UNL d   1       2.240  -0.331   0.359  0.00  0.00     0.284 C 
ATOM     13  O   UNL d   1       3.396  -0.629   0.632  0.00  0.00    -0.265 OA
ENDROOT
BRANCH   6  14
ATOM     14  C   UNL d   1      -1.421  -2.736   0.086  0.00  0.00     0.075 A 
ATOM     15  C   UNL d   1      -0.602  -3.603   0.835  0.00  0.00     0.034 A 
ATOM     16  C   UNL d   1      -0.719  -4.990   0.743  0.00  0.00     0.038 A 
ATOM     17  C   UNL d   1      -1.674  -5.537  -0.115  0.00  0.00     0.103 A 
ATOM     18  C   UNL d   1      -2.536  -4.700  -0.839  0.00  0.00     0.038 A 
ATOM     19  C   UNL d   1      -2.418  -3.307  -0.721  0.00  0.00     0.034 A 
BRANCH  17  20
ATOM     20  N   UNL d   1      -1.749  -6.994  -0.270  0.00  0.00    -0.116 N 
ATOM     21  O   UNL d   1      -2.575  -7.446  -1.078  0.00  0.00    -0.532 OA
ATOM     22  O   UNL d   1      -0.980  -7.689   0.409  0.00  0.00    -0.532 OA
ENDBRANCH  17  20
ENDBRANCH   6  14
BRANCH   3  23
ATOM     23  C   UNL d   1      -2.377   2.045  -0.126  0.00  0.00     0.034 A 
ATOM     24  C   UNL d   1      -3.631   2.180  -0.749  0.00  0.00     0.049 A 
ATOM     25  C   UNL d   1      -4.306   3.411  -0.726  0.00  0.00     0.048 A 
ATOM     26 CL   UNL d   1      -4.418   0.906  -1.614  0.00  0.00    -0.083 Cl
ATOM     27  C   UNL d   1      -3.736   4.512  -0.094  0.00  0.00     0.035 A 
ATOM     28  C   UNL d   1      -2.498   4.397   0.526  0.00  0.00     0.025 A 
ATOM     29 CL   UNL d   1      -4.564   6.019  -0.076  0.00  0.00    -0.084 Cl
ATOM     30  C   UNL d   1      -1.828   3.169   0.518  0.00  0.00     0.019 A 
ENDBRANCH   3  23
BRANCH  11  31
ATOM     31  C   UNL d   1       3.132   2.071  -0.018  0.00  0.00     0.103 C 
BRANCH  31  32
ATOM     32  C   UNL d   1       3.671   2.131  -1.427  0.00  0.00    -0.052 A 
ATOM     33  C   UNL d   1       3.277   3.165  -2.287  0.00  0.00     0.009 A 
ATOM     34  C   UNL d   1       3.771   3.227  -3.592  0.00  0.00     0.024 A 
ATOM     35  C   UNL d   1       4.653   2.250  -4.048  0.00  0.00     0.034 A 
ATOM     36  C   UNL d   1       5.045   1.210  -3.210  0.00  0.00     0.024 A 
ATOM     37 CL   UNL d   1       5.261   2.332  -5.655  0.00  0.00    -0.084 Cl
ATOM     38  C   UNL d   1       4.558   1.151  -1.902  0.00  0.00     0.009 A 
ENDBRANCH  31  32
ENDBRANCH  11  31
TORSDOF 5
