REMARK  5 active torsions:
REMARK  status: ('A' for Active; 'I' for Inactive)
REMARK       I    between atoms: N_2  and  C_1 
REMARK    1  A    between atoms: C_9  and  C_1 
REMARK    2  A    between atoms: C_10  and  N_2 
REMARK    3  A    between atoms: C_3  and  C_4 
REMARK    4  A    between atoms: S_5  and  C_9 
REMARK    5  A    between atoms: C_11  and  S_5 
ROOT
ATOM      1  C   UNL d   1      -0.945   0.428  -1.139  0.00  0.00     0.231 C 
ATOM      2  N   UNL d   1       0.108  -0.461  -1.246  0.00  0.00    -0.327 N 
ATOM      3  O   UNL d   1      -1.673   0.775  -2.073  0.00  0.00    -0.272 OA
ATOM      4  H   UNL d   1       0.541  -0.761  -0.378  0.00  0.00     0.169 HD
ENDROOT
BRANCH   2   5
ATOM      5  C   UNL d   1       0.681  -0.942  -2.448  0.00  0.00     0.034 A 
ATOM      6  C   UNL d   1       0.347  -0.452  -3.708  0.00  0.00     0.030 A 
ATOM      7  C   UNL d   1       1.017  -0.893  -4.857  0.00  0.00     0.010 A 
ATOM      8  C   UNL d   1       2.044  -1.849  -4.792  0.00  0.00    -0.051 A 
ATOM      9  C   UNL d   1       2.337  -2.376  -3.523  0.00  0.00     0.010 A 
ATOM     10  C   UNL d   1       1.672  -1.922  -2.368  0.00  0.00     0.030 A 
BRANCH   8  11
ATOM     11  C   UNL d   1       2.818  -2.231  -6.067  0.00  0.00    -0.024 C 
ATOM     12  C   UNL d   1       3.920  -3.286  -5.832  0.00  0.00     0.019 C 
ATOM     13  C   UNL d   1       1.857  -2.798  -7.136  0.00  0.00     0.019 C 
ATOM     14  C   UNL d   1       3.509  -0.973  -6.643  0.00  0.00     0.019 C 
ENDBRANCH   8  11
ENDBRANCH   2   5
BRANCH   1  15
ATOM     15  C   UNL d   1      -1.280   0.925   0.257  0.00  0.00     0.182 C 
BRANCH  15  16
ATOM     16  S   UNL d   1       0.173   1.237   1.304  0.00  0.00    -0.121 SA
BRANCH  16  17
ATOM     17  C   UNL d   1      -0.585   1.819   2.822  0.00  0.00     0.001 A 
ATOM     18  C   UNL d   1       0.123   1.624   4.016  0.00  0.00     0.020 A 
ATOM     19  C   UNL d   1      -0.410   2.037   5.243  0.00  0.00     0.020 A 
ATOM     20  C   UNL d   1      -1.652   2.661   5.284  0.00  0.00     0.011 A 
ATOM     21  C   UNL d   1      -2.358   2.889   4.109  0.00  0.00     0.020 A 
ATOM     22 BR   UNL d   1      -2.382   3.204   6.940  0.00  0.00    -0.051 Br
ATOM     23  C   UNL d   1      -1.822   2.476   2.882  0.00  0.00     0.020 A 
ENDBRANCH  16  17
ENDBRANCH  15  16
ENDBRANCH   1  15
TORSDOF 5
