REMARK  8 active torsions:
REMARK  status: ('A' for Active; 'I' for Inactive)
REMARK    1  A    between atoms: C_2  and  C_1 
REMARK       I    between atoms: N_6  and  C_1 
REMARK    2  A    between atoms: C_12  and  C_2 
REMARK    3  A    between atoms: C_13  and  C_2 
REMARK    4  A    between atoms: O_16  and  C_2 
REMARK    5  A    between atoms: C_3  and  N_8 
REMARK    6  A    between atoms: N_5  and  C_3 
REMARK    7  A    between atoms: C_4  and  N_5 
REMARK    8  A    between atoms: N_8  and  N_6 
ROOT
ATOM      1  C   UNL d   1       0.797   0.145  -0.111  0.00  0.00     0.280 C 
ATOM      2  N   UNL d   1       2.182   0.258   0.012  0.00  0.00    -0.265 N 
ATOM      3  O   UNL d   1       0.237   0.149  -1.203  0.00  0.00    -0.268 OA
ATOM      4  H   UNL d   1       2.579  -0.110   0.877  0.00  0.00     0.190 HD
ENDROOT
BRANCH   1   5
ATOM      5  C   UNL d   1       0.086  -0.004   1.296  0.00  0.00     0.195 C 
BRANCH   5   6
ATOM      6  C   UNL d   1      -0.635   1.307   1.664  0.00  0.00    -0.010 A 
ATOM      7  C   UNL d   1      -1.482   1.951   0.742  0.00  0.00     0.011 A 
ATOM      8  C   UNL d   1      -2.060   3.191   1.033  0.00  0.00     0.001 A 
ATOM      9  C   UNL d   1      -1.801   3.817   2.248  0.00  0.00     0.000 A 
ATOM     10  C   UNL d   1      -1.005   3.182   3.195  0.00  0.00     0.001 A 
ATOM     11  C   UNL d   1      -0.452   1.929   2.917  0.00  0.00     0.011 A 
ENDBRANCH   5   6
BRANCH   5  12
ATOM     12  C   UNL d   1      -0.740  -1.297   1.324  0.00  0.00    -0.010 A 
ATOM     13  C   UNL d   1      -0.083  -2.532   1.118  0.00  0.00     0.011 A 
ATOM     14  C   UNL d   1      -0.779  -3.743   1.132  0.00  0.00     0.001 A 
ATOM     15  C   UNL d   1      -2.151  -3.750   1.355  0.00  0.00     0.000 A 
ATOM     16  C   UNL d   1      -2.822  -2.547   1.558  0.00  0.00     0.001 A 
ATOM     17  C   UNL d   1      -2.125  -1.332   1.545  0.00  0.00     0.011 A 
ENDBRANCH   5  12
BRANCH   5  18
ATOM     18  O   UNL d   1       1.165  -0.223   2.252  0.00  0.00    -0.371 OA
ATOM     19  H   UNL d   1       1.552   0.650   2.433  0.00  0.00     0.212 HD
ENDBRANCH   5  18
ENDBRANCH   1   5
BRANCH   2  20
ATOM     20  N   UNL d   1       2.966   0.063  -1.125  0.00  0.00    -0.273 N 
ATOM     21  H   UNL d   1       2.462  -0.117  -1.993  0.00  0.00     0.189 HD
BRANCH  20  22
ATOM     22  C   UNL d   1       4.277   0.455  -1.162  0.00  0.00     0.191 C 
ATOM     23  S   UNL d   1       4.976   1.553  -0.110  0.00  0.00    -0.039 SA
BRANCH  22  24
ATOM     24  N   UNL d   1       5.065  -0.113  -2.124  0.00  0.00    -0.331 N 
ATOM     25  H   UNL d   1       5.949   0.368  -2.272  0.00  0.00     0.168 HD
BRANCH  24  26
ATOM     26  C   UNL d   1       4.939  -1.356  -2.797  0.00  0.00     0.057 A 
ATOM     27  C   UNL d   1       3.999  -2.330  -2.437  0.00  0.00     0.055 A 
ATOM     28  C   UNL d   1       3.931  -3.543  -3.125  0.00  0.00     0.036 A 
ATOM     29 CL   UNL d   1       2.760  -4.716  -2.661  0.00  0.00    -0.084 Cl
ATOM     30  C   UNL d   1       4.811  -3.817  -4.167  0.00  0.00     0.026 A 
ATOM     31  C   UNL d   1       5.782  -2.877  -4.510  0.00  0.00     0.028 A 
ATOM     32  C   UNL d   1       5.853  -1.661  -3.824  0.00  0.00     0.060 A 
ATOM     33 CL   UNL d   1       7.101  -0.549  -4.269  0.00  0.00    -0.082 Cl
ENDBRANCH  24  26
ENDBRANCH  22  24
ENDBRANCH  20  22
ENDBRANCH   2  20
TORSDOF 8
