REMARK  1 active torsions:
REMARK  status: ('A' for Active; 'I' for Inactive)
REMARK    1  A    between atoms: S_11  and  C_3 
ROOT
ATOM      1  N   UNL d   1      -1.616  -1.142  -0.001  0.00  0.00    -0.335 N 
ATOM      2  HN  UNL d   1      -1.934  -2.111  -0.001  1.00  0.00     0.168 HD
ATOM      3  C   UNL d   1      -2.352  -0.059  -0.001  0.00  0.00     0.142 A 
ATOM      4  N   UNL d   1      -1.605   1.080  -0.001  0.00  0.00    -0.335 N 
ATOM      5  C   UNL d   1      -0.321  -0.683  -0.001  0.00  0.00     0.062 A 
ATOM      6  C   UNL d   1      -0.284   0.709  -0.001  0.00  0.00     0.062 A 
ATOM      7  C   UNL d   1       0.884  -1.401  -0.001  0.00  0.00     0.057 A 
ATOM      8  C   UNL d   1       0.902   1.446  -0.001  0.00  0.00     0.057 A 
ATOM      9  C   UNL d   1       2.099   0.715  -0.000  0.00  0.00     0.058 A 
ATOM     10  C   UNL d   1       2.092  -0.688  -0.001  0.00  0.00     0.058 A 
ATOM     11 CL   UNL d   1       3.571   1.628   0.001  0.00  0.00    -0.082 Cl
ATOM     12 CL   UNL d   1       3.555  -1.613  -0.002  0.00  0.00    -0.082 Cl
ATOM     13  H   UNL d   1      -1.974   2.019  -0.000  0.00  0.00     0.168 HD
ENDROOT
BRANCH   3  14
ATOM     14  S   UNL d   1      -4.068   0.024   0.001  0.00  0.00    -0.107 SA
ATOM     15  H   UNL d   1      -4.288  -1.299   0.003  0.00  0.00     0.110 HD
ENDBRANCH   3  14
TORSDOF 1
