REMARK  2 active torsions:
REMARK  status: ('A' for Active; 'I' for Inactive)
REMARK    1  A    between atoms: C_7  and  C_2 
REMARK       I    between atoms: N_9  and  C_7 
REMARK    2  A    between atoms: C_10  and  N_9 
ROOT
ATOM      1  C   UNL d   1       3.663  -0.790   0.182  0.00  0.00     0.263 C 
ATOM      2  N   UNL d   1       3.861  -2.092   0.602  0.00  0.00    -0.323 N 
ATOM      3  O   UNL d   1       4.546  -0.035  -0.214  0.00  0.00    -0.267 OA
ATOM      4  H   UNL d   1       3.029  -2.621   0.871  0.00  0.00     0.169 HD
ENDROOT
BRANCH   1   5
ATOM      5  C   UNL d   1       2.244  -0.328   0.185  0.00  0.00     0.115 A 
ATOM      6  C   UNL d   1       1.065  -1.192   0.423  0.00  0.00     0.266 A 
ATOM      7  N   UNL d   1      -0.156  -0.596   0.214  0.00  0.00    -0.293 N 
ATOM      8  O   UNL d   1       1.200  -2.366   0.767  0.00  0.00    -0.267 OA
ATOM      9  C   UNL d   1      -0.245   0.724  -0.125  0.00  0.00     0.149 A 
ATOM     10  C   UNL d   1      -1.394  -1.340   0.195  0.00  0.00     0.145 C 
ATOM     11  N   UNL d   1       0.754   1.519  -0.275  0.00  0.00    -0.345 N 
ATOM     12  S   UNL d   1      -1.890   1.219  -0.362  0.00  0.00    -0.092 SA
ATOM     13  C   UNL d   1       1.998   0.957  -0.131  0.00  0.00     0.113 A 
ATOM     14  HN  UNL d   1       0.629   2.509  -0.488  1.00  0.00     0.167 HD
ATOM     15  C   UNL d   1      -2.570  -0.378   0.147  0.00  0.00     0.103 C 
ENDBRANCH   1   5
BRANCH   2  16
ATOM     16  C   UNL d   1       5.082  -2.811   0.588  0.00  0.00     0.038 A 
ATOM     17  C   UNL d   1       6.317  -2.243   0.263  0.00  0.00     0.053 A 
ATOM     18  C   UNL d   1       7.469  -3.032   0.211  0.00  0.00     0.037 A 
ATOM     19 CL   UNL d   1       8.976  -2.314  -0.211  0.00  0.00    -0.084 Cl
ATOM     20  C   UNL d   1       7.412  -4.393   0.488  0.00  0.00     0.048 A 
ATOM     21  C   UNL d   1       6.189  -4.957   0.836  0.00  0.00     0.037 A 
ATOM     22  C   UNL d   1       5.030  -4.177   0.895  0.00  0.00     0.053 A 
ATOM     23 CL   UNL d   1       6.101  -6.641   1.180  0.00  0.00    -0.084 Cl
ENDBRANCH   2  16
TORSDOF 2
