REMARK  4 active torsions:
REMARK  status: ('A' for Active; 'I' for Inactive)
REMARK    1  A    between atoms: O_5  and  C_1 
REMARK       I    between atoms: C_2  and  N_4 
REMARK    2  A    between atoms: C_3  and  C_2 
REMARK    3  A    between atoms: N_4  and  C_18 
REMARK    4  A    between atoms: C_9  and  O_5 
ROOT
ATOM      1  N   UNL d   1      -1.600   3.542  -1.311  0.00  0.00    -0.344 N 
ATOM      2  HN  UNL d   1      -1.004   3.756  -2.110  1.00  0.00     0.167 HD
ATOM      3  C   UNL d   1      -1.222   2.675  -0.347  0.00  0.00     0.148 A 
ATOM      4  C   UNL d   1      -3.699   3.841  -0.103  0.00  0.00     0.050 A 
ATOM      5  C   UNL d   1      -2.819   4.112  -1.151  0.00  0.00     0.119 A 
ATOM      6  C   UNL d   1      -2.038   2.300   0.710  0.00  0.00     0.059 A 
ATOM      7  C   UNL d   1      -3.298   2.890   0.828  0.00  0.00     0.035 A 
ENDROOT
BRANCH   4   8
ATOM      8  N   UNL d   1      -4.906   4.573  -0.037  0.00  0.00    -0.322 N 
ATOM      9  C   UNL d   1      -5.931   4.429   0.883  0.00  0.00     0.256 C 
ATOM     10  O   UNL d   1      -5.981   3.595   1.781  0.00  0.00    -0.267 OA
ATOM     11  H   UNL d   1      -4.983   5.326  -0.706  0.00  0.00     0.169 HD
BRANCH   9  12
ATOM     12  C   UNL d   1      -7.048   5.422   0.768  0.00  0.00     0.033 A 
ATOM     13  C   UNL d   1      -7.796   5.704   1.925  0.00  0.00     0.027 A 
ATOM     14  C   UNL d   1      -8.799   6.657   1.853  0.00  0.00    -0.022 A 
ATOM     15  C   UNL d   1      -9.678   7.185   2.920  0.00  0.00     0.068 C 
ATOM     16  C   UNL d   1      -9.057   7.327   0.671  0.00  0.00     0.075 A 
ATOM     17  C   UNL d   1     -10.630   8.031   2.071  0.00  0.00     0.180 C 
ATOM     18  O   UNL d   1     -10.043   8.271   0.771  0.00  0.00    -0.350 OA
ATOM     19  C   UNL d   1      -8.357   7.061  -0.487  0.00  0.00     0.038 A 
ATOM     20  C   UNL d   1      -7.354   6.087  -0.441  0.00  0.00     0.020 A 
ENDBRANCH   9  12
ENDBRANCH   4   8
BRANCH   3  21
ATOM     21  O   UNL d   1       0.066   2.146  -0.345  0.00  0.00    -0.290 OA
BRANCH  21  22
ATOM     22  C   UNL d   1       0.985   2.734  -1.187  0.00  0.00     0.121 A 
ATOM     23  C   UNL d   1       1.413   4.062  -1.038  0.00  0.00     0.069 A 
ATOM     24 CL   UNL d   1       0.866   5.082   0.249  0.00  0.00    -0.081 Cl
ATOM     25  C   UNL d   1       2.368   4.596  -1.911  0.00  0.00     0.027 A 
ATOM     26  C   UNL d   1       2.940   3.800  -2.902  0.00  0.00     0.003 A 
ATOM     27  C   UNL d   1       2.562   2.463  -3.019  0.00  0.00     0.027 A 
ATOM     28  C   UNL d   1       1.588   1.933  -2.166  0.00  0.00     0.069 A 
ATOM     29 CL   UNL d   1       1.181   0.262  -2.340  0.00  0.00    -0.081 Cl
ENDBRANCH  21  22
ENDBRANCH   3  21
TORSDOF 4
