REMARK  4 active torsions:
REMARK  status: ('A' for Active; 'I' for Inactive)
REMARK    1  A    between atoms: C_6  and  N_1 
REMARK    2  A    between atoms: C_10  and  C_6 
REMARK    3  A    between atoms: C_14  and  N_7 
REMARK    4  A    between atoms: C_13  and  C_10 
ROOT
ATOM      1  N   UNL d   1       1.290   1.366  -0.067  0.00  0.00    -0.271 N 
ATOM      2  C   UNL d   1       2.442   0.591  -0.080  0.00  0.00     0.234 C 
ATOM      3  C   UNL d   1       0.003   0.845   0.009  0.00  0.00     0.264 C 
ATOM      4  C   UNL d   1      -0.109  -0.616   0.110  0.00  0.00     0.066 A 
ATOM      5  O   UNL d   1       2.294  -0.790  -0.150  0.00  0.00    -0.278 OA
ATOM      6  N   UNL d   1       3.617   1.139  -0.065  0.00  0.00    -0.322 N 
ATOM      7  HN  UNL d   1       3.698   2.155  -0.040  1.00  0.00     0.169 HD
ATOM      8  C   UNL d   1       1.041  -1.377   0.012  0.00  0.00     0.095 A 
ATOM      9  O   UNL d   1      -1.018   1.528  -0.018  0.00  0.00    -0.267 OA
ATOM     10  C   UNL d   1      -1.341  -1.251   0.294  0.00  0.00     0.020 A 
ATOM     11  C   UNL d   1       0.998  -2.768   0.086  0.00  0.00     0.038 A 
ATOM     12  C   UNL d   1      -1.398  -2.646   0.379  0.00  0.00     0.001 A 
ATOM     13  C   UNL d   1      -0.229  -3.404   0.273  0.00  0.00     0.003 A 
ENDROOT
BRANCH   1  14
ATOM     14  C   UNL d   1       1.417   2.819  -0.122  0.00  0.00     0.220 C 
BRANCH  14  15
ATOM     15  C   UNL d   1       1.475   3.430   1.276  0.00  0.00     0.177 C 
ATOM     16  O   UNL d   1       1.388   2.765   2.308  0.00  0.00    -0.291 OA
BRANCH  15  17
ATOM     17  C   UNL d   1       1.584   4.917   1.377  0.00  0.00     0.011 A 
ATOM     18  C   UNL d   1       1.077   5.552   2.519  0.00  0.00     0.015 A 
ATOM     19  C   UNL d   1       1.145   6.941   2.643  0.00  0.00     0.001 A 
ATOM     20  C   UNL d   1       1.729   7.706   1.633  0.00  0.00     0.000 A 
ATOM     21  C   UNL d   1       2.243   7.081   0.498  0.00  0.00     0.001 A 
ATOM     22  C   UNL d   1       2.171   5.692   0.366  0.00  0.00     0.015 A 
ENDBRANCH  15  17
ENDBRANCH  14  15
ENDBRANCH   1  14
BRANCH   6  23
ATOM     23  C   UNL d   1       4.782   0.352  -0.082  0.00  0.00     0.035 A 
ATOM     24  C   UNL d   1       5.827   0.744  -0.928  0.00  0.00     0.032 A 
ATOM     25  C   UNL d   1       7.020   0.018  -0.979  0.00  0.00     0.044 A 
ATOM     26  C   UNL d   1       7.169  -1.109  -0.181  0.00  0.00     0.116 A 
ATOM     27  C   UNL d   1       6.159  -1.506   0.684  0.00  0.00     0.044 A 
ATOM     28  F   UNL d   1       8.306  -1.815  -0.238  0.00  0.00    -0.206 F 
ATOM     29  C   UNL d   1       4.979  -0.761   0.750  0.00  0.00     0.032 A 
ENDBRANCH   6  23
TORSDOF 4
