REMARK  3 active torsions:
REMARK  status: ('A' for Active; 'I' for Inactive)
REMARK    1  A    between atoms: S_13  and  C_3 
REMARK    2  A    between atoms: C_20  and  S_13 
REMARK    3  A    between atoms: C_14  and  C_20 
ROOT
ATOM      1  N   UNL d   1       0.127   0.303  -0.007  0.00  0.00    -0.288 N 
ATOM      2  C   UNL d   1      -0.080  -1.087   0.016  0.00  0.00     0.135 A 
ATOM      3  C   UNL d   1      -0.956   1.256  -0.039  0.00  0.00     0.085 A 
ATOM      4  C   UNL d   1      -1.420  -1.590  -0.003  0.00  0.00     0.096 A 
ATOM      5  N   UNL d   1       1.045  -1.767   0.037  0.00  0.00    -0.339 N 
ATOM      6  HN  UNL d   1       1.153  -2.781   0.054  1.00  0.00     0.167 HD
ATOM      7  C   UNL d   1      -2.217   0.749  -0.049  0.00  0.00    -0.016 A 
ATOM      8  C   UNL d   1      -2.431  -0.701  -0.042  0.00  0.00    -0.025 A 
ATOM      9  C   UNL d   1       1.522   0.464   0.005  0.00  0.00     0.068 A 
ATOM     10  C   UNL d   1       2.037  -0.831   0.031  0.00  0.00     0.061 A 
ATOM     11  C   UNL d   1      -1.671  -2.998  -0.006  0.00  0.00     0.104 C 
ATOM     12  N   UNL d   1      -1.948  -4.127  -0.008  0.00  0.00    -0.191 NA
ATOM     13  C   UNL d   1      -3.576   1.386  -0.111  0.00  0.00     0.042 C 
ATOM     14  C   UNL d   1      -3.902  -1.008  -0.100  0.00  0.00     0.041 C 
ATOM     15  C   UNL d   1       2.392   1.571   0.003  0.00  0.00     0.032 A 
ATOM     16  C   UNL d   1       3.428  -1.046   0.050  0.00  0.00     0.032 A 
ATOM     17  C   UNL d   1      -4.548   0.296   0.315  0.00  0.00     0.009 C 
ATOM     18  C   UNL d   1       3.773   1.344   0.023  0.00  0.00     0.002 A 
ATOM     19  C   UNL d   1       4.288   0.053   0.047  0.00  0.00     0.002 A 
ENDROOT
BRANCH   3  20
ATOM     20  S   UNL d   1      -0.576   2.956  -0.228  0.00  0.00    -0.107 SA
BRANCH  20  21
ATOM     21  C   UNL d   1      -1.805   3.914   0.667  0.00  0.00     0.107 C 
BRANCH  21  22
ATOM     22  C   UNL d   1      -1.509   5.385   0.604  0.00  0.00    -0.026 C 
ATOM     23  C   UNL d   1      -2.340   6.262   0.020  0.00  0.00     0.007 C 
ENDBRANCH  21  22
ENDBRANCH  20  21
ENDBRANCH   3  20
TORSDOF 3
