REMARK  4 active torsions:
REMARK  status: ('A' for Active; 'I' for Inactive)
REMARK       I    between atoms: N_3  and  C_1 
REMARK    1  A    between atoms: C_6  and  C_1 
REMARK    2  A    between atoms: O_7  and  C_2 
REMARK    3  A    between atoms: C_9  and  N_3 
REMARK    4  A    between atoms: C_5  and  O_7 
ROOT
ATOM      1  C   UNL d   1       0.682   3.140  -1.340  0.00  0.00     0.175 A 
ATOM      2  C   UNL d   1       1.632   3.879  -2.061  0.00  0.00     0.087 A 
ATOM      3  N   UNL d   1       0.589   1.784  -1.415  0.00  0.00    -0.345 N 
ATOM      4  HN  UNL d   1      -0.158   1.283  -0.934  1.00  0.00     0.167 HD
ATOM      5  C   UNL d   1       2.596   3.141  -2.762  0.00  0.00     0.035 A 
ATOM      6  C   UNL d   1       1.510   1.124  -2.141  0.00  0.00     0.090 A 
ATOM      7  C   UNL d   1       2.542   1.751  -2.803  0.00  0.00     0.019 A 
ENDROOT
BRANCH   1   8
ATOM      8  O   UNL d   1      -0.237   3.833  -0.541  0.00  0.00    -0.291 OA
BRANCH   8   9
ATOM      9  C   UNL d   1      -1.009   3.083   0.324  0.00  0.00     0.084 A 
ATOM     10  C   UNL d   1      -2.378   3.300   0.378  0.00  0.00    -0.017 A 
ATOM     11  C   UNL d   1      -3.207   2.478   1.160  0.00  0.00    -0.043 A 
ATOM     12  C   UNL d   1      -3.187   4.298  -0.390  0.00  0.00     0.042 C 
ATOM     13  C   UNL d   1      -4.650   2.839   0.978  0.00  0.00     0.040 C 
ATOM     14  C   UNL d   1      -2.688   1.427   1.914  0.00  0.00    -0.055 A 
ATOM     15  C   UNL d   1      -4.561   4.206   0.291  0.00  0.00     0.009 C 
ATOM     16  C   UNL d   1      -1.297   1.276   1.940  0.00  0.00     0.010 A 
ATOM     17  C   UNL d   1      -3.576   0.485   2.669  0.00  0.00     0.049 C 
ATOM     18  C   UNL d   1      -0.467   2.109   1.173  0.00  0.00     0.038 A 
ENDBRANCH   8   9
ENDBRANCH   1   8
BRANCH   2  19
ATOM     19  N   UNL d   1       1.632   5.295  -2.077  0.00  0.00    -0.318 N 
ATOM     20  C   UNL d   1       2.167   6.063  -3.110  0.00  0.00     0.280 C 
ATOM     21  O   UNL d   1       2.631   5.590  -4.145  0.00  0.00    -0.265 OA
ATOM     22  H   UNL d   1       1.045   5.778  -1.406  0.00  0.00     0.169 HD
BRANCH  20  23
ATOM     23  C   UNL d   1       2.105   7.496  -2.915  0.00  0.00     0.142 A 
ATOM     24  O   UNL d   1       1.855   8.029  -1.680  0.00  0.00    -0.317 OA
ATOM     25  C   UNL d   1       1.961   9.381  -1.810  0.00  0.00     0.143 A 
ATOM     26  C   UNL d   1       2.235   9.726  -3.113  0.00  0.00     0.027 A 
ATOM     27  C   UNL d   1       2.333   8.514  -3.825  0.00  0.00     0.045 A 
ENDBRANCH  20  23
ENDBRANCH   2  19
TORSDOF 4
