REMARK  4 active torsions:
REMARK  status: ('A' for Active; 'I' for Inactive)
REMARK    1  A    between atoms: O_11  and  C_5 
REMARK    2  A    between atoms: C_13  and  O_11 
REMARK    3  A    between atoms: C_14  and  O_16 
REMARK    4  A    between atoms: O_16  and  C_17 
ROOT
ATOM      1  C   UNL d   1      -0.048   0.665  -0.560  0.00  0.00    -0.066 C 
ATOM      2  C   UNL d   1      -0.069  -0.601  -0.066  0.00  0.00    -0.072 C 
ATOM      3  C   UNL d   1       1.230   1.540  -0.587  0.00  0.00     0.009 C 
ATOM      4  C   UNL d   1       1.187  -1.233   0.552  0.00  0.00     0.022 C 
ATOM      5  C   UNL d   1       2.379   0.910   0.265  0.00  0.00     0.145 C 
ATOM      6  C   UNL d   1       2.478  -0.601   0.032  0.00  0.00     0.043 C 
ATOM      7  C   UNL d   1       1.133  -2.749   0.397  0.00  0.00     0.002 C 
ATOM      8  C   UNL d   1      -0.117  -3.318   1.116  0.00  0.00    -0.040 C 
ATOM      9  C   UNL d   1      -1.367  -1.426  -0.043  0.00  0.00     0.036 C 
ATOM     10  C   UNL d   1      -1.305   1.355  -1.077  0.00  0.00     0.038 C 
ATOM     11  C   UNL d   1       0.922   2.950   0.007  0.00  0.00     0.049 C 
ATOM     12  C   UNL d   1      -1.294  -2.946   0.220  0.00  0.00     0.014 C 
ATOM     13  C   UNL d   1      -0.309   3.601  -0.632  0.00  0.00     0.133 C 
ATOM     14  C   UNL d   1      -1.522   2.702  -0.403  0.00  0.00     0.037 C 
ATOM     15  C   UNL d   1       1.704   1.713  -2.055  0.00  0.00     0.023 C 
ATOM     16  C   UNL d   1       2.266  -3.614   0.922  0.00  0.00     0.006 C 
ATOM     17  C   UNL d   1       0.171  -4.830   1.224  0.00  0.00     0.009 C 
ATOM     18  C   UNL d   1      -0.362  -2.776   2.548  0.00  0.00     0.015 C 
ATOM     19  C   UNL d   1       1.643  -5.009   0.838  0.00  0.00     0.001 C 
ENDROOT
BRANCH   5  20
ATOM     20  O   UNL d   1       3.648   1.525  -0.054  0.00  0.00    -0.315 OA
BRANCH  20  21
ATOM     21  C   UNL d   1       4.378   1.989   0.996  0.00  0.00     0.255 C 
ATOM     22  O   UNL d   1       4.084   1.884   2.183  0.00  0.00    -0.266 OA
ATOM     23  C   UNL d   1       5.641   2.637   0.515  0.00  0.00     0.126 C 
ENDBRANCH  20  21
ENDBRANCH   5  20
BRANCH  13  24
ATOM     24  O   UNL d   1      -0.529   4.895  -0.047  0.00  0.00    -0.316 OA
BRANCH  24  25
ATOM     25  C   UNL d   1      -1.244   5.752  -0.833  0.00  0.00     0.255 C 
ATOM     26  O   UNL d   1      -1.733   5.479  -1.922  0.00  0.00    -0.266 OA
ATOM     27  C   UNL d   1      -1.393   7.087  -0.175  0.00  0.00     0.126 C 
ENDBRANCH  24  25
ENDBRANCH  13  24
TORSDOF 4
