REMARK  7 active torsions:
REMARK  status: ('A' for Active; 'I' for Inactive)
REMARK    1  A    between atoms: C_8  and  N_1 
REMARK    2  A    between atoms: S_13  and  C_2 
REMARK    3  A    between atoms: C_12  and  C_7 
REMARK    4  A    between atoms: C_9  and  C_10 
REMARK    5  A    between atoms: C_19  and  C_12 
REMARK    6  A    between atoms: C_17  and  C_19 
REMARK    7  A    between atoms: O_25  and  C_18 
ROOT
ATOM      1  N   UNL d   1      -0.242  -1.256  -0.005  0.00  0.00    -0.279 N 
ATOM      2  C   UNL d   1       0.980  -0.591   0.054  0.00  0.00     0.164 A 
ATOM      3  N   UNL d   1       0.800   0.707   0.027  0.00  0.00    -0.278 N 
ATOM      4  HN  UNL d   1       1.532   1.415   0.081  1.00  0.00     0.189 HD
ATOM      5  N   UNL d   1      -0.534   0.943  -0.085  0.00  0.00    -0.286 N 
ATOM      6  HN  UNL d   1      -0.970   1.863  -0.147  1.00  0.00     0.188 HD
ATOM      7  C   UNL d   1      -1.171  -0.212  -0.102  0.00  0.00     0.105 A 
ENDROOT
BRANCH   1   8
ATOM      8  C   UNL d   1      -0.492  -2.665   0.024  0.00  0.00     0.043 A 
ATOM      9  C   UNL d   1      -1.536  -3.227  -0.726  0.00  0.00     0.046 A 
ATOM     10  C   UNL d   1      -1.757  -4.618  -0.734  0.00  0.00     0.050 A 
ATOM     11  C   UNL d   1      -0.898  -5.450  -0.005  0.00  0.00     0.016 A 
ATOM     12  C   UNL d   1       0.132  -4.902   0.753  0.00  0.00     0.003 A 
ATOM     13  C   UNL d   1       0.320  -3.518   0.787  0.00  0.00     0.030 A 
BRANCH  10  14
ATOM     14  C   UNL d   1      -2.896  -5.226  -1.521  0.00  0.00     0.417 C 
ATOM     15  F   UNL d   1      -3.689  -4.298  -2.125  0.00  0.00    -0.166 F 
ATOM     16  F   UNL d   1      -2.462  -6.053  -2.511  0.00  0.00    -0.166 F 
ATOM     17  F   UNL d   1      -3.724  -5.973  -0.740  0.00  0.00    -0.166 F 
ENDBRANCH  10  14
ENDBRANCH   1   8
BRANCH   2  18
ATOM     18  S   UNL d   1       2.569  -1.289  -0.033  0.00  0.00    -0.105 SA
ATOM     19  H   UNL d   1       2.264  -2.473  -0.577  0.00  0.00     0.110 HD
ENDBRANCH   2  18
BRANCH   7  20
ATOM     20  C   UNL d   1      -2.667  -0.327  -0.084  0.00  0.00     0.083 C 
BRANCH  20  21
ATOM     21  C   UNL d   1      -3.343   1.049   0.063  0.00  0.00     0.046 C 
BRANCH  21  22
ATOM     22  C   UNL d   1      -4.851   0.969   0.126  0.00  0.00    -0.058 A 
ATOM     23  C   UNL d   1      -5.489   0.348   1.208  0.00  0.00     0.010 A 
ATOM     24  C   UNL d   1      -6.880   0.305   1.281  0.00  0.00     0.037 A 
ATOM     25  C   UNL d   1      -7.644   0.893   0.279  0.00  0.00     0.065 A 
ATOM     26  C   UNL d   1      -7.032   1.521  -0.800  0.00  0.00     0.037 A 
ATOM     27  C   UNL d   1      -5.640   1.559  -0.878  0.00  0.00     0.010 A 
BRANCH  25  28
ATOM     28  O   UNL d   1      -9.000   0.839   0.401  0.00  0.00    -0.361 OA
ATOM     29  H   UNL d   1      -9.396   1.315  -0.346  0.00  0.00     0.217 HD
ENDBRANCH  25  28
ENDBRANCH  21  22
ENDBRANCH  20  21
ENDBRANCH   7  20
TORSDOF 7
