REMARK  5 active torsions:
REMARK  status: ('A' for Active; 'I' for Inactive)
REMARK    1  A    between atoms: C_6  and  C_1 
REMARK    2  A    between atoms: N_14  and  C_2 
REMARK    3  A    between atoms: C_13  and  C_5 
REMARK       I    between atoms: N_12  and  C_6 
REMARK    4  A    between atoms: C_7  and  C_11 
REMARK    5  A    between atoms: N_8  and  N_12 
ROOT
ATOM      1  C   UNL d   1      -0.020   1.569   0.021  0.00  0.00     0.068 A 
ATOM      2  C   UNL d   1       0.743   0.410   0.084  0.00  0.00     0.084 A 
ATOM      3  C   UNL d   1      -1.420   1.232  -0.012  0.00  0.00     0.039 A 
ATOM      4  S   UNL d   1      -0.209  -1.006   0.058  0.00  0.00    -0.071 SA
ATOM      5  C   UNL d   1      -1.673  -0.128   0.002  0.00  0.00     0.018 A 
ENDROOT
BRANCH   1   6
ATOM      6  C   UNL d   1       0.589   2.913  -0.009  0.00  0.00     0.272 C 
ATOM      7  N   UNL d   1      -0.315   3.974  -0.024  0.00  0.00    -0.266 N 
ATOM      8  H   UNL d   1      -1.313   3.822  -0.001  0.00  0.00     0.190 HD
ATOM      9  O   UNL d   1       1.810   3.070  -0.029  0.00  0.00    -0.266 OA
BRANCH   7  10
ATOM     10  N   UNL d   1       0.169   5.251   0.010  0.00  0.00    -0.308 N 
ATOM     11  C   UNL d   1      -0.692   6.217  -0.028  0.00  0.00     0.126 C 
ATOM     12  HN  UNL d   1       1.171   5.437   0.064  1.00  0.00     0.186 HD
BRANCH  11  13
ATOM     13  C   UNL d   1      -0.228   7.579   0.053  0.00  0.00     0.021 A 
ATOM     14  S   UNL d   1      -1.347   8.868   0.003  0.00  0.00    -0.101 SA
ATOM     15  C   UNL d   1      -0.105  10.034   0.188  0.00  0.00     0.050 A 
ATOM     16  C   UNL d   1       1.140   9.453   0.273  0.00  0.00     0.008 A 
ATOM     17  C   UNL d   1       1.069   8.034   0.188  0.00  0.00     0.021 A 
ENDBRANCH  11  13
ENDBRANCH   7  10
ENDBRANCH   1   6
BRANCH   2  18
ATOM     18  N   UNL d   1       2.088   0.316   0.158  0.00  0.00    -0.393 N 
ATOM     19  H   UNL d   1       2.651   1.156   0.009  0.00  0.00     0.156 HD
ATOM     20  H   UNL d   1       2.558  -0.559  -0.049  0.00  0.00     0.156 HD
ENDBRANCH   2  18
BRANCH   5  21
ATOM     21  C   UNL d   1      -2.978  -0.810  -0.053  0.00  0.00    -0.019 A 
ATOM     22  C   UNL d   1      -4.026  -0.243  -0.796  0.00  0.00     0.013 A 
ATOM     23  C   UNL d   1      -5.289  -0.839  -0.835  0.00  0.00     0.001 A 
ATOM     24  C   UNL d   1      -5.521  -2.020  -0.136  0.00  0.00     0.000 A 
ATOM     25  C   UNL d   1      -4.492  -2.604   0.598  0.00  0.00     0.001 A 
ATOM     26  C   UNL d   1      -3.230  -2.004   0.640  0.00  0.00     0.013 A 
ENDBRANCH   5  21
TORSDOF 5
