REMARK  4 active torsions:
REMARK  status: ('A' for Active; 'I' for Inactive)
REMARK    1  A    between atoms: O_27  and  C_5 
REMARK    2  A    between atoms: C_14  and  C_6 
REMARK    3  A    between atoms: C_12  and  C_15 
REMARK    4  A    between atoms: C_13  and  C_16 
ROOT
ATOM      1  C   UNL d   1       1.808  -1.665   0.213  0.00  0.00     0.093 A 
ATOM      2  C   UNL d   1       2.979  -2.502   0.123  0.00  0.00     0.192 A 
ATOM      3  N   UNL d   1       3.674  -2.966   1.145  0.00  0.00    -0.318 N 
ATOM      4  HN  UNL d   1       3.493  -2.841   2.141  1.00  0.00     0.169 HD
ATOM      5  C   UNL d   1       0.982  -1.429   1.307  0.00  0.00     0.107 A 
ATOM      6  C   UNL d   1       4.699  -3.657   0.545  0.00  0.00     0.138 A 
ATOM      7  S   UNL d   1       1.297  -0.803  -1.184  0.00  0.00    -0.093 SA
ATOM      8  N   UNL d   1       4.651  -3.648  -0.795  0.00  0.00    -0.242 N 
ATOM      9  HN  UNL d   1       5.293  -4.090  -1.452  1.00  0.00     0.196 HD
ATOM     10  O   UNL d   1       3.521  -2.895  -1.076  0.00  0.00    -0.216 OA
ATOM     11  C   UNL d   1      -0.068  -0.510   0.959  0.00  0.00     0.052 A 
ATOM     12  C   UNL d   1      -0.003  -0.097  -0.353  0.00  0.00     0.072 A 
ATOM     13 BR   UNL d   1      -1.458   0.162   2.060  0.00  0.00    -0.048 Br
ENDROOT
BRANCH   6  14
ATOM     14  C   UNL d   1       5.734  -4.355   1.299  0.00  0.00     0.011 A 
ATOM     15  C   UNL d   1       5.514  -4.733   2.631  0.00  0.00     0.031 A 
ATOM     16  C   UNL d   1       6.477  -5.472   3.342  0.00  0.00     0.049 A 
ATOM     17  C   UNL d   1       7.687  -5.803   2.707  0.00  0.00     0.032 A 
ATOM     18  C   UNL d   1       7.935  -5.420   1.380  0.00  0.00     0.049 A 
ATOM     19  C   UNL d   1       6.952  -4.694   0.689  0.00  0.00     0.031 A 
BRANCH  16  20
ATOM     20  C   UNL d   1       6.188  -5.922   4.754  0.00  0.00     0.417 C 
ATOM     21  F   UNL d   1       7.184  -6.678   5.295  0.00  0.00    -0.166 F 
ATOM     22  F   UNL d   1       6.002  -4.880   5.610  0.00  0.00    -0.166 F 
ATOM     23  F   UNL d   1       5.062  -6.682   4.834  0.00  0.00    -0.166 F 
ENDBRANCH  16  20
BRANCH  18  24
ATOM     24  C   UNL d   1       9.223  -5.787   0.679  0.00  0.00     0.417 C 
ATOM     25  F   UNL d   1      10.056  -6.547   1.442  0.00  0.00    -0.166 F 
ATOM     26  F   UNL d   1       9.007  -6.498  -0.460  0.00  0.00    -0.166 F 
ATOM     27  F   UNL d   1       9.945  -4.694   0.311  0.00  0.00    -0.166 F 
ENDBRANCH  18  24
ENDBRANCH   6  14
BRANCH   5  28
ATOM     28  O   UNL d   1       1.287  -2.082   2.463  0.00  0.00    -0.353 OA
ATOM     29  C   UNL d   1       0.450  -1.898   3.586  0.00  0.00     0.210 C 
ENDBRANCH   5  28
TORSDOF 4
