REMARK  2 active torsions:
REMARK  status: ('A' for Active; 'I' for Inactive)
REMARK    1  A    between atoms: C_8  and  C_3 
REMARK    2  A    between atoms: O_14  and  N_9 
ROOT
ATOM      1  C   UNL d   1       1.287  -1.367   0.027  0.00  0.00     0.054 A 
ATOM      2  C   UNL d   1      -0.037  -0.681   0.010  0.00  0.00     0.005 A 
ATOM      3  C   UNL d   1       2.460  -0.701   0.004  0.00  0.00    -0.009 A 
ATOM      4  S   UNL d   1       1.227   1.848   0.090  0.00  0.00    -0.124 SA
ATOM      5  C   UNL d   1      -0.143   0.720   0.023  0.00  0.00     0.013 A 
ATOM      6  C   UNL d   1       2.665   0.779  -0.037  0.00  0.00     0.121 A 
ATOM      7  C   UNL d   1      -1.248  -1.415  -0.011  0.00  0.00     0.038 A 
ATOM      8 CL   UNL d   1       1.262  -3.118   0.067  0.00  0.00    -0.083 Cl
ATOM      9  C   UNL d   1      -1.408   1.343   0.010  0.00  0.00     0.021 A 
ATOM     10  C   UNL d   1      -2.495  -0.784  -0.018  0.00  0.00     0.035 A 
ATOM     11  C   UNL d   1      -2.581   0.596  -0.010  0.00  0.00     0.025 A 
ATOM     12 CL   UNL d   1      -3.934  -1.728  -0.030  0.00  0.00    -0.084 Cl
ENDROOT
BRANCH   3  13
ATOM     13  C   UNL d   1       3.772  -1.433   0.008  0.00  0.00     0.123 C 
ATOM     14  N   UNL d   1       4.914  -0.819  -0.018  0.00  0.00    -0.280 N 
ATOM     15  HN  UNL d   1       5.039   0.193  -0.046  1.00  0.00     0.193 HD
BRANCH  14  16
ATOM     16  O   UNL d   1       5.946  -1.762  -0.004  0.00  0.00    -0.290 OA
ATOM     17  H   UNL d   1       6.746  -1.203  -0.014  0.00  0.00     0.244 HD
ENDBRANCH  14  16
ENDBRANCH   3  13
TORSDOF 2
