REMARK  4 active torsions:
REMARK  status: ('A' for Active; 'I' for Inactive)
REMARK       I    between atoms: C_2  and  N_1 
REMARK       I    between atoms: C_3  and  N_1 
REMARK    1  A    between atoms: N_9  and  N_1 
REMARK    2  A    between atoms: C_4  and  C_2 
REMARK    3  A    between atoms: C_5  and  C_3 
REMARK       I    between atoms: C_6  and  N_9 
REMARK    4  A    between atoms: C_8  and  C_6 
REMARK       I    between atoms: C_14  and  N_7 
ROOT
ATOM      1  N   UNL d   1       0.632   0.281   0.525  0.00  0.00    -0.178 N 
ATOM      2  C   UNL d   1      -0.046  -0.929   0.786  0.00  0.00     0.286 C 
ATOM      3  C   UNL d   1       0.036   1.482   0.976  0.00  0.00     0.286 C 
ATOM      4  O   UNL d   1       0.478  -1.795   1.501  0.00  0.00    -0.265 OA
ATOM      5  O   UNL d   1      -1.077   1.478   1.509  0.00  0.00    -0.265 OA
ENDROOT
BRANCH   1   6
ATOM      6  N   UNL d   1       2.065   0.201   0.654  0.00  0.00    -0.255 N 
ATOM      7  C   UNL d   1       2.815  -0.658  -0.130  0.00  0.00     0.269 C 
ATOM      8  O   UNL d   1       2.304  -1.517  -0.849  0.00  0.00    -0.269 OA
ATOM      9  H   UNL d   1       2.540   0.946   1.158  0.00  0.00     0.191 HD
BRANCH   7  10
ATOM     10  C   UNL d   1       4.367  -0.449  -0.021  0.00  0.00     0.243 C 
ATOM     11  N   UNL d   1       5.061  -1.679   0.326  0.00  0.00    -0.330 N 
ATOM     12  C   UNL d   1       5.401  -2.550  -0.683  0.00  0.00     0.217 C 
ATOM     13  C   UNL d   1       5.221  -1.854   1.762  0.00  0.00     0.138 C 
ATOM     14  O   UNL d   1       5.276  -2.240  -1.869  0.00  0.00    -0.274 OA
ATOM     15  C   UNL d   1       5.923  -3.920  -0.326  0.00  0.00     0.117 C 
ATOM     16  C   UNL d   1       5.628  -0.509   2.348  0.00  0.00     0.096 C 
ATOM     17  S   UNL d   1       4.800   0.734   1.327  0.00  0.00    -0.133 SA
ENDBRANCH   7  10
ENDBRANCH   1   6
BRANCH   2  18
ATOM     18  C   UNL d   1      -1.413  -1.104   0.282  0.00  0.00     0.076 C 
ATOM     19  S   UNL d   1      -2.104  -0.160  -0.967  0.00  0.00    -0.084 SA
ATOM     20  C   UNL d   1      -3.669  -0.850  -0.746  0.00  0.00     0.016 A 
ATOM     21  C   UNL d   1      -4.875  -0.459  -1.361  0.00  0.00     0.019 A 
ATOM     22  C   UNL d   1      -3.625  -1.913   0.157  0.00  0.00    -0.018 A 
ATOM     23  C   UNL d   1      -6.048  -1.160  -1.061  0.00  0.00     0.001 A 
ATOM     24  C   UNL d   1      -6.021  -2.239  -0.189  0.00  0.00     0.001 A 
ATOM     25  C   UNL d   1      -4.821  -2.625   0.416  0.00  0.00     0.013 A 
ATOM     26  C   UNL d   1      -2.310  -2.070   0.705  0.00  0.00     0.037 C 
ENDBRANCH   2  18
BRANCH   3  27
ATOM     27  C   UNL d   1       0.768   2.752   0.906  0.00  0.00     0.076 C 
ATOM     28  S   UNL d   1       2.060   3.090  -0.153  0.00  0.00    -0.084 SA
ATOM     29  C   UNL d   1       2.378   4.619   0.572  0.00  0.00     0.016 A 
ATOM     30  C   UNL d   1       3.453   5.488   0.304  0.00  0.00     0.019 A 
ATOM     31  C   UNL d   1       1.393   4.946   1.502  0.00  0.00    -0.018 A 
ATOM     32  C   UNL d   1       3.513   6.712   0.979  0.00  0.00     0.001 A 
ATOM     33  C   UNL d   1       2.522   7.072   1.881  0.00  0.00     0.001 A 
ATOM     34  C   UNL d   1       1.464   6.205   2.146  0.00  0.00     0.013 A 
ATOM     35  C   UNL d   1       0.459   3.874   1.656  0.00  0.00     0.037 C 
ENDBRANCH   3  27
TORSDOF 4
