REMARK  6 active torsions:
REMARK  status: ('A' for Active; 'I' for Inactive)
REMARK    1  A    between atoms: S_2  and  C_1 
REMARK    2  A    between atoms: N_9  and  S_2 
REMARK       I    between atoms: C_4  and  N_6 
REMARK    3  A    between atoms: O_10  and  C_4 
REMARK    4  A    between atoms: C_17  and  N_9 
REMARK    5  A    between atoms: C_16  and  O_10 
REMARK    6  A    between atoms: C_21  and  C_17 
ROOT
ATOM      1  C   UNL d   1       2.527   7.728  -3.614  0.00  0.00     0.363 C 
ATOM      2  N   UNL d   1       2.113   6.412  -3.390  0.00  0.00    -0.328 N 
ATOM      3  O   UNL d   1       3.588   8.011  -4.161  0.00  0.00    -0.238 OA
ATOM      4  C   UNL d   1       0.853   6.054  -2.745  0.00  0.00     0.128 C 
ATOM      5  C   UNL d   1       3.047   5.319  -3.617  0.00  0.00     0.128 C 
ATOM      6  C   UNL d   1       2.386   4.191  -4.410  0.00  0.00     0.026 C 
ATOM      7  C   UNL d   1       0.174   4.867  -3.439  0.00  0.00     0.026 C 
ATOM      8  C   UNL d   1       1.108   3.671  -3.723  0.00  0.00     0.002 C 
ENDROOT
BRANCH   8   9
ATOM      9  C   UNL d   1       1.478   2.816  -2.495  0.00  0.00     0.109 C 
BRANCH   9  10
ATOM     10  N   UNL d   1       0.283   2.265  -1.837  0.00  0.00    -0.215 NA
ATOM     11  H   UNL d   1      -0.445   2.933  -1.594  0.00  0.00     0.139 HD
BRANCH  10  12
ATOM     12  S   UNL d   1       0.574   1.246  -0.511  0.00  0.00     0.244 S 
ATOM     13  O   UNL d   1       1.606   0.291  -0.867  0.00  0.00    -0.206 OA
ATOM     14  O   UNL d   1      -0.716   0.861   0.020  0.00  0.00    -0.206 OA
BRANCH  12  15
ATOM     15  C   UNL d   1       1.260   2.220   0.730  0.00  0.00     0.106 A 
ATOM     16  C   UNL d   1       0.675   3.305   1.350  0.00  0.00     0.072 A 
ATOM     17  O   UNL d   1       1.553   3.844   2.246  0.00  0.00    -0.319 OA
ATOM     18  C   UNL d   1      -0.632   3.985   1.260  0.00  0.00     0.078 C 
ATOM     19  C   UNL d   1       2.691   3.097   2.204  0.00  0.00     0.051 A 
ATOM     20  C   UNL d   1       2.558   2.082   1.282  0.00  0.00     0.059 A 
ATOM     21  C   UNL d   1       3.778   3.515   3.110  0.00  0.00     0.077 C 
ENDBRANCH  12  15
ENDBRANCH  10  12
ENDBRANCH   9  10
ENDBRANCH   8   9
BRANCH   1  22
ATOM     22  O   UNL d   1       1.633   8.645  -3.170  0.00  0.00    -0.294 OA
BRANCH  22  23
ATOM     23  C   UNL d   1       1.816  10.076  -3.401  0.00  0.00     0.061 C 
ATOM     24  C   UNL d   1       1.795  10.395  -4.903  0.00  0.00     0.046 C 
ATOM     25  C   UNL d   1       0.620  10.751  -2.699  0.00  0.00     0.046 C 
ATOM     26  C   UNL d   1       3.098  10.622  -2.758  0.00  0.00     0.046 C 
ENDBRANCH  22  23
ENDBRANCH   1  22
TORSDOF 6
