REMARK  4 active torsions:
REMARK  status: ('A' for Active; 'I' for Inactive)
REMARK    1  A    between atoms: C_2  and  S_1 
REMARK    2  A    between atoms: C_9  and  S_1 
REMARK    3  A    between atoms: N_4  and  C_3 
REMARK    4  A    between atoms: C_5  and  C_7 
ROOT
ATOM      1  C   UNL d   1       0.542   0.727   1.384  0.00  0.00     0.097 A 
ATOM      2  C   UNL d   1       0.212  -0.010   2.522  0.00  0.00     0.125 A 
ATOM      3  C   UNL d   1      -0.085   0.628   3.740  0.00  0.00     0.053 A 
ATOM      4  C   UNL d   1      -0.042   2.029   3.829  0.00  0.00     0.050 A 
ATOM      5  C   UNL d   1       0.574   2.126   1.470  0.00  0.00     0.027 A 
ATOM      6  C   UNL d   1       0.277   2.768   2.677  0.00  0.00     0.018 A 
ENDROOT
BRANCH   1   7
ATOM      7  S   UNL d   1       1.170  -0.038  -0.095  0.00  0.00     0.209 S 
ATOM      8  O   UNL d   1       1.881  -1.227   0.328  0.00  0.00    -0.217 OA
ATOM      9  O   UNL d   1       1.881   0.995  -0.825  0.00  0.00    -0.217 OA
BRANCH   7  10
ATOM     10  C   UNL d   1      -0.179  -0.522  -1.145  0.00  0.00     0.064 A 
ATOM     11  C   UNL d   1      -1.039   0.459  -1.652  0.00  0.00     0.025 A 
ATOM     12  C   UNL d   1      -2.053   0.090  -2.541  0.00  0.00     0.025 A 
ATOM     13  C   UNL d   1      -2.193  -1.245  -2.922  0.00  0.00     0.034 A 
ATOM     14  C   UNL d   1      -1.328  -2.219  -2.424  0.00  0.00     0.025 A 
ATOM     15 CL   UNL d   1      -3.432  -1.689  -4.030  0.00  0.00    -0.084 Cl
ATOM     16  C   UNL d   1      -0.314  -1.859  -1.534  0.00  0.00     0.025 A 
ENDBRANCH   7  10
ENDBRANCH   1   7
BRANCH   2  17
ATOM     17  N   UNL d   1       0.103  -1.456   2.491  0.00  0.00    -0.114 N 
ATOM     18  O   UNL d   1      -0.708  -1.927   1.684  0.00  0.00    -0.532 OA
ATOM     19  O   UNL d   1       0.757  -2.091   3.325  0.00  0.00    -0.532 OA
ENDBRANCH   2  17
BRANCH   4  20
ATOM     20  C   UNL d   1      -0.305   2.748   5.133  0.00  0.00     0.417 C 
ATOM     21  F   UNL d   1      -0.614   1.911   6.159  0.00  0.00    -0.166 F 
ATOM     22  F   UNL d   1       0.769   3.473   5.546  0.00  0.00    -0.166 F 
ATOM     23  F   UNL d   1      -1.340   3.626   5.038  0.00  0.00    -0.166 F 
ENDBRANCH   4  20
TORSDOF 4
