REMARK  5 active torsions:
REMARK  status: ('A' for Active; 'I' for Inactive)
REMARK    1  A    between atoms: C_9  and  C_1 
REMARK    2  A    between atoms: C_10  and  N_3 
REMARK    3  A    between atoms: O_8  and  C_4 
REMARK    4  A    between atoms: C_13  and  C_10 
REMARK    5  A    between atoms: C_15  and  C_13 
ROOT
ATOM      1  C   UNL d   1       2.403  -0.789  -0.044  0.00  0.00     0.044 A 
ATOM      2  C   UNL d   1       2.399   0.714  -0.032  0.00  0.00     0.257 A 
ATOM      3  N   UNL d   1       1.168   1.375   0.037  0.00  0.00    -0.313 N 
ATOM      4  C   UNL d   1       1.240  -1.460   0.006  0.00  0.00     0.089 A 
ATOM      5  C   UNL d   1      -0.048  -0.750   0.007  0.00  0.00     0.025 A 
ATOM      6  C   UNL d   1      -0.067   0.655  -0.022  0.00  0.00     0.050 A 
ATOM      7  O   UNL d   1       3.475   1.309  -0.087  0.00  0.00    -0.267 OA
ATOM      8  C   UNL d   1      -1.259  -1.463   0.007  0.00  0.00     0.016 A 
ATOM      9  C   UNL d   1      -1.312   1.300  -0.121  0.00  0.00     0.031 A 
ATOM     10  C   UNL d   1      -2.485  -0.804  -0.035  0.00  0.00     0.001 A 
ATOM     11  C   UNL d   1      -2.509   0.581  -0.109  0.00  0.00     0.002 A 
ENDROOT
BRANCH   3  12
ATOM     12  C   UNL d   1       1.185   2.845   0.047  0.00  0.00     0.132 C 
BRANCH  12  13
ATOM     13  C   UNL d   1       0.577   3.541   1.278  0.00  0.00     0.020 C 
BRANCH  13  14
ATOM     14  C   UNL d   1       1.261   3.233   2.607  0.00  0.00    -0.003 C 
ATOM     15  C   UNL d   1       0.549   3.964   3.742  0.00  0.00     0.005 C 
ENDBRANCH  13  14
ENDBRANCH  12  13
ENDBRANCH   3  12
BRANCH   1  16
ATOM     16  C   UNL d   1       3.768  -1.446  -0.057  0.00  0.00     0.043 C 
ATOM     17  C   UNL d   1       4.246  -1.798  -1.461  0.00  0.00     0.010 C 
ENDBRANCH   1  16
BRANCH   4  18
ATOM     18  O   UNL d   1       1.144  -2.838   0.006  0.00  0.00    -0.359 OA
ATOM     19  H   UNL d   1       2.027  -3.230  -0.087  0.00  0.00     0.217 HD
ENDBRANCH   4  18
TORSDOF 5
