REMARK  5 active torsions:
REMARK  status: ('A' for Active; 'I' for Inactive)
REMARK    1  A    between atoms: O_12  and  C_3 
REMARK    2  A    between atoms: S_11  and  C_4 
REMARK    3  A    between atoms: C_13  and  C_5 
REMARK    4  A    between atoms: C_14  and  S_11 
REMARK    5  A    between atoms: C_16  and  C_13 
ROOT
ATOM      1  C   UNL d   1       4.048   3.404  -0.891  0.00  0.00    -0.107 C 
ATOM      2  C   UNL d   1       4.803   4.338  -0.957  0.00  0.00     0.013 C 
ATOM      3  C   UNL d   1       3.131   2.256  -0.805  0.00  0.00     0.175 C 
ENDROOT
BRANCH   3   4
ATOM      4  S   UNL d   1       1.575   2.727   0.004  0.00  0.00    -0.082 SA
BRANCH   4   5
ATOM      5  C   UNL d   1       0.716   1.175  -0.040  0.00  0.00     0.147 A 
ATOM      6  N   UNL d   1      -0.621   1.242  -0.016  0.00  0.00    -0.317 N 
ATOM      7  C   UNL d   1      -1.252   0.065  -0.004  0.00  0.00     0.150 A 
ATOM      8  HN  UNL d   1      -1.123   2.130  -0.007  1.00  0.00     0.170 HD
ATOM      9  C   UNL d   1      -0.657  -1.178  -0.014  0.00  0.00     0.015 A 
ATOM     10  C   UNL d   1       0.729  -1.133  -0.021  0.00  0.00     0.018 A 
ATOM     11  N   UNL d   1       1.422   0.033  -0.043  0.00  0.00    -0.340 N 
ATOM     12  C   UNL d   1       1.561  -2.383  -0.006  0.00  0.00     0.069 C 
ATOM     13  HN  UNL d   1       2.442   0.042  -0.061  1.00  0.00     0.167 HD
BRANCH   7  14
ATOM     14  O   UNL d   1      -2.604   0.193   0.018  0.00  0.00    -0.346 OA
ATOM     15  H   UNL d   1      -2.689   1.164   0.019  0.00  0.00     0.219 HD
ENDBRANCH   7  14
BRANCH   9  16
ATOM     16  C   UNL d   1      -1.462  -2.448  -0.010  0.00  0.00     0.044 C 
BRANCH  16  17
ATOM     17  C   UNL d   1      -1.758  -2.968   1.399  0.00  0.00     0.000 C 
ATOM     18  C   UNL d   1      -2.493  -4.301   1.353  0.00  0.00     0.005 C 
ENDBRANCH  16  17
ENDBRANCH   9  16
ENDBRANCH   4   5
ENDBRANCH   3   4
TORSDOF 5
