REMARK  3 active torsions:
REMARK  status: ('A' for Active; 'I' for Inactive)
REMARK    1  A    between atoms: C_8  and  C_1 
REMARK       I    between atoms: C_3  and  N_9 
REMARK    2  A    between atoms: C_7  and  C_3 
REMARK       I    between atoms: N_10  and  C_8 
REMARK    3  A    between atoms: N_9  and  N_10 
ROOT
ATOM      1  C   UNL d   1      -3.298  -1.868  -0.007  0.00  0.00     0.277 C 
ATOM      2  N   UNL d   1      -4.491  -1.163  -0.009  0.00  0.00    -0.263 N 
ATOM      3  O   UNL d   1      -3.319  -3.101  -0.011  0.00  0.00    -0.265 OA
ATOM      4  H   UNL d   1      -4.542  -0.146  -0.002  0.00  0.00     0.190 HD
ENDROOT
BRANCH   1   5
ATOM      5  C   UNL d   1      -2.057  -1.101  -0.001  0.00  0.00     0.076 A 
ATOM      6  S   UNL d   1      -2.033   0.617  -0.004  0.00  0.00    -0.083 SA
ATOM      7  C   UNL d   1      -0.285   0.620   0.002  0.00  0.00     0.023 A 
ATOM      8  C   UNL d   1       0.734   1.623   0.001  0.00  0.00     0.027 A 
ATOM      9  C   UNL d   1       0.223  -0.649   0.008  0.00  0.00     0.023 A 
ATOM     10  C   UNL d   1       1.985   1.049   0.006  0.00  0.00     0.052 A 
ATOM     11  S   UNL d   1       1.967  -0.663   0.014  0.00  0.00    -0.101 SA
ATOM     12  C   UNL d   1      -0.789  -1.653   0.007  0.00  0.00     0.044 A 
ENDBRANCH   1   5
BRANCH   2  13
ATOM     13  N   UNL d   1      -5.693  -1.891  -0.013  0.00  0.00    -0.260 N 
ATOM     14  C   UNL d   1      -6.906  -1.217  -0.017  0.00  0.00     0.343 C 
ATOM     15  O   UNL d   1      -6.953   0.017  -0.014  0.00  0.00    -0.262 OA
ATOM     16  H   UNL d   1      -5.618  -2.912  -0.020  0.00  0.00     0.190 HD
BRANCH  14  17
ATOM     17  C   UNL d   1      -8.142  -2.135  -0.022  0.00  0.00     0.473 C 
ATOM     18  F   UNL d   1      -7.801  -3.458  -0.025  0.00  0.00    -0.162 F 
ATOM     19  F   UNL d   1      -8.934  -1.952   1.070  0.00  0.00    -0.162 F 
ATOM     20  F   UNL d   1      -8.931  -1.945  -1.114  0.00  0.00    -0.162 F 
ENDBRANCH  14  17
ENDBRANCH   2  13
TORSDOF 3
