REMARK  2 active torsions:
REMARK  status: ('A' for Active; 'I' for Inactive)
REMARK    1  A    between atoms: C_11  and  C_2 
REMARK    2  A    between atoms: C_12  and  C_5 
ROOT
ATOM      1  C   UNL d   1      -0.710   1.239  -0.035  0.00  0.00     0.097 A 
ATOM      2  C   UNL d   1      -1.440   0.101  -0.065  0.00  0.00     0.027 A 
ATOM      3  N   UNL d   1       0.623  -1.259  -0.043  0.00  0.00    -0.298 N 
ATOM      4  HN  UNL d   1       1.105  -2.158  -0.037  1.00  0.00     0.187 HD
ATOM      5  C   UNL d   1      -0.677  -1.200  -0.070  0.00  0.00     0.071 A 
ATOM      6  C   UNL d   1       0.779   1.159  -0.016  0.00  0.00     0.137 A 
ATOM      7  N   UNL d   1       1.317  -0.099  -0.022  0.00  0.00    -0.289 N 
ATOM      8  C   UNL d   1      -1.330   2.529  -0.002  0.00  0.00     0.103 C 
ATOM      9  N   UNL d   1      -1.852   3.563   0.018  0.00  0.00    -0.191 NA
ATOM     10  S   UNL d   1       1.858   2.448   0.020  0.00  0.00    -0.057 SA
ATOM     11  H   UNL d   1       2.331  -0.188   0.004  0.00  0.00     0.188 HD
ENDROOT
BRANCH   2  12
ATOM     12  C   UNL d   1      -2.913   0.182  -0.026  0.00  0.00    -0.022 A 
ATOM     13  C   UNL d   1      -3.639   0.382  -1.211  0.00  0.00     0.012 A 
ATOM     14  C   UNL d   1      -5.032   0.405  -1.185  0.00  0.00     0.001 A 
ATOM     15  C   UNL d   1      -5.707   0.277   0.027  0.00  0.00     0.000 A 
ATOM     16  C   UNL d   1      -4.992   0.127   1.215  0.00  0.00     0.001 A 
ATOM     17  C   UNL d   1      -3.597   0.073   1.191  0.00  0.00     0.012 A 
ENDBRANCH   2  12
BRANCH   5  18
ATOM     18  C   UNL d   1      -1.407  -2.519  -0.048  0.00  0.00    -0.007 A 
ATOM     19  C   UNL d   1      -2.586  -2.762  -0.756  0.00  0.00     0.014 A 
ATOM     20  C   UNL d   1      -3.273  -3.971  -0.616  0.00  0.00     0.001 A 
ATOM     21  C   UNL d   1      -2.742  -4.986   0.172  0.00  0.00     0.000 A 
ATOM     22  C   UNL d   1      -1.516  -4.798   0.804  0.00  0.00     0.001 A 
ATOM     23  C   UNL d   1      -0.854  -3.570   0.701  0.00  0.00     0.014 A 
ENDBRANCH   5  18
TORSDOF 2
