REMARK  4 active torsions:
REMARK  status: ('A' for Active; 'I' for Inactive)
REMARK    1  A    between atoms: C_9  and  C_3 
REMARK    2  A    between atoms: C_7  and  C_4 
REMARK    3  A    between atoms: C_8  and  C_7 
REMARK       I    between atoms: N_11  and  C_8 
REMARK    4  A    between atoms: N_12  and  N_11 
ROOT
ATOM      1  N   UNL d   1      -1.320  -0.978  -0.107  0.00  0.00    -0.352 N 
ATOM      2  HN  UNL d   1      -2.092  -1.643  -0.159  1.00  0.00     0.166 HD
ATOM      3  C   UNL d   1      -1.462   0.334  -0.083  0.00  0.00     0.085 A 
ATOM      4  C   UNL d   1       0.027  -1.333  -0.052  0.00  0.00     0.031 A 
ATOM      5  S   UNL d   1       0.020   1.207  -0.011  0.00  0.00    -0.075 SA
ATOM      6  C   UNL d   1       0.900  -0.260   0.026  0.00  0.00     0.004 A 
ATOM      7  C   UNL d   1       2.383  -0.217   0.134  0.00  0.00     0.058 C 
ENDROOT
BRANCH   4   8
ATOM      8  C   UNL d   1       0.361  -2.788  -0.014  0.00  0.00     0.162 C 
BRANCH   8   9
ATOM      9  C   UNL d   1       1.167  -3.228  -1.215  0.00  0.00     0.237 C 
ATOM     10  O   UNL d   1       2.398  -3.287  -1.206  0.00  0.00    -0.272 OA
ATOM     11  N   UNL d   1       0.407  -3.587  -2.320  0.00  0.00    -0.294 N 
ATOM     12  H   UNL d   1      -0.606  -3.461  -2.319  0.00  0.00     0.183 HD
BRANCH  11  13
ATOM     13  N   UNL d   1       1.039  -4.110  -3.468  0.00  0.00    -0.247 NA
ATOM     14  H   UNL d   1       1.767  -4.760  -3.143  0.00  0.00     0.143 HD
ATOM     15  H   UNL d   1       1.583  -3.351  -3.893  0.00  0.00     0.143 HD
ENDBRANCH  11  13
ENDBRANCH   8   9
ENDBRANCH   4   8
BRANCH   3  16
ATOM     16  C   UNL d   1      -2.750   1.050  -0.035  0.00  0.00    -0.002 A 
ATOM     17  C   UNL d   1      -3.851   0.455   0.602  0.00  0.00     0.014 A 
ATOM     18  C   UNL d   1      -5.065   1.139   0.724  0.00  0.00     0.001 A 
ATOM     19  C   UNL d   1      -5.200   2.423   0.201  0.00  0.00     0.000 A 
ATOM     20  C   UNL d   1      -4.129   3.018  -0.459  0.00  0.00     0.001 A 
ATOM     21  C   UNL d   1      -2.916   2.335  -0.580  0.00  0.00     0.014 A 
ENDBRANCH   3  16
TORSDOF 4
