REMARK  1 active torsions:
REMARK  status: ('A' for Active; 'I' for Inactive)
REMARK    1  A    between atoms: C_12  and  C_4 
ROOT
ATOM      1  C   UNL d   1       1.343   0.822  -0.022  0.00  0.00     0.006 A 
ATOM      2  C   UNL d   1       0.736  -0.376  -0.026  0.00  0.00     0.057 A 
ATOM      3  C   UNL d   1       3.559  -0.238  -0.008  0.00  0.00     0.124 A 
ATOM      4  C   UNL d   1       2.818   0.898  -0.012  0.00  0.00     0.011 A 
ATOM      5  N   UNL d   1       1.492  -1.520  -0.024  0.00  0.00    -0.321 N 
ATOM      6  C   UNL d   1       2.862  -1.551  -0.012  0.00  0.00     0.267 A 
ATOM      7  C   UNL d   1      -0.735  -0.426  -0.020  0.00  0.00     0.025 A 
ATOM      8  C   UNL d   1       0.553   2.107  -0.017  0.00  0.00     0.217 A 
ATOM      9  C   UNL d   1       4.986  -0.256   0.004  0.00  0.00     0.106 C 
ATOM     10  O   UNL d   1      -0.871   2.010  -0.118  0.00  0.00    -0.346 OA
ATOM     11  N   UNL d   1       6.146  -0.223   0.013  0.00  0.00    -0.191 NA
ATOM     12  C   UNL d   1      -1.449   0.777  -0.059  0.00  0.00     0.081 A 
ATOM     13  O   UNL d   1       3.465  -2.619  -0.005  0.00  0.00    -0.266 OA
ATOM     14  C   UNL d   1      -1.471  -1.624   0.022  0.00  0.00     0.016 A 
ATOM     15  C   UNL d   1      -2.849   0.786  -0.055  0.00  0.00     0.038 A 
ATOM     16  C   UNL d   1      -2.871  -1.615   0.027  0.00  0.00     0.001 A 
ATOM     17  C   UNL d   1      -3.561  -0.409  -0.009  0.00  0.00     0.003 A 
ATOM     18  H   UNL d   1       1.058  -2.432  -0.029  0.00  0.00     0.169 HD
ENDROOT
BRANCH   4  19
ATOM     19  C   UNL d   1       3.537   2.194  -0.003  0.00  0.00    -0.024 A 
ATOM     20  C   UNL d   1       3.917   2.797  -1.210  0.00  0.00     0.014 A 
ATOM     21  C   UNL d   1       4.652   3.985  -1.199  0.00  0.00     0.024 A 
ATOM     22  C   UNL d   1       5.001   4.572   0.016  0.00  0.00     0.034 A 
ATOM     23  C   UNL d   1       4.609   3.991   1.221  0.00  0.00     0.024 A 
ATOM     24 CL   UNL d   1       5.929   6.021   0.029  0.00  0.00    -0.084 Cl
ATOM     25  C   UNL d   1       3.874   2.803   1.213  0.00  0.00     0.014 A 
ENDBRANCH   4  19
TORSDOF 1
