REMARK  4 active torsions:
REMARK  status: ('A' for Active; 'I' for Inactive)
REMARK    1  A    between atoms: C_2  and  C_1 
REMARK       I    between atoms: N_6  and  C_2 
REMARK    2  A    between atoms: N_3  and  N_6 
REMARK    3  A    between atoms: O_9  and  C_5 
REMARK    4  A    between atoms: C_11  and  C_8 
ROOT
ATOM      1  C   UNL d   1       0.890   2.536   0.062  0.00  0.00     0.272 C 
ATOM      2  N   UNL d   1       0.288   3.789   0.109  0.00  0.00    -0.266 N 
ATOM      3  O   UNL d   1       0.262   1.477   0.148  0.00  0.00    -0.266 OA
ATOM      4  H   UNL d   1       0.802   4.654   0.034  0.00  0.00     0.190 HD
ENDROOT
BRANCH   2   5
ATOM      5  N   UNL d   1      -1.071   3.835   0.212  0.00  0.00    -0.308 N 
ATOM      6  C   UNL d   1      -1.634   5.000   0.247  0.00  0.00     0.118 C 
ATOM      7  HN  UNL d   1      -1.625   2.980   0.260  1.00  0.00     0.186 HD
BRANCH   6   8
ATOM      8  C   UNL d   1      -3.107   5.120   0.332  0.00  0.00    -0.019 A 
ATOM      9  C   UNL d   1      -3.906   3.972   0.387  0.00  0.00     0.013 A 
ATOM     10  C   UNL d   1      -5.295   4.089   0.447  0.00  0.00     0.001 A 
ATOM     11  C   UNL d   1      -5.888   5.351   0.453  0.00  0.00     0.000 A 
ATOM     12  C   UNL d   1      -5.092   6.497   0.402  0.00  0.00     0.001 A 
ATOM     13  C   UNL d   1      -3.700   6.386   0.342  0.00  0.00     0.013 A 
ENDBRANCH   6   8
ENDBRANCH   2   5
BRANCH   1  14
ATOM     14  C   UNL d   1       2.375   2.449  -0.105  0.00  0.00     0.066 A 
ATOM     15  C   UNL d   1       2.979   1.176  -0.170  0.00  0.00     0.081 A 
ATOM     16  C   UNL d   1       4.357   1.034  -0.334  0.00  0.00     0.037 A 
ATOM     17  C   UNL d   1       5.163   2.163  -0.437  0.00  0.00     0.003 A 
ATOM     18  C   UNL d   1       4.588   3.431  -0.373  0.00  0.00     0.001 A 
ATOM     19  C   UNL d   1       3.203   3.577  -0.208  0.00  0.00     0.020 A 
BRANCH  15  20
ATOM     20  O   UNL d   1       2.280  -0.002  -0.081  0.00  0.00    -0.360 OA
ATOM     21  H   UNL d   1       1.326   0.224   0.032  0.00  0.00     0.217 HD
ENDBRANCH  15  20
ENDBRANCH   1  14
TORSDOF 4
