REMARK  6 active torsions:
REMARK  status: ('A' for Active; 'I' for Inactive)
REMARK    1  A    between atoms: C_4  and  C_1 
REMARK    2  A    between atoms: O_3  and  C_2 
REMARK    3  A    between atoms: C_10  and  O_3 
REMARK    4  A    between atoms: O_11  and  C_5 
REMARK    5  A    between atoms: O_12  and  C_6 
REMARK    6  A    between atoms: C_13  and  C_10 
ROOT
ATOM      1  C   UNL d   1       1.707  -0.346  -0.130  0.00  0.00     0.079 A 
ATOM      2  C   UNL d   1       0.833  -1.390  -0.489  0.00  0.00     0.119 A 
ATOM      3  C   UNL d   1       1.203   0.925   0.185  0.00  0.00     0.085 A 
ATOM      4  C   UNL d   1      -0.551  -1.163  -0.408  0.00  0.00     0.102 A 
ATOM      5  C   UNL d   1      -0.173   1.150   0.199  0.00  0.00     0.040 A 
ATOM      6  C   UNL d   1      -1.048   0.108  -0.101  0.00  0.00     0.042 A 
ENDROOT
BRANCH   2   7
ATOM      7  O   UNL d   1       1.245  -2.642  -0.880  0.00  0.00    -0.343 OA
BRANCH   7   8
ATOM      8  C   UNL d   1       2.246  -2.639  -1.907  0.00  0.00     0.214 C 
BRANCH   8   9
ATOM      9  C   UNL d   1       2.014  -3.757  -2.892  0.00  0.00    -0.034 A 
ATOM     10  C   UNL d   1       0.867  -3.767  -3.696  0.00  0.00     0.009 A 
ATOM     11  C   UNL d   1       0.714  -4.731  -4.695  0.00  0.00     0.001 A 
ATOM     12  C   UNL d   1       1.701  -5.697  -4.891  0.00  0.00     0.000 A 
ATOM     13  C   UNL d   1       2.833  -5.712  -4.080  0.00  0.00     0.001 A 
ATOM     14  C   UNL d   1       2.990  -4.747  -3.084  0.00  0.00     0.009 A 
ENDBRANCH   8   9
ENDBRANCH   7   8
ENDBRANCH   2   7
BRANCH   1  15
ATOM     15  C   UNL d   1       3.154  -0.591  -0.002  0.00  0.00     0.161 C 
ATOM     16  O   UNL d   1       3.929  -0.124  -0.834  0.00  0.00    -0.293 OA
ATOM     17  C   UNL d   1       3.615  -1.452   1.142  0.00  0.00     0.097 C 
ENDBRANCH   1  15
BRANCH   4  18
ATOM     18  O   UNL d   1      -1.506  -2.114  -0.665  0.00  0.00    -0.353 OA
ATOM     19  C   UNL d   1      -1.348  -3.291   0.130  0.00  0.00     0.210 C 
ENDBRANCH   4  18
BRANCH   3  20
ATOM     20  O   UNL d   1       1.995   1.959   0.608  0.00  0.00    -0.355 OA
ATOM     21  C   UNL d   1       2.718   2.562  -0.470  0.00  0.00     0.210 C 
ENDBRANCH   3  20
TORSDOF 6
