REMARK  7 active torsions:
REMARK  status: ('A' for Active; 'I' for Inactive)
REMARK    1  A    between atoms: N_2  and  C_1 
REMARK    2  A    between atoms: N_10  and  C_1 
REMARK    3  A    between atoms: C_3  and  N_2 
REMARK    4  A    between atoms: O_18  and  C_4 
REMARK    5  A    between atoms: N_6  and  N_10 
REMARK    6  A    between atoms: C_8  and  C_15 
REMARK    7  A    between atoms: O_19  and  C_13 
ROOT
ATOM      1  N   UNL d   1       3.226   0.279  -1.264  0.00  0.00    -0.309 N 
ATOM      2  HN  UNL d   1       2.758   0.044  -2.139  1.00  0.00     0.186 HD
ATOM      3  C   UNL d   1       4.516   0.458  -1.178  0.00  0.00     0.121 C 
ENDROOT
BRANCH   1   4
ATOM      4  N   UNL d   1       2.554   0.432  -0.087  0.00  0.00    -0.277 N 
ATOM      5  H   UNL d   1       3.061   0.398   0.796  0.00  0.00     0.189 HD
BRANCH   4   6
ATOM      6  C   UNL d   1       1.183   0.314  -0.012  0.00  0.00     0.186 C 
ATOM      7  S   UNL d   1       0.464   0.122   1.477  0.00  0.00    -0.040 SA
BRANCH   6   8
ATOM      8  N   UNL d   1       0.561   0.420  -1.230  0.00  0.00    -0.361 N 
ATOM      9  H   UNL d   1       1.233   0.560  -1.978  0.00  0.00     0.162 HD
BRANCH   8  10
ATOM     10  C   UNL d   1      -0.843   0.713  -1.468  0.00  0.00     0.088 C 
ATOM     11  C   UNL d   1      -1.300   2.088  -0.916  0.00  0.00     0.009 C 
ATOM     12  C   UNL d   1      -2.555   2.354  -1.748  0.00  0.00     0.011 C 
ATOM     13  C   UNL d   1      -0.363   3.205  -1.414  0.00  0.00     0.007 C 
ATOM     14  C   UNL d   1      -1.810   2.241  -3.074  0.00  0.00    -0.012 C 
ATOM     15  C   UNL d   1      -1.187   0.835  -2.970  0.00  0.00     0.030 C 
ATOM     16  C   UNL d   1      -0.705   3.296  -2.907  0.00  0.00     0.005 C 
ENDBRANCH   8  10
ENDBRANCH   6   8
ENDBRANCH   4   6
ENDBRANCH   1   4
BRANCH   3  17
ATOM     17  C   UNL d   1       5.436   0.122  -2.293  0.00  0.00     0.017 A 
ATOM     18  C   UNL d   1       6.848   0.143  -2.234  0.00  0.00     0.113 A 
ATOM     19  C   UNL d   1       7.561  -0.310  -3.377  0.00  0.00     0.102 A 
ATOM     20  C   UNL d   1       6.889  -0.755  -4.524  0.00  0.00     0.040 A 
ATOM     21  C   UNL d   1       5.505  -0.780  -4.568  0.00  0.00     0.004 A 
ATOM     22  C   UNL d   1       4.789  -0.340  -3.463  0.00  0.00     0.016 A 
BRANCH  18  23
ATOM     23  O   UNL d   1       7.660   0.503  -1.200  0.00  0.00    -0.352 OA
ATOM     24  C   UNL d   1       7.253   1.268  -0.089  0.00  0.00     0.210 C 
ENDBRANCH  18  23
BRANCH  19  25
ATOM     25  O   UNL d   1       8.925  -0.323  -3.561  0.00  0.00    -0.353 OA
ATOM     26  C   UNL d   1       9.754  -0.570  -2.433  0.00  0.00     0.210 C 
ENDBRANCH  19  25
ENDBRANCH   3  17
TORSDOF 7
