REMARK  14 active torsions:
REMARK  status: ('A' for Active; 'I' for Inactive)
REMARK    1  A    between atoms: S_8  and  C_1 
REMARK    2  A    between atoms: C_13  and  N_2 
REMARK    3  A    between atoms: C_10  and  S_8 
REMARK       I    between atoms: C_14  and  N_16 
REMARK    4  A    between atoms: C_22  and  C_14 
REMARK    5  A    between atoms: N_16  and  C_18 
REMARK    6  A    between atoms: C_25  and  C_22 
REMARK    7  A    between atoms: C_32  and  C_25 
REMARK    8  A    between atoms: C_26  and  C_27 
REMARK    9  A    between atoms: C_27  and  C_31 
REMARK   10  A    between atoms: C_28  and  C_33 
REMARK   11  A    between atoms: C_29  and  C_28 
REMARK   12  A    between atoms: C_30  and  C_29 
REMARK   13  A    between atoms: C_31  and  C_30 
REMARK   14  A    between atoms: C_33  and  C_32 
ROOT
ATOM      1  C   UNL d   1       2.360  -4.567   0.957  0.00  0.00     0.174 A 
ATOM      2  C   UNL d   1       3.597  -4.102   0.350  0.00  0.00     0.019 A 
ATOM      3  C   UNL d   1       1.216  -4.428  -0.032  0.00  0.00     0.134 A 
ATOM      4  C   UNL d   1       3.347  -3.742  -0.962  0.00  0.00    -0.043 A 
ATOM      5  C   UNL d   1       1.905  -3.935  -1.333  0.00  0.00     0.063 A 
ATOM      6  C   UNL d   1       4.815  -3.903   0.974  0.00  0.00     0.045 C 
ATOM      7  O   UNL d   1       2.288  -4.959   2.118  0.00  0.00    -0.291 OA
ATOM      8  C   UNL d   1       5.818  -3.239   0.271  0.00  0.00     0.035 C 
ATOM      9  C   UNL d   1       4.385  -3.230  -1.725  0.00  0.00     0.010 C 
ATOM     10  C   UNL d   1       5.624  -2.974  -1.103  0.00  0.00     0.030 C 
ENDROOT
BRANCH   8  11
ATOM     11  N   UNL d   1       6.981  -2.728   0.907  0.00  0.00    -0.327 N 
ATOM     12  C   UNL d   1       7.103  -2.535   2.280  0.00  0.00     0.222 C 
ATOM     13  O   UNL d   1       6.296  -2.902   3.131  0.00  0.00    -0.273 OA
ATOM     14  H   UNL d   1       7.665  -2.279   0.314  0.00  0.00     0.169 HD
BRANCH  12  15
ATOM     15  C   UNL d   1       8.346  -1.797   2.728  0.00  0.00     0.103 C 
BRANCH  15  16
ATOM     16  C   UNL d   1       8.472  -0.370   2.202  0.00  0.00     0.009 C 
BRANCH  16  17
ATOM     17  C   UNL d   1       7.255   0.536   2.432  0.00  0.00     0.000 C 
BRANCH  17  18
ATOM     18  C   UNL d   1       6.921   0.786   3.905  0.00  0.00     0.000 C 
BRANCH  18  19
ATOM     19  C   UNL d   1       5.714   1.722   4.040  0.00  0.00     0.000 C 
BRANCH  19  20
ATOM     20  C   UNL d   1       5.351   1.976   5.504  0.00  0.00     0.000 C 
BRANCH  20  21
ATOM     21  C   UNL d   1       4.135   2.897   5.618  0.00  0.00     0.000 C 
BRANCH  21  22
ATOM     22  C   UNL d   1       3.760   3.156   7.078  0.00  0.00     0.000 C 
BRANCH  22  23
ATOM     23  C   UNL d   1       2.544   4.078   7.181  0.00  0.00    -0.000 C 
BRANCH  23  24
ATOM     24  C   UNL d   1       2.165   4.344   8.637  0.00  0.00    -0.005 C 
ATOM     25  C   UNL d   1       0.955   5.259   8.736  0.00  0.00     0.005 C 
ENDBRANCH  23  24
ENDBRANCH  22  23
ENDBRANCH  21  22
ENDBRANCH  20  21
ENDBRANCH  19  20
ENDBRANCH  18  19
ENDBRANCH  17  18
ENDBRANCH  16  17
ENDBRANCH  15  16
ENDBRANCH  12  15
ENDBRANCH   8  11
BRANCH   3  26
ATOM     26  S   UNL d   1       0.041  -3.225   0.683  0.00  0.00    -0.078 SA
BRANCH  26  27
ATOM     27  C   UNL d   1      -1.429  -3.470  -0.198  0.00  0.00     0.178 A 
ATOM     28  N   UNL d   1      -2.721  -3.204   0.263  0.00  0.00    -0.219 N 
ATOM     29  N   UNL d   1      -3.578  -3.678  -0.684  0.00  0.00     0.001 NA
ATOM     30  N   UNL d   1      -2.831  -4.099  -1.693  0.00  0.00    -0.006 NA
ATOM     31  N   UNL d   1      -1.498  -3.995  -1.401  0.00  0.00    -0.264 N 
ATOM     32  HN  UNL d   1      -0.716  -4.269  -1.997  1.00  0.00     0.186 HD
BRANCH  28  33
ATOM     33  C   UNL d   1      -3.227  -2.572   1.438  0.00  0.00     0.056 A 
ATOM     34  C   UNL d   1      -2.433  -1.738   2.231  0.00  0.00     0.031 A 
ATOM     35  C   UNL d   1      -2.943  -1.156   3.395  0.00  0.00     0.002 A 
ATOM     36  C   UNL d   1      -4.262  -1.386   3.774  0.00  0.00     0.000 A 
ATOM     37  C   UNL d   1      -5.079  -2.184   2.978  0.00  0.00     0.002 A 
ATOM     38  C   UNL d   1      -4.572  -2.769   1.810  0.00  0.00     0.031 A 
ENDBRANCH  28  33
ENDBRANCH  26  27
ENDBRANCH   3  26
TORSDOF 14
