REMARK  5 active torsions:
REMARK  status: ('A' for Active; 'I' for Inactive)
REMARK    1  A    between atoms: N_2  and  C_1 
REMARK       I    between atoms: C_3  and  N_2 
REMARK    2  A    between atoms: C_5  and  C_3 
REMARK    3  A    between atoms: C_10  and  C_4 
REMARK    4  A    between atoms: C_6  and  C_7 
REMARK    5  A    between atoms: O_11  and  C_6 
ROOT
ATOM      1  N   UNL d   1       2.762  -0.875   0.865  0.00  0.00    -0.323 N 
ATOM      2  C   UNL d   1       3.877  -0.162   1.240  0.00  0.00     0.245 C 
ATOM      3  O   UNL d   1       4.159   0.987   0.928  0.00  0.00    -0.268 OA
ATOM      4  H   UNL d   1       2.781  -1.879   0.976  0.00  0.00     0.169 HD
ENDROOT
BRANCH   1   5
ATOM      5  C   UNL d   1       1.583  -0.340   0.308  0.00  0.00     0.041 A 
ATOM      6  C   UNL d   1       0.741  -1.152  -0.479  0.00  0.00    -0.028 A 
ATOM      7  C   UNL d   1      -0.555  -0.675  -0.773  0.00  0.00     0.010 A 
ATOM      8  C   UNL d   1      -0.968   0.597  -0.380  0.00  0.00     0.001 A 
ATOM      9  C   UNL d   1      -0.085   1.429   0.295  0.00  0.00     0.002 A 
ATOM     10  C   UNL d   1       1.183   0.962   0.640  0.00  0.00     0.030 A 
BRANCH   6  11
ATOM     11  C   UNL d   1       1.159  -2.454  -1.160  0.00  0.00     0.013 C 
ATOM     12  C   UNL d   1       2.617  -2.501  -1.640  0.00  0.00     0.015 C 
ATOM     13  C   UNL d   1       0.810  -3.688  -0.331  0.00  0.00     0.015 C 
ENDBRANCH   6  11
ENDBRANCH   1   5
BRANCH   2  14
ATOM     14  C   UNL d   1       4.801  -0.977   2.064  0.00  0.00     0.081 C 
ATOM     15  C   UNL d   1       6.096  -0.640   2.128  0.00  0.00     0.086 C 
BRANCH  15  16
ATOM     16  C   UNL d   1       6.967  -1.417   3.022  0.00  0.00     0.165 C 
ATOM     17  O   UNL d   1       6.604  -2.361   3.700  0.00  0.00    -0.647 OA
BRANCH  16  18
ATOM     18  O   UNL d   1       8.243  -0.971   2.997  0.00  0.00    -0.773 OA
ATOM     19  H   UNL d   1       8.411  -0.196   2.426  0.00  0.00     0.167 HD
ENDBRANCH  16  18
ENDBRANCH  15  16
ENDBRANCH   2  14
TORSDOF 5
