REMARK  3 active torsions:
REMARK  status: ('A' for Active; 'I' for Inactive)
REMARK    1  A    between atoms: C_11  and  C_1 
REMARK       I    between atoms: C_2  and  N_10 
REMARK       I    between atoms: N_6  and  C_2 
REMARK    2  A    between atoms: C_7  and  N_6 
REMARK    3  A    between atoms: N_10  and  C_21 
ROOT
ATOM      1  C   UNL d   1       0.309  -4.351  -4.896  0.00  0.00     0.325 C 
ATOM      2  N   UNL d   1      -0.518  -3.275  -5.100  0.00  0.00    -0.308 N 
ATOM      3  N   UNL d   1      -0.160  -5.556  -5.362  0.00  0.00    -0.309 N 
ATOM      4  O   UNL d   1       1.342  -4.349  -4.231  0.00  0.00    -0.247 OA
ATOM      5  H   UNL d   1      -1.463  -3.540  -5.317  0.00  0.00     0.170 HD
ATOM      6  H   UNL d   1       0.278  -6.332  -4.879  0.00  0.00     0.170 HD
ENDROOT
BRANCH   2   7
ATOM      7  C   UNL d   1      -0.310  -1.944  -4.657  0.00  0.00     0.049 A 
ATOM      8  C   UNL d   1      -1.431  -1.074  -4.474  0.00  0.00     0.021 A 
ATOM      9  C   UNL d   1      -1.209   0.232  -3.997  0.00  0.00     0.060 A 
ATOM     10  C   UNL d   1      -2.781  -1.428  -4.703  0.00  0.00     0.042 A 
ATOM     11  N   UNL d   1      -2.223   1.083  -3.776  0.00  0.00    -0.300 N 
ATOM     12  C   UNL d   1       0.086   0.657  -3.734  0.00  0.00     0.032 A 
ATOM     13  N   UNL d   1      -3.523   0.715  -3.991  0.00  0.00    -0.305 N 
ATOM     14  HN  UNL d   1      -2.020   2.025  -3.440  1.00  0.00     0.187 HD
ATOM     15  C   UNL d   1      -3.797  -0.522  -4.440  0.00  0.00     0.023 A 
ATOM     16  HN  UNL d   1      -4.280   1.375  -3.813  1.00  0.00     0.186 HD
ATOM     17  C   UNL d   1      -5.231  -0.889  -4.650  0.00  0.00     0.070 C 
ATOM     18  C   UNL d   1       1.181  -0.178  -3.936  0.00  0.00     0.005 A 
ATOM     19  C   UNL d   1       0.983  -1.473  -4.398  0.00  0.00     0.030 A 
ENDBRANCH   2   7
BRANCH   3  20
ATOM     20  C   UNL d   1      -1.177  -5.852  -6.283  0.00  0.00     0.036 A 
ATOM     21  C   UNL d   1      -1.539  -4.991  -7.321  0.00  0.00     0.030 A 
ATOM     22  C   UNL d   1      -2.619  -5.303  -8.151  0.00  0.00     0.018 A 
ATOM     23  C   UNL d   1      -3.350  -6.484  -7.957  0.00  0.00     0.048 A 
ATOM     24  C   UNL d   1      -2.929  -7.382  -6.966  0.00  0.00     0.018 A 
ATOM     25  C   UNL d   1      -1.837  -7.075  -6.148  0.00  0.00     0.030 A 
BRANCH  23  26
ATOM     26  C   UNL d   1      -4.581  -6.753  -8.789  0.00  0.00     0.417 C 
ATOM     27  F   UNL d   1      -5.201  -7.926  -8.482  0.00  0.00    -0.166 F 
ATOM     28  F   UNL d   1      -4.315  -6.803 -10.121  0.00  0.00    -0.166 F 
ATOM     29  F   UNL d   1      -5.524  -5.783  -8.630  0.00  0.00    -0.166 F 
ENDBRANCH  23  26
ENDBRANCH   3  20
TORSDOF 3
