REMARK  3 active torsions:
REMARK  status: ('A' for Active; 'I' for Inactive)
REMARK       I    between atoms: C_6  and  N_1 
REMARK       I    between atoms: N_13  and  C_6 
REMARK    1  A    between atoms: O_19  and  C_12 
REMARK    2  A    between atoms: C_18  and  N_13 
REMARK    3  A    between atoms: O_20  and  C_17 
ROOT
ATOM      1  N   UNL d   1      -3.162  -1.066  -0.079  0.00  0.00    -0.325 N 
ATOM      2  C   UNL d   1      -0.925  -0.406  -0.099  0.00  0.00    -0.018 A 
ATOM      3  C   UNL d   1      -1.718   0.740  -0.070  0.00  0.00    -0.009 A 
ATOM      4  N   UNL d   1       0.216   2.099  -0.057  0.00  0.00    -0.356 N 
ATOM      5  HN  UNL d   1       0.635   3.029  -0.049  1.00  0.00     0.166 HD
ATOM      6  C   UNL d   1      -4.378  -1.703  -0.056  0.00  0.00     0.323 C 
ATOM      7  C   UNL d   1       0.467  -0.304  -0.096  0.00  0.00     0.005 A 
ATOM      8  C   UNL d   1       1.024   1.001  -0.070  0.00  0.00     0.077 A 
ATOM      9  C   UNL d   1      -1.808  -1.620  -0.103  0.00  0.00     0.168 A 
ATOM     10  C   UNL d   1      -3.159   0.390  -0.042  0.00  0.00     0.169 A 
ATOM     11  C   UNL d   1      -1.130   1.978  -0.053  0.00  0.00     0.014 A 
ATOM     12  C   UNL d   1       2.429   1.097  -0.049  0.00  0.00     0.098 A 
ATOM     13  N   UNL d   1      -4.339  -3.076  -0.094  0.00  0.00    -0.309 N 
ATOM     14  C   UNL d   1       3.241  -0.055  -0.048  0.00  0.00     0.075 A 
ATOM     15  C   UNL d   1       1.294  -1.443  -0.106  0.00  0.00     0.051 A 
ATOM     16  O   UNL d   1      -5.406  -1.028   0.007  0.00  0.00    -0.247 OA
ATOM     17  C   UNL d   1       2.679  -1.324  -0.074  0.00  0.00     0.071 A 
ATOM     18  C   UNL d   1      -1.939   3.237  -0.015  0.00  0.00     0.068 C 
ATOM     19  H   UNL d   1      -3.446  -3.513   0.062  0.00  0.00     0.170 HD
ENDROOT
BRANCH  13  20
ATOM     20  C   UNL d   1      -5.471  -3.927  -0.037  0.00  0.00     0.036 A 
ATOM     21  C   UNL d   1      -6.777  -3.484  -0.266  0.00  0.00     0.029 A 
ATOM     22  C   UNL d   1      -7.868  -4.332  -0.068  0.00  0.00     0.002 A 
ATOM     23  C   UNL d   1      -7.662  -5.646   0.337  0.00  0.00     0.000 A 
ATOM     24  C   UNL d   1      -6.363  -6.122   0.500  0.00  0.00     0.002 A 
ATOM     25  C   UNL d   1      -5.270  -5.270   0.301  0.00  0.00     0.029 A 
ENDBRANCH  13  20
BRANCH  12  26
ATOM     26  O   UNL d   1       3.194   2.243  -0.017  0.00  0.00    -0.354 OA
ATOM     27  C   UNL d   1       2.532   3.501  -0.001  0.00  0.00     0.210 C 
ENDBRANCH  12  26
BRANCH  17  28
ATOM     28  O   UNL d   1       3.361  -2.509  -0.072  0.00  0.00    -0.356 OA
ATOM     29  C   UNL d   1       4.776  -2.433   0.042  0.00  0.00     0.210 C 
ENDBRANCH  17  28
TORSDOF 3
