REMARK  4 active torsions:
REMARK  status: ('A' for Active; 'I' for Inactive)
REMARK    1  A    between atoms: C_14  and  C_4 
REMARK    2  A    between atoms: C_5  and  C_13 
REMARK    3  A    between atoms: C_15  and  C_8 
REMARK    4  A    between atoms: C_20  and  C_15 
ROOT
ATOM      1  N   UNL d   1       0.296  -0.378   1.002  0.00  0.00    -0.353 N 
ATOM      2  HN  UNL d   1       0.236  -0.715   1.962  1.00  0.00     0.166 HD
ATOM      3  C   UNL d   1       0.449   0.951   0.634  0.00  0.00     0.049 A 
ATOM      4  C   UNL d   1       0.237  -1.142  -0.072  0.00  0.00     0.055 A 
ATOM      5  S   UNL d   1       0.393  -0.316  -1.573  0.00  0.00    -0.086 SA
ATOM      6  C   UNL d   1       0.529   1.169  -0.727  0.00  0.00     0.081 A 
ENDROOT
BRANCH   4   7
ATOM      7  C   UNL d   1       0.022  -2.628  -0.042  0.00  0.00     0.103 C 
BRANCH   7   8
ATOM      8  C   UNL d   1       1.303  -3.433   0.014  0.00  0.00    -0.052 A 
ATOM      9  C   UNL d   1       2.188  -3.291   1.092  0.00  0.00     0.008 A 
ATOM     10  C   UNL d   1       3.349  -4.066   1.171  0.00  0.00     0.014 A 
ATOM     11  C   UNL d   1       3.648  -5.007   0.177  0.00  0.00    -0.008 A 
ATOM     12  C   UNL d   1       2.772  -5.137  -0.909  0.00  0.00     0.014 A 
ATOM     13  C   UNL d   1       1.609  -4.361  -0.989  0.00  0.00     0.008 A 
BRANCH  11  14
ATOM     14  C   UNL d   1       4.838  -5.846   0.248  0.00  0.00     0.063 A 
ATOM     15  N   UNL d   1       5.439  -6.348  -0.902  0.00  0.00    -0.292 N 
ATOM     16  N   UNL d   1       6.497  -7.092  -0.626  0.00  0.00    -0.061 NA
ATOM     17  HN  UNL d   1       5.103  -6.163  -1.848  1.00  0.00     0.183 HD
ATOM     18  S   UNL d   1       6.787  -7.226   1.014  0.00  0.00    -0.010 SA
ATOM     19  C   UNL d   1       5.444  -6.241   1.430  0.00  0.00     0.096 A 
ENDBRANCH  11  14
ENDBRANCH   7   8
ENDBRANCH   4   7
BRANCH   3  20
ATOM     20  C   UNL d   1       0.543   2.005   1.637  0.00  0.00    -0.009 A 
ATOM     21  C   UNL d   1       1.122   1.722   2.884  0.00  0.00     0.015 A 
ATOM     22  C   UNL d   1       1.242   2.716   3.858  0.00  0.00     0.024 A 
ATOM     23  C   UNL d   1       0.771   4.001   3.596  0.00  0.00     0.034 A 
ATOM     24  C   UNL d   1       0.177   4.296   2.371  0.00  0.00     0.024 A 
ATOM     25 CL   UNL d   1       0.920   5.229   4.791  0.00  0.00    -0.084 Cl
ATOM     26  C   UNL d   1       0.062   3.300   1.394  0.00  0.00     0.015 A 
ENDBRANCH   3  20
TORSDOF 4
