REMARK  5 active torsions:
REMARK  status: ('A' for Active; 'I' for Inactive)
REMARK    1  A    between atoms: C_2  and  C_1 
REMARK    2  A    between atoms: C_3  and  C_4 
REMARK       I    between atoms: C_4  and  N_6 
REMARK    3  A    between atoms: N_7  and  C_5 
REMARK    4  A    between atoms: N_6  and  N_7 
REMARK    5  A    between atoms: O_17  and  C_10 
ROOT
ATOM      1  N   UNL d   1       0.630   0.424  -1.815  0.00  0.00    -0.187 NA
ATOM      2  H   UNL d   1      -0.051   0.432  -1.055  0.00  0.00     0.154 HD
ENDROOT
BRANCH   1   3
ATOM      3  N   UNL d   1       1.505   1.538  -1.814  0.00  0.00    -0.281 N 
ATOM      4  C   UNL d   1       2.300   1.744  -2.945  0.00  0.00     0.269 C 
ATOM      5  O   UNL d   1       2.506   0.886  -3.802  0.00  0.00    -0.266 OA
ATOM      6  H   UNL d   1       1.181   2.327  -1.272  0.00  0.00     0.184 HD
BRANCH   4   7
ATOM      7  C   UNL d   1       2.889   3.114  -3.110  0.00  0.00     0.066 A 
ATOM      8  C   UNL d   1       3.312   3.628  -4.352  0.00  0.00     0.084 A 
ATOM      9  C   UNL d   1       3.919   4.895  -4.404  0.00  0.00     0.038 A 
ATOM     10  C   UNL d   1       4.090   5.667  -3.257  0.00  0.00     0.003 A 
ATOM     11  C   UNL d   1       3.679   5.168  -2.030  0.00  0.00     0.001 A 
ATOM     12  C   UNL d   1       3.094   3.902  -1.954  0.00  0.00     0.020 A 
BRANCH   8  13
ATOM     13  O   UNL d   1       3.323   3.009  -5.575  0.00  0.00    -0.355 OA
ATOM     14  C   UNL d   1       2.127   2.374  -6.012  0.00  0.00     0.210 C 
ENDBRANCH   8  13
ENDBRANCH   4   7
ENDBRANCH   1   3
BRANCH   1  15
ATOM     15  C   UNL d   1       1.263  -0.847  -1.867  0.00  0.00     0.113 A 
ATOM     16  C   UNL d   1       0.546  -1.951  -2.331  0.00  0.00     0.087 A 
ATOM     17  C   UNL d   1       1.239  -3.162  -2.513  0.00  0.00     0.021 A 
ATOM     18  C   UNL d   1       2.597  -3.238  -2.240  0.00  0.00     0.018 A 
ATOM     19  C   UNL d   1       3.213  -2.110  -1.741  0.00  0.00     0.089 A 
ATOM     20  N   UNL d   1       2.570  -0.948  -1.512  0.00  0.00    -0.355 N 
ATOM     21  HN  UNL d   1       3.055  -0.161  -1.081  1.00  0.00     0.166 HD
BRANCH  16  22
ATOM     22  C   UNL d   1      -0.906  -1.898  -2.694  0.00  0.00     0.420 C 
ATOM     23  F   UNL d   1      -1.521  -0.689  -2.564  0.00  0.00    -0.166 F 
ATOM     24  F   UNL d   1      -1.642  -2.745  -1.913  0.00  0.00    -0.166 F 
ATOM     25  F   UNL d   1      -1.144  -2.299  -3.976  0.00  0.00    -0.166 F 
ENDBRANCH  16  22
ENDBRANCH   1  15
TORSDOF 5
