REMARK  5 active torsions:
REMARK  status: ('A' for Active; 'I' for Inactive)
REMARK    1  A    between atoms: C_3  and  C_1 
REMARK    2  A    between atoms: C_5  and  C_2 
REMARK    3  A    between atoms: O_17  and  C_5 
REMARK    4  A    between atoms: C_14  and  C_8 
REMARK    5  A    between atoms: C_16  and  N_11 
ROOT
ATOM      1  C   UNL d   1       2.693   1.585   0.044  0.00  0.00     0.088 A 
ATOM      2  O   UNL d   1       3.679   1.613  -0.902  0.00  0.00    -0.309 OA
ATOM      3  C   UNL d   1       3.037   2.447   1.072  0.00  0.00     0.041 A 
ATOM      4  C   UNL d   1       4.645   2.480  -0.479  0.00  0.00     0.091 A 
ATOM      5  C   UNL d   1       4.288   3.014   0.740  0.00  0.00     0.041 A 
ENDROOT
BRANCH   4   6
ATOM      6  C   UNL d   1       5.784   2.711  -1.323  0.00  0.00     0.125 C 
ATOM      7  N   UNL d   1       6.712   3.527  -0.939  0.00  0.00    -0.363 N 
ATOM      8  HN  UNL d   1       6.651   3.969  -0.021  1.00  0.00     0.165 HD
BRANCH   7   9
ATOM      9  C   UNL d   1       7.798   3.806  -1.778  0.00  0.00     0.032 A 
ATOM     10  C   UNL d   1       8.305   5.112  -1.754  0.00  0.00     0.031 A 
ATOM     11  C   UNL d   1       9.407   5.475  -2.534  0.00  0.00     0.026 A 
ATOM     12  C   UNL d   1      10.014   4.522  -3.349  0.00  0.00     0.034 A 
ATOM     13  C   UNL d   1       9.534   3.215  -3.376  0.00  0.00     0.026 A 
ATOM     14 CL   UNL d   1      11.367   4.960  -4.314  0.00  0.00    -0.084 Cl
ATOM     15  C   UNL d   1       8.436   2.857  -2.584  0.00  0.00     0.031 A 
ENDBRANCH   7   9
ENDBRANCH   4   6
BRANCH   1  16
ATOM     16  C   UNL d   1       1.421   0.792  -0.043  0.00  0.00     0.021 A 
ATOM     17  C   UNL d   1       1.115  -0.119  -1.044  0.00  0.00     0.093 A 
ATOM     18  S   UNL d   1      -0.478  -0.757  -0.825  0.00  0.00    -0.095 SA
ATOM     19  C   UNL d   1      -0.741   0.157   0.585  0.00  0.00     0.051 A 
ATOM     20  C   UNL d   1       0.350   0.930   0.902  0.00  0.00     0.023 A 
BRANCH  17  21
ATOM     21  C   UNL d   1       1.924  -0.618  -2.146  0.00  0.00     0.300 C 
ATOM     22  O   UNL d   1       3.141  -0.756  -2.153  0.00  0.00    -0.259 OA
BRANCH  21  23
ATOM     23  O   UNL d   1       1.127  -0.946  -3.211  0.00  0.00    -0.322 OA
ATOM     24  C   UNL d   1       1.817  -1.502  -4.329  0.00  0.00     0.213 C 
ENDBRANCH  21  23
ENDBRANCH  17  21
ENDBRANCH   1  16
TORSDOF 5
