REMARK  1 active torsions:
REMARK  status: ('A' for Active; 'I' for Inactive)
REMARK    1  A    between atoms: C_14  and  C_6 
ROOT
ATOM      1  C   UNL d   1       5.846   3.294  -7.602  0.00  0.00    -0.030 C 
ATOM      2  C   UNL d   1       4.471   6.759  -5.059  0.00  0.00    -0.036 C 
ATOM      3  C   UNL d   1       6.559   3.717  -6.284  0.00  0.00    -0.001 C 
ATOM      4  C   UNL d   1       4.509   5.275  -5.612  0.00  0.00    -0.002 C 
ATOM      5  C   UNL d   1       5.712   4.391  -5.176  0.00  0.00    -0.005 C 
ATOM      6  C   UNL d   1       5.996   1.746  -7.640  0.00  0.00     0.063 C 
ATOM      7  C   UNL d   1       4.931   6.845  -3.559  0.00  0.00     0.001 C 
ATOM      8  C   UNL d   1       4.372   3.728  -7.630  0.00  0.00     0.011 C 
ATOM      9  C   UNL d   1       4.194   5.156  -7.120  0.00  0.00     0.006 C 
ATOM     10  C   UNL d   1       7.226   2.430  -5.738  0.00  0.00     0.006 C 
ATOM     11  C   UNL d   1       3.007   7.309  -5.233  0.00  0.00     0.017 C 
ATOM     12  C   UNL d   1       7.320   1.492  -6.926  0.00  0.00     0.013 C 
ATOM     13  C   UNL d   1       6.670   5.080  -4.198  0.00  0.00     0.006 C 
ATOM     14  C   UNL d   1       3.773   6.837  -2.560  0.00  0.00     0.083 C 
ATOM     15  C   UNL d   1       5.929   5.779  -3.089  0.00  0.00     0.006 C 
ATOM     16  C   UNL d   1       2.880   8.012  -2.790  0.00  0.00     0.127 C 
ATOM     17  O   UNL d   1       2.441   8.681  -1.858  0.00  0.00    -0.298 OA
ATOM     18  C   UNL d   1       2.485   8.319  -4.214  0.00  0.00     0.079 C 
ATOM     19  C   UNL d   1       6.603   3.954  -8.786  0.00  0.00     0.016 C 
ATOM     20  C   UNL d   1       5.409   7.662  -5.910  0.00  0.00     0.016 C 
ENDROOT
BRANCH   6  21
ATOM     21  C   UNL d   1       5.960   1.096  -9.018  0.00  0.00     0.128 C 
ATOM     22  O   UNL d   1       6.964   0.992  -9.727  0.00  0.00    -0.298 OA
ATOM     23  C   UNL d   1       4.636   0.546  -9.474  0.00  0.00     0.091 C 
ENDBRANCH   6  21
TORSDOF 1
