REMARK  9 active torsions:
REMARK  status: ('A' for Active; 'I' for Inactive)
REMARK    1  A    between atoms: N_2  and  C_1 
REMARK    2  A    between atoms: N_5  and  C_3 
REMARK    3  A    between atoms: C_4  and  C_10 
REMARK       I    between atoms: C_6  and  N_7 
REMARK    4  A    between atoms: C_17  and  C_6 
REMARK    5  A    between atoms: N_7  and  N_15 
REMARK    6  A    between atoms: C_8  and  C_13 
REMARK       I    between atoms: N_15  and  C_8 
REMARK    7  A    between atoms: C_14  and  C_21 
REMARK    8  A    between atoms: C_18  and  C_32 
REMARK    9  A    between atoms: O_36  and  C_23 
ROOT
ATOM      1  C   UNL d   1       1.178  -0.157   0.112  0.00  0.00     0.130 A 
ATOM      2  C   UNL d   1       0.349  -1.297   0.030  0.00  0.00     0.063 A 
ATOM      3  C   UNL d   1       0.682   1.167   0.092  0.00  0.00     0.050 A 
ATOM      4  C   UNL d   1      -1.023  -0.991  -0.136  0.00  0.00     0.033 A 
ATOM      5  C   UNL d   1      -0.685   1.417   0.000  0.00  0.00    -0.034 A 
ATOM      6  C   UNL d   1      -1.530   0.323  -0.152  0.00  0.00     0.014 A 
ENDROOT
BRANCH   5   7
ATOM      7  C   UNL d   1      -1.236   2.776   0.024  0.00  0.00     0.017 C 
ATOM      8  C   UNL d   1      -0.712   3.756   0.784  0.00  0.00     0.076 C 
BRANCH   8   9
ATOM      9  C   UNL d   1      -1.332   5.108   0.795  0.00  0.00     0.259 C 
ATOM     10  N   UNL d   1      -0.589   6.034   1.492  0.00  0.00    -0.264 N 
ATOM     11  H   UNL d   1       0.338   5.864   1.879  0.00  0.00     0.190 HD
ATOM     12  O   UNL d   1      -2.389   5.365   0.238  0.00  0.00    -0.267 OA
BRANCH  10  13
ATOM     13  N   UNL d   1      -1.034   7.359   1.520  0.00  0.00    -0.263 N 
ATOM     14  C   UNL d   1      -0.273   8.288   2.198  0.00  0.00     0.270 C 
ATOM     15  O   UNL d   1       0.744   7.994   2.821  0.00  0.00    -0.266 OA
ATOM     16  H   UNL d   1      -1.982   7.530   1.190  0.00  0.00     0.190 HD
BRANCH  14  17
ATOM     17  C   UNL d   1      -0.742   9.695   2.135  0.00  0.00     0.033 A 
ATOM     18  C   UNL d   1      -0.543  10.521   3.245  0.00  0.00     0.018 A 
ATOM     19  C   UNL d   1      -0.882  11.876   3.183  0.00  0.00     0.017 A 
ATOM     20  C   UNL d   1      -1.406  12.427   2.003  0.00  0.00     0.048 A 
ATOM     21  C   UNL d   1      -1.609  11.587   0.894  0.00  0.00     0.017 A 
ATOM     22  C   UNL d   1      -1.283  10.227   0.959  0.00  0.00     0.018 A 
BRANCH  20  23
ATOM     23  C   UNL d   1      -1.721  13.902   1.902  0.00  0.00     0.417 C 
ATOM     24  F   UNL d   1      -1.484  14.591   3.052  0.00  0.00    -0.166 F 
ATOM     25  F   UNL d   1      -0.987  14.523   0.937  0.00  0.00    -0.166 F 
ATOM     26  F   UNL d   1      -3.025  14.136   1.587  0.00  0.00    -0.166 F 
ENDBRANCH  20  23
ENDBRANCH  14  17
ENDBRANCH  10  13
ENDBRANCH   8   9
ENDBRANCH   5   7
BRANCH   1  27
ATOM     27  N   UNL d   1       2.624  -0.244   0.178  0.00  0.00    -0.113 N 
ATOM     28  O   UNL d   1       3.221  -0.774  -0.768  0.00  0.00    -0.532 OA
ATOM     29  O   UNL d   1       3.165   0.284   1.163  0.00  0.00    -0.532 OA
ENDBRANCH   1  27
BRANCH   2  30
ATOM     30  N   UNL d   1       0.792  -2.646   0.093  0.00  0.00    -0.379 N 
ATOM     31  C   UNL d   1       1.658  -2.986   1.244  0.00  0.00     0.123 C 
ATOM     32  C   UNL d   1       1.982  -4.473   1.429  0.00  0.00     0.029 C 
ATOM     33  C   UNL d   1       0.946  -5.502   0.957  0.00  0.00     0.024 C 
ATOM     34  C   UNL d   1       0.423  -5.052  -0.408  0.00  0.00     0.029 C 
ATOM     35  C   UNL d   1      -0.175  -3.661  -0.353  0.00  0.00     0.123 C 
BRANCH  33  36
ATOM     36  C   UNL d   1      -0.148  -5.914   1.942  0.00  0.00    -0.021 A 
ATOM     37  C   UNL d   1      -0.588  -7.250   2.094  0.00  0.00     0.074 A 
ATOM     38  C   UNL d   1      -1.540  -7.578   3.077  0.00  0.00     0.037 A 
ATOM     39  C   UNL d   1      -2.084  -6.605   3.910  0.00  0.00     0.003 A 
ATOM     40  C   UNL d   1      -1.675  -5.287   3.766  0.00  0.00     0.001 A 
ATOM     41  C   UNL d   1      -0.729  -4.949   2.792  0.00  0.00     0.010 A 
BRANCH  37  42
ATOM     42  O   UNL d   1      -0.075  -8.363   1.477  0.00  0.00    -0.355 OA
ATOM     43  C   UNL d   1       0.015  -8.351   0.060  0.00  0.00     0.210 C 
ENDBRANCH  37  42
ENDBRANCH  33  36
ENDBRANCH   2  30
TORSDOF 9
