REMARK  7 active torsions:
REMARK  status: ('A' for Active; 'I' for Inactive)
REMARK    1  A    between atoms: C_3  and  C_1 
REMARK    2  A    between atoms: C_4  and  C_1 
REMARK    3  A    between atoms: N_8  and  C_2 
REMARK    4  A    between atoms: O_16  and  C_3 
REMARK    5  A    between atoms: N_5  and  C_4 
REMARK    6  A    between atoms: C_11  and  N_8 
REMARK    7  A    between atoms: C_19  and  O_16 
ROOT
ATOM      1  C   UNL d   1       1.050   0.072   0.049  0.00  0.00     0.117 C 
ATOM      2  C   UNL d   1       0.394  -0.606   1.009  0.00  0.00     0.116 C 
ENDROOT
BRANCH   2   3
ATOM      3  N   UNL d   1       0.957  -1.327   2.046  0.00  0.00    -0.363 N 
ATOM      4  H   UNL d   1       0.519  -1.152   2.954  0.00  0.00     0.165 HD
BRANCH   3   5
ATOM      5  C   UNL d   1       1.318  -2.706   1.981  0.00  0.00     0.049 A 
ATOM      6  C   UNL d   1       1.904  -3.332   3.105  0.00  0.00     0.040 A 
ATOM      7  C   UNL d   1       2.308  -4.672   3.068  0.00  0.00     0.063 A 
ATOM      8 BR   UNL d   1       2.179  -2.378   4.728  0.00  0.00    -0.049 Br
ATOM      9  C   UNL d   1       2.137  -5.394   1.896  0.00  0.00     0.117 A 
ATOM     10  C   UNL d   1       1.589  -4.805   0.766  0.00  0.00     0.044 A 
ATOM     11  F   UNL d   1       2.508  -6.681   1.857  0.00  0.00    -0.206 F 
ATOM     12  C   UNL d   1       1.197  -3.462   0.802  0.00  0.00     0.034 A 
ENDBRANCH   3   5
ENDBRANCH   2   3
BRANCH   1  13
ATOM     13  C   UNL d   1       0.321   0.739  -1.045  0.00  0.00     0.304 C 
ATOM     14  O   UNL d   1      -0.887   0.666  -1.206  0.00  0.00    -0.258 OA
BRANCH  13  15
ATOM     15  O   UNL d   1       1.206   1.343  -1.875  0.00  0.00    -0.317 OA
BRANCH  15  16
ATOM     16  C   UNL d   1       0.728   1.648  -3.188  0.00  0.00     0.174 C 
ATOM     17  C   UNL d   1       0.941   0.421  -4.057  0.00  0.00     0.034 C 
ENDBRANCH  15  16
ENDBRANCH  13  15
ENDBRANCH   1  13
BRANCH   1  18
ATOM     18  C   UNL d   1       2.570   0.072   0.049  0.00  0.00    -0.029 C 
BRANCH  18  19
ATOM     19  N   UNL d   1       3.831   0.072   0.049  0.00  0.00    -0.365 N 
ATOM     20  HN2 UNL d   1       2.811   0.072   0.049  1.00  0.00     0.165 HD
ATOM     21  HN1 UNL d   1       4.851   0.072   0.049  1.00  0.00     0.165 HD
ENDBRANCH  18  19
ENDBRANCH   1  18
TORSDOF 7
