REMARK  3 active torsions:
REMARK  status: ('A' for Active; 'I' for Inactive)
REMARK    1  A    between atoms: N_6  and  C_1 
REMARK       I    between atoms: C_8  and  N_6 
REMARK    2  A    between atoms: C_11  and  C_8 
REMARK    3  A    between atoms: N_10  and  C_11 
ROOT
ATOM      1  C   UNL d   1       3.928   1.258   1.042  0.00  0.00     0.098 C 
ATOM      2  C   UNL d   1       3.269   2.217   1.816  0.00  0.00     0.085 C 
ATOM      3  S   UNL d   1       5.489   1.812   0.562  0.00  0.00    -0.075 SA
ATOM      4  C   UNL d   1       4.150   3.279   2.154  0.00  0.00    -0.021 C 
ATOM      5  C   UNL d   1       5.380   3.120   1.581  0.00  0.00    -0.007 C 
ATOM      6  C   UNL d   1       1.930   2.087   2.294  0.00  0.00     0.103 C 
ATOM      7  N   UNL d   1       0.833   1.972   2.675  0.00  0.00    -0.191 NA
ATOM      8  C   UNL d   1       4.154   4.465   3.054  0.00  0.00     0.042 C 
ATOM      9  C   UNL d   1       6.404   4.087   2.035  0.00  0.00     0.047 C 
ATOM     10  C   UNL d   1       5.688   4.677   3.287  0.00  0.00     0.010 C 
ENDROOT
BRANCH   1  11
ATOM     11  N   UNL d   1       3.485  -0.008   0.654  0.00  0.00    -0.319 N 
ATOM     12  C   UNL d   1       4.287  -1.004   0.095  0.00  0.00     0.251 C 
ATOM     13  O   UNL d   1       5.484  -0.932  -0.174  0.00  0.00    -0.271 OA
ATOM     14  H   UNL d   1       2.571  -0.304   0.981  0.00  0.00     0.169 HD
BRANCH  12  15
ATOM     15  C   UNL d   1       3.543  -2.322  -0.164  0.00  0.00     0.374 C 
BRANCH  15  16
ATOM     16  N   UNL d   1       3.365  -3.095   1.079  0.00  0.00     0.097 N 
ATOM     17  C   UNL d   1       4.647  -3.503   1.689  0.00  0.00     0.273 C 
ATOM     18  C   UNL d   1       4.376  -4.096   3.075  0.00  0.00     0.030 C 
ATOM     19  C   UNL d   1       3.374  -5.248   3.034  0.00  0.00     0.003 C 
ATOM     20  C   UNL d   1       2.167  -4.930   2.154  0.00  0.00     0.030 C 
ATOM     21  C   UNL d   1       2.580  -4.314   0.818  0.00  0.00     0.273 C 
ENDBRANCH  15  16
ENDBRANCH  12  15
ENDBRANCH   1  11
TORSDOF 3
