REMARK  4 active torsions:
REMARK  status: ('A' for Active; 'I' for Inactive)
REMARK    1  A    between atoms: C_7  and  C_1 
REMARK    2  A    between atoms: C_10  and  C_6 
REMARK    3  A    between atoms: O_17  and  C_11 
REMARK    4  A    between atoms: O_18  and  C_14 
ROOT
ATOM      1  C   UNL d   1      -1.603   1.703  -0.165  0.00  0.00     0.024 C 
ATOM      2  N   UNL d   1      -0.488   1.577  -0.826  0.00  0.00    -0.358 N 
ATOM      3  HN  UNL d   1      -0.330   2.136  -1.664  1.00  0.00     0.166 HD
ATOM      4  S   UNL d   1      -1.248  -1.516  -0.566  0.00  0.00    -0.118 SA
ATOM      5  C   UNL d   1      -1.990   0.807   1.004  0.00  0.00     0.078 C 
ATOM      6  C   UNL d   1      -2.393  -0.616   0.565  0.00  0.00     0.091 C 
ATOM      7  C   UNL d   1       0.500   0.672  -0.392  0.00  0.00     0.049 A 
ATOM      8  C   UNL d   1       0.307  -0.713  -0.222  0.00  0.00     0.028 A 
ATOM      9  C   UNL d   1       1.773   1.212  -0.156  0.00  0.00     0.031 A 
ATOM     10  C   UNL d   1       1.384  -1.513   0.188  0.00  0.00     0.021 A 
ATOM     11  C   UNL d   1       2.836   0.411   0.259  0.00  0.00     0.002 A 
ATOM     12  C   UNL d   1       2.638  -0.954   0.430  0.00  0.00     0.002 A 
ENDROOT
BRANCH   1  13
ATOM     13  C   UNL d   1      -2.540   2.783  -0.616  0.00  0.00     0.020 A 
ATOM     14  C   UNL d   1      -2.618   3.120  -1.978  0.00  0.00     0.077 A 
ATOM     15  C   UNL d   1      -3.457   4.141  -2.416  0.00  0.00     0.037 A 
ATOM     16  C   UNL d   1      -4.218   4.855  -1.493  0.00  0.00     0.003 A 
ATOM     17  C   UNL d   1      -4.148   4.534  -0.137  0.00  0.00     0.001 A 
ATOM     18  C   UNL d   1      -3.312   3.503   0.303  0.00  0.00     0.016 A 
BRANCH  14  19
ATOM     19  O   UNL d   1      -1.901   2.465  -2.946  0.00  0.00    -0.360 OA
ATOM     20  H   UNL d   1      -1.199   1.951  -2.486  0.00  0.00     0.217 HD
ENDBRANCH  14  19
ENDBRANCH   1  13
BRANCH   6  21
ATOM     21  C   UNL d   1      -3.816  -0.635   0.011  0.00  0.00    -0.043 A 
ATOM     22  C   UNL d   1      -4.869  -1.153   0.782  0.00  0.00     0.011 A 
ATOM     23  C   UNL d   1      -6.190  -1.056   0.336  0.00  0.00     0.037 A 
ATOM     24  C   UNL d   1      -6.468  -0.428  -0.871  0.00  0.00     0.065 A 
ATOM     25  C   UNL d   1      -5.442   0.053  -1.672  0.00  0.00     0.037 A 
ATOM     26  C   UNL d   1      -4.122  -0.076  -1.241  0.00  0.00     0.011 A 
BRANCH  24  27
ATOM     27  O   UNL d   1      -7.773  -0.292  -1.239  0.00  0.00    -0.361 OA
ATOM     28  H   UNL d   1      -7.804   0.244  -2.049  0.00  0.00     0.217 HD
ENDBRANCH  24  27
ENDBRANCH   6  21
TORSDOF 4
