REMARK  4 active torsions:
REMARK  status: ('A' for Active; 'I' for Inactive)
REMARK    1  A    between atoms: C_2  and  S_1 
REMARK    2  A    between atoms: N_4  and  S_1 
REMARK    3  A    between atoms: C_3  and  N_4 
REMARK    4  A    between atoms: C_17  and  C_11 
ROOT
ATOM      1  C   UNL d   1       0.849   2.641  -0.383  0.00  0.00     0.133 A 
ATOM      2  C   UNL d   1       0.049   3.753  -0.463  0.00  0.00     0.082 A 
ATOM      3  N   UNL d   1       2.047   4.373   0.427  0.00  0.00    -0.296 N 
ATOM      4  HN  UNL d   1       2.814   4.915   0.825  1.00  0.00     0.187 HD
ATOM      5  N   UNL d   1       2.044   3.068   0.120  0.00  0.00    -0.280 N 
ATOM      6  C   UNL d   1       0.821   4.816   0.095  0.00  0.00     0.062 A 
ATOM      7  C   UNL d   1       3.239   2.288   0.336  0.00  0.00     0.179 C 
ENDROOT
BRANCH   1   8
ATOM      8  N   UNL d   1       0.456   1.349  -0.659  0.00  0.00    -0.263 N 
ATOM      9  H   UNL d   1       0.514   0.658   0.068  0.00  0.00     0.180 HD
BRANCH   8  10
ATOM     10  S   UNL d   1       0.440   0.702  -2.159  0.00  0.00     0.281 S 
ATOM     11  O   UNL d   1       1.311  -0.453  -2.172  0.00  0.00    -0.199 OA
ATOM     12  O   UNL d   1      -0.929   0.597  -2.634  0.00  0.00    -0.199 OA
BRANCH  10  13
ATOM     13  C   UNL d   1       1.202   1.818  -3.279  0.00  0.00     0.166 A 
ATOM     14  N   UNL d   1       2.477   2.330  -3.080  0.00  0.00    -0.334 N 
ATOM     15  C   UNL d   1       2.697   3.136  -4.098  0.00  0.00     0.077 A 
ATOM     16  HN  UNL d   1       3.110   2.126  -2.307  1.00  0.00     0.168 HD
ATOM     17  C   UNL d   1       3.926   3.922  -4.370  0.00  0.00     0.089 C 
ATOM     18  N   UNL d   1       1.607   3.183  -4.935  0.00  0.00    -0.353 N 
ATOM     19  C   UNL d   1       0.647   2.354  -4.423  0.00  0.00     0.133 A 
ATOM     20  H   UNL d   1       1.535   3.738  -5.778  0.00  0.00     0.166 HD
ENDBRANCH  10  13
ENDBRANCH   8  10
ENDBRANCH   1   8
BRANCH   6  21
ATOM     21  C   UNL d   1       0.415   6.202   0.364  0.00  0.00    -0.008 A 
ATOM     22  C   UNL d   1      -0.874   6.661   0.059  0.00  0.00     0.014 A 
ATOM     23  C   UNL d   1      -1.257   7.971   0.367  0.00  0.00     0.001 A 
ATOM     24  C   UNL d   1      -0.357   8.839   0.982  0.00  0.00     0.000 A 
ATOM     25  C   UNL d   1       0.930   8.403   1.282  0.00  0.00     0.001 A 
ATOM     26  C   UNL d   1       1.313   7.095   0.975  0.00  0.00     0.014 A 
ENDBRANCH   6  21
TORSDOF 4
