REMARK  2 active torsions:
REMARK  status: ('A' for Active; 'I' for Inactive)
REMARK    1  A    between atoms: C_7  and  C_3 
REMARK    2  A    between atoms: C_11  and  C_5 
ROOT
ATOM      1  N   UNL d   1      -0.440   1.630  -0.767  0.00  0.00    -0.358 N 
ATOM      2  HN  UNL d   1      -0.255   2.224  -1.576  1.00  0.00     0.166 HD
ATOM      3  C   UNL d   1      -2.361  -0.588   0.599  0.00  0.00     0.092 C 
ATOM      4  S   UNL d   1      -1.176  -1.489  -0.504  0.00  0.00    -0.118 SA
ATOM      5  C   UNL d   1      -1.589   1.713  -0.162  0.00  0.00     0.021 C 
ATOM      6  C   UNL d   1      -1.960   0.833   1.026  0.00  0.00     0.078 C 
ATOM      7  C   UNL d   1       0.553   0.734  -0.323  0.00  0.00     0.049 A 
ATOM      8  C   UNL d   1       0.366  -0.654  -0.162  0.00  0.00     0.028 A 
ATOM      9  C   UNL d   1       1.827   1.273  -0.094  0.00  0.00     0.031 A 
ATOM     10  C   UNL d   1       1.449  -1.461   0.224  0.00  0.00     0.021 A 
ATOM     11  C   UNL d   1       2.895   0.465   0.300  0.00  0.00     0.002 A 
ATOM     12  C   UNL d   1       2.706  -0.903   0.460  0.00  0.00     0.002 A 
ENDROOT
BRANCH   3  13
ATOM     13  C   UNL d   1      -3.793  -0.618   0.041  0.00  0.00    -0.033 A 
ATOM     14  C   UNL d   1      -4.936  -0.875   0.869  0.00  0.00    -0.018 A 
ATOM     15  C   UNL d   1      -6.231  -0.787   0.286  0.00  0.00    -0.025 A 
ATOM     16  C   UNL d   1      -4.881  -1.219   2.243  0.00  0.00     0.013 A 
ATOM     17  C   UNL d   1      -7.380  -1.034   1.055  0.00  0.00     0.012 A 
ATOM     18  C   UNL d   1      -6.380  -0.455  -1.065  0.00  0.00     0.012 A 
ATOM     19  C   UNL d   1      -7.285  -1.385   2.398  0.00  0.00     0.001 A 
ATOM     20  C   UNL d   1      -6.035  -1.479   2.992  0.00  0.00     0.001 A 
ATOM     21  C   UNL d   1      -5.273  -0.226  -1.867  0.00  0.00     0.002 A 
ATOM     22  C   UNL d   1      -3.999  -0.308  -1.321  0.00  0.00     0.009 A 
ENDBRANCH   3  13
BRANCH   5  23
ATOM     23  C   UNL d   1      -2.604   2.678  -0.699  0.00  0.00    -0.013 A 
ATOM     24  C   UNL d   1      -2.595   2.960  -2.075  0.00  0.00     0.016 A 
ATOM     25  C   UNL d   1      -3.578   3.779  -2.635  0.00  0.00     0.043 A 
ATOM     26  C   UNL d   1      -4.557   4.328  -1.817  0.00  0.00     0.116 A 
ATOM     27  C   UNL d   1      -4.558   4.092  -0.448  0.00  0.00     0.043 A 
ATOM     28  F   UNL d   1      -5.513   5.096  -2.355  0.00  0.00    -0.206 F 
ATOM     29  C   UNL d   1      -3.577   3.271   0.116  0.00  0.00     0.016 A 
ENDBRANCH   5  23
TORSDOF 2
