REMARK  6 active torsions:
REMARK  status: ('A' for Active; 'I' for Inactive)
REMARK    1  A    between atoms: N_2  and  C_1 
REMARK    2  A    between atoms: N_4  and  C_1 
REMARK    3  A    between atoms: C_3  and  C_5 
REMARK    4  A    between atoms: C_10  and  N_4 
REMARK    5  A    between atoms: C_7  and  C_12 
REMARK    6  A    between atoms: O_19  and  C_13 
ROOT
ATOM      1  N   UNL d   1      -0.145  -0.291   0.973  0.00  0.00    -0.358 N 
ATOM      2  C   UNL d   1       0.416  -0.652   2.277  0.00  0.00     0.126 C 
ATOM      3  C   UNL d   1      -0.964  -1.347   0.391  0.00  0.00     0.126 C 
ATOM      4  C   UNL d   1      -1.653  -2.075   2.776  0.00  0.00     0.024 C 
ATOM      5  C   UNL d   1      -2.102  -1.753   1.332  0.00  0.00     0.029 C 
ATOM      6  C   UNL d   1      -0.665  -1.008   3.288  0.00  0.00     0.029 C 
ENDROOT
BRANCH   1   7
ATOM      7  C   UNL d   1       0.725   0.420   0.145  0.00  0.00     0.174 C 
ATOM      8  S   UNL d   1       1.861  -0.270  -0.875  0.00  0.00    -0.041 SA
BRANCH   7   9
ATOM      9  N   UNL d   1       0.738   1.782   0.325  0.00  0.00    -0.333 N 
ATOM     10  H   UNL d   1       1.598   2.234   0.034  0.00  0.00     0.168 HD
BRANCH   9  11
ATOM     11  C   UNL d   1      -0.364   2.643   0.517  0.00  0.00     0.035 A 
ATOM     12  C   UNL d   1      -1.683   2.249   0.281  0.00  0.00     0.045 A 
ATOM     13  C   UNL d   1      -2.742   3.171   0.346  0.00  0.00     0.050 A 
ATOM     14  C   UNL d   1      -2.462   4.499   0.691  0.00  0.00     0.016 A 
ATOM     15  C   UNL d   1      -1.150   4.900   0.938  0.00  0.00     0.003 A 
ATOM     16  C   UNL d   1      -0.104   3.979   0.833  0.00  0.00     0.029 A 
BRANCH  13  17
ATOM     17  C   UNL d   1      -4.150   2.752   0.003  0.00  0.00     0.417 C 
ATOM     18  F   UNL d   1      -4.265   1.438  -0.339  0.00  0.00    -0.166 F 
ATOM     19  F   UNL d   1      -5.018   2.946   1.034  0.00  0.00    -0.166 F 
ATOM     20  F   UNL d   1      -4.657   3.454  -1.049  0.00  0.00    -0.166 F 
ENDBRANCH  13  17
ENDBRANCH   9  11
ENDBRANCH   7   9
ENDBRANCH   1   7
BRANCH   4  21
ATOM     21  C   UNL d   1      -1.185  -3.510   3.048  0.00  0.00    -0.021 A 
ATOM     22  C   UNL d   1      -1.326  -4.070   4.340  0.00  0.00     0.074 A 
ATOM     23  C   UNL d   1      -0.907  -5.385   4.596  0.00  0.00     0.037 A 
ATOM     24  C   UNL d   1      -0.379  -6.170   3.572  0.00  0.00     0.003 A 
ATOM     25  C   UNL d   1      -0.255  -5.642   2.296  0.00  0.00     0.001 A 
ATOM     26  C   UNL d   1      -0.651  -4.328   2.039  0.00  0.00     0.010 A 
BRANCH  22  27
ATOM     27  O   UNL d   1      -1.866  -3.261   5.311  0.00  0.00    -0.355 OA
ATOM     28  C   UNL d   1      -2.502  -3.926   6.398  0.00  0.00     0.210 C 
ENDBRANCH  22  27
ENDBRANCH   4  21
TORSDOF 6
