REMARK  6 active torsions:
REMARK  status: ('A' for Active; 'I' for Inactive)
REMARK    1  A    between atoms: C_2  and  C_1 
REMARK       I    between atoms: N_5  and  C_1 
REMARK    2  A    between atoms: C_4  and  C_3 
REMARK    3  A    between atoms: O_11  and  C_4 
REMARK    4  A    between atoms: C_9  and  N_5 
REMARK    5  A    between atoms: O_8  and  C_10 
REMARK    6  A    between atoms: C_12  and  O_8 
ROOT
ATOM      1  C   UNL d   1       1.103  -0.448  -0.030  0.00  0.00     0.257 C 
ATOM      2  N   UNL d   1       0.246  -0.635   1.036  0.00  0.00    -0.323 N 
ATOM      3  O   UNL d   1       0.784  -0.371  -1.211  0.00  0.00    -0.267 OA
ATOM      4  H   UNL d   1       0.610  -0.571   1.980  0.00  0.00     0.169 HD
ENDROOT
BRANCH   2   5
ATOM      5  C   UNL d   1      -1.157  -0.793   0.951  0.00  0.00     0.035 A 
ATOM      6  C   UNL d   1      -1.832  -1.070  -0.241  0.00  0.00     0.032 A 
ATOM      7  C   UNL d   1      -3.224  -1.161  -0.264  0.00  0.00     0.039 A 
ATOM      8  C   UNL d   1      -3.962  -0.915   0.893  0.00  0.00     0.076 A 
ATOM      9  C   UNL d   1      -3.298  -0.711   2.102  0.00  0.00     0.039 A 
ATOM     10  C   UNL d   1      -1.899  -0.654   2.130  0.00  0.00     0.032 A 
BRANCH   8  11
ATOM     11  O   UNL d   1      -5.339  -0.891   0.924  0.00  0.00    -0.311 OA
BRANCH  11  12
ATOM     12  C   UNL d   1      -6.011  -0.314  -0.135  0.00  0.00     0.076 A 
ATOM     13  C   UNL d   1      -7.255  -0.862  -0.451  0.00  0.00     0.037 A 
ATOM     14  C   UNL d   1      -7.987  -0.360  -1.529  0.00  0.00     0.003 A 
ATOM     15  C   UNL d   1      -7.477   0.693  -2.290  0.00  0.00     0.000 A 
ATOM     16  C   UNL d   1      -6.255   1.269  -1.952  0.00  0.00     0.003 A 
ATOM     17  C   UNL d   1      -5.535   0.785  -0.859  0.00  0.00     0.037 A 
ENDBRANCH  11  12
ENDBRANCH   8  11
ENDBRANCH   2   5
BRANCH   1  18
ATOM     18  C   UNL d   1       2.549  -0.272   0.271  0.00  0.00     0.049 A 
ATOM     19  C   UNL d   1       3.079   0.475   1.332  0.00  0.00     0.053 A 
ATOM     20  C   UNL d   1       4.476   0.549   1.488  0.00  0.00     0.019 A 
ATOM     21  C   UNL d   1       5.336  -0.079   0.585  0.00  0.00     0.001 A 
ATOM     22  C   UNL d   1       4.813  -0.790  -0.488  0.00  0.00     0.001 A 
ATOM     23  C   UNL d   1       3.429  -0.884  -0.643  0.00  0.00     0.018 A 
BRANCH  19  24
ATOM     24  C   UNL d   1       2.292   1.200   2.356  0.00  0.00     0.177 C 
ATOM     25  O   UNL d   1       2.624   1.208   3.529  0.00  0.00    -0.646 OA
BRANCH  24  26
ATOM     26  O   UNL d   1       1.204   1.853   1.909  0.00  0.00    -0.773 OA
ATOM     27  H   UNL d   1       1.022   1.848   0.949  0.00  0.00     0.167 HD
ENDBRANCH  24  26
ENDBRANCH  19  24
ENDBRANCH   1  18
TORSDOF 6
