REMARK  2 active torsions:
REMARK  status: ('A' for Active; 'I' for Inactive)
REMARK       I    between atoms: C_2  and  N_1 
REMARK       I    between atoms: C_6  and  N_1 
REMARK       I    between atoms: N_8  and  C_2 
REMARK    1  A    between atoms: C_5  and  N_7 
REMARK    2  A    between atoms: C_13  and  C_6 
ROOT
ATOM      1  N   UNL d   1       2.211  -3.600  -1.060  0.00  0.00    -0.366 N 
ATOM      2  C   UNL d   1       3.258  -0.935  -0.847  0.00  0.00     0.081 C 
ATOM      3  C   UNL d   1       1.447  -2.557  -1.737  0.00  0.00     0.125 C 
ATOM      4  C   UNL d   1       2.836  -3.203   0.190  0.00  0.00     0.125 C 
ATOM      5  C   UNL d   1       2.406  -1.394  -2.056  0.00  0.00     0.034 C 
ATOM      6  C   UNL d   1       3.889  -2.144  -0.134  0.00  0.00     0.034 C 
ENDROOT
BRANCH   1   7
ATOM      7  C   UNL d   1       2.212  -4.896  -1.529  0.00  0.00     0.119 A 
ATOM      8  N   UNL d   1       1.214  -5.318  -2.338  0.00  0.00    -0.340 N 
ATOM      9  C   UNL d   1       1.248  -6.592  -2.796  0.00  0.00     0.060 A 
ATOM     10  HN  UNL d   1       0.453  -4.691  -2.597  1.00  0.00     0.167 HD
ATOM     11  C   UNL d   1       0.225  -7.072  -3.609  0.00  0.00     0.032 A 
ATOM     12  C   UNL d   1       2.310  -7.468  -2.470  0.00  0.00     0.059 A 
ATOM     13  C   UNL d   1       0.237  -8.376  -4.113  0.00  0.00     0.002 A 
ATOM     14  C   UNL d   1       1.293  -9.223  -3.801  0.00  0.00     0.002 A 
ATOM     15  C   UNL d   1       2.319  -8.760  -2.979  0.00  0.00     0.032 A 
ATOM     16  N   UNL d   1       3.316  -7.072  -1.680  0.00  0.00    -0.361 N 
ATOM     17  C   UNL d   1       3.238  -5.796  -1.228  0.00  0.00     0.137 A 
ATOM     18  HN  UNL d   1       4.090  -7.690  -1.435  1.00  0.00     0.165 HD
ENDBRANCH   1   7
BRANCH   2  19
ATOM     19  C   UNL d   1       2.442  -0.073   0.121  0.00  0.00     0.229 C 
ATOM     20  N   UNL d   1       3.194   0.504   1.137  0.00  0.00    -0.279 N 
ATOM     21  C   UNL d   1       2.642   1.010   2.284  0.00  0.00     0.325 C 
ATOM     22  H   UNL d   1       4.191   0.393   1.110  0.00  0.00     0.173 HD
ATOM     23  N   UNL d   1       3.495   1.150   3.363  0.00  0.00    -0.334 N 
ATOM     24  O   UNL d   1       1.456   1.321   2.397  0.00  0.00    -0.247 OA
ATOM     25  C   UNL d   1       4.918   0.900   3.496  0.00  0.00     0.127 C 
ATOM     26  C   UNL d   1       2.924   1.498   4.658  0.00  0.00     0.127 C 
ATOM     27  C   UNL d   1       5.039   0.369   4.915  0.00  0.00     0.022 C 
ATOM     28  C   UNL d   1       4.006   1.184   5.686  0.00  0.00     0.022 C 
ATOM     29  O   UNL d   1       1.239   0.099  -0.051  0.00  0.00    -0.273 OA
ENDBRANCH   2  19
TORSDOF 2
