REMARK  5 active torsions:
REMARK  status: ('A' for Active; 'I' for Inactive)
REMARK    1  A    between atoms: C_4  and  C_1 
REMARK    2  A    between atoms: C_3  and  C_2 
REMARK       I    between atoms: N_8  and  C_4 
REMARK    3  A    between atoms: C_20  and  N_8 
REMARK    4  A    between atoms: O_24  and  C_10 
REMARK    5  A    between atoms: C_19  and  C_20 
ROOT
ATOM      1  C   UNL d   1       0.625   1.236   0.022  0.00  0.00     0.062 A 
ATOM      2  C   UNL d   1      -0.612   0.800   0.512  0.00  0.00     0.069 A 
ATOM      3  C   UNL d   1       1.466   0.277  -0.553  0.00  0.00     0.108 A 
ATOM      4  N   UNL d   1       1.164  -1.035  -0.699  0.00  0.00    -0.346 N 
ATOM      5  HN  UNL d   1       1.812  -1.690  -1.136  1.00  0.00     0.167 HD
ATOM      6  C   UNL d   1      -0.036  -1.429  -0.238  0.00  0.00     0.142 A 
ATOM      7  C   UNL d   1      -0.936  -0.568   0.361  0.00  0.00     0.073 A 
ENDROOT
BRANCH   1   8
ATOM      8  C   UNL d   1       1.193   2.604   0.095  0.00  0.00     0.254 C 
ATOM      9  N   UNL d   1       0.364   3.671  -0.154  0.00  0.00    -0.353 N 
ATOM     10  H   UNL d   1      -0.617   3.542  -0.356  0.00  0.00     0.163 HD
ATOM     11  O   UNL d   1       2.390   2.730   0.331  0.00  0.00    -0.268 OA
BRANCH   9  12
ATOM     12  C   UNL d   1       0.816   5.039   0.014  0.00  0.00     0.161 C 
BRANCH  12  13
ATOM     13  C   UNL d   1       1.105   5.698  -1.310  0.00  0.00    -0.039 A 
ATOM     14  C   UNL d   1       2.161   5.235  -2.113  0.00  0.00     0.034 A 
ATOM     15  C   UNL d   1       2.456   5.847  -3.335  0.00  0.00     0.056 A 
ATOM     16 CL   UNL d   1       3.765   5.204  -4.260  0.00  0.00    -0.083 Cl
ATOM     17  C   UNL d   1       1.700   6.942  -3.763  0.00  0.00     0.055 A 
ATOM     18  C   UNL d   1       0.651   7.415  -2.969  0.00  0.00     0.026 A 
ATOM     19 CL   UNL d   1       2.009   7.756  -5.255  0.00  0.00    -0.083 Cl
ATOM     20  C   UNL d   1       0.354   6.797  -1.750  0.00  0.00     0.010 A 
ENDBRANCH  12  13
ENDBRANCH   9  12
ENDBRANCH   1   8
BRANCH   2  21
ATOM     21  C   UNL d   1      -1.634   1.642   1.216  0.00  0.00     0.418 C 
ATOM     22  F   UNL d   1      -1.257   2.909   1.526  0.00  0.00    -0.166 F 
ATOM     23  F   UNL d   1      -2.763   1.780   0.463  0.00  0.00    -0.166 F 
ATOM     24  F   UNL d   1      -2.041   1.092   2.393  0.00  0.00    -0.166 F 
ENDBRANCH   2  21
BRANCH   6  25
ATOM     25  O   UNL d   1      -0.418  -2.751  -0.335  0.00  0.00    -0.341 OA
ATOM     26  C   UNL d   1       0.561  -3.573  -0.963  0.00  0.00     0.211 C 
ENDBRANCH   6  25
TORSDOF 5
