REMARK  3 active torsions:
REMARK  status: ('A' for Active; 'I' for Inactive)
REMARK    1  A    between atoms: C_9  and  N_3 
REMARK    2  A    between atoms: C_7  and  C_4 
REMARK    3  A    between atoms: C_8  and  C_5 
ROOT
ATOM      1  N   UNL d   1       1.137  -0.180   0.161  0.00  0.00    -0.301 N 
ATOM      2  HN  UNL d   1       2.129  -0.375   0.297  1.00  0.00     0.187 HD
ATOM      3  N   UNL d   1       0.140  -1.100   0.066  0.00  0.00    -0.283 N 
ATOM      4  C   UNL d   1       0.592   0.991   0.047  0.00  0.00     0.040 A 
ATOM      5  C   UNL d   1      -1.197  -0.515  -0.031  0.00  0.00     0.147 A 
ATOM      6  C   UNL d   1      -0.913   0.987  -0.059  0.00  0.00     0.091 A 
ENDROOT
BRANCH   4   7
ATOM      7  C   UNL d   1       1.357   2.259  -0.000  0.00  0.00     0.010 A 
ATOM      8  C   UNL d   1       2.635   2.350  -0.575  0.00  0.00     0.046 A 
ATOM      9 CL   UNL d   1       3.438   1.034  -1.359  0.00  0.00    -0.083 Cl
ATOM     10  C   UNL d   1       3.309   3.579  -0.591  0.00  0.00     0.025 A 
ATOM     11  C   UNL d   1       2.719   4.719  -0.049  0.00  0.00     0.002 A 
ATOM     12  C   UNL d   1       1.449   4.639   0.512  0.00  0.00     0.001 A 
ATOM     13  C   UNL d   1       0.771   3.417   0.537  0.00  0.00     0.015 A 
ENDBRANCH   4   7
BRANCH   3  14
ATOM     14  C   UNL d   1       0.417  -2.465   0.054  0.00  0.00     0.051 A 
ATOM     15  C   UNL d   1       1.571  -2.966   0.675  0.00  0.00     0.031 A 
ATOM     16  C   UNL d   1       1.838  -4.338   0.726  0.00  0.00     0.002 A 
ATOM     17  C   UNL d   1       0.969  -5.238   0.120  0.00  0.00     0.000 A 
ATOM     18  C   UNL d   1      -0.170  -4.766  -0.528  0.00  0.00     0.002 A 
ATOM     19  C   UNL d   1      -0.444  -3.394  -0.550  0.00  0.00     0.031 A 
ENDBRANCH   3  14
BRANCH   5  20
ATOM     20  C   UNL d   1      -2.087  -0.894   1.145  0.00  0.00    -0.033 A 
ATOM     21  C   UNL d   1      -1.557  -1.130   2.425  0.00  0.00     0.010 A 
ATOM     22  C   UNL d   1      -2.381  -1.508   3.486  0.00  0.00     0.007 A 
ATOM     23  C   UNL d   1      -3.759  -1.636   3.299  0.00  0.00    -0.062 A 
ATOM     24  C   UNL d   1      -4.300  -1.378   2.034  0.00  0.00     0.007 A 
ATOM     25  C   UNL d   1      -4.628  -2.047   4.449  0.00  0.00     0.048 C 
ATOM     26  C   UNL d   1      -3.473  -1.010   0.968  0.00  0.00     0.010 A 
ENDBRANCH   5  20
TORSDOF 3
