REMARK  5 active torsions:
REMARK  status: ('A' for Active; 'I' for Inactive)
REMARK    1  A    between atoms: C_7  and  N_1 
REMARK    2  A    between atoms: C_9  and  C_6 
REMARK    3  A    between atoms: N_17  and  C_7 
REMARK    4  A    between atoms: C_22  and  N_17 
REMARK    5  A    between atoms: C_19  and  C_22 
ROOT
ATOM      1  N   UNL d   1      -3.121   1.068  -0.209  0.00  0.00    -0.257 N 
ATOM      2  N   UNL d   1      -1.809   1.479  -0.437  0.00  0.00    -0.298 N 
ATOM      3  HN  UNL d   1      -1.498   2.368  -0.829  1.00  0.00     0.187 HD
ATOM      4  C   UNL d   1      -1.066   0.489  -0.044  0.00  0.00     0.043 C 
ATOM      5  C   UNL d   1      -1.783  -0.669   0.600  0.00  0.00     0.068 C 
ATOM      6  C   UNL d   1      -3.203  -0.370   0.138  0.00  0.00     0.160 C 
ATOM      7  C   UNL d   1       0.398   0.436  -0.088  0.00  0.00    -0.005 A 
ATOM      8  C   UNL d   1      -1.149  -2.039   0.372  0.00  0.00     0.018 C 
ATOM      9  C   UNL d   1       0.980  -0.828  -0.246  0.00  0.00    -0.046 A 
ATOM     10  C   UNL d   1       0.097  -2.020  -0.519  0.00  0.00     0.040 C 
ATOM     11  C   UNL d   1       1.173   1.582   0.091  0.00  0.00     0.014 A 
ATOM     12  C   UNL d   1       2.373  -0.935  -0.229  0.00  0.00     0.008 A 
ATOM     13  C   UNL d   1       2.563   1.458   0.127  0.00  0.00     0.001 A 
ATOM     14  C   UNL d   1       3.159   0.206  -0.031  0.00  0.00     0.001 A 
ENDROOT
BRANCH   1  15
ATOM     15  C   UNL d   1      -4.185   1.967  -0.302  0.00  0.00     0.189 C 
ATOM     16  S   UNL d   1      -5.698   1.695   0.371  0.00  0.00    -0.039 SA
BRANCH  15  17
ATOM     17  N   UNL d   1      -3.841   3.105  -1.007  0.00  0.00    -0.362 N 
ATOM     18  H   UNL d   1      -2.875   3.080  -1.321  0.00  0.00     0.162 HD
BRANCH  17  19
ATOM     19  C   UNL d   1      -4.523   4.379  -0.993  0.00  0.00     0.148 C 
BRANCH  19  20
ATOM     20  C   UNL d   1      -4.616   4.904  -2.389  0.00  0.00    -0.018 C 
ATOM     21  C   UNL d   1      -4.074   6.062  -2.797  0.00  0.00     0.008 C 
ENDBRANCH  19  20
ENDBRANCH  17  19
ENDBRANCH  15  17
ENDBRANCH   1  15
BRANCH   6  22
ATOM     22  C   UNL d   1      -3.673  -1.106  -1.096  0.00  0.00     0.008 A 
ATOM     23  S   UNL d   1      -5.016  -2.174  -0.985  0.00  0.00    -0.104 SA
ATOM     24  C   UNL d   1      -5.043  -2.425  -2.674  0.00  0.00     0.050 A 
ATOM     25  C   UNL d   1      -4.018  -1.764  -3.312  0.00  0.00     0.008 A 
ATOM     26  C   UNL d   1      -3.221  -1.012  -2.402  0.00  0.00     0.017 A 
ENDBRANCH   6  22
TORSDOF 5
