REMARK  6 active torsions:
REMARK  status: ('A' for Active; 'I' for Inactive)
REMARK    1  A    between atoms: N_5  and  C_3 
REMARK    2  A    between atoms: N_14  and  C_4 
REMARK    3  A    between atoms: C_12  and  N_5 
REMARK    4  A    between atoms: C_13  and  N_5 
REMARK    5  A    between atoms: C_16  and  C_12 
REMARK    6  A    between atoms: C_15  and  C_13 
ROOT
ATOM      1  N   UNL d   1       1.408   0.733  -0.804  0.00  0.00    -0.180 N 
ATOM      2  HN  UNL d   1       1.777   1.607  -1.178  1.00  0.00     0.185 HD
ATOM      3  C   UNL d   1       2.244  -0.209  -0.328  0.00  0.00     0.681 A 
ATOM      4  C   UNL d   1       0.081   0.507  -0.781  0.00  0.00     0.116 A 
ATOM      5  N   UNL d   1       1.785  -1.378   0.145  0.00  0.00    -0.200 N 
ATOM      6  HN  UNL d   1       2.426  -2.099   0.476  1.00  0.00     0.183 HD
ATOM      7  C   UNL d   1      -0.466  -0.649  -0.276  0.00  0.00     0.099 A 
ATOM      8  C   UNL d   1      -1.872  -0.898  -0.195  0.00  0.00     0.104 C 
ATOM      9  N   UNL d   1      -3.009  -1.106  -0.089  0.00  0.00    -0.191 NA
ATOM     10  C   UNL d   1       0.447  -1.571   0.172  0.00  0.00     0.132 A 
ENDROOT
BRANCH   4  11
ATOM     11  N   UNL d   1      -0.692   1.522  -1.350  0.00  0.00    -0.287 NA
ATOM     12  H   UNL d   1      -0.062   2.267  -1.641  0.00  0.00     0.125 HD
ATOM     13  H   UNL d   1      -1.417   1.868  -0.730  0.00  0.00     0.125 HD
ENDBRANCH   4  11
BRANCH   3  14
ATOM     14  N   UNL d   1       3.596   0.050  -0.301  0.00  0.00    -0.209 N 
BRANCH  14  15
ATOM     15  C   UNL d   1       4.051   1.434  -0.273  0.00  0.00     0.180 C 
BRANCH  15  16
ATOM     16  C   UNL d   1       4.081   2.124   1.089  0.00  0.00    -0.040 A 
ATOM     17  C   UNL d   1       3.652   1.556   2.297  0.00  0.00     0.009 A 
ATOM     18  C   UNL d   1       3.660   2.304   3.486  0.00  0.00     0.001 A 
ATOM     19  C   UNL d   1       4.103   3.627   3.487  0.00  0.00     0.000 A 
ATOM     20  C   UNL d   1       4.559   4.199   2.306  0.00  0.00     0.001 A 
ATOM     21  C   UNL d   1       4.551   3.454   1.121  0.00  0.00     0.009 A 
ENDBRANCH  15  16
ENDBRANCH  14  15
BRANCH  14  22
ATOM     22  C   UNL d   1       4.551  -1.022  -0.061  0.00  0.00     0.180 C 
BRANCH  22  23
ATOM     23  C   UNL d   1       5.291  -1.539  -1.292  0.00  0.00    -0.040 A 
ATOM     24  C   UNL d   1       5.079  -1.093  -2.604  0.00  0.00     0.009 A 
ATOM     25  C   UNL d   1       5.842  -1.605  -3.666  0.00  0.00     0.001 A 
ATOM     26  C   UNL d   1       6.818  -2.573  -3.436  0.00  0.00     0.000 A 
ATOM     27  C   UNL d   1       7.027  -3.044  -2.145  0.00  0.00     0.001 A 
ATOM     28  C   UNL d   1       6.270  -2.532  -1.086  0.00  0.00     0.009 A 
ENDBRANCH  22  23
ENDBRANCH  14  22
ENDBRANCH   3  14
TORSDOF 6
