REMARK  3 active torsions:
REMARK  status: ('A' for Active; 'I' for Inactive)
REMARK    1  A    between atoms: C_4  and  N_1 
REMARK    2  A    between atoms: O_15  and  C_9 
REMARK    3  A    between atoms: O_16  and  C_13 
ROOT
ATOM      1  N   UNL d   1       0.669   1.087  -0.476  0.00  0.00    -0.252 N 
ATOM      2  C   UNL d   1       1.357  -0.054  -0.074  0.00  0.00     0.232 C 
ATOM      3  C   UNL d   1      -0.614   1.275   0.029  0.00  0.00     0.232 C 
ATOM      4  C   UNL d   1      -1.500   0.049  -0.096  0.00  0.00     0.113 C 
ATOM      5  C   UNL d   1       0.568  -1.339  -0.168  0.00  0.00     0.113 C 
ATOM      6  C   UNL d   1      -0.840  -1.231   0.415  0.00  0.00    -0.031 C 
ATOM      7  O   UNL d   1       2.533  -0.086   0.287  0.00  0.00    -0.273 OA
ATOM      8  O   UNL d   1      -1.073   2.308   0.507  0.00  0.00    -0.273 OA
ATOM      9  C   UNL d   1      -1.656  -2.446  -0.060  0.00  0.00     0.016 C 
ATOM     10  C   UNL d   1      -0.791  -1.238   1.951  0.00  0.00     0.016 C 
ENDROOT
BRANCH   1  11
ATOM     11  C   UNL d   1       1.389   2.142  -1.152  0.00  0.00     0.048 A 
ATOM     12  C   UNL d   1       2.534   1.813  -1.909  0.00  0.00     0.069 A 
ATOM     13  C   UNL d   1       3.180   2.730  -2.755  0.00  0.00     0.103 A 
ATOM     14  C   UNL d   1       2.705   4.046  -2.806  0.00  0.00     0.101 A 
ATOM     15  C   UNL d   1       1.579   4.392  -2.052  0.00  0.00     0.042 A 
ATOM     16  C   UNL d   1       0.921   3.454  -1.247  0.00  0.00     0.033 A 
BRANCH  13  17
ATOM     17  O   UNL d   1       4.227   2.381  -3.567  0.00  0.00    -0.353 OA
ATOM     18  C   UNL d   1       4.568   1.004  -3.671  0.00  0.00     0.210 C 
ENDBRANCH  13  17
BRANCH  14  19
ATOM     19  O   UNL d   1       3.173   5.084  -3.569  0.00  0.00    -0.353 OA
ATOM     20  C   UNL d   1       4.522   5.021  -4.010  0.00  0.00     0.210 C 
ENDBRANCH  14  19
ENDBRANCH   1  11
TORSDOF 3
