REMARK  5 active torsions:
REMARK  status: ('A' for Active; 'I' for Inactive)
REMARK    1  A    between atoms: C_7  and  C_1 
REMARK    2  A    between atoms: C_8  and  N_2 
REMARK    3  A    between atoms: O_10  and  C_4 
REMARK    4  A    between atoms: C_11  and  C_7 
REMARK    5  A    between atoms: C_12  and  C_8 
ROOT
ATOM      1  C   UNL d   1       2.411  -0.728   0.034  0.00  0.00     0.048 A 
ATOM      2  N   UNL d   1       1.161   1.414  -0.009  0.00  0.00    -0.309 N 
ATOM      3  C   UNL d   1       2.389   0.769   0.059  0.00  0.00     0.257 A 
ATOM      4  C   UNL d   1       1.251  -1.408  -0.002  0.00  0.00     0.090 A 
ATOM      5  C   UNL d   1      -0.041  -0.710  -0.028  0.00  0.00     0.025 A 
ATOM      6  C   UNL d   1      -0.073   0.692  -0.047  0.00  0.00     0.051 A 
ATOM      7  O   UNL d   1       3.457   1.378   0.140  0.00  0.00    -0.267 OA
ATOM      8  C   UNL d   1      -1.250  -1.433  -0.030  0.00  0.00     0.016 A 
ATOM      9  C   UNL d   1      -1.321   1.337  -0.090  0.00  0.00     0.031 A 
ATOM     10  C   UNL d   1      -2.478  -0.777  -0.061  0.00  0.00     0.001 A 
ATOM     11  C   UNL d   1      -2.514   0.610  -0.095  0.00  0.00     0.002 A 
ENDROOT
BRANCH   1  12
ATOM     12  C   UNL d   1       3.782  -1.362  -0.023  0.00  0.00     0.085 C 
BRANCH  12  13
ATOM     13  C   UNL d   1       4.268  -1.898   1.307  0.00  0.00    -0.054 A 
ATOM     14  C   UNL d   1       4.503  -3.271   1.482  0.00  0.00     0.007 A 
ATOM     15  C   UNL d   1       4.943  -3.764   2.712  0.00  0.00     0.001 A 
ATOM     16  C   UNL d   1       5.164  -2.893   3.776  0.00  0.00     0.000 A 
ATOM     17  C   UNL d   1       4.955  -1.526   3.610  0.00  0.00     0.001 A 
ATOM     18  C   UNL d   1       4.513  -1.030   2.382  0.00  0.00     0.007 A 
ENDBRANCH  12  13
ENDBRANCH   1  12
BRANCH   4  19
ATOM     19  O   UNL d   1       1.174  -2.788  -0.022  0.00  0.00    -0.359 OA
ATOM     20  H   UNL d   1       2.028  -3.157   0.254  0.00  0.00     0.217 HD
ENDBRANCH   4  19
BRANCH   2  21
ATOM     21  C   UNL d   1       1.171   2.881   0.008  0.00  0.00     0.171 C 
BRANCH  21  22
ATOM     22  C   UNL d   1       0.730   3.494   1.323  0.00  0.00    -0.040 A 
ATOM     23  C   UNL d   1       1.125   2.952   2.555  0.00  0.00     0.009 A 
ATOM     24  C   UNL d   1       0.695   3.524   3.753  0.00  0.00     0.001 A 
ATOM     25  C   UNL d   1      -0.119   4.654   3.736  0.00  0.00     0.000 A 
ATOM     26  C   UNL d   1      -0.490   5.223   2.520  0.00  0.00     0.001 A 
ATOM     27  C   UNL d   1      -0.062   4.653   1.320  0.00  0.00     0.009 A 
ENDBRANCH  21  22
ENDBRANCH   2  21
TORSDOF 5
