REMARK  4 active torsions:
REMARK  status: ('A' for Active; 'I' for Inactive)
REMARK    1  A    between atoms: C_8  and  C_1 
REMARK    2  A    between atoms: N_3  and  C_2 
REMARK       I    between atoms: C_5  and  N_3 
REMARK    3  A    between atoms: C_9  and  C_5 
REMARK    4  A    between atoms: O_14  and  C_8 
ROOT
ATOM      1  N   UNL d   1      -2.213  -2.293  -0.221  0.00  0.00    -0.321 N 
ATOM      2  C   UNL d   1      -2.138  -3.564   0.324  0.00  0.00     0.256 C 
ATOM      3  O   UNL d   1      -1.167  -4.007   0.937  0.00  0.00    -0.267 OA
ATOM      4  H   UNL d   1      -2.892  -2.105  -0.945  0.00  0.00     0.169 HD
ENDROOT
BRANCH   1   5
ATOM      5  C   UNL d   1      -1.155  -1.386  -0.156  0.00  0.00     0.059 A 
ATOM      6  C   UNL d   1      -0.756  -0.522  -1.244  0.00  0.00     0.079 A 
ATOM      7  C   UNL d   1       0.410   0.164  -0.915  0.00  0.00    -0.003 A 
ATOM      8  S   UNL d   1       0.877  -0.084   0.712  0.00  0.00    -0.103 SA
ATOM      9  C   UNL d   1       1.279   1.018  -1.784  0.00  0.00     0.057 C 
ATOM     10  C   UNL d   1      -0.369  -1.212   0.962  0.00  0.00     0.080 A 
BRANCH   6  11
ATOM     11  C   UNL d   1      -1.385  -0.435  -2.569  0.00  0.00     0.296 C 
ATOM     12  O   UNL d   1      -0.926   0.214  -3.498  0.00  0.00    -0.259 OA
BRANCH  11  13
ATOM     13  O   UNL d   1      -2.555  -1.143  -2.652  0.00  0.00    -0.322 OA
ATOM     14  C   UNL d   1      -3.234  -1.091  -3.908  0.00  0.00     0.213 C 
ENDBRANCH  11  13
ENDBRANCH   6  11
ENDBRANCH   1   5
BRANCH   2  15
ATOM     15  C   UNL d   1      -3.319  -4.455   0.116  0.00  0.00     0.032 A 
ATOM     16  C   UNL d   1      -4.291  -4.240  -0.870  0.00  0.00     0.017 A 
ATOM     17  C   UNL d   1      -5.415  -5.070  -0.941  0.00  0.00     0.007 A 
ATOM     18  C   UNL d   1      -5.576  -6.133  -0.044  0.00  0.00    -0.062 A 
ATOM     19  C   UNL d   1      -4.580  -6.379   0.904  0.00  0.00     0.007 A 
ATOM     20  C   UNL d   1      -6.822  -6.967  -0.086  0.00  0.00     0.048 C 
ATOM     21  C   UNL d   1      -3.458  -5.551   0.978  0.00  0.00     0.017 A 
ENDBRANCH   2  15
TORSDOF 4
