REMARK  6 active torsions:
REMARK  status: ('A' for Active; 'I' for Inactive)
REMARK    1  A    between atoms: C_9  and  S_1 
REMARK    2  A    between atoms: N_17  and  S_1 
REMARK    3  A    between atoms: C_3  and  S_10 
REMARK    4  A    between atoms: S_10  and  C_21 
REMARK       I    between atoms: C_13  and  N_15 
REMARK    5  A    between atoms: C_21  and  C_13 
REMARK    6  A    between atoms: N_15  and  C_22 
ROOT
ATOM      1  C   UNL d   1      -5.459   8.415  -6.254  0.00  0.00     0.084 A 
ATOM      2  C   UNL d   1      -4.336   8.155  -5.442  0.00  0.00     0.091 A 
ATOM      3  N   UNL d   1      -3.537   9.123  -4.933  0.00  0.00    -0.353 N 
ATOM      4  HN  UNL d   1      -2.728   8.891  -4.357  1.00  0.00     0.166 HD
ATOM      5  C   UNL d   1      -5.759   9.760  -6.540  0.00  0.00    -0.037 A 
ATOM      6  C   UNL d   1      -6.273   7.349  -6.774  0.00  0.00     0.103 C 
ATOM      7  N   UNL d   1      -6.961   6.525  -7.218  0.00  0.00    -0.191 NA
ATOM      8  C   UNL d   1      -3.848  10.409  -5.216  0.00  0.00     0.006 A 
ATOM      9  C   UNL d   1      -4.938  10.760  -6.007  0.00  0.00     0.033 A 
ATOM     10  C   UNL d   1      -6.931  10.181  -7.387  0.00  0.00     0.050 C 
ATOM     11  C   UNL d   1      -2.972  11.474  -4.628  0.00  0.00     0.068 C 
ENDROOT
BRANCH   2  12
ATOM     12  S   UNL d   1      -3.907   6.480  -5.029  0.00  0.00    -0.101 SA
BRANCH  12  13
ATOM     13  C   UNL d   1      -2.395   6.627  -3.982  0.00  0.00     0.184 C 
BRANCH  13  14
ATOM     14  C   UNL d   1      -2.061   5.221  -3.468  0.00  0.00     0.231 C 
ATOM     15  N   UNL d   1      -0.875   5.108  -2.746  0.00  0.00    -0.327 N 
ATOM     16  H   UNL d   1      -0.343   5.951  -2.566  0.00  0.00     0.169 HD
ATOM     17  O   UNL d   1      -2.813   4.271  -3.679  0.00  0.00    -0.272 OA
BRANCH  15  18
ATOM     18  C   UNL d   1      -0.367   3.894  -2.198  0.00  0.00     0.034 A 
ATOM     19  C   UNL d   1      -0.983   2.647  -2.383  0.00  0.00     0.031 A 
ATOM     20  C   UNL d   1      -0.469   1.476  -1.819  0.00  0.00     0.027 A 
ATOM     21  C   UNL d   1       0.685   1.543  -1.052  0.00  0.00     0.074 A 
ATOM     22  C   UNL d   1       1.333   2.768  -0.861  0.00  0.00     0.027 A 
ATOM     23  C   UNL d   1       0.807   3.939  -1.434  0.00  0.00     0.031 A 
BRANCH  21  24
ATOM     24  S   UNL d   1       1.312   0.076  -0.297  0.00  0.00     0.239 S 
ATOM     25  O   UNL d   1       2.365   0.428   0.626  0.00  0.00    -0.206 OA
ATOM     26  O   UNL d   1       1.473  -0.941  -1.310  0.00  0.00    -0.206 OA
BRANCH  24  27
ATOM     27  N   UNL d   1       0.028  -0.416   0.673  0.00  0.00    -0.225 NA
ATOM     28  H   UNL d   1       0.191  -0.148   1.642  0.00  0.00     0.136 HD
ATOM     29  H   UNL d   1      -0.132  -1.416   0.545  0.00  0.00     0.136 HD
ENDBRANCH  24  27
ENDBRANCH  21  24
ENDBRANCH  15  18
ENDBRANCH  13  14
ENDBRANCH  12  13
ENDBRANCH   2  12
TORSDOF 6
