REMARK  4 active torsions:
REMARK  status: ('A' for Active; 'I' for Inactive)
REMARK    1  A    between atoms: C_13  and  N_1 
REMARK    2  A    between atoms: C_5  and  C_2 
REMARK    3  A    between atoms: C_7  and  C_3 
REMARK    4  A    between atoms: O_17  and  C_7 
ROOT
ATOM      1  C   UNL d   1       2.114   1.463  -0.036  0.00  0.00     0.064 C 
ATOM      2  C   UNL d   1       2.777   1.817  -1.155  0.00  0.00     0.126 C 
ATOM      3  N   UNL d   1       2.040   1.123  -3.532  0.00  0.00    -0.191 NA
ATOM      4  N   UNL d   1       4.894   3.277  -0.888  0.00  0.00    -0.191 NA
ATOM      5  C   UNL d   1       2.368   1.427  -2.461  0.00  0.00     0.111 C 
ATOM      6  C   UNL d   1       3.946   2.624  -1.029  0.00  0.00     0.111 C 
ENDROOT
BRANCH   1   7
ATOM      7  C   UNL d   1       0.944   0.654  -0.026  0.00  0.00     0.042 A 
ATOM      8  N   UNL d   1       0.977  -0.753   0.017  0.00  0.00    -0.307 N 
ATOM      9  C   UNL d   1      -0.352  -1.201   0.005  0.00  0.00     0.116 A 
ATOM     10  C   UNL d   1      -1.175  -0.089  -0.107  0.00  0.00     0.039 A 
ATOM     11  C   UNL d   1      -0.373   1.062  -0.095  0.00  0.00     0.032 A 
BRANCH   8  12
ATOM     12  C   UNL d   1       2.152  -1.583   0.016  0.00  0.00     0.040 A 
ATOM     13  C   UNL d   1       3.310  -1.197   0.711  0.00  0.00     0.033 A 
ATOM     14  C   UNL d   1       4.452  -2.004   0.692  0.00  0.00     0.044 A 
ATOM     15  C   UNL d   1       4.431  -3.210   0.007  0.00  0.00     0.116 A 
ATOM     16  C   UNL d   1       3.295  -3.618  -0.676  0.00  0.00     0.044 A 
ATOM     17  F   UNL d   1       5.519  -3.990   0.010  0.00  0.00    -0.206 F 
ATOM     18  C   UNL d   1       2.162  -2.799  -0.688  0.00  0.00     0.033 A 
ENDBRANCH   8  12
BRANCH   9  19
ATOM     19  C   UNL d   1      -0.798  -2.567   0.180  0.00  0.00     0.310 C 
ATOM     20  O   UNL d   1      -0.236  -3.433   0.837  0.00  0.00    -0.258 OA
BRANCH  19  21
ATOM     21  O   UNL d   1      -1.952  -2.763  -0.521  0.00  0.00    -0.321 OA
ATOM     22  C   UNL d   1      -2.425  -4.111  -0.498  0.00  0.00     0.213 C 
ENDBRANCH  19  21
ENDBRANCH   9  19
ENDBRANCH   1   7
TORSDOF 4
