REMARK  2 active torsions:
REMARK  status: ('A' for Active; 'I' for Inactive)
REMARK    1  A    between atoms: C_7  and  C_2 
REMARK    2  A    between atoms: O_16  and  C_7 
ROOT
ATOM      1  C   UNL d   1       1.222  -1.392  -0.043  0.00  0.00     0.088 A 
ATOM      2  C   UNL d   1       2.475  -0.638  -0.063  0.00  0.00     0.067 A 
ATOM      3  C   UNL d   1       0.040  -0.726  -0.018  0.00  0.00     0.063 A 
ATOM      4  N   UNL d   1       0.031   0.684   0.005  0.00  0.00    -0.288 N 
ATOM      5  C   UNL d   1       1.195   1.451   0.038  0.00  0.00     0.253 A 
ATOM      6  C   UNL d   1       2.468   0.703  -0.009  0.00  0.00     0.094 A 
ATOM      7  C   UNL d   1       1.259  -2.825  -0.035  0.00  0.00     0.103 C 
ATOM      8  N   UNL d   1       1.224  -3.984  -0.007  0.00  0.00    -0.191 NA
ATOM      9  C   UNL d   1      -1.206   1.325  -0.021  0.00  0.00     0.100 A 
ATOM     10  C   UNL d   1      -1.255  -1.422  -0.008  0.00  0.00     0.032 A 
ATOM     11  O   UNL d   1       1.242   2.678   0.082  0.00  0.00    -0.268 OA
ATOM     12  C   UNL d   1      -2.383   0.685  -0.048  0.00  0.00     0.018 A 
ATOM     13  C   UNL d   1      -2.413  -0.749  -0.026  0.00  0.00     0.004 A 
ENDROOT
BRANCH   2  14
ATOM     14  C   UNL d   1       3.793  -1.323  -0.220  0.00  0.00     0.294 C 
ATOM     15  O   UNL d   1       3.923  -2.414  -0.749  0.00  0.00    -0.259 OA
BRANCH  14  16
ATOM     16  O   UNL d   1       4.809  -0.583   0.294  0.00  0.00    -0.322 OA
ATOM     17  C   UNL d   1       6.092  -1.200   0.156  0.00  0.00     0.213 C 
ENDBRANCH  14  16
ENDBRANCH   2  14
TORSDOF 2
