REMARK  8 active torsions:
REMARK  status: ('A' for Active; 'I' for Inactive)
REMARK    1  A    between atoms: C_4  and  C_1 
REMARK    2  A    between atoms: N_5  and  C_2 
REMARK    3  A    between atoms: C_9  and  C_4 
REMARK       I    between atoms: C_8  and  N_5 
REMARK    4  A    between atoms: C_27  and  C_7 
REMARK    5  A    between atoms: C_15  and  C_8 
REMARK    6  A    between atoms: O_14  and  C_15 
REMARK    7  A    between atoms: C_16  and  O_14 
REMARK    8  A    between atoms: O_26  and  C_18 
ROOT
ATOM      1  C   UNL d   1       1.550   0.746   0.148  0.00  0.00     0.050 C 
ATOM      2  C   UNL d   1       0.282   1.284   0.049  0.00  0.00     0.091 C 
ATOM      3  S   UNL d   1      -0.916   0.121  -0.285  0.00  0.00    -0.076 SA
ATOM      4  C   UNL d   1       1.481  -0.688   0.019  0.00  0.00     0.033 C 
ATOM      5  C   UNL d   1       0.190  -1.162  -0.094  0.00  0.00    -0.015 C 
ENDROOT
BRANCH   2   6
ATOM      6  N   UNL d   1      -0.112   2.604   0.057  0.00  0.00    -0.319 N 
ATOM      7  C   UNL d   1      -0.900   3.163   1.040  0.00  0.00     0.246 C 
ATOM      8  O   UNL d   1      -1.139   4.374   0.997  0.00  0.00    -0.271 OA
ATOM      9  H   UNL d   1       0.554   3.287  -0.300  0.00  0.00     0.169 HD
BRANCH   7  10
ATOM     10  C   UNL d   1      -1.376   2.320   2.224  0.00  0.00     0.278 C 
BRANCH  10  11
ATOM     11  O   UNL d   1      -0.284   2.222   3.138  0.00  0.00    -0.342 OA
BRANCH  11  12
ATOM     12  C   UNL d   1      -0.427   1.392   4.212  0.00  0.00     0.069 A 
ATOM     13  C   UNL d   1      -1.508   0.543   4.456  0.00  0.00     0.038 A 
ATOM     14  C   UNL d   1      -1.512  -0.281   5.586  0.00  0.00     0.026 A 
ATOM     15  C   UNL d   1      -0.442  -0.250   6.477  0.00  0.00     0.034 A 
ATOM     16  C   UNL d   1       0.636   0.601   6.249  0.00  0.00     0.026 A 
ATOM     17 CL   UNL d   1      -0.454  -1.266   7.865  0.00  0.00    -0.084 Cl
ATOM     18  C   UNL d   1       0.641   1.418   5.115  0.00  0.00     0.038 A 
ENDBRANCH  11  12
ENDBRANCH  10  11
ENDBRANCH   7  10
ENDBRANCH   2   6
BRANCH   1  19
ATOM     19  C   UNL d   1       2.744   1.556   0.406  0.00  0.00     0.195 C 
ATOM     20  O   UNL d   1       2.846   2.703  -0.015  0.00  0.00    -0.287 OA
BRANCH  19  21
ATOM     21  C   UNL d   1       3.857   0.971   1.220  0.00  0.00     0.015 A 
ATOM     22  C   UNL d   1       3.628   0.012   2.218  0.00  0.00     0.018 A 
ATOM     23  C   UNL d   1       4.694  -0.529   2.947  0.00  0.00     0.037 A 
ATOM     24  C   UNL d   1       5.994  -0.086   2.713  0.00  0.00     0.068 A 
ATOM     25  C   UNL d   1       6.224   0.884   1.734  0.00  0.00     0.037 A 
ATOM     26  C   UNL d   1       5.162   1.420   0.996  0.00  0.00     0.018 A 
BRANCH  24  27
ATOM     27  O   UNL d   1       7.111  -0.548   3.353  0.00  0.00    -0.356 OA
ATOM     28  C   UNL d   1       6.908  -1.046   4.671  0.00  0.00     0.210 C 
ENDBRANCH  24  27
ENDBRANCH  19  21
ENDBRANCH   1  19
BRANCH   5  29
ATOM     29  C   UNL d   1      -0.280  -2.583  -0.077  0.00  0.00     0.042 C 
ATOM     30  C   UNL d   1      -0.491  -3.072   1.351  0.00  0.00     0.010 C 
ENDBRANCH   5  29
TORSDOF 8
