REMARK  3 active torsions:
REMARK  status: ('A' for Active; 'I' for Inactive)
REMARK    1  A    between atoms: C_8  and  N_1 
REMARK    2  A    between atoms: C_9  and  C_2 
REMARK    3  A    between atoms: N_7  and  C_10 
ROOT
ATOM      1  N   UNL d   1      -0.165  -1.341  -0.038  0.00  0.00    -0.224 N 
ATOM      2  C   UNL d   1       1.059  -0.680   0.060  0.00  0.00     0.148 C 
ATOM      3  N   UNL d   1      -1.124  -0.419  -0.273  0.00  0.00     0.001 NA
ATOM      4  N   UNL d   1      -0.541   0.758  -0.103  0.00  0.00    -0.007 NA
ATOM      5  N   UNL d   1       0.803   0.615   0.115  0.00  0.00    -0.269 N 
ATOM      6  HN  UNL d   1       1.476   1.362   0.287  1.00  0.00     0.185 HD
ENDROOT
BRANCH   2   7
ATOM      7  C   UNL d   1       2.395  -1.280  -0.025  0.00  0.00     0.013 A 
ATOM      8  C   UNL d   1       2.650  -2.364  -0.879  0.00  0.00     0.051 A 
ATOM      9  C   UNL d   1       3.918  -2.959  -0.911  0.00  0.00     0.103 A 
ATOM     10  C   UNL d   1       4.963  -2.443  -0.142  0.00  0.00     0.036 A 
ATOM     11  C   UNL d   1       4.731  -1.326   0.663  0.00  0.00     0.003 A 
ATOM     12  C   UNL d   1       3.456  -0.750   0.722  0.00  0.00     0.015 A 
BRANCH   9  13
ATOM     13  N   UNL d   1       4.131  -4.147  -1.749  0.00  0.00    -0.116 N 
ATOM     14  O   UNL d   1       3.152  -4.606  -2.353  0.00  0.00    -0.532 OA
ATOM     15  O   UNL d   1       5.275  -4.620  -1.795  0.00  0.00    -0.532 OA
ENDBRANCH   9  13
ENDBRANCH   2   7
BRANCH   1  16
ATOM     16  C   UNL d   1      -0.463  -2.722   0.040  0.00  0.00     0.059 A 
ATOM     17  C   UNL d   1       0.301  -3.571   0.852  0.00  0.00     0.073 A 
ATOM     18  C   UNL d   1       0.067  -4.941   0.815  0.00  0.00     0.118 A 
ATOM     19  F   UNL d   1       0.816  -5.752   1.572  0.00  0.00    -0.206 F 
ATOM     20  C   UNL d   1      -0.917  -5.479  -0.005  0.00  0.00     0.042 A 
ATOM     21  C   UNL d   1      -1.709  -4.631  -0.778  0.00  0.00     0.005 A 
ATOM     22  C   UNL d   1      -1.500  -3.249  -0.743  0.00  0.00     0.031 A 
ENDBRANCH   1  16
TORSDOF 3
