REMARK  4 active torsions:
REMARK  status: ('A' for Active; 'I' for Inactive)
REMARK    1  A    between atoms: C_8  and  C_1 
REMARK    2  A    between atoms: N_2  and  C_7 
REMARK    3  A    between atoms: C_12  and  C_8 
REMARK    4  A    between atoms: O_18  and  C_8 
ROOT
ATOM      1  C   UNL d   1      -2.330  -0.217  -0.083  0.00  0.00     0.087 A 
ATOM      2  O   UNL d   1      -1.569   0.923  -0.072  0.00  0.00    -0.311 OA
ATOM      3  C   UNL d   1      -1.513  -1.330  -0.085  0.00  0.00     0.050 A 
ATOM      4  C   UNL d   1      -0.177  -0.857  -0.060  0.00  0.00     0.003 A 
ATOM      5  C   UNL d   1      -0.263   0.530  -0.057  0.00  0.00     0.086 A 
ATOM      6  C   UNL d   1       2.224  -0.628  -0.007  0.00  0.00     0.103 A 
ATOM      7  C   UNL d   1       1.091  -1.463  -0.033  0.00  0.00     0.050 A 
ATOM      8  C   UNL d   1       0.842   1.381  -0.032  0.00  0.00     0.040 A 
ATOM      9  C   UNL d   1       2.105   0.771  -0.008  0.00  0.00     0.039 A 
ENDROOT
BRANCH   1  10
ATOM     10  C   UNL d   1      -3.816  -0.066  -0.057  0.00  0.00     0.208 C 
BRANCH  10  11
ATOM     11  C   UNL d   1      -4.390  -0.014   1.345  0.00  0.00    -0.023 A 
ATOM     12  C   UNL d   1      -3.979   0.968   2.267  0.00  0.00     0.013 A 
ATOM     13  C   UNL d   1      -4.537   1.023   3.544  0.00  0.00     0.043 A 
ATOM     14  C   UNL d   1      -5.507   0.099   3.907  0.00  0.00     0.116 A 
ATOM     15  C   UNL d   1      -5.921  -0.888   3.022  0.00  0.00     0.043 A 
ATOM     16  F   UNL d   1      -6.054   0.162   5.128  0.00  0.00    -0.206 F 
ATOM     17  C   UNL d   1      -5.364  -0.947   1.743  0.00  0.00     0.013 A 
ENDBRANCH  10  11
BRANCH  10  18
ATOM     18  O   UNL d   1      -4.174   1.121  -0.759  0.00  0.00    -0.384 OA
ATOM     19  H   UNL d   1      -3.577   1.817  -0.435  0.00  0.00     0.211 HD
ENDBRANCH  10  18
ENDBRANCH   1  10
BRANCH   6  20
ATOM     20  N   UNL d   1       3.558  -1.248   0.021  0.00  0.00    -0.116 N 
ATOM     21  O   UNL d   1       3.620  -2.484   0.026  0.00  0.00    -0.532 OA
ATOM     22  O   UNL d   1       4.541  -0.492   0.042  0.00  0.00    -0.532 OA
ENDBRANCH   6  20
TORSDOF 4
