REMARK  7 active torsions:
REMARK  status: ('A' for Active; 'I' for Inactive)
REMARK    1  A    between atoms: C_11  and  N_3 
REMARK    2  A    between atoms: C_12  and  C_4 
REMARK    3  A    between atoms: S_10  and  C_7 
REMARK    4  A    between atoms: C_8  and  C_9 
REMARK    5  A    between atoms: C_9  and  C_13 
REMARK    6  A    between atoms: O_17  and  C_9 
REMARK    7  A    between atoms: C_13  and  S_10 
ROOT
ATOM      1  N   UNL d   1      -0.308  -1.122   0.044  0.00  0.00    -0.320 N 
ATOM      2  HN  UNL d   1      -0.649  -2.074  -0.085  1.00  0.00     0.169 HD
ATOM      3  N   UNL d   1       0.934   0.700   0.112  0.00  0.00    -0.237 N 
ATOM      4  C   UNL d   1       0.946  -0.695   0.077  0.00  0.00     0.140 C 
ATOM      5  N   UNL d   1      -0.324   1.131   0.356  0.00  0.00    -0.271 N 
ATOM      6  HN  UNL d   1      -0.646   2.071   0.583  1.00  0.00     0.189 HD
ATOM      7  C   UNL d   1      -1.034   0.016   0.224  0.00  0.00     0.161 C 
ENDROOT
BRANCH   7   8
ATOM      8  S   UNL d   1      -2.764   0.071   0.349  0.00  0.00    -0.090 SA
BRANCH   8   9
ATOM      9  C   UNL d   1      -3.241  -1.607  -0.132  0.00  0.00     0.123 C 
BRANCH   9  10
ATOM     10  C   UNL d   1      -3.034  -2.731   0.887  0.00  0.00     0.235 C 
BRANCH  10  11
ATOM     11  C   UNL d   1      -3.506  -2.387   2.305  0.00  0.00     0.413 C 
ATOM     12  F   UNL d   1      -4.638  -1.655   2.316  0.00  0.00    -0.168 F 
ATOM     13  F   UNL d   1      -3.778  -3.543   2.971  0.00  0.00    -0.168 F 
ATOM     14  F   UNL d   1      -2.563  -1.737   3.016  0.00  0.00    -0.168 F 
ENDBRANCH  10  11
BRANCH  10  15
ATOM     15  O   UNL d   1      -3.713  -3.905   0.365  0.00  0.00    -0.386 OA
ATOM     16  H   UNL d   1      -3.961  -4.460   1.131  0.00  0.00     0.210 HD
ENDBRANCH  10  15
ENDBRANCH   9  10
ENDBRANCH   8   9
ENDBRANCH   7   8
BRANCH   3  17
ATOM     17  C   UNL d   1       1.987   1.636  -0.052  0.00  0.00     0.058 A 
ATOM     18  C   UNL d   1       3.097   1.347  -0.857  0.00  0.00     0.031 A 
ATOM     19  C   UNL d   1       4.149   2.263  -0.943  0.00  0.00     0.002 A 
ATOM     20  C   UNL d   1       4.095   3.460  -0.232  0.00  0.00     0.000 A 
ATOM     21  C   UNL d   1       2.974   3.766   0.539  0.00  0.00     0.002 A 
ATOM     22  C   UNL d   1       1.910   2.867   0.614  0.00  0.00     0.031 A 
ENDBRANCH   3  17
BRANCH   4  23
ATOM     23  C   UNL d   1       2.126  -1.565   0.190  0.00  0.00     0.010 A 
ATOM     24  C   UNL d   1       3.208  -1.227   1.020  0.00  0.00     0.015 A 
ATOM     25  C   UNL d   1       4.333  -2.053   1.102  0.00  0.00     0.001 A 
ATOM     26  C   UNL d   1       4.370  -3.248   0.398  0.00  0.00     0.000 A 
ATOM     27  C   UNL d   1       3.279  -3.624  -0.392  0.00  0.00     0.001 A 
ATOM     28  C   UNL d   1       2.162  -2.784  -0.492  0.00  0.00     0.015 A 
ENDBRANCH   4  23
TORSDOF 7
