REMARK  4 active torsions:
REMARK  status: ('A' for Active; 'I' for Inactive)
REMARK    1  A    between atoms: C_2  and  S_1 
REMARK    2  A    between atoms: N_3  and  S_1 
REMARK    3  A    between atoms: C_13  and  N_3 
REMARK    4  A    between atoms: N_5  and  C_9 
ROOT
ATOM      1  N   UNL d   1       0.559  -0.332   1.550  0.00  0.00    -0.281 N 
ATOM      2  H   UNL d   1       0.440  -0.509   0.557  0.00  0.00     0.179 HD
ENDROOT
BRANCH   1   3
ATOM      3  S   UNL d   1       0.302   1.226   2.089  0.00  0.00     0.263 S 
ATOM      4  O   UNL d   1      -0.032   2.005   0.918  0.00  0.00    -0.200 OA
ATOM      5  O   UNL d   1      -0.571   1.203   3.243  0.00  0.00    -0.200 OA
BRANCH   3   6
ATOM      6  C   UNL d   1       1.917   1.744   2.623  0.00  0.00     0.081 A 
ATOM      7  C   UNL d   1       2.795   2.323   1.704  0.00  0.00     0.049 A 
ATOM      8  C   UNL d   1       4.032   2.803   2.144  0.00  0.00     0.041 A 
ATOM      9 CL   UNL d   1       5.079   3.524   0.974  0.00  0.00    -0.084 Cl
ATOM     10  C   UNL d   1       4.399   2.713   3.498  0.00  0.00    -0.040 A 
ATOM     11  C   UNL d   1       3.500   2.128   4.404  0.00  0.00     0.010 A 
ATOM     12  C   UNL d   1       5.711   3.249   4.003  0.00  0.00     0.050 C 
ATOM     13  C   UNL d   1       2.261   1.650   3.973  0.00  0.00     0.026 A 
ENDBRANCH   3   6
ENDBRANCH   1   3
BRANCH   1  14
ATOM     14  C   UNL d   1       0.910  -1.383   2.423  0.00  0.00     0.042 A 
ATOM     15  C   UNL d   1      -0.071  -2.097   3.096  0.00  0.00     0.032 A 
ATOM     16  C   UNL d   1       0.293  -3.215   3.856  0.00  0.00     0.031 A 
ATOM     17  C   UNL d   1       1.628  -3.639   3.964  0.00  0.00     0.030 A 
ATOM     18  C   UNL d   1       2.596  -2.878   3.299  0.00  0.00     0.031 A 
ATOM     19  C   UNL d   1       2.241  -1.768   2.521  0.00  0.00     0.032 A 
BRANCH  17  20
ATOM     20  N   UNL d   1       1.940  -4.753   4.721  0.00  0.00    -0.381 N 
ATOM     21  C   UNL d   1       3.220  -4.905   5.408  0.00  0.00     0.123 C 
ATOM     22  C   UNL d   1       2.940  -5.489   6.796  0.00  0.00     0.020 C 
ATOM     23  C   UNL d   1       2.116  -6.778   6.721  0.00  0.00     0.003 C 
ATOM     24  C   UNL d   1       0.865  -6.607   5.857  0.00  0.00     0.020 C 
ATOM     25  C   UNL d   1       1.208  -6.002   4.498  0.00  0.00     0.123 C 
ENDBRANCH  17  20
ENDBRANCH   1  14
TORSDOF 4
