REMARK  5 active torsions:
REMARK  status: ('A' for Active; 'I' for Inactive)
REMARK    1  A    between atoms: C_2  and  C_1 
REMARK       I    between atoms: N_5  and  C_2 
REMARK    2  A    between atoms: C_4  and  C_3 
REMARK    3  A    between atoms: C_10  and  N_5 
REMARK    4  A    between atoms: N_14  and  C_9 
REMARK    5  A    between atoms: C_24  and  N_14 
ROOT
ATOM      1  C   UNL d   1       0.751   1.249  -0.126  0.00  0.00     0.062 A 
ATOM      2  C   UNL d   1       1.547   0.096  -0.123  0.00  0.00     0.068 A 
ATOM      3  C   UNL d   1      -0.627   1.028  -0.210  0.00  0.00     0.107 A 
ATOM      4  N   UNL d   1      -1.241  -0.182  -0.195  0.00  0.00    -0.356 N 
ATOM      5  HN  UNL d   1      -2.257  -0.253  -0.245  1.00  0.00     0.166 HD
ATOM      6  C   UNL d   1      -0.481  -1.278  -0.113  0.00  0.00     0.081 A 
ATOM      7  C   UNL d   1       0.901  -1.168  -0.139  0.00  0.00     0.059 A 
ENDROOT
BRANCH   1   8
ATOM      8  C   UNL d   1       1.112   2.699   0.045  0.00  0.00     0.258 C 
ATOM      9  N   UNL d   1       2.409   3.068   0.340  0.00  0.00    -0.321 N 
ATOM     10  H   UNL d   1       3.180   2.498   0.010  0.00  0.00     0.169 HD
ATOM     11  O   UNL d   1       0.203   3.519  -0.067  0.00  0.00    -0.267 OA
BRANCH   9  12
ATOM     12  C   UNL d   1       2.797   4.347   0.833  0.00  0.00     0.057 A 
ATOM     13  C   UNL d   1       4.136   4.766   0.701  0.00  0.00     0.062 A 
ATOM     14  C   UNL d   1       4.555   6.001   1.207  0.00  0.00     0.050 A 
ATOM     15 CL   UNL d   1       5.303   3.791  -0.116  0.00  0.00    -0.082 Cl
ATOM     16  C   UNL d   1       3.644   6.819   1.865  0.00  0.00     0.035 A 
ATOM     17  C   UNL d   1       2.321   6.418   2.018  0.00  0.00     0.026 A 
ATOM     18 CL   UNL d   1       4.156   8.333   2.502  0.00  0.00    -0.084 Cl
ATOM     19  C   UNL d   1       1.900   5.187   1.503  0.00  0.00     0.033 A 
ENDBRANCH   9  12
ENDBRANCH   1   8
BRANCH   2  20
ATOM     20  C   UNL d   1       3.040   0.041  -0.038  0.00  0.00     0.418 C 
ATOM     21  F   UNL d   1       3.672   1.142  -0.514  0.00  0.00    -0.166 F 
ATOM     22  F   UNL d   1       3.474  -0.123   1.241  0.00  0.00    -0.166 F 
ATOM     23  F   UNL d   1       3.571  -0.999  -0.743  0.00  0.00    -0.166 F 
ENDBRANCH   2  20
BRANCH   6  24
ATOM     24  N   UNL d   1      -1.068  -2.549  -0.066  0.00  0.00    -0.275 NA
ATOM     25  H   UNL d   1      -0.462  -3.212   0.407  0.00  0.00     0.129 HD
BRANCH  24  26
ATOM     26  C   UNL d   1      -2.422  -2.577   0.508  0.00  0.00     0.053 C 
ATOM     27  C   UNL d   1      -3.122  -3.849   0.033  0.00  0.00     0.026 C 
ATOM     28  C   UNL d   1      -2.332  -2.566   2.038  0.00  0.00     0.026 C 
ENDBRANCH  24  26
ENDBRANCH   6  24
TORSDOF 5
