REMARK  3 active torsions:
REMARK  status: ('A' for Active; 'I' for Inactive)
REMARK    1  A    between atoms: N_2  and  C_1 
REMARK    2  A    between atoms: N_6  and  C_1 
REMARK    3  A    between atoms: C_7  and  N_2 
ROOT
ATOM      1  C   UNL d   1       2.580  -4.225   0.181  0.00  0.00     0.053 A 
ATOM      2  C   UNL d   1       2.119  -2.905   0.243  0.00  0.00     0.054 A 
ATOM      3  C   UNL d   1       1.084  -2.475  -0.590  0.00  0.00     0.035 A 
ATOM      4  C   UNL d   1       1.997  -5.125  -0.717  0.00  0.00     0.032 A 
ATOM      5  C   UNL d   1       0.936  -4.707  -1.525  0.00  0.00     0.023 A 
ATOM      6 CL   UNL d   1       3.871  -4.668   1.240  0.00  0.00    -0.083 Cl
ATOM      7  C   UNL d   1       0.471  -3.392  -1.448  0.00  0.00     0.031 A 
ATOM      8 BR   UNL d   1       2.585  -6.921  -0.900  0.00  0.00    -0.049 Br
ENDROOT
BRANCH   3   9
ATOM      9  N   UNL d   1       0.590  -1.154  -0.586  0.00  0.00    -0.333 N 
ATOM     10  H   UNL d   1      -0.386  -1.048  -0.841  0.00  0.00     0.168 HD
BRANCH   9  11
ATOM     11  C   UNL d   1       1.140  -0.022  -0.043  0.00  0.00     0.173 C 
ATOM     12  S   UNL d   1       0.061   1.135   0.521  0.00  0.00    -0.041 SA
BRANCH  11  13
ATOM     13  N   UNL d   1       2.518   0.126  -0.074  0.00  0.00    -0.367 N 
ATOM     14  C   UNL d   1       3.296  -0.322  -1.229  0.00  0.00     0.151 C 
ATOM     15  C   UNL d   1       3.217   1.074   0.790  0.00  0.00     0.151 C 
ENDBRANCH  11  13
ENDBRANCH   9  11
ENDBRANCH   3   9
TORSDOF 3
