REMARK  5 active torsions:
REMARK  status: ('A' for Active; 'I' for Inactive)
REMARK    1  A    between atoms: N_5  and  N_1 
REMARK    2  A    between atoms: O_17  and  C_9 
REMARK    3  A    between atoms: O_18  and  C_10 
REMARK    4  A    between atoms: O_19  and  C_11 
REMARK    5  A    between atoms: C_14  and  C_13 
ROOT
ATOM      1  C   UNL d   1      -3.580   6.832  -0.204  0.00  0.00     0.135 A 
ATOM      2  C   UNL d   1      -4.063   5.934   0.777  0.00  0.00     0.105 A 
ATOM      3  C   UNL d   1      -2.593   6.385  -1.112  0.00  0.00     0.105 A 
ATOM      4  C   UNL d   1      -2.590   4.194  -0.066  0.00  0.00    -0.014 A 
ATOM      5  C   UNL d   1      -3.525   4.641   0.862  0.00  0.00     0.052 A 
ATOM      6  C   UNL d   1      -2.116   5.070  -1.041  0.00  0.00     0.052 A 
ENDROOT
BRANCH   4   7
ATOM      7  C   UNL d   1      -2.033   2.821  -0.052  0.00  0.00     0.119 C 
ATOM      8  N   UNL d   1      -2.537   1.702   0.374  0.00  0.00    -0.301 N 
ATOM      9  HN  UNL d   1      -1.940   0.877   0.431  1.00  0.00     0.186 HD
BRANCH   8  10
ATOM     10  N   UNL d   1      -3.836   1.606   0.745  0.00  0.00    -0.224 N 
ATOM     11  C   UNL d   1      -4.311   0.834   1.784  0.00  0.00     0.213 A 
ATOM     12  N   UNL d   1      -5.702   0.894   1.679  0.00  0.00    -0.274 N 
ATOM     13  S   UNL d   1      -3.498   0.011   2.969  0.00  0.00    -0.037 SA
ATOM     14  N   UNL d   1      -6.066   1.584   0.548  0.00  0.00    -0.292 N 
ATOM     15  H   UNL d   1      -6.377   0.415   2.263  0.00  0.00     0.189 HD
ATOM     16  C   UNL d   1      -4.933   1.950   0.027  0.00  0.00     0.226 A 
ATOM     17  HN  UNL d   1      -7.006   1.767   0.198  1.00  0.00     0.187 HD
ENDBRANCH   8  10
ENDBRANCH   4   7
BRANCH   2  18
ATOM     18  O   UNL d   1      -5.104   6.341   1.572  0.00  0.00    -0.353 OA
ATOM     19  C   UNL d   1      -5.428   5.553   2.713  0.00  0.00     0.210 C 
ENDBRANCH   2  18
BRANCH   3  20
ATOM     20  O   UNL d   1      -2.023   7.074  -2.154  0.00  0.00    -0.353 OA
ATOM     21  C   UNL d   1      -2.013   8.494  -2.106  0.00  0.00     0.210 C 
ENDBRANCH   3  20
BRANCH   1  22
ATOM     22  O   UNL d   1      -4.046   8.105  -0.398  0.00  0.00    -0.351 OA
ATOM     23  C   UNL d   1      -4.615   8.821   0.690  0.00  0.00     0.210 C 
ENDBRANCH   1  22
TORSDOF 5
