REMARK  4 active torsions:
REMARK  status: ('A' for Active; 'I' for Inactive)
REMARK    1  A    between atoms: C_11  and  N_1 
REMARK       I    between atoms: C_4  and  N_8 
REMARK    2  A    between atoms: C_9  and  C_4 
REMARK    3  A    between atoms: C_5  and  C_14 
REMARK       I    between atoms: N_10  and  C_5 
REMARK    4  A    between atoms: N_8  and  N_10 
ROOT
ATOM      1  C   UNL d   1       5.791  -3.740  -0.174  0.00  0.00     0.270 C 
ATOM      2  N   UNL d   1       6.820  -3.445   0.697  0.00  0.00    -0.263 N 
ATOM      3  O   UNL d   1       5.865  -4.689  -0.955  0.00  0.00    -0.266 OA
ATOM      4  H   UNL d   1       6.855  -2.658   1.339  0.00  0.00     0.190 HD
ENDROOT
BRANCH   2   5
ATOM      5  N   UNL d   1       7.929  -4.303   0.725  0.00  0.00    -0.263 N 
ATOM      6  C   UNL d   1       9.077  -3.862   1.353  0.00  0.00     0.270 C 
ATOM      7  O   UNL d   1       9.163  -2.733   1.832  0.00  0.00    -0.266 OA
ATOM      8  H   UNL d   1       7.848  -5.149   0.168  0.00  0.00     0.190 HD
BRANCH   6   9
ATOM      9  C   UNL d   1      10.213  -4.823   1.472  0.00  0.00     0.035 A 
ATOM     10  C   UNL d   1      11.451  -4.326   1.902  0.00  0.00     0.049 A 
ATOM     11  C   UNL d   1      12.529  -5.168   2.155  0.00  0.00     0.060 A 
ATOM     12  N   UNL d   1      13.689  -4.646   2.598  0.00  0.00    -0.363 N 
ATOM     13  C   UNL d   1      12.378  -6.563   1.963  0.00  0.00     0.059 A 
ATOM     14  C   UNL d   1      14.685  -5.517   2.860  0.00  0.00     0.105 A 
ATOM     15  HN  UNL d   1      13.808  -3.642   2.730  1.00  0.00     0.165 HD
ATOM     16  C   UNL d   1      14.533  -6.882   2.679  0.00  0.00     0.105 A 
ATOM     17  N   UNL d   1      13.383  -7.421   2.222  0.00  0.00    -0.363 N 
ATOM     18  HN  UNL d   1      13.280  -8.426   2.082  1.00  0.00     0.165 HD
ATOM     19  C   UNL d   1      11.157  -7.048   1.511  0.00  0.00     0.033 A 
ATOM     20  C   UNL d   1      10.072  -6.198   1.268  0.00  0.00     0.019 A 
ENDBRANCH   6   9
ENDBRANCH   2   5
BRANCH   1  21
ATOM     21  C   UNL d   1       4.559  -2.890  -0.123  0.00  0.00     0.033 A 
ATOM     22  C   UNL d   1       4.389  -1.819   0.762  0.00  0.00     0.019 A 
ATOM     23  C   UNL d   1       3.192  -1.084   0.767  0.00  0.00     0.031 A 
ATOM     24  C   UNL d   1       2.139  -1.421  -0.093  0.00  0.00     0.039 A 
ATOM     25  C   UNL d   1       2.302  -2.503  -0.964  0.00  0.00     0.031 A 
ATOM     26  C   UNL d   1       3.507  -3.217  -0.991  0.00  0.00     0.019 A 
BRANCH  24  27
ATOM     27  N   UNL d   1       0.927  -0.656  -0.093  0.00  0.00    -0.320 N 
ATOM     28  C   UNL d   1       0.274  -0.128   1.029  0.00  0.00     0.013 A 
ATOM     29  C   UNL d   1      -0.825   0.590   0.597  0.00  0.00     0.027 A 
ATOM     30  C   UNL d   1       0.626  -0.362   2.461  0.00  0.00     0.068 C 
ATOM     31  C   UNL d   1      -0.887   0.489  -0.797  0.00  0.00     0.027 A 
ATOM     32  C   UNL d   1       0.190  -0.269  -1.220  0.00  0.00     0.013 A 
ATOM     33  C   UNL d   1       0.542  -0.509  -2.651  0.00  0.00     0.068 C 
ENDBRANCH  24  27
ENDBRANCH   1  21
TORSDOF 4
