REMARK  6 active torsions:
REMARK  status: ('A' for Active; 'I' for Inactive)
REMARK    1  A    between atoms: N_8  and  C_1 
REMARK       I    between atoms: C_10  and  N_8 
REMARK    2  A    between atoms: C_19  and  C_10 
REMARK    3  A    between atoms: O_18  and  C_16 
REMARK    4  A    between atoms: C_21  and  C_19 
REMARK    5  A    between atoms: C_23  and  C_21 
REMARK    6  A    between atoms: C_22  and  C_23 
ROOT
ATOM      1  C   UNL d   1      -3.111   1.073  -0.069  0.00  0.00     0.152 A 
ATOM      2  C   UNL d   1      -1.030   0.385   0.025  0.00  0.00     0.058 A 
ATOM      3  N   UNL d   1      -1.863   1.484  -0.098  0.00  0.00    -0.335 N 
ATOM      4  HN  UNL d   1      -1.558   2.452  -0.195  1.00  0.00     0.168 HD
ATOM      5  C   UNL d   1      -1.682  -0.821   0.206  0.00  0.00     0.014 A 
ATOM      6  S   UNL d   1      -3.363  -0.611   0.130  0.00  0.00    -0.056 SA
ATOM      7  C   UNL d   1       0.432   0.386  -0.010  0.00  0.00    -0.002 A 
ATOM      8  C   UNL d   1       1.102  -0.857  -0.136  0.00  0.00    -0.043 A 
ATOM      9  C   UNL d   1       1.192   1.554   0.107  0.00  0.00     0.017 A 
ATOM     10  C   UNL d   1      -1.005  -2.128   0.433  0.00  0.00     0.053 C 
ATOM     11  C   UNL d   1       2.500  -0.903  -0.132  0.00  0.00     0.044 A 
ATOM     12  C   UNL d   1       0.316  -2.138  -0.344  0.00  0.00     0.045 C 
ATOM     13  C   UNL d   1       3.254   0.263   0.016  0.00  0.00     0.068 A 
ATOM     14  C   UNL d   1       2.599   1.492   0.126  0.00  0.00     0.037 A 
ENDROOT
BRANCH   1  15
ATOM     15  N   UNL d   1      -4.290   1.762  -0.163  0.00  0.00    -0.307 N 
ATOM     16  C   UNL d   1      -4.367   3.130  -0.076  0.00  0.00     0.223 C 
ATOM     17  O   UNL d   1      -3.427   3.911   0.050  0.00  0.00    -0.273 OA
ATOM     18  H   UNL d   1      -5.125   1.198  -0.197  0.00  0.00     0.171 HD
BRANCH  16  19
ATOM     19  C   UNL d   1      -5.792   3.663  -0.165  0.00  0.00     0.103 C 
BRANCH  19  20
ATOM     20  C   UNL d   1      -6.765   3.088   0.866  0.00  0.00     0.009 C 
BRANCH  20  21
ATOM     21  C   UNL d   1      -6.322   3.332   2.312  0.00  0.00     0.000 C 
BRANCH  21  22
ATOM     22  C   UNL d   1      -7.305   2.700   3.298  0.00  0.00    -0.005 C 
ATOM     23  C   UNL d   1      -6.866   2.907   4.739  0.00  0.00     0.005 C 
ENDBRANCH  21  22
ENDBRANCH  20  21
ENDBRANCH  19  20
ENDBRANCH  16  19
ENDBRANCH   1  15
BRANCH  13  24
ATOM     24  O   UNL d   1       4.601   0.036   0.037  0.00  0.00    -0.356 OA
ATOM     25  C   UNL d   1       5.457   1.152   0.226  0.00  0.00     0.210 C 
ENDBRANCH  13  24
TORSDOF 6
