REMARK  2 active torsions:
REMARK  status: ('A' for Active; 'I' for Inactive)
REMARK    1  A    between atoms: C_2  and  C_1 
REMARK       I    between atoms: N_3  and  C_2 
REMARK    2  A    between atoms: C_13  and  C_8 
ROOT
ATOM      1  C   UNL d   1       3.898  -0.013   0.142  0.00  0.00     0.285 C 
ATOM      2  N   UNL d   1       4.680  -1.165  -0.126  0.00  0.00    -0.230 N 
ATOM      3  N   UNL d   1       4.219  -2.146  -0.945  0.00  0.00    -0.290 N 
ATOM      4  HN  UNL d   1       3.319  -2.185  -1.423  1.00  0.00     0.187 HD
ATOM      5  C   UNL d   1       5.205  -3.051  -0.986  0.00  0.00     0.067 A 
ATOM      6  C   UNL d   1       6.302  -2.667  -0.184  0.00  0.00     0.051 A 
ATOM      7  C   UNL d   1       5.959  -1.436   0.317  0.00  0.00     0.122 A 
ATOM      8  O   UNL d   1       4.536   0.975   0.515  0.00  0.00    -0.265 OA
ENDROOT
BRANCH   1   9
ATOM      9  C   UNL d   1       2.451  -0.012   0.009  0.00  0.00     0.098 A 
ATOM     10  S   UNL d   1       1.688   1.398  -0.584  0.00  0.00    -0.082 SA
ATOM     11  C   UNL d   1       0.110   0.758  -0.337  0.00  0.00     0.017 A 
ATOM     12  C   UNL d   1      -1.113   1.413  -0.574  0.00  0.00     0.020 A 
ATOM     13  C   UNL d   1       0.161  -0.546   0.164  0.00  0.00     0.004 A 
ATOM     14  C   UNL d   1      -2.308   0.741  -0.308  0.00  0.00     0.001 A 
ATOM     15  C   UNL d   1      -2.290  -0.561   0.170  0.00  0.00     0.001 A 
ATOM     16  C   UNL d   1      -1.072  -1.203   0.408  0.00  0.00     0.014 A 
ATOM     17  C   UNL d   1       1.524  -0.964   0.382  0.00  0.00     0.068 A 
ATOM     18 CL   UNL d   1       1.872  -2.468   1.148  0.00  0.00    -0.082 Cl
ENDBRANCH   1   9
BRANCH   5  19
ATOM     19  C   UNL d   1       5.097  -4.286  -1.829  0.00  0.00     0.033 A 
ATOM     20  S   UNL d   1       6.282  -5.513  -1.910  0.00  0.00    -0.100 SA
ATOM     21  C   UNL d   1       5.376  -6.398  -3.060  0.00  0.00     0.050 A 
ATOM     22  C   UNL d   1       4.193  -5.769  -3.380  0.00  0.00     0.008 A 
ATOM     23  C   UNL d   1       4.025  -4.553  -2.655  0.00  0.00     0.021 A 
ENDBRANCH   5  19
TORSDOF 2
