REMARK  4 active torsions:
REMARK  status: ('A' for Active; 'I' for Inactive)
REMARK       I    between atoms: N_2  and  C_1 
REMARK       I    between atoms: N_5  and  C_1 
REMARK    1  A    between atoms: C_3  and  C_7 
REMARK    2  A    between atoms: C_6  and  N_4 
REMARK    3  A    between atoms: C_17  and  N_5 
REMARK    4  A    between atoms: O_22  and  C_13 
ROOT
ATOM      1  C   UNL d   1       1.224   0.230   0.019  0.00  0.00     0.323 C 
ATOM      2  N   UNL d   1       0.672   0.173  -1.266  0.00  0.00    -0.331 N 
ATOM      3  N   UNL d   1      -0.597  -0.523  -3.756  0.00  0.00    -0.376 N 
ATOM      4  N   UNL d   1       0.690   1.188   0.850  0.00  0.00    -0.309 N 
ATOM      5  O   UNL d   1       2.144  -0.526   0.336  0.00  0.00    -0.247 OA
ATOM      6  C   UNL d   1       1.167  -0.947  -2.094  0.00  0.00     0.147 C 
ATOM      7  C   UNL d   1      -0.687   0.633  -1.591  0.00  0.00     0.147 C 
ATOM      8  C   UNL d   1       0.836  -0.836  -3.595  0.00  0.00     0.143 C 
ATOM      9  C   UNL d   1      -0.957   0.743  -3.103  0.00  0.00     0.143 C 
ATOM     10  H   UNL d   1       0.043   1.837   0.443  0.00  0.00     0.170 HD
ENDROOT
BRANCH   4  11
ATOM     11  C   UNL d   1       1.125   1.526   2.153  0.00  0.00     0.036 A 
ATOM     12  C   UNL d   1       2.092   0.815   2.865  0.00  0.00     0.030 A 
ATOM     13  C   UNL d   1       2.551   1.275   4.104  0.00  0.00     0.018 A 
ATOM     14  C   UNL d   1       2.042   2.453   4.662  0.00  0.00     0.048 A 
ATOM     15  C   UNL d   1       1.027   3.134   3.977  0.00  0.00     0.018 A 
ATOM     16  C   UNL d   1       0.571   2.672   2.737  0.00  0.00     0.030 A 
BRANCH  14  17
ATOM     17  C   UNL d   1       2.580   2.995   5.963  0.00  0.00     0.417 C 
ATOM     18  F   UNL d   1       3.609   2.266   6.477  0.00  0.00    -0.166 F 
ATOM     19  F   UNL d   1       3.054   4.267   5.835  0.00  0.00    -0.166 F 
ATOM     20  F   UNL d   1       1.633   3.048   6.939  0.00  0.00    -0.166 F 
ENDBRANCH  14  17
ENDBRANCH   4  11
BRANCH   3  21
ATOM     21  C   UNL d   1      -1.193  -0.860  -4.975  0.00  0.00     0.064 A 
ATOM     22  C   UNL d   1      -1.294  -2.200  -5.422  0.00  0.00     0.094 A 
ATOM     23  C   UNL d   1      -1.971  -2.527  -6.605  0.00  0.00     0.039 A 
ATOM     24  C   UNL d   1      -2.576  -1.536  -7.370  0.00  0.00     0.003 A 
ATOM     25  C   UNL d   1      -2.470  -0.210  -6.974  0.00  0.00     0.002 A 
ATOM     26  C   UNL d   1      -1.786   0.119  -5.797  0.00  0.00     0.032 A 
BRANCH  22  27
ATOM     27  O   UNL d   1      -0.713  -3.272  -4.788  0.00  0.00    -0.354 OA
ATOM     28  C   UNL d   1      -1.213  -3.502  -3.474  0.00  0.00     0.210 C 
ENDBRANCH  22  27
ENDBRANCH   3  21
TORSDOF 4
