REMARK  2 active torsions:
REMARK  status: ('A' for Active; 'I' for Inactive)
REMARK    1  A    between atoms: N_7  and  C_3 
REMARK    2  A    between atoms: C_13  and  C_6 
ROOT
ATOM      1  C   UNL d   1       0.166   0.984  -0.051  0.00  0.00     0.038 A 
ATOM      2  C   UNL d   1      -0.033  -0.381  -0.099  0.00  0.00     0.089 A 
ATOM      3  C   UNL d   1       1.502   1.434  -0.014  0.00  0.00     0.096 A 
ATOM      4  C   UNL d   1      -1.088   1.679  -0.066  0.00  0.00     0.037 A 
ATOM      5  S   UNL d   1      -1.684  -0.802  -0.098  0.00  0.00    -0.071 SA
ATOM      6  C   UNL d   1      -2.188   0.841  -0.056  0.00  0.00     0.018 A 
ATOM      7  N   UNL d   1       2.487   0.511  -0.077  0.00  0.00    -0.342 N 
ATOM      8  HN  UNL d   1       3.467   0.796  -0.085  1.00  0.00     0.167 HD
ATOM      9  N   UNL d   1       0.924  -1.324  -0.134  0.00  0.00    -0.346 N 
ATOM     10  HN  UNL d   1       0.737  -2.326  -0.160  1.00  0.00     0.167 HD
ATOM     11  C   UNL d   1       2.151  -0.790  -0.129  0.00  0.00     0.182 A 
ENDROOT
BRANCH   3  12
ATOM     12  N   UNL d   1       1.790   2.802   0.064  0.00  0.00    -0.265 NA
ATOM     13  C   UNL d   1       3.115   3.179  -0.465  0.00  0.00     0.123 C 
ATOM     14  C   UNL d   1       3.218   4.714  -0.452  0.00  0.00     0.182 C 
ATOM     15  O   UNL d   1       3.039   5.243   0.876  0.00  0.00    -0.389 OA
ATOM     16  C   UNL d   1       1.760   4.854   1.405  0.00  0.00     0.182 C 
ATOM     17  C   UNL d   1       1.601   3.325   1.434  0.00  0.00     0.123 C 
ENDBRANCH   3  12
BRANCH   6  18
ATOM     18  C   UNL d   1      -3.611   1.217   0.019  0.00  0.00    -0.019 A 
ATOM     19  C   UNL d   1      -4.622   0.465  -0.595  0.00  0.00     0.013 A 
ATOM     20  C   UNL d   1      -5.962   0.857  -0.504  0.00  0.00     0.001 A 
ATOM     21  C   UNL d   1      -6.310   2.008   0.197  0.00  0.00     0.000 A 
ATOM     22  C   UNL d   1      -5.320   2.772   0.808  0.00  0.00     0.001 A 
ATOM     23  C   UNL d   1      -3.983   2.380   0.718  0.00  0.00     0.013 A 
ENDBRANCH   6  18
TORSDOF 2
