REMARK  7 active torsions:
REMARK  status: ('A' for Active; 'I' for Inactive)
REMARK    1  A    between atoms: C_2  and  N_1 
REMARK    2  A    between atoms: C_4  and  C_5 
REMARK       I    between atoms: N_15  and  C_4 
REMARK    3  A    between atoms: O_19  and  C_9 
REMARK    4  A    between atoms: O_20  and  C_11 
REMARK    5  A    between atoms: C_21  and  N_15 
REMARK    6  A    between atoms: C_17  and  C_23 
REMARK    7  A    between atoms: C_23  and  C_21 
ROOT
ATOM      1  C   UNL d   1      -1.887  -1.775   4.648  0.00  0.00     0.251 C 
ATOM      2  O   UNL d   1      -3.013  -2.215   4.441  0.00  0.00    -0.268 OA
ATOM      3  N   UNL d   1      -1.386  -1.535   5.911  0.00  0.00    -0.357 N 
ATOM      4  H   UNL d   1      -0.520  -1.026   6.026  0.00  0.00     0.162 HD
ENDROOT
BRANCH   3   5
ATOM      5  C   UNL d   1      -2.192  -1.821   7.086  0.00  0.00     0.127 C 
BRANCH   5   6
ATOM      6  C   UNL d   1      -1.493  -1.503   8.413  0.00  0.00     0.058 C 
BRANCH   6   7
ATOM      7  C   UNL d   1      -0.210  -2.264   8.659  0.00  0.00    -0.054 A 
ATOM      8  C   UNL d   1       1.000  -1.572   8.831  0.00  0.00     0.046 A 
ATOM      9  C   UNL d   1       2.214  -2.245   9.061  0.00  0.00     0.102 A 
ATOM     10  C   UNL d   1       2.204  -3.649   9.146  0.00  0.00     0.101 A 
ATOM     11  C   UNL d   1       0.990  -4.334   8.997  0.00  0.00     0.040 A 
ATOM     12  C   UNL d   1      -0.205  -3.656   8.755  0.00  0.00     0.010 A 
BRANCH   9  13
ATOM     13  O   UNL d   1       3.409  -1.592   9.204  0.00  0.00    -0.353 OA
ATOM     14  C   UNL d   1       3.426  -0.175   9.119  0.00  0.00     0.210 C 
ENDBRANCH   9  13
BRANCH  10  15
ATOM     15  O   UNL d   1       3.254  -4.502   9.369  0.00  0.00    -0.353 OA
ATOM     16  C   UNL d   1       4.559  -3.967   9.529  0.00  0.00     0.210 C 
ENDBRANCH  10  15
ENDBRANCH   6   7
ENDBRANCH   5   6
ENDBRANCH   3   5
BRANCH   1  17
ATOM     17  C   UNL d   1      -1.005  -1.430   3.498  0.00  0.00     0.032 A 
ATOM     18  C   UNL d   1       0.391  -1.525   3.581  0.00  0.00     0.019 A 
ATOM     19  C   UNL d   1       1.176  -1.198   2.472  0.00  0.00     0.037 A 
ATOM     20  C   UNL d   1       0.561  -0.782   1.280  0.00  0.00     0.108 A 
ATOM     21  C   UNL d   1      -0.837  -0.712   1.155  0.00  0.00    -0.028 A 
ATOM     22  C   UNL d   1      -1.606  -1.040   2.288  0.00  0.00     0.026 A 
ATOM     23  C   UNL d   1      -1.561  -0.317  -0.102  0.00  0.00     0.050 C 
BRANCH  20  24
ATOM     24  N   UNL d   1       1.437  -0.422   0.175  0.00  0.00    -0.115 N 
ATOM     25  O   UNL d   1       1.357   0.737  -0.256  0.00  0.00    -0.532 OA
ATOM     26  O   UNL d   1       2.221  -1.290  -0.227  0.00  0.00    -0.532 OA
ENDBRANCH  20  24
ENDBRANCH   1  17
TORSDOF 7
