REMARK  6 active torsions:
REMARK  status: ('A' for Active; 'I' for Inactive)
REMARK    1  A    between atoms: C_8  and  N_1 
REMARK    2  A    between atoms: S_15  and  C_2 
REMARK    3  A    between atoms: O_24  and  C_3 
REMARK    4  A    between atoms: C_10  and  C_22 
REMARK    5  A    between atoms: C_22  and  S_15 
REMARK    6  A    between atoms: O_27  and  C_25 
ROOT
ATOM      1  N   UNL d   1      -0.364  -1.412   0.095  0.00  0.00    -0.286 N 
ATOM      2  C   UNL d   1       0.876  -0.858   0.297  0.00  0.00     0.165 A 
ATOM      3  C   UNL d   1      -1.181  -0.336  -0.164  0.00  0.00     0.240 A 
ATOM      4  N   UNL d   1       0.834   0.431   0.053  0.00  0.00    -0.277 N 
ATOM      5  HN  UNL d   1       1.625   1.074   0.079  1.00  0.00     0.189 HD
ATOM      6  N   UNL d   1      -0.465   0.759  -0.242  0.00  0.00    -0.263 N 
ATOM      7  HN  UNL d   1      -0.811   1.689  -0.480  1.00  0.00     0.190 HD
ENDROOT
BRANCH   2   8
ATOM      8  S   UNL d   1       2.272  -1.715   0.866  0.00  0.00    -0.088 SA
BRANCH   8   9
ATOM      9  C   UNL d   1       3.393  -0.306   1.152  0.00  0.00     0.122 C 
BRANCH   9  10
ATOM     10  C   UNL d   1       4.669  -0.724   1.839  0.00  0.00    -0.030 A 
ATOM     11  C   UNL d   1       5.784  -1.345   1.101  0.00  0.00     0.005 A 
ATOM     12  C   UNL d   1       6.986  -1.586   1.776  0.00  0.00     0.092 A 
ATOM     13  C   UNL d   1       5.724  -1.702  -0.254  0.00  0.00     0.017 A 
ATOM     14  C   UNL d   1       8.097  -2.145   1.147  0.00  0.00     0.074 A 
ATOM     15  O   UNL d   1       7.143  -1.275   3.140  0.00  0.00    -0.275 OA
ATOM     16  C   UNL d   1       8.009  -2.484  -0.193  0.00  0.00     0.068 A 
ATOM     17  C   UNL d   1       6.830  -2.273  -0.899  0.00  0.00     0.037 A 
ATOM     18  C   UNL d   1       6.111  -0.714   3.865  0.00  0.00     0.288 A 
ATOM     19  C   UNL d   1       4.863  -0.438   3.138  0.00  0.00     0.091 A 
ATOM     20  O   UNL d   1       6.214  -0.436   5.054  0.00  0.00    -0.260 OA
BRANCH  16  21
ATOM     21  O   UNL d   1       9.107  -3.028  -0.787  0.00  0.00    -0.361 OA
ATOM     22  H   UNL d   1       8.911  -3.194  -1.724  0.00  0.00     0.217 HD
ENDBRANCH  16  21
ENDBRANCH   9  10
ENDBRANCH   8   9
ENDBRANCH   2   8
BRANCH   1  23
ATOM     23  C   UNL d   1      -0.736  -2.809   0.149  0.00  0.00     0.104 C 
ATOM     24  C   UNL d   1      -1.529  -3.312  -1.086  0.00  0.00     0.065 C 
ATOM     25  C   UNL d   1      -2.457  -4.316  -0.478  0.00  0.00    -0.050 A 
ATOM     26  C   UNL d   1      -3.267  -5.222  -1.143  0.00  0.00     0.007 A 
ATOM     27  C   UNL d   1      -2.457  -4.240   0.917  0.00  0.00    -0.050 A 
ATOM     28  C   UNL d   1      -4.077  -6.071  -0.386  0.00  0.00     0.001 A 
ATOM     29  C   UNL d   1      -4.071  -6.001   1.015  0.00  0.00     0.001 A 
ATOM     30  C   UNL d   1      -3.262  -5.075   1.676  0.00  0.00     0.007 A 
ATOM     31  C   UNL d   1      -1.548  -3.163   1.415  0.00  0.00     0.065 C 
ENDBRANCH   1  23
BRANCH   3  32
ATOM     32  O   UNL d   1      -2.495  -0.345  -0.317  0.00  0.00    -0.331 OA
ATOM     33  H   UNL d   1      -2.869  -1.188  -0.022  0.00  0.00     0.221 HD
ENDBRANCH   3  32
TORSDOF 6
