REMARK  2 active torsions:
REMARK  status: ('A' for Active; 'I' for Inactive)
REMARK    1  A    between atoms: C_3  and  C_1 
REMARK    2  A    between atoms: C_14  and  C_7 
ROOT
ATOM      1  C   UNL d   1       0.015  -1.276  -0.021  0.00  0.00     0.026 A 
ATOM      2  N   UNL d   1      -1.330   0.546  -0.155  0.00  0.00    -0.259 N 
ATOM      3  HN  UNL d   1      -2.148   1.154  -0.199  1.00  0.00     0.195 HD
ATOM      4  C   UNL d   1      -1.330  -0.796  -0.052  0.00  0.00     0.077 A 
ATOM      5  O   UNL d   1      -0.009   0.940  -0.188  0.00  0.00    -0.241 OA
ATOM      6  C   UNL d   1       0.798  -0.149  -0.100  0.00  0.00     0.085 A 
ATOM      7  C   UNL d   1       2.250   0.106  -0.121  0.00  0.00     0.079 C 
ENDROOT
BRANCH   1   8
ATOM      8  C   UNL d   1       0.502  -2.612   0.058  0.00  0.00     0.034 C 
ATOM      9  C   UNL d   1       0.725  -3.427  -0.986  0.00  0.00     0.045 A 
ATOM     10  C   UNL d   1       0.572  -3.062  -2.440  0.00  0.00     0.257 A 
ATOM     11  C   UNL d   1       1.148  -4.831  -0.936  0.00  0.00     0.006 A 
ATOM     12  N   UNL d   1       0.895  -4.216  -3.132  0.00  0.00    -0.322 N 
ATOM     13  O   UNL d   1       0.261  -1.992  -2.925  0.00  0.00    -0.267 OA
ATOM     14  C   UNL d   1       1.232  -5.252  -2.268  0.00  0.00     0.046 A 
ATOM     15  H   UNL d   1       0.880  -4.264  -4.139  0.00  0.00     0.169 HD
ATOM     16  C   UNL d   1       1.600  -6.532  -2.626  0.00  0.00     0.030 A 
ATOM     17  C   UNL d   1       1.891  -7.425  -1.593  0.00  0.00     0.002 A 
ATOM     18  C   UNL d   1       1.805  -7.021  -0.248  0.00  0.00     0.001 A 
ATOM     19  C   UNL d   1       1.429  -5.714   0.092  0.00  0.00     0.015 A 
ENDBRANCH   1   8
BRANCH   4  20
ATOM     20  C   UNL d   1      -2.592  -1.542   0.021  0.00  0.00    -0.007 A 
ATOM     21  C   UNL d   1      -3.741  -1.059  -0.623  0.00  0.00     0.014 A 
ATOM     22  C   UNL d   1      -4.949  -1.760  -0.552  0.00  0.00     0.001 A 
ATOM     23  C   UNL d   1      -5.023  -2.953   0.162  0.00  0.00     0.000 A 
ATOM     24  C   UNL d   1      -3.894  -3.443   0.812  0.00  0.00     0.001 A 
ATOM     25  C   UNL d   1      -2.689  -2.738   0.748  0.00  0.00     0.014 A 
ENDBRANCH   4  20
TORSDOF 2
