REMARK  6 active torsions:
REMARK  status: ('A' for Active; 'I' for Inactive)
REMARK    1  A    between atoms: C_8  and  C_1 
REMARK    2  A    between atoms: C_14  and  C_3 
REMARK    3  A    between atoms: N_11  and  C_6 
REMARK    4  A    between atoms: C_13  and  C_7 
REMARK    5  A    between atoms: O_19  and  C_13 
REMARK    6  A    between atoms: C_24  and  O_19 
ROOT
ATOM      1  C   UNL d   1      -2.057   0.937   0.077  0.00  0.00     0.102 C 
ATOM      2  C   UNL d   1      -0.059  -0.593   0.138  0.00  0.00     0.060 A 
ATOM      3  C   UNL d   1      -0.876   1.662   0.155  0.00  0.00     0.024 C 
ATOM      4  C   UNL d   1       0.274   0.771   0.131  0.00  0.00     0.064 A 
ATOM      5  S   UNL d   1      -1.765  -0.726   0.343  0.00  0.00    -0.080 SA
ATOM      6  C   UNL d   1       0.937  -1.621   0.045  0.00  0.00     0.067 A 
ATOM      7  C   UNL d   1       2.258  -1.119  -0.075  0.00  0.00     0.082 A 
ATOM      8  N   UNL d   1       1.564   1.200   0.086  0.00  0.00    -0.363 N 
ATOM      9  HN  UNL d   1       1.806   2.189   0.143  1.00  0.00     0.165 HD
ATOM     10  C   UNL d   1       2.500   0.247  -0.036  0.00  0.00     0.108 A 
ENDROOT
BRANCH   3  11
ATOM     11  C   UNL d   1      -0.841   3.136   0.147  0.00  0.00    -0.022 A 
ATOM     12  C   UNL d   1      -1.737   3.891   0.921  0.00  0.00     0.012 A 
ATOM     13  C   UNL d   1      -1.720   5.289   0.883  0.00  0.00     0.001 A 
ATOM     14  C   UNL d   1      -0.774   5.956   0.109  0.00  0.00     0.000 A 
ATOM     15  C   UNL d   1       0.150   5.224  -0.630  0.00  0.00     0.001 A 
ATOM     16  C   UNL d   1       0.111   3.826  -0.619  0.00  0.00     0.012 A 
ENDBRANCH   3  11
BRANCH   1  17
ATOM     17  C   UNL d   1      -3.480   1.349  -0.134  0.00  0.00     0.424 C 
ATOM     18  F   UNL d   1      -3.623   2.592  -0.658  0.00  0.00    -0.166 F 
ATOM     19  F   UNL d   1      -4.128   0.513  -0.991  0.00  0.00    -0.166 F 
ATOM     20  F   UNL d   1      -4.182   1.331   1.030  0.00  0.00    -0.166 F 
ENDBRANCH   1  17
BRANCH   6  21
ATOM     21  N   UNL d   1       0.694  -2.994   0.083  0.00  0.00    -0.379 N 
ATOM     22  C   UNL d   1      -0.509  -3.673  -0.400  0.00  0.00     0.123 C 
ATOM     23  C   UNL d   1      -0.923  -4.551   0.776  0.00  0.00     0.021 C 
ATOM     24  C   UNL d   1       0.423  -5.019   1.299  0.00  0.00     0.021 C 
ATOM     25  C   UNL d   1       1.292  -3.766   1.188  0.00  0.00     0.123 C 
ENDBRANCH   6  21
BRANCH   7  26
ATOM     26  C   UNL d   1       3.420  -1.996  -0.362  0.00  0.00     0.297 C 
ATOM     27  O   UNL d   1       3.403  -2.970  -1.098  0.00  0.00    -0.259 OA
BRANCH  26  28
ATOM     28  O   UNL d   1       4.506  -1.546   0.322  0.00  0.00    -0.318 OA
BRANCH  28  29
ATOM     29  C   UNL d   1       5.697  -2.340   0.183  0.00  0.00     0.174 C 
ATOM     30  C   UNL d   1       6.389  -2.078  -1.143  0.00  0.00     0.034 C 
ENDBRANCH  28  29
ENDBRANCH  26  28
ENDBRANCH   7  26
TORSDOF 6
