REMARK  4 active torsions:
REMARK  status: ('A' for Active; 'I' for Inactive)
REMARK    1  A    between atoms: C_11  and  C_1 
REMARK    2  A    between atoms: C_10  and  N_2 
REMARK    3  A    between atoms: O_16  and  C_11 
REMARK    4  A    between atoms: C_27  and  O_16 
ROOT
ATOM      1  C   UNL d   1       1.528  -0.361   0.658  0.00  0.00     0.112 C 
ATOM      2  N   UNL d   1       1.548  -0.419  -1.491  0.00  0.00    -0.282 N 
ATOM      3  N   UNL d   1       2.205   0.006  -0.383  0.00  0.00    -0.295 N 
ATOM      4  HN  UNL d   1       3.083   0.526  -0.372  1.00  0.00     0.187 HD
ATOM      5  C   UNL d   1       0.222  -1.037   0.411  0.00  0.00     0.106 C 
ATOM      6  C   UNL d   1       0.397  -1.263  -1.163  0.00  0.00     0.157 C 
ATOM      7  C   UNL d   1       0.133  -2.405   0.973  0.00  0.00    -0.034 A 
ATOM      8  C   UNL d   1       0.637  -2.750  -1.248  0.00  0.00    -0.021 A 
ATOM      9  C   UNL d   1       0.430  -3.331  -0.009  0.00  0.00    -0.010 A 
ATOM     10  C   UNL d   1       0.498  -4.684   0.234  0.00  0.00    -0.025 A 
ATOM     11  C   UNL d   1      -0.172  -2.803   2.269  0.00  0.00     0.009 A 
ATOM     12  C   UNL d   1       0.942  -3.554  -2.348  0.00  0.00     0.010 A 
ATOM     13  C   UNL d   1      -0.101  -4.179   2.539  0.00  0.00     0.001 A 
ATOM     14  C   UNL d   1       1.036  -4.939  -2.120  0.00  0.00     0.002 A 
ATOM     15  C   UNL d   1       0.237  -5.113   1.545  0.00  0.00     0.012 A 
ATOM     16  C   UNL d   1       0.821  -5.506  -0.854  0.00  0.00     0.012 A 
ENDROOT
BRANCH   2  17
ATOM     17  C   UNL d   1       2.073  -0.042  -2.720  0.00  0.00     0.053 A 
ATOM     18  C   UNL d   1       1.611  -0.519  -3.947  0.00  0.00     0.055 A 
ATOM     19  C   UNL d   1       2.292  -0.221  -5.136  0.00  0.00     0.036 A 
ATOM     20 CL   UNL d   1       1.780  -0.945  -6.613  0.00  0.00    -0.084 Cl
ATOM     21  C   UNL d   1       3.397   0.627  -5.143  0.00  0.00     0.024 A 
ATOM     22  C   UNL d   1       3.817   1.197  -3.953  0.00  0.00     0.004 A 
ATOM     23  C   UNL d   1       3.163   0.859  -2.767  0.00  0.00     0.031 A 
ENDBRANCH   2  17
BRANCH   1  24
ATOM     24  C   UNL d   1       2.105  -0.107   2.037  0.00  0.00     0.308 C 
ATOM     25  O   UNL d   1       1.933  -0.826   3.000  0.00  0.00    -0.258 OA
BRANCH  24  26
ATOM     26  O   UNL d   1       2.964   0.933   1.938  0.00  0.00    -0.317 OA
BRANCH  26  27
ATOM     27  C   UNL d   1       4.259   0.703   2.505  0.00  0.00     0.175 C 
ATOM     28  C   UNL d   1       5.174   0.170   1.411  0.00  0.00     0.034 C 
ENDBRANCH  26  27
ENDBRANCH  24  26
ENDBRANCH   1  24
TORSDOF 4
