REMARK  5 active torsions:
REMARK  status: ('A' for Active; 'I' for Inactive)
REMARK    1  A    between atoms: C_2  and  C_1 
REMARK       I    between atoms: N_3  and  C_2 
REMARK    2  A    between atoms: C_5  and  N_3 
REMARK    3  A    between atoms: C_6  and  N_3 
REMARK    4  A    between atoms: C_15  and  C_5 
REMARK    5  A    between atoms: C_16  and  C_6 
ROOT
ATOM      1  C   UNL d   1       1.718  -2.737  -0.098  0.00  0.00     0.257 C 
ATOM      2  N   UNL d   1       2.781  -3.582   0.237  0.00  0.00    -0.337 N 
ATOM      3  O   UNL d   1       0.601  -3.185  -0.380  0.00  0.00    -0.267 OA
ENDROOT
BRANCH   2   4
ATOM      4  C   UNL d   1       2.472  -5.010   0.389  0.00  0.00     0.183 C 
BRANCH   4   5
ATOM      5  C   UNL d   1       2.935  -5.726   1.654  0.00  0.00     0.027 A 
ATOM      6  N   UNL d   1       3.515  -5.042   2.674  0.00  0.00    -0.368 N 
ATOM      7  C   UNL d   1       3.845  -5.744   3.784  0.00  0.00     0.088 A 
ATOM      8  HN  UNL d   1       3.695  -4.041   2.606  1.00  0.00     0.165 HD
ATOM      9  C   UNL d   1       3.631  -7.103   3.939  0.00  0.00     0.017 A 
ATOM     10  C   UNL d   1       3.040  -7.796   2.891  0.00  0.00     0.003 A 
ATOM     11  C   UNL d   1       2.689  -7.102   1.736  0.00  0.00     0.027 A 
ENDBRANCH   4   5
ENDBRANCH   2   4
BRANCH   2  12
ATOM     12  C   UNL d   1       4.181  -3.148   0.340  0.00  0.00     0.183 C 
BRANCH  12  13
ATOM     13  C   UNL d   1       5.243  -4.059  -0.248  0.00  0.00     0.027 A 
ATOM     14  N   UNL d   1       5.093  -4.485  -1.529  0.00  0.00    -0.368 N 
ATOM     15  C   UNL d   1       6.097  -5.215  -2.061  0.00  0.00     0.088 A 
ATOM     16  HN  UNL d   1       4.255  -4.263  -2.068  1.00  0.00     0.165 HD
ATOM     17  C   UNL d   1       7.265  -5.531  -1.388  0.00  0.00     0.017 A 
ATOM     18  C   UNL d   1       7.412  -5.082  -0.083  0.00  0.00     0.003 A 
ATOM     19  C   UNL d   1       6.390  -4.338   0.497  0.00  0.00     0.027 A 
ENDBRANCH  12  13
ENDBRANCH   2  12
BRANCH   1  20
ATOM     20  C   UNL d   1       1.844  -1.249  -0.174  0.00  0.00     0.068 A 
ATOM     21  C   UNL d   1       2.469  -0.449   0.800  0.00  0.00     0.117 A 
ATOM     22  C   UNL d   1       2.450   0.953   0.654  0.00  0.00     0.103 A 
ATOM     23  O   UNL d   1       3.073  -1.093   1.847  0.00  0.00    -0.347 OA
ATOM     24  O   UNL d   1       3.085   1.850   1.479  0.00  0.00    -0.348 OA
ATOM     25  C   UNL d   1       1.722   1.549  -0.380  0.00  0.00     0.040 A 
ATOM     26  C   UNL d   1       4.355   1.397   1.943  0.00  0.00     0.178 C 
ATOM     27  C   UNL d   1       4.201   0.568   3.205  0.00  0.00     0.053 C 
ATOM     28  C   UNL d   1       3.049  -0.416   3.097  0.00  0.00     0.178 C 
ATOM     29  C   UNL d   1       1.060   0.762  -1.315  0.00  0.00     0.004 A 
ATOM     30  C   UNL d   1       1.131  -0.626  -1.218  0.00  0.00     0.020 A 
ENDBRANCH   1  20
TORSDOF 5
