REMARK  6 active torsions:
REMARK  status: ('A' for Active; 'I' for Inactive)
REMARK    1  A    between atoms: C_8  and  N_1 
REMARK    2  A    between atoms: S_9  and  C_2 
REMARK    3  A    between atoms: O_25  and  C_3 
REMARK    4  A    between atoms: C_20  and  S_9 
REMARK    5  A    between atoms: C_13  and  C_17 
REMARK    6  A    between atoms: C_17  and  C_20 
ROOT
ATOM      1  N   UNL d   1      -0.202  -1.371  -0.069  0.00  0.00    -0.286 N 
ATOM      2  C   UNL d   1       1.051  -0.822  -0.212  0.00  0.00     0.165 A 
ATOM      3  C   UNL d   1      -1.039  -0.284   0.055  0.00  0.00     0.240 A 
ATOM      4  N   UNL d   1       0.977   0.487  -0.160  0.00  0.00    -0.277 N 
ATOM      5  HN  UNL d   1       1.760   1.137  -0.231  1.00  0.00     0.189 HD
ATOM      6  N   UNL d   1      -0.342   0.826   0.008  0.00  0.00    -0.263 N 
ATOM      7  HN  UNL d   1      -0.714   1.772   0.083  1.00  0.00     0.190 HD
ENDROOT
BRANCH   2   8
ATOM      8  S   UNL d   1       2.509  -1.724  -0.438  0.00  0.00    -0.085 SA
BRANCH   8   9
ATOM      9  C   UNL d   1       3.748  -0.377  -0.454  0.00  0.00     0.166 C 
BRANCH   9  10
ATOM     10  C   UNL d   1       5.144  -0.899  -0.766  0.00  0.00     0.169 C 
ATOM     11  O   UNL d   1       5.402  -2.091  -0.940  0.00  0.00    -0.291 OA
BRANCH  10  12
ATOM     12  C   UNL d   1       6.273   0.086  -0.875  0.00  0.00     0.013 A 
ATOM     13  C   UNL d   1       6.111   1.458  -0.647  0.00  0.00     0.054 A 
ATOM     14  C   UNL d   1       7.202   2.323  -0.792  0.00  0.00     0.103 A 
ATOM     15  O   UNL d   1       6.960   3.659  -0.585  0.00  0.00    -0.346 OA
ATOM     16  C   UNL d   1       8.465   1.827  -1.129  0.00  0.00     0.102 A 
ATOM     17  C   UNL d   1       8.010   4.468  -1.129  0.00  0.00     0.202 C 
ATOM     18  C   UNL d   1       9.371   3.925  -0.727  0.00  0.00     0.202 C 
ATOM     19  O   UNL d   1       9.577   2.615  -1.268  0.00  0.00    -0.346 OA
ATOM     20  C   UNL d   1       8.633   0.466  -1.360  0.00  0.00     0.040 A 
ATOM     21  C   UNL d   1       7.543  -0.400  -1.233  0.00  0.00     0.018 A 
ENDBRANCH  10  12
ENDBRANCH   9  10
ENDBRANCH   8   9
ENDBRANCH   2   8
BRANCH   1  22
ATOM     22  C   UNL d   1      -0.568  -2.772  -0.007  0.00  0.00     0.104 C 
ATOM     23  C   UNL d   1      -1.544  -3.218  -1.127  0.00  0.00     0.065 C 
ATOM     24  C   UNL d   1      -2.413  -4.210  -0.423  0.00  0.00    -0.050 A 
ATOM     25  C   UNL d   1      -3.354  -5.057  -0.990  0.00  0.00     0.007 A 
ATOM     26  C   UNL d   1      -2.206  -4.197   0.958  0.00  0.00    -0.050 A 
ATOM     27  C   UNL d   1      -4.079  -5.909  -0.152  0.00  0.00     0.001 A 
ATOM     28  C   UNL d   1      -3.863  -5.898   1.234  0.00  0.00     0.001 A 
ATOM     29  C   UNL d   1      -2.924  -5.034   1.798  0.00  0.00     0.007 A 
ATOM     30  C   UNL d   1      -1.183  -3.180   1.355  0.00  0.00     0.065 C 
ENDBRANCH   1  22
BRANCH   3  31
ATOM     31  O   UNL d   1      -2.353  -0.295   0.212  0.00  0.00    -0.331 OA
ATOM     32  H   UNL d   1      -2.699  -1.200   0.201  0.00  0.00     0.221 HD
ENDBRANCH   3  31
TORSDOF 6
