REMARK  3 active torsions:
REMARK  status: ('A' for Active; 'I' for Inactive)
REMARK    1  A    between atoms: N_8  and  C_1 
REMARK    2  A    between atoms: C_10  and  C_2 
REMARK       I    between atoms: C_7  and  N_8 
REMARK       I    between atoms: N_9  and  C_7 
REMARK    3  A    between atoms: C_12  and  N_9 
ROOT
ATOM      1  C   UNL d   1      -0.242  -1.294  -0.514  0.00  0.00     0.097 A 
ATOM      2  C   UNL d   1      -1.597  -1.052  -0.409  0.00  0.00     0.137 A 
ATOM      3  O   UNL d   1      -1.857   0.229  -0.782  0.00  0.00    -0.235 OA
ATOM      4  N   UNL d   1      -0.690   0.831  -1.210  0.00  0.00    -0.263 N 
ATOM      5  HN  UNL d   1      -0.581   1.787  -1.549  1.00  0.00     0.194 HD
ATOM      6  C   UNL d   1       0.272  -0.097  -1.089  0.00  0.00     0.058 A 
ATOM      7  C   UNL d   1       1.646   0.241  -1.529  0.00  0.00     0.072 C 
ENDROOT
BRANCH   1   8
ATOM      8  N   UNL d   1       0.356  -2.484  -0.114  0.00  0.00    -0.304 N 
ATOM      9  C   UNL d   1       1.479  -3.007  -0.660  0.00  0.00     0.325 C 
ATOM     10  N   UNL d   1       2.143  -3.982   0.024  0.00  0.00    -0.309 N 
ATOM     11  O   UNL d   1       1.946  -2.662  -1.748  0.00  0.00    -0.247 OA
ATOM     12  H   UNL d   1       2.952  -4.261  -0.520  0.00  0.00     0.170 HD
ATOM     13  H   UNL d   1      -0.259  -3.155   0.316  0.00  0.00     0.171 HD
BRANCH  10  14
ATOM     14  C   UNL d   1       2.180  -4.335   1.390  0.00  0.00     0.036 A 
ATOM     15  C   UNL d   1       1.170  -4.122   2.330  0.00  0.00     0.031 A 
ATOM     16  C   UNL d   1       1.388  -4.410   3.686  0.00  0.00     0.026 A 
ATOM     17  C   UNL d   1       2.616  -4.907   4.109  0.00  0.00     0.034 A 
ATOM     18  C   UNL d   1       3.616  -5.170   3.181  0.00  0.00     0.026 A 
ATOM     19 CL   UNL d   1       2.903  -5.184   5.781  0.00  0.00    -0.084 Cl
ATOM     20  C   UNL d   1       3.387  -4.904   1.827  0.00  0.00     0.031 A 
ENDBRANCH  10  14
ENDBRANCH   1   8
BRANCH   2  21
ATOM     21  C   UNL d   1      -2.756  -1.888  -0.137  0.00  0.00     0.002 A 
ATOM     22  C   UNL d   1      -3.849  -1.423   0.601  0.00  0.00     0.014 A 
ATOM     23  C   UNL d   1      -4.966  -2.241   0.793  0.00  0.00     0.001 A 
ATOM     24  C   UNL d   1      -4.998  -3.527   0.252  0.00  0.00     0.000 A 
ATOM     25  C   UNL d   1      -3.913  -4.001  -0.482  0.00  0.00     0.001 A 
ATOM     26  C   UNL d   1      -2.803  -3.184  -0.677  0.00  0.00     0.014 A 
ENDBRANCH   2  21
TORSDOF 3
