REMARK  3 active torsions:
REMARK  status: ('A' for Active; 'I' for Inactive)
REMARK    1  A    between atoms: C3_5  and  C1_2 
REMARK    2  A    between atoms: C5_8  and  C2_3 
REMARK    3  A    between atoms: O2_11  and  C3_5 
ROOT
ATOM      1  N1  <1> d   1      -1.483  -0.725  -0.334  0.00  0.00     0.117 N 
ATOM      2  C1  <1> d   1      -1.523   0.701   0.129  0.00  0.00     0.328 C 
ATOM      3  C2  <1> d   1      -0.107  -1.108  -0.682  0.00  0.00     0.316 C 
ATOM      4  S1  <1> d   1       1.044   0.099  -0.022  0.00  0.00    -0.126 SA
ATOM      5  C4  <1> d   1      -0.180   1.412   0.030  0.00  0.00     0.123 C 
ATOM      6  H2  <1> d   1      -1.750  -1.302   0.468  0.00  0.00     0.319 HD
ENDROOT
BRANCH   3   7
ATOM      7  C5  <1> d   1       0.005  -1.345  -2.173  0.00  0.00    -0.013 A 
ATOM      8  C8  <1> d   1      -0.179  -0.329  -3.121  0.00  0.00     0.027 A 
ATOM      9  C6  <1> d   1      -0.154  -0.651  -4.470  0.00  0.00     0.088 A 
ATOM     10  N2  <1> d   1       0.047  -1.899  -4.939  0.00  0.00    -0.375 N 
ATOM     11  C7  <1> d   1       0.238  -2.866  -4.020  0.00  0.00     0.088 A 
ATOM     12  H2  <1> d   1       0.055  -2.101  -5.939  1.00  0.00     0.164 HD
ATOM     13  C9  <1> d   1       0.226  -2.644  -2.651  0.00  0.00     0.027 A 
ENDBRANCH   3   7
BRANCH   2  14
ATOM     14  C3  <1> d   1      -2.547   1.464  -0.718  0.00  0.00     0.175 C 
ATOM     15  O1  <1> d   1      -2.818   2.646  -0.578  0.00  0.00    -0.648 OA
BRANCH  14  16
ATOM     16  O2  <1> d   1      -3.111   0.681  -1.672  0.00  0.00    -0.775 OA
ATOM     17  H6  <1> d   1      -2.712  -0.219  -1.582  0.00  0.00     0.167 HD
ENDBRANCH  14  16
ENDBRANCH   2  14
TORSDOF 3
