REMARK  3 active torsions:
REMARK  status: ('A' for Active; 'I' for Inactive)
REMARK    1  A    between atoms: N_15  and  N_3 
REMARK    2  A    between atoms: C_13  and  C_6 
REMARK    3  A    between atoms: C_18  and  C_13 
ROOT
ATOM      1  C   UNL d   1      -1.148   0.746  -0.090  0.00  0.00     0.727 A 
ATOM      2  N   UNL d   1      -1.232  -0.637  -0.011  0.00  0.00    -0.045 N 
ATOM      3  N   UNL d   1      -2.347   1.446  -0.139  0.00  0.00    -0.069 N 
ATOM      4  N   UNL d   1      -2.437  -1.321  -0.002  0.00  0.00    -0.275 N 
ATOM      5  HN  UNL d   1      -2.454  -2.341  -0.037  1.00  0.00     0.188 HD
ATOM      6  C   UNL d   1      -3.544  -0.647   0.053  0.00  0.00     0.101 C 
ATOM      7  C   UNL d   1      -3.566   0.855   0.139  0.00  0.00     0.301 C 
ATOM      8  N   UNL d   1      -0.029   1.404  -0.098  0.00  0.00    -0.187 N 
ATOM      9  HN  UNL d   1      -0.021   2.423  -0.140  1.00  0.00     0.184 HD
ATOM     10  C   UNL d   1      -0.089  -1.438  -0.003  0.00  0.00     0.295 A 
ATOM     11  C   UNL d   1       1.200  -0.717  -0.021  0.00  0.00     0.062 A 
ATOM     12  C   UNL d   1       1.170   0.677  -0.047  0.00  0.00     0.065 A 
ATOM     13  O   UNL d   1      -4.579   1.438   0.507  0.00  0.00    -0.264 OA
ATOM     14  O   UNL d   1      -0.075  -2.668   0.026  0.00  0.00    -0.265 OA
ATOM     15  C   UNL d   1       2.415  -1.415   0.003  0.00  0.00     0.019 A 
ATOM     16  C   UNL d   1       2.378   1.375  -0.028  0.00  0.00     0.031 A 
ATOM     17  C   UNL d   1       3.615  -0.704   0.007  0.00  0.00     0.001 A 
ATOM     18  C   UNL d   1       3.597   0.690  -0.001  0.00  0.00     0.002 A 
ENDROOT
BRANCH   6  19
ATOM     19  C   UNL d   1      -4.883  -1.351  -0.021  0.00  0.00     0.103 C 
BRANCH  19  20
ATOM     20  C   UNL d   1      -5.334  -1.491  -1.455  0.00  0.00    -0.052 A 
ATOM     21  C   UNL d   1      -4.948  -2.609  -2.208  0.00  0.00     0.007 A 
ATOM     22  C   UNL d   1      -5.217  -2.667  -3.576  0.00  0.00     0.001 A 
ATOM     23  C   UNL d   1      -5.888  -1.617  -4.200  0.00  0.00     0.000 A 
ATOM     24  C   UNL d   1      -6.324  -0.527  -3.450  0.00  0.00     0.001 A 
ATOM     25  C   UNL d   1      -6.050  -0.463  -2.083  0.00  0.00     0.007 A 
ENDBRANCH  19  20
ENDBRANCH   6  19
BRANCH   3  26
ATOM     26  N   UNL d   1      -2.311   2.875  -0.276  0.00  0.00    -0.225 NA
ATOM     27  H   UNL d   1      -1.447   3.191   0.173  0.00  0.00     0.144 HD
ATOM     28  H   UNL d   1      -3.092   3.257   0.264  0.00  0.00     0.144 HD
ENDBRANCH   3  26
TORSDOF 3
