REMARK  3 active torsions:
REMARK  status: ('A' for Active; 'I' for Inactive)
REMARK    1  A    between atoms: C_11  and  C_2 
REMARK    2  A    between atoms: C_12  and  C_3 
REMARK    3  A    between atoms: C_16  and  C_11 
ROOT
ATOM      1  C   UNL d   1      -2.474  -0.803   0.474  0.00  0.00     0.231 C 
ATOM      2  C   UNL d   1      -3.941  -2.317   1.119  0.00  0.00     0.095 C 
ATOM      3  C   UNL d   1      -3.705  -1.475  -0.111  0.00  0.00     0.128 C 
ATOM      4  C   UNL d   1      -1.995   0.554  -0.020  0.00  0.00     0.206 C 
ATOM      5  C   UNL d   1      -1.212  -1.662   0.427  0.00  0.00     0.206 C 
ATOM      6  N   UNL d   1      -3.573  -1.736   2.226  0.00  0.00    -0.264 N 
ATOM      7  HN  UNL d   1      -3.788  -2.040   3.176  1.00  0.00     0.194 HD
ATOM      8  O   UNL d   1      -2.820  -0.606   1.849  0.00  0.00    -0.251 OA
ATOM      9  C   UNL d   1      -0.079  -0.791   0.175  0.00  0.00     0.028 A 
ATOM     10  C   UNL d   1      -0.520   0.510  -0.050  0.00  0.00     0.028 A 
ATOM     11  O   UNL d   1      -1.110  -2.868   0.604  0.00  0.00    -0.288 OA
ATOM     12  O   UNL d   1      -2.656   1.522  -0.330  0.00  0.00    -0.288 OA
ATOM     13  C   UNL d   1       1.258  -1.139   0.200  0.00  0.00     0.016 A 
ATOM     14  C   UNL d   1       0.388   1.536  -0.219  0.00  0.00     0.016 A 
ATOM     15  C   UNL d   1       1.752   1.214  -0.172  0.00  0.00     0.001 A 
ATOM     16  C   UNL d   1       2.183  -0.114   0.021  0.00  0.00     0.001 A 
ENDROOT
BRANCH   3  17
ATOM     17  C   UNL d   1      -3.527  -1.876  -1.563  0.00  0.00    -0.044 A 
ATOM     18  C   UNL d   1      -3.823  -0.885  -2.536  0.00  0.00     0.010 A 
ATOM     19  C   UNL d   1      -3.634  -1.094  -3.907  0.00  0.00     0.024 A 
ATOM     20  C   UNL d   1      -3.121  -2.309  -4.339  0.00  0.00     0.034 A 
ATOM     21  C   UNL d   1      -2.785  -3.291  -3.407  0.00  0.00     0.024 A 
ATOM     22 CL   UNL d   1      -2.898  -2.590  -6.023  0.00  0.00    -0.084 Cl
ATOM     23  C   UNL d   1      -2.987  -3.079  -2.025  0.00  0.00     0.010 A 
ENDBRANCH   3  17
BRANCH   2  24
ATOM     24  C   UNL d   1      -4.650  -3.655   1.220  0.00  0.00     0.207 C 
ATOM     25  O   UNL d   1      -5.496  -3.929   0.383  0.00  0.00    -0.285 OA
BRANCH  24  26
ATOM     26  C   UNL d   1      -4.357  -4.566   2.404  0.00  0.00     0.016 A 
ATOM     27  C   UNL d   1      -3.179  -4.466   3.164  0.00  0.00     0.015 A 
ATOM     28  C   UNL d   1      -2.952  -5.293   4.274  0.00  0.00     0.001 A 
ATOM     29  C   UNL d   1      -3.892  -6.254   4.637  0.00  0.00     0.000 A 
ATOM     30  C   UNL d   1      -5.056  -6.381   3.888  0.00  0.00     0.001 A 
ATOM     31  C   UNL d   1      -5.291  -5.544   2.784  0.00  0.00     0.015 A 
ENDBRANCH  24  26
ENDBRANCH   2  24
TORSDOF 3
