REMARK  3 active torsions:
REMARK  status: ('A' for Active; 'I' for Inactive)
REMARK    1  A    between atoms: N_2  and  C_1 
REMARK       I    between atoms: C_3  and  N_2 
REMARK    2  A    between atoms: C_7  and  C_3 
REMARK    3  A    between atoms: N_4  and  C_7 
ROOT
ATOM      1  N   UNL d   1       0.114   2.267   0.332  0.00  0.00    -0.321 N 
ATOM      2  C   UNL d   1       1.166   3.108   0.031  0.00  0.00     0.250 C 
ATOM      3  O   UNL d   1       1.082   4.322  -0.159  0.00  0.00    -0.271 OA
ATOM      4  H   UNL d   1       0.383   1.365   0.719  0.00  0.00     0.169 HD
ENDROOT
BRANCH   1   5
ATOM      5  C   UNL d   1      -1.269   2.555   0.246  0.00  0.00     0.112 A 
ATOM      6  C   UNL d   1      -1.829   3.605  -0.491  0.00  0.00     0.146 A 
ATOM      7  F   UNL d   1      -1.086   4.397  -1.274  0.00  0.00    -0.204 F 
ATOM      8  C   UNL d   1      -3.212   3.813  -0.524  0.00  0.00     0.045 A 
ATOM      9  C   UNL d   1      -4.068   2.961   0.168  0.00  0.00     0.006 A 
ATOM     10  C   UNL d   1      -3.536   1.891   0.882  0.00  0.00     0.045 A 
ATOM     11  C   UNL d   1      -2.152   1.695   0.908  0.00  0.00     0.146 A 
ATOM     12  F   UNL d   1      -1.669   0.653   1.603  0.00  0.00    -0.204 F 
ENDBRANCH   1   5
BRANCH   2  13
ATOM     13  C   UNL d   1       2.549   2.442   0.064  0.00  0.00     0.374 C 
BRANCH  13  14
ATOM     14  N   UNL d   1       2.501   0.966  -0.088  0.00  0.00     0.097 N 
ATOM     15  C   UNL d   1       2.116   0.574  -1.458  0.00  0.00     0.273 C 
ATOM     16  C   UNL d   1       1.940  -0.943  -1.517  0.00  0.00     0.030 C 
ATOM     17  C   UNL d   1       3.209  -1.680  -1.100  0.00  0.00     0.003 C 
ATOM     18  C   UNL d   1       3.797  -1.119   0.192  0.00  0.00     0.030 C 
ATOM     19  C   UNL d   1       3.839   0.409   0.196  0.00  0.00     0.273 C 
ENDBRANCH  13  14
ENDBRANCH   2  13
TORSDOF 3
