REMARK  6 active torsions:
REMARK  status: ('A' for Active; 'I' for Inactive)
REMARK    1  A    between atoms: C_6  and  C_1 
REMARK    2  A    between atoms: C_5  and  C_2 
REMARK    3  A    between atoms: N_18  and  C_6 
REMARK    4  A    between atoms: O_12  and  N_9 
REMARK    5  A    between atoms: C_11  and  O_12 
REMARK    6  A    between atoms: C_14  and  C_11 
ROOT
ATOM      1  C   UNL d   1      -2.685   1.366   0.092  0.00  0.00     0.128 C 
ATOM      2  N   UNL d   1      -3.837   0.817  -0.064  0.00  0.00    -0.244 N 
ATOM      3  HN  UNL d   1      -4.710   1.335  -0.158  1.00  0.00     0.196 HD
ENDROOT
BRANCH   1   4
ATOM      4  C   UNL d   1      -2.619   2.816   0.101  0.00  0.00     0.113 A 
ATOM      5  C   UNL d   1      -3.591   3.709   0.499  0.00  0.00     0.191 A 
ATOM      6  O   UNL d   1      -3.102   4.975   0.272  0.00  0.00    -0.291 OA
ATOM      7  C   UNL d   1      -1.851   4.777  -0.237  0.00  0.00     0.120 A 
ATOM      8  N   UNL d   1      -1.494   3.513  -0.332  0.00  0.00    -0.336 N 
ATOM      9  C   UNL d   1      -1.101   5.997  -0.600  0.00  0.00     0.098 C 
ATOM     10  HN  UNL d   1      -0.601   3.134  -0.649  1.00  0.00     0.168 HD
BRANCH   5  11
ATOM     11  C   UNL d   1      -4.928   3.613   1.117  0.00  0.00     0.441 C 
ATOM     12  F   UNL d   1      -5.335   2.354   1.403  0.00  0.00    -0.164 F 
ATOM     13  F   UNL d   1      -4.957   4.286   2.302  0.00  0.00    -0.164 F 
ATOM     14  F   UNL d   1      -5.888   4.176   0.338  0.00  0.00    -0.164 F 
ENDBRANCH   5  11
ENDBRANCH   1   4
BRANCH   1  15
ATOM     15  N   UNL d   1      -1.453   0.782   0.196  0.00  0.00    -0.285 NA
ATOM     16  H   UNL d   1      -0.688   1.383  -0.105  0.00  0.00     0.125 HD
ATOM     17  H   UNL d   1      -1.409  -0.156  -0.180  0.00  0.00     0.125 HD
ENDBRANCH   1  15
BRANCH   2  18
ATOM     18  O   UNL d   1      -3.746  -0.587  -0.088  0.00  0.00    -0.193 OA
BRANCH  18  19
ATOM     19  C   UNL d   1      -4.819  -1.094  -0.766  0.00  0.00     0.315 C 
ATOM     20  O   UNL d   1      -5.663  -0.481  -1.407  0.00  0.00    -0.257 OA
BRANCH  19  21
ATOM     21  C   UNL d   1      -4.769  -2.572  -0.723  0.00  0.00     0.041 A 
ATOM     22  C   UNL d   1      -5.265  -3.281  -1.825  0.00  0.00     0.017 A 
ATOM     23  C   UNL d   1      -5.231  -4.675  -1.833  0.00  0.00     0.001 A 
ATOM     24  C   UNL d   1      -4.716  -5.364  -0.735  0.00  0.00     0.000 A 
ATOM     25  C   UNL d   1      -4.242  -4.662   0.375  0.00  0.00     0.001 A 
ATOM     26  C   UNL d   1      -4.267  -3.266   0.386  0.00  0.00     0.017 A 
ENDBRANCH  19  21
ENDBRANCH  18  19
ENDBRANCH   2  18
TORSDOF 6
