REMARK  4 active torsions:
REMARK  status: ('A' for Active; 'I' for Inactive)
REMARK    1  A    between atoms: C_5  and  C_1 
REMARK    2  A    between atoms: C_13  and  C_7 
REMARK    3  A    between atoms: O_15  and  C_8 
REMARK    4  A    between atoms: O_17  and  C_14 
ROOT
ATOM      1  C   UNL d   1      -1.610   1.691  -0.172  0.00  0.00     0.024 C 
ATOM      2  N   UNL d   1      -0.483   1.574  -0.814  0.00  0.00    -0.358 N 
ATOM      3  HN  UNL d   1      -0.322   2.131  -1.654  1.00  0.00     0.166 HD
ATOM      4  S   UNL d   1      -1.194  -1.531  -0.507  0.00  0.00    -0.118 SA
ATOM      5  C   UNL d   1      -2.004   0.813   1.003  0.00  0.00     0.078 C 
ATOM      6  C   UNL d   1      -2.369  -0.623   0.591  0.00  0.00     0.091 C 
ATOM      7  C   UNL d   1       0.517   0.690  -0.365  0.00  0.00     0.049 A 
ATOM      8  C   UNL d   1       0.344  -0.693  -0.178  0.00  0.00     0.028 A 
ATOM      9  C   UNL d   1       1.784   1.247  -0.139  0.00  0.00     0.031 A 
ATOM     10  C   UNL d   1       1.432  -1.482   0.224  0.00  0.00     0.021 A 
ATOM     11  C   UNL d   1       2.683  -0.908   0.453  0.00  0.00     0.002 A 
ATOM     12  C   UNL d   1       2.858   0.459   0.272  0.00  0.00     0.002 A 
ENDROOT
BRANCH   1  13
ATOM     13  C   UNL d   1      -2.550   2.759  -0.637  0.00  0.00     0.020 A 
ATOM     14  C   UNL d   1      -2.635   3.082  -1.998  0.00  0.00     0.080 A 
ATOM     15  C   UNL d   1      -3.466   4.111  -2.436  0.00  0.00     0.074 A 
ATOM     16  C   UNL d   1      -4.214   4.852  -1.517  0.00  0.00     0.070 A 
ATOM     17  C   UNL d   1      -4.139   4.533  -0.161  0.00  0.00     0.038 A 
ATOM     18  C   UNL d   1      -3.309   3.494   0.279  0.00  0.00     0.019 A 
BRANCH  14  19
ATOM     19  O   UNL d   1      -1.920   2.418  -2.961  0.00  0.00    -0.360 OA
ATOM     20  H   UNL d   1      -1.214   1.910  -2.500  0.00  0.00     0.217 HD
ENDBRANCH  14  19
BRANCH  16  21
ATOM     21  O   UNL d   1      -4.962   5.861  -2.060  0.00  0.00    -0.356 OA
ATOM     22  C   UNL d   1      -5.644   6.715  -1.150  0.00  0.00     0.210 C 
ENDBRANCH  16  21
ENDBRANCH   1  13
BRANCH   6  23
ATOM     23  C   UNL d   1      -3.781  -0.730   0.023  0.00  0.00    -0.044 A 
ATOM     24  C   UNL d   1      -4.803  -1.319   0.785  0.00  0.00     0.008 A 
ATOM     25  C   UNL d   1      -6.091  -1.464   0.262  0.00  0.00     0.001 A 
ATOM     26  C   UNL d   1      -6.379  -1.011  -1.024  0.00  0.00     0.000 A 
ATOM     27  C   UNL d   1      -5.383  -0.415  -1.788  0.00  0.00     0.001 A 
ATOM     28  C   UNL d   1      -4.093  -0.279  -1.270  0.00  0.00     0.008 A 
ENDBRANCH   6  23
TORSDOF 4
