REMARK  3 active torsions:
REMARK  status: ('A' for Active; 'I' for Inactive)
REMARK    1  A    between atoms: C_2  and  S_1 
REMARK    2  A    between atoms: N_5  and  S_1 
REMARK    3  A    between atoms: C_9  and  N_5 
ROOT
ATOM      1  C   UNL d   1      -0.333  -3.606   0.186  0.00  0.00     0.016 A 
ATOM      2  C   UNL d   1       0.746  -2.690   0.278  0.00  0.00     0.035 A 
ATOM      3  N   UNL d   1      -1.053  -5.835  -0.313  0.00  0.00    -0.300 N 
ATOM      4  HN  UNL d   1      -0.827  -6.794  -0.576  1.00  0.00     0.187 HD
ATOM      5  N   UNL d   1      -2.359  -5.488  -0.085  0.00  0.00    -0.305 N 
ATOM      6  HN  UNL d   1      -3.098  -6.184  -0.184  1.00  0.00     0.186 HD
ATOM      7  C   UNL d   1      -0.068  -4.933  -0.196  0.00  0.00     0.060 A 
ATOM      8  C   UNL d   1      -1.679  -3.266   0.422  0.00  0.00     0.041 A 
ATOM      9  C   UNL d   1      -2.666  -4.227   0.272  0.00  0.00     0.022 A 
ATOM     10  C   UNL d   1       2.052  -3.096  -0.012  0.00  0.00     0.025 A 
ATOM     11  C   UNL d   1       2.299  -4.409  -0.389  0.00  0.00     0.004 A 
ATOM     12  C   UNL d   1       1.240  -5.313  -0.470  0.00  0.00     0.032 A 
ATOM     13  C   UNL d   1      -4.110  -3.892   0.465  0.00  0.00     0.070 C 
ENDROOT
BRANCH   2  14
ATOM     14  N   UNL d   1       0.544  -1.341   0.737  0.00  0.00    -0.179 NA
ATOM     15  H   UNL d   1       1.192  -0.663   0.328  0.00  0.00     0.146 HD
BRANCH  14  16
ATOM     16  S   UNL d   1       0.611  -1.126   2.431  0.00  0.00     0.263 S 
ATOM     17  O   UNL d   1       0.460   0.290   2.684  0.00  0.00    -0.204 OA
ATOM     18  O   UNL d   1      -0.220  -2.113   3.087  0.00  0.00    -0.204 OA
BRANCH  16  19
ATOM     19  C   UNL d   1       2.242  -1.482   2.953  0.00  0.00     0.161 A 
ATOM     20  N   UNL d   1       3.365  -0.938   2.340  0.00  0.00    -0.341 N 
ATOM     21  C   UNL d   1       4.387  -1.437   2.999  0.00  0.00     0.183 A 
ATOM     22  HN  UNL d   1       3.390  -0.292   1.550  1.00  0.00     0.167 HD
ATOM     23  N   UNL d   1       3.981  -2.316   3.964  0.00  0.00    -0.354 N 
ATOM     24  C   UNL d   1       2.618  -2.361   3.949  0.00  0.00     0.134 A 
ATOM     25  C   UNL d   1       4.855  -3.067   4.831  0.00  0.00     0.156 C 
ENDBRANCH  16  19
ENDBRANCH  14  16
ENDBRANCH   2  14
TORSDOF 3
