REMARK  3 active torsions:
REMARK  status: ('A' for Active; 'I' for Inactive)
REMARK    1  A    between atoms: N_3  and  C_1 
REMARK    2  A    between atoms: C_12  and  N_2 
REMARK       I    between atoms: C_7  and  N_3 
REMARK       I    between atoms: N_9  and  C_7 
REMARK    3  A    between atoms: C_13  and  N_9 
ROOT
ATOM      1  N   UNL d   1      -0.771  -2.316  -0.008  0.00  0.00    -0.293 N 
ATOM      2  C   UNL d   1      -1.740  -2.882   0.816  0.00  0.00     0.326 C 
ATOM      3  N   UNL d   1      -2.073  -4.133   0.313  0.00  0.00    -0.309 N 
ATOM      4  O   UNL d   1      -2.164  -2.391   1.849  0.00  0.00    -0.247 OA
ATOM      5  H   UNL d   1      -0.257  -2.958  -0.593  0.00  0.00     0.172 HD
ATOM      6  H   UNL d   1      -1.945  -4.242  -0.684  0.00  0.00     0.170 HD
ENDROOT
BRANCH   1   7
ATOM      7  C   UNL d   1      -0.171  -1.100   0.281  0.00  0.00     0.133 C 
ATOM      8  N   UNL d   1       1.175  -0.812   0.048  0.00  0.00    -0.240 N 
ATOM      9  N   UNL d   1       1.389   0.531   0.067  0.00  0.00    -0.297 N 
ATOM     10  C   UNL d   1       0.260   1.052   0.556  0.00  0.00     0.026 C 
ATOM     11  HN  UNL d   1       2.228   1.032  -0.228  1.00  0.00     0.187 HD
ATOM     12  C   UNL d   1      -0.725   0.064   0.768  0.00  0.00     0.076 C 
ATOM     13  C   UNL d   1       0.140   2.516   0.761  0.00  0.00     0.070 C 
BRANCH   8  14
ATOM     14  C   UNL d   1       2.275  -1.708  -0.141  0.00  0.00     0.058 A 
ATOM     15  C   UNL d   1       2.182  -3.075   0.162  0.00  0.00     0.031 A 
ATOM     16  C   UNL d   1       3.273  -3.924  -0.042  0.00  0.00     0.002 A 
ATOM     17  C   UNL d   1       4.479  -3.411  -0.508  0.00  0.00     0.000 A 
ATOM     18  C   UNL d   1       4.601  -2.047  -0.764  0.00  0.00     0.002 A 
ATOM     19  C   UNL d   1       3.506  -1.197  -0.582  0.00  0.00     0.031 A 
ENDBRANCH   8  14
ENDBRANCH   1   7
BRANCH   3  20
ATOM     20  C   UNL d   1      -2.667  -5.211   0.994  0.00  0.00     0.038 A 
ATOM     21  C   UNL d   1      -2.909  -5.227   2.368  0.00  0.00     0.055 A 
ATOM     22  C   UNL d   1      -3.436  -6.373   2.981  0.00  0.00     0.058 A 
ATOM     23 CL   UNL d   1      -3.698  -6.327   4.690  0.00  0.00    -0.082 Cl
ATOM     24  C   UNL d   1      -3.720  -7.511   2.218  0.00  0.00     0.055 A 
ATOM     25  C   UNL d   1      -3.481  -7.497   0.843  0.00  0.00     0.028 A 
ATOM     26 CL   UNL d   1      -4.351  -8.964   2.906  0.00  0.00    -0.083 Cl
ATOM     27  C   UNL d   1      -2.958  -6.353   0.236  0.00  0.00     0.031 A 
ENDBRANCH   3  20
TORSDOF 3
