REMARK  6 active torsions:
REMARK  status: ('A' for Active; 'I' for Inactive)
REMARK    1  A    between atoms: C_8  and  C_3 
REMARK    2  A    between atoms: C_13  and  N_4 
REMARK    3  A    between atoms: C_12  and  C_5 
REMARK    4  A    between atoms: C_9  and  C_6 
REMARK    5  A    between atoms: O_17  and  C_9 
REMARK    6  A    between atoms: C_24  and  O_17 
ROOT
ATOM      1  C   UNL d   1      -1.620   2.218  -0.970  0.00  0.00     0.120 C 
ATOM      2  C   UNL d   1      -0.959   2.702   0.098  0.00  0.00     0.044 C 
ATOM      3  C   UNL d   1      -1.368   2.653  -2.301  0.00  0.00     0.105 C 
ATOM      4  N   UNL d   1      -1.159   3.018  -3.383  0.00  0.00    -0.191 NA
ENDROOT
BRANCH   1   5
ATOM      5  C   UNL d   1      -2.568   1.109  -0.718  0.00  0.00     0.303 C 
ATOM      6  O   UNL d   1      -2.791   0.637   0.389  0.00  0.00    -0.258 OA
BRANCH   5   7
ATOM      7  O   UNL d   1      -3.056   0.628  -1.889  0.00  0.00    -0.317 OA
BRANCH   7   8
ATOM      8  C   UNL d   1      -3.635  -0.684  -1.837  0.00  0.00     0.174 C 
ATOM      9  C   UNL d   1      -2.530  -1.696  -2.084  0.00  0.00     0.034 C 
ENDBRANCH   7   8
ENDBRANCH   5   7
ENDBRANCH   1   5
BRANCH   2  10
ATOM     10  C   UNL d   1       0.108   3.642   0.055  0.00  0.00     0.012 A 
ATOM     11  C   UNL d   1       1.511   3.421  -0.021  0.00  0.00     0.070 A 
ATOM     12  N   UNL d   1       2.157   4.596  -0.093  0.00  0.00    -0.293 N 
ATOM     13  N   UNL d   1       1.200   5.556   0.005  0.00  0.00    -0.266 N 
ATOM     14  HN  UNL d   1       3.162   4.738  -0.199  1.00  0.00     0.187 HD
ATOM     15  C   UNL d   1      -0.058   5.004   0.082  0.00  0.00     0.130 A 
BRANCH  11  16
ATOM     16  C   UNL d   1       2.251   2.151  -0.049  0.00  0.00    -0.007 A 
ATOM     17  C   UNL d   1       3.454   2.046  -0.766  0.00  0.00     0.015 A 
ATOM     18  C   UNL d   1       4.165   0.841  -0.802  0.00  0.00     0.024 A 
ATOM     19  C   UNL d   1       3.678  -0.272  -0.121  0.00  0.00     0.034 A 
ATOM     20  C   UNL d   1       2.494  -0.186   0.604  0.00  0.00     0.024 A 
ATOM     21 CL   UNL d   1       4.546  -1.756  -0.165  0.00  0.00    -0.084 Cl
ATOM     22  C   UNL d   1       1.788   1.021   0.645  0.00  0.00     0.015 A 
ENDBRANCH  11  16
BRANCH  13  23
ATOM     23  C   UNL d   1       1.544   6.938   0.031  0.00  0.00     0.056 A 
ATOM     24  C   UNL d   1       2.881   7.324  -0.142  0.00  0.00     0.031 A 
ATOM     25  C   UNL d   1       3.232   8.676  -0.111  0.00  0.00     0.002 A 
ATOM     26  C   UNL d   1       2.255   9.648   0.100  0.00  0.00     0.000 A 
ATOM     27  C   UNL d   1       0.925   9.272   0.275  0.00  0.00     0.002 A 
ATOM     28  C   UNL d   1       0.566   7.922   0.238  0.00  0.00     0.031 A 
ENDBRANCH  13  23
ENDBRANCH   2  10
TORSDOF 6
