REMARK  5 active torsions:
REMARK  status: ('A' for Active; 'I' for Inactive)
REMARK    1  A    between atoms: C_4  and  C_1 
REMARK    2  A    between atoms: C_2  and  C_9 
REMARK    3  A    between atoms: C_3  and  C_4 
REMARK    4  A    between atoms: N_12  and  N_5 
REMARK    5  A    between atoms: C_20  and  N_12 
ROOT
ATOM      1  C   UNL d   1       0.886  -0.102  -0.233  0.00  0.00     0.179 C 
ATOM      2  N   UNL d   1       0.177  -0.850   0.566  0.00  0.00    -0.287 N 
ATOM      3  HN  UNL d   1       0.651  -1.450   1.241  1.00  0.00     0.188 HD
ATOM      4  C   UNL d   1       0.203   0.709  -1.207  0.00  0.00     0.123 C 
ATOM      5  N   UNL d   1      -0.418   1.333  -1.970  0.00  0.00    -0.190 NA
ENDROOT
BRANCH   1   6
ATOM      6  C   UNL d   1       2.385  -0.123  -0.156  0.00  0.00     0.221 C 
ATOM      7  O   UNL d   1       2.980   0.037  -1.221  0.00  0.00    -0.284 OA
BRANCH   6   8
ATOM      8  C   UNL d   1       3.117  -0.306   1.102  0.00  0.00     0.024 A 
ATOM      9  C   UNL d   1       2.550  -0.472   2.355  0.00  0.00     0.065 A 
ATOM     10  S   UNL d   1       3.709  -0.646   3.602  0.00  0.00    -0.113 SA
ATOM     11  C   UNL d   1       4.999  -0.496   2.495  0.00  0.00     0.050 A 
ATOM     12  C   UNL d   1       4.552  -0.330   1.204  0.00  0.00     0.023 A 
ENDBRANCH   6   8
ENDBRANCH   1   6
BRANCH   2  13
ATOM     13  N   UNL d   1      -1.184  -0.845   0.518  0.00  0.00    -0.300 N 
ATOM     14  H   UNL d   1      -1.698  -0.386  -0.237  0.00  0.00     0.187 HD
BRANCH  13  15
ATOM     15  C   UNL d   1      -1.826  -2.012   0.989  0.00  0.00     0.049 A 
ATOM     16  C   UNL d   1      -1.268  -2.805   2.002  0.00  0.00     0.047 A 
ATOM     17  C   UNL d   1      -1.899  -3.981   2.438  0.00  0.00     0.050 A 
ATOM     18  C   UNL d   1      -3.109  -4.361   1.841  0.00  0.00     0.016 A 
ATOM     19  C   UNL d   1      -3.680  -3.575   0.841  0.00  0.00     0.003 A 
ATOM     20  C   UNL d   1      -3.047  -2.403   0.428  0.00  0.00     0.031 A 
BRANCH  17  21
ATOM     21  C   UNL d   1      -1.290  -4.830   3.525  0.00  0.00     0.417 C 
ATOM     22  F   UNL d   1      -0.111  -4.346   4.006  0.00  0.00    -0.166 F 
ATOM     23  F   UNL d   1      -2.110  -4.955   4.606  0.00  0.00    -0.166 F 
ATOM     24  F   UNL d   1      -1.028  -6.100   3.108  0.00  0.00    -0.166 F 
ENDBRANCH  17  21
ENDBRANCH  13  15
ENDBRANCH   2  13
TORSDOF 5
