REMARK  4 active torsions:
REMARK  status: ('A' for Active; 'I' for Inactive)
REMARK    1  A    between atoms: C_6  and  N_1 
REMARK    2  A    between atoms: C_4  and  C_8 
REMARK       I    between atoms: N_5  and  C_4 
REMARK    3  A    between atoms: C_18  and  N_5 
REMARK    4  A    between atoms: C_19  and  C_18 
ROOT
ATOM      1  C   UNL d   1      -0.663  -2.370  -0.030  0.00  0.00     0.056 A 
ATOM      2  C   UNL d   1      -1.340  -5.114   0.019  0.00  0.00     0.032 A 
ATOM      3  C   UNL d   1      -1.566  -2.895  -0.964  0.00  0.00     0.032 A 
ATOM      4  C   UNL d   1      -0.101  -3.224   0.928  0.00  0.00     0.032 A 
ATOM      5  C   UNL d   1      -0.437  -4.587   0.951  0.00  0.00     0.019 A 
ATOM      6  C   UNL d   1      -1.897  -4.253  -0.939  0.00  0.00     0.019 A 
ENDROOT
BRANCH   2   7
ATOM      7  C   UNL d   1      -1.728  -6.559  -0.037  0.00  0.00     0.251 C 
ATOM      8  N   UNL d   1      -1.288  -7.391   0.972  0.00  0.00    -0.353 N 
ATOM      9  H   UNL d   1      -0.811  -7.033   1.782  0.00  0.00     0.163 HD
ATOM     10  O   UNL d   1      -2.428  -6.962  -0.962  0.00  0.00    -0.268 OA
BRANCH   8  11
ATOM     11  C   UNL d   1      -1.578  -8.812   0.955  0.00  0.00     0.161 C 
BRANCH  11  12
ATOM     12  C   UNL d   1      -2.690  -9.216   1.890  0.00  0.00    -0.038 A 
ATOM     13  C   UNL d   1      -3.811  -8.410   2.113  0.00  0.00     0.025 A 
ATOM     14  C   UNL d   1      -4.823  -8.882   2.934  0.00  0.00     0.088 A 
ATOM     15  N   UNL d   1      -4.805 -10.091   3.534  0.00  0.00    -0.375 N 
ATOM     16  C   UNL d   1      -3.731 -10.868   3.288  0.00  0.00     0.088 A 
ATOM     17  HN  UNL d   1      -5.564 -10.401   4.141  1.00  0.00     0.164 HD
ATOM     18  C   UNL d   1      -2.666 -10.482   2.486  0.00  0.00     0.025 A 
ENDBRANCH  11  12
ENDBRANCH   8  11
ENDBRANCH   2   7
BRANCH   1  19
ATOM     19  N   UNL d   1      -0.336  -0.985  -0.073  0.00  0.00    -0.268 N 
ATOM     20  N   UNL d   1      -0.921  -0.156  -0.978  0.00  0.00    -0.305 N 
ATOM     21  C   UNL d   1      -0.404   1.047  -0.726  0.00  0.00     0.109 A 
ATOM     22  HN  UNL d   1      -1.605  -0.400  -1.694  1.00  0.00     0.186 HD
ATOM     23  C   UNL d   1       0.523   1.022   0.325  0.00  0.00     0.038 A 
ATOM     24  C   UNL d   1       0.552  -0.293   0.726  0.00  0.00     0.118 A 
ENDBRANCH   1  19
TORSDOF 4
