REMARK  1 active torsions:
REMARK  status: ('A' for Active; 'I' for Inactive)
REMARK       I    between atoms: C_5  and  N_6 
REMARK    1  A    between atoms: N_6  and  C_8 
ROOT
ATOM      1  C   UNL d   1      -0.157  -0.403  -0.014  0.00  0.00     0.016 A 
ATOM      2  C   UNL d   1       0.401   0.868   0.002  0.00  0.00    -0.042 A 
ATOM      3  C   UNL d   1      -1.606  -0.275  -0.025  0.00  0.00     0.160 A 
ATOM      4  C   UNL d   1       0.606  -1.552  -0.015  0.00  0.00     0.018 A 
ATOM      5  C   UNL d   1       1.783   1.014   0.021  0.00  0.00     0.037 A 
ATOM      6  C   UNL d   1       2.597  -0.135   0.024  0.00  0.00     0.035 A 
ATOM      7  C   UNL d   1      -0.639   1.943  -0.014  0.00  0.00     0.047 A 
ATOM      8  C   UNL d   1      -1.979   1.185   0.011  0.00  0.00     0.088 A 
ATOM      9  O   UNL d   1      -2.378  -1.217  -0.049  0.00  0.00    -0.292 OA
ATOM     10  C   UNL d   1       1.997  -1.408   0.004  0.00  0.00     0.030 A 
ENDROOT
BRANCH   6  11
ATOM     11  N   UNL d   1       3.996   0.066   0.047  0.00  0.00    -0.328 N 
ATOM     12  C   UNL d   1       4.982  -0.904   0.056  0.00  0.00     0.218 C 
ATOM     13  O   UNL d   1       4.817  -2.120   0.040  0.00  0.00    -0.274 OA
ATOM     14  C   UNL d   1       6.380  -0.337   0.089  0.00  0.00     0.117 C 
ATOM     15  H   UNL d   1       4.302   1.030   0.061  0.00  0.00     0.169 HD
ENDBRANCH   6  11
TORSDOF 1
