REMARK  5 active torsions:
REMARK  status: ('A' for Active; 'I' for Inactive)
REMARK    1  A    between atoms: N_2  and  S_1 
REMARK    2  A    between atoms: C_6  and  S_1 
REMARK       I    between atoms: C_4  and  N_2 
REMARK    3  A    between atoms: C_3  and  C_5 
REMARK       I    between atoms: N_7  and  C_4 
REMARK    4  A    between atoms: N_10  and  N_7 
REMARK    5  A    between atoms: C_11  and  N_10 
ROOT
ATOM      1  N   UNL d   1       0.655  -0.663  -1.464  0.00  0.00    -0.231 N 
ATOM      2  C   UNL d   1       0.954  -0.039  -2.673  0.00  0.00     0.344 C 
ATOM      3  N   UNL d   1       1.759   1.081  -2.656  0.00  0.00    -0.268 N 
ATOM      4  O   UNL d   1       0.493  -0.527  -3.700  0.00  0.00    -0.245 OA
ATOM      5  H   UNL d   1      -0.072  -1.371  -1.525  0.00  0.00     0.183 HD
ATOM      6  H   UNL d   1       1.857   1.589  -1.779  0.00  0.00     0.186 HD
ENDROOT
BRANCH   1   7
ATOM      7  S   UNL d   1       0.968  -0.152   0.077  0.00  0.00     0.266 S 
ATOM      8  O   UNL d   1      -0.103  -0.654   0.909  0.00  0.00    -0.200 OA
ATOM      9  O   UNL d   1       1.298   1.256   0.028  0.00  0.00    -0.200 OA
BRANCH   7  10
ATOM     10  C   UNL d   1       2.455  -1.026   0.515  0.00  0.00     0.080 A 
ATOM     11  C   UNL d   1       3.699  -0.475   0.179  0.00  0.00     0.027 A 
ATOM     12  C   UNL d   1       4.871  -1.040   0.694  0.00  0.00     0.025 A 
ATOM     13  C   UNL d   1       4.796  -2.142   1.544  0.00  0.00     0.034 A 
ATOM     14  C   UNL d   1       3.561  -2.710   1.859  0.00  0.00     0.025 A 
ATOM     15 CL   UNL d   1       6.234  -2.777   2.245  0.00  0.00    -0.084 Cl
ATOM     16  C   UNL d   1       2.385  -2.152   1.345  0.00  0.00     0.027 A 
ENDBRANCH   7  10
ENDBRANCH   1   7
BRANCH   3  17
ATOM     17  N   UNL d   1       1.918   1.801  -3.868  0.00  0.00    -0.201 NA
ATOM     18  H   UNL d   1       2.196   1.171  -4.631  0.00  0.00     0.153 HD
BRANCH  17  19
ATOM     19  C   UNL d   1       2.683   2.993  -3.780  0.00  0.00     0.042 A 
ATOM     20  C   UNL d   1       3.542   3.413  -4.821  0.00  0.00     0.070 A 
ATOM     21  C   UNL d   1       4.232   4.643  -4.709  0.00  0.00     0.018 A 
ATOM     22  C   UNL d   1       4.055   5.472  -3.607  0.00  0.00     0.001 A 
ATOM     23  C   UNL d   1       3.172   5.093  -2.607  0.00  0.00     0.002 A 
ATOM     24  C   UNL d   1       2.489   3.878  -2.700  0.00  0.00     0.026 A 
BRANCH  20  25
ATOM     25  C   UNL d   1       3.775   2.626  -6.087  0.00  0.00     0.419 C 
ATOM     26  F   UNL d   1       3.140   1.421  -6.126  0.00  0.00    -0.166 F 
ATOM     27  F   UNL d   1       3.368   3.299  -7.200  0.00  0.00    -0.166 F 
ATOM     28  F   UNL d   1       5.095   2.350  -6.288  0.00  0.00    -0.166 F 
ENDBRANCH  20  25
ENDBRANCH  17  19
ENDBRANCH   3  17
TORSDOF 5
