REMARK  4 active torsions:
REMARK  status: ('A' for Active; 'I' for Inactive)
REMARK    1  A    between atoms: C_2  and  C_1 
REMARK    2  A    between atoms: O_4  and  C_1 
REMARK    3  A    between atoms: C_9  and  O_4 
REMARK    4  A    between atoms: C_16  and  C_11 
ROOT
ATOM      1  N   UNL d   1      -6.305  -1.264  -0.985  0.00  0.00    -0.197 NA
ATOM      2  C   UNL d   1      -5.849  -0.214  -0.791  0.00  0.00     0.063 C 
ATOM      3  C   UNL d   1      -5.301   1.132  -0.547  0.00  0.00     0.162 C 
ENDROOT
BRANCH   3   4
ATOM      4  C   UNL d   1      -3.790   1.151  -0.544  0.00  0.00    -0.045 A 
ATOM      5  C   UNL d   1      -3.073   1.304  -1.742  0.00  0.00     0.011 A 
ATOM      6  C   UNL d   1      -1.678   1.222  -1.748  0.00  0.00     0.038 A 
ATOM      7  C   UNL d   1      -0.995   0.978  -0.557  0.00  0.00     0.079 A 
ATOM      8  C   UNL d   1      -1.687   0.894   0.649  0.00  0.00     0.038 A 
ATOM      9  C   UNL d   1      -3.082   0.962   0.652  0.00  0.00     0.011 A 
BRANCH   7  10
ATOM     10  O   UNL d   1       0.404   0.841  -0.656  0.00  0.00    -0.275 OA
BRANCH  10  11
ATOM     11  C   UNL d   1       1.030  -0.150   0.083  0.00  0.00     0.300 C 
ATOM     12  O   UNL d   1       0.529  -0.871   0.934  0.00  0.00    -0.259 OA
BRANCH  11  13
ATOM     13  C   UNL d   1       2.451  -0.281  -0.308  0.00  0.00     0.055 A 
ATOM     14  C   UNL d   1       3.031   0.444  -1.339  0.00  0.00     0.105 A 
ATOM     15  N   UNL d   1       4.322   0.295  -1.732  0.00  0.00    -0.374 N 
ATOM     16  C   UNL d   1       5.064  -0.621  -1.068  0.00  0.00     0.087 A 
ATOM     17  HN  UNL d   1       4.715   0.848  -2.494  1.00  0.00     0.164 HD
ATOM     18  C   UNL d   1       4.579  -1.388  -0.023  0.00  0.00     0.018 A 
ATOM     19  C   UNL d   1       3.252  -1.213   0.361  0.00  0.00     0.020 A 
ENDBRANCH  11  13
ENDBRANCH  10  11
ENDBRANCH   7  10
ENDBRANCH   3   4
TORSDOF 4
