REMARK  1 active torsions:
REMARK  status: ('A' for Active; 'I' for Inactive)
REMARK       I    between atoms: N_4  and  C_1 
REMARK       I    between atoms: N_9  and  C_1 
REMARK    1  A    between atoms: C_5  and  N_4 
ROOT
ATOM      1  C   UNL d   1       2.601   0.601  -4.131  0.00  0.00     0.157 A 
ATOM      2  C   UNL d   1       2.050   0.140  -2.937  0.00  0.00     0.075 A 
ATOM      3  C   UNL d   1       0.970   0.816  -2.362  0.00  0.00     0.039 A 
ATOM      4  C   UNL d   1       2.084   1.724  -4.763  0.00  0.00     0.154 A 
ATOM      5  C   UNL d   1       1.006   2.402  -4.210  0.00  0.00     0.048 A 
ATOM      6  F   UNL d   1       3.641  -0.052  -4.670  0.00  0.00    -0.203 F 
ATOM      7  C   UNL d   1       0.450   1.948  -3.010  0.00  0.00     0.033 A 
ATOM      8  F   UNL d   1       2.619   2.162  -5.910  0.00  0.00    -0.203 F 
ENDROOT
BRANCH   3   9
ATOM      9  N   UNL d   1       0.355   0.428  -1.155  0.00  0.00    -0.314 N 
ATOM     10  C   UNL d   1       0.720  -0.596  -0.324  0.00  0.00     0.296 C 
ATOM     11  O   UNL d   1       1.664  -1.364  -0.435  0.00  0.00    -0.254 OA
ATOM     12  N   UNL d   1      -0.111  -0.699   0.753  0.00  0.00    -0.254 NA
ATOM     13  H   UNL d   1      -1.097  -0.555   0.599  0.00  0.00     0.128 HD
ATOM     14  H   UNL d   1       0.103  -1.507   1.327  0.00  0.00     0.128 HD
ATOM     15  H   UNL d   1      -0.380   1.022  -0.802  0.00  0.00     0.170 HD
ENDBRANCH   3   9
TORSDOF 1
