REMARK  3 active torsions:
REMARK  status: ('A' for Active; 'I' for Inactive)
REMARK    1  A    between atoms: C_8  and  C_1 
REMARK    2  A    between atoms: C_11  and  C_7 
REMARK    3  A    between atoms: N_9  and  C_10 
ROOT
ATOM      1  C   UNL d   1      -1.674   5.155   0.045  0.00  0.00     0.044 A 
ATOM      2  C   UNL d   1      -0.737   2.476   0.015  0.00  0.00     0.017 A 
ATOM      3  C   UNL d   1      -1.996   4.291   1.114  0.00  0.00    -0.034 A 
ATOM      4  C   UNL d   1      -1.505   2.963   1.083  0.00  0.00     0.025 A 
ATOM      5  C   UNL d   1      -0.921   4.660  -1.034  0.00  0.00     0.031 A 
ATOM      6  C   UNL d   1      -0.458   3.341  -1.045  0.00  0.00     0.018 A 
ATOM      7  C   UNL d   1      -2.895   4.650   2.268  0.00  0.00     0.050 C 
ENDROOT
BRANCH   2   8
ATOM      8  C   UNL d   1      -0.237   1.107  -0.024  0.00  0.00     0.174 A 
ATOM      9  O   UNL d   1      -0.546   0.283   1.028  0.00  0.00    -0.269 OA
ATOM     10  C   UNL d   1       0.070  -0.893   0.663  0.00  0.00     0.249 A 
ATOM     11  N   UNL d   1       0.692  -0.792  -0.498  0.00  0.00    -0.274 N 
ATOM     12  N   UNL d   1       0.491   0.500  -0.939  0.00  0.00    -0.277 N 
ATOM     13  HN  UNL d   1       1.218  -1.524  -0.974  1.00  0.00     0.189 HD
ATOM     14  HN  UNL d   1       0.839   0.907  -1.807  1.00  0.00     0.189 HD
BRANCH  10  15
ATOM     15  C   UNL d   1      -0.045  -2.057   1.580  0.00  0.00     0.457 C 
ATOM     16  F   UNL d   1      -0.755  -1.768   2.705  0.00  0.00    -0.163 F 
ATOM     17  F   UNL d   1      -0.672  -3.113   0.996  0.00  0.00    -0.163 F 
ATOM     18  F   UNL d   1       1.167  -2.507   2.000  0.00  0.00    -0.163 F 
ENDBRANCH  10  15
ENDBRANCH   2   8
BRANCH   1  19
ATOM     19  N   UNL d   1      -2.078   6.529  -0.006  0.00  0.00    -0.332 N 
ATOM     20  C   UNL d   1      -2.250   7.398   1.053  0.00  0.00     0.096 A 
ATOM     21  C   UNL d   1      -2.657   8.626   0.579  0.00  0.00     0.019 A 
ATOM     22  C   UNL d   1      -2.701   8.536  -0.825  0.00  0.00     0.019 A 
ATOM     23  C   UNL d   1      -2.317   7.256  -1.161  0.00  0.00     0.096 A 
ENDBRANCH   1  19
TORSDOF 3
