REMARK  6 active torsions:
REMARK  status: ('A' for Active; 'I' for Inactive)
REMARK    1  A    between atoms: N_12  and  N_5 
REMARK    2  A    between atoms: C_15  and  N_7 
REMARK       I    between atoms: C_13  and  N_12 
REMARK    3  A    between atoms: C_17  and  C_13 
REMARK    4  A    between atoms: N_18  and  C_17 
REMARK    5  A    between atoms: C_22  and  N_18 
REMARK    6  A    between atoms: C_23  and  N_18 
ROOT
ATOM      1  C   UNL d   1       0.202  -0.651  -0.104  0.00  0.00     0.147 A 
ATOM      2  C   UNL d   1       0.236   0.704   0.155  0.00  0.00     0.149 A 
ATOM      3  N   UNL d   1      -0.902  -1.432  -0.230  0.00  0.00    -0.328 N 
ATOM      4  HN  UNL d   1      -0.852  -2.431  -0.431  1.00  0.00     0.169 HD
ATOM      5  N   UNL d   1      -2.138   0.572   0.190  0.00  0.00    -0.203 N 
ATOM      6  C   UNL d   1      -1.019   1.419   0.348  0.00  0.00     0.298 A 
ATOM      7  N   UNL d   1       1.520  -1.074  -0.019  0.00  0.00    -0.292 N 
ATOM      8  N   UNL d   1       1.518   1.157   0.310  0.00  0.00    -0.344 N 
ATOM      9  HN  UNL d   1       1.827   2.115   0.477  1.00  0.00     0.167 HD
ATOM     10  C   UNL d   1      -2.032  -0.797  -0.071  0.00  0.00     0.104 A 
ATOM     11  C   UNL d   1       2.261   0.076   0.195  0.00  0.00     0.191 A 
ATOM     12  O   UNL d   1      -1.082   2.595   0.696  0.00  0.00    -0.263 OA
ATOM     13  C   UNL d   1      -3.294  -1.627  -0.147  0.00  0.00     0.091 C 
ENDROOT
BRANCH   5  14
ATOM     14  N   UNL d   1      -3.413   1.143   0.421  0.00  0.00    -0.258 N 
ATOM     15  C   UNL d   1      -3.896   2.073  -0.484  0.00  0.00     0.265 C 
ATOM     16  O   UNL d   1      -3.398   2.263  -1.592  0.00  0.00    -0.270 OA
ATOM     17  H   UNL d   1      -3.696   1.269   1.390  0.00  0.00     0.190 HD
BRANCH  15  18
ATOM     18  C   UNL d   1      -5.207   2.742  -0.053  0.00  0.00     0.376 C 
BRANCH  18  19
ATOM     19  N   UNL d   1      -5.354   2.880   1.422  0.00  0.00     0.096 N 
BRANCH  19  20
ATOM     20  C   UNL d   1      -4.386   3.849   1.996  0.00  0.00     0.268 C 
ATOM     21  C   UNL d   1      -4.522   5.314   1.579  0.00  0.00     0.037 C 
ENDBRANCH  19  20
BRANCH  19  22
ATOM     22  C   UNL d   1      -6.734   3.287   1.776  0.00  0.00     0.268 C 
ATOM     23  C   UNL d   1      -7.798   2.228   1.501  0.00  0.00     0.037 C 
ENDBRANCH  19  22
ENDBRANCH  18  19
ENDBRANCH  15  18
ENDBRANCH   5  14
BRANCH   7  24
ATOM     24  C   UNL d   1       2.025  -2.405  -0.044  0.00  0.00     0.042 A 
ATOM     25  C   UNL d   1       1.337  -3.421  -0.719  0.00  0.00     0.030 A 
ATOM     26  C   UNL d   1       1.815  -4.734  -0.686  0.00  0.00     0.002 A 
ATOM     27  C   UNL d   1       2.966  -5.044   0.035  0.00  0.00     0.000 A 
ATOM     28  C   UNL d   1       3.657  -4.038   0.706  0.00  0.00     0.002 A 
ATOM     29  C   UNL d   1       3.201  -2.718   0.655  0.00  0.00     0.030 A 
ENDBRANCH   7  24
TORSDOF 6
