REMARK  4 active torsions:
REMARK  status: ('A' for Active; 'I' for Inactive)
REMARK    1  A    between atoms: C_6  and  N_1 
REMARK    2  A    between atoms: N_3  and  C_10 
REMARK    3  A    between atoms: C_8  and  C_4 
REMARK    4  A    between atoms: O_15  and  C_8 
ROOT
ATOM      1  N   UNL d   1      -0.068  -1.085   0.009  0.00  0.00    -0.317 N 
ATOM      2  C   UNL d   1       0.735   0.053   0.133  0.00  0.00     0.225 C 
ATOM      3  C   UNL d   1      -1.488   0.752  -0.379  0.00  0.00     0.111 C 
ATOM      4  C   UNL d   1      -1.469  -0.724  -0.023  0.00  0.00     0.148 C 
ATOM      5  C   UNL d   1      -0.161   1.266   0.152  0.00  0.00     0.120 C 
ATOM      6  O   UNL d   1       1.945   0.135   0.284  0.00  0.00    -0.273 OA
ENDROOT
BRANCH   1   7
ATOM      7  C   UNL d   1       0.376  -2.436   0.048  0.00  0.00     0.039 A 
ATOM      8  C   UNL d   1       1.734  -2.769  -0.045  0.00  0.00     0.065 A 
ATOM      9  C   UNL d   1       2.146  -4.109   0.039  0.00  0.00     0.105 A 
ATOM     10  C   UNL d   1       1.213  -5.138   0.201  0.00  0.00     0.036 A 
ATOM     11  C   UNL d   1      -0.139  -4.820   0.271  0.00  0.00     0.005 A 
ATOM     12  C   UNL d   1      -0.550  -3.485   0.193  0.00  0.00     0.030 A 
BRANCH   9  13
ATOM     13  N   UNL d   1       3.576  -4.439  -0.031  0.00  0.00    -0.116 N 
ATOM     14  O   UNL d   1       4.383  -3.509  -0.162  0.00  0.00    -0.532 OA
ATOM     15  O   UNL d   1       3.894  -5.635   0.052  0.00  0.00    -0.532 OA
ENDBRANCH   9  13
ENDBRANCH   1   7
BRANCH   3  16
ATOM     16  C   UNL d   1      -1.614   0.974  -1.871  0.00  0.00     0.145 C 
ATOM     17  O   UNL d   1      -1.690   0.088  -2.705  0.00  0.00    -0.650 OA
BRANCH  16  18
ATOM     18  O   UNL d   1      -1.696   2.280  -2.211  0.00  0.00    -0.776 OA
ATOM     19  H   UNL d   1      -1.656   2.916  -1.472  0.00  0.00     0.167 HD
ENDBRANCH  16  18
ENDBRANCH   3  16
TORSDOF 4
