REMARK  3 active torsions:
REMARK  status: ('A' for Active; 'I' for Inactive)
REMARK       I    between atoms: N_2  and  C_1 
REMARK    1  A    between atoms: C_3  and  C_1 
REMARK    2  A    between atoms: C_4  and  C_9 
REMARK    3  A    between atoms: C_13  and  C_4 
ROOT
ATOM      1  C   UNL d   1       0.975  -0.046  -0.090  0.00  0.00     0.277 C 
ATOM      2  N   UNL d   1       0.225  -0.981  -0.812  0.00  0.00    -0.346 N 
ATOM      3  O   UNL d   1       2.055  -0.362   0.408  0.00  0.00    -0.265 OA
ATOM      4  C   UNL d   1       0.609  -2.389  -0.802  0.00  0.00     0.127 C 
ATOM      5  C   UNL d   1      -0.902  -0.678  -1.685  0.00  0.00     0.127 C 
ATOM      6  C   UNL d   1      -1.877  -2.948  -1.181  0.00  0.00     0.064 C 
ATOM      7  C   UNL d   1      -2.129  -1.430  -1.187  0.00  0.00     0.032 C 
ATOM      8  C   UNL d   1      -0.582  -3.265  -0.393  0.00  0.00     0.032 C 
ENDROOT
BRANCH   6   9
ATOM      9  C   UNL d   1      -1.815  -3.533  -2.599  0.00  0.00     0.163 C 
ATOM     10  O   UNL d   1      -0.778  -4.026  -3.043  0.00  0.00    -0.292 OA
BRANCH   9  11
ATOM     11  C   UNL d   1      -3.023  -3.513  -3.484  0.00  0.00     0.010 A 
ATOM     12  C   UNL d   1      -4.297  -3.144  -3.036  0.00  0.00     0.015 A 
ATOM     13  C   UNL d   1      -5.374  -3.106  -3.927  0.00  0.00     0.001 A 
ATOM     14  C   UNL d   1      -5.194  -3.463  -5.262  0.00  0.00     0.000 A 
ATOM     15  C   UNL d   1      -3.937  -3.859  -5.712  0.00  0.00     0.001 A 
ATOM     16  C   UNL d   1      -2.857  -3.880  -4.828  0.00  0.00     0.015 A 
ENDBRANCH   9  11
ENDBRANCH   6   9
BRANCH   1  17
ATOM     17  C   UNL d   1       0.464   1.309   0.061  0.00  0.00     0.142 A 
ATOM     18  O   UNL d   1      -0.885   1.555   0.117  0.00  0.00    -0.317 OA
ATOM     19  C   UNL d   1      -1.051   2.892   0.270  0.00  0.00     0.143 A 
ATOM     20  C   UNL d   1       0.167   3.520   0.361  0.00  0.00     0.027 A 
ATOM     21  C   UNL d   1       1.142   2.499   0.257  0.00  0.00     0.045 A 
ENDBRANCH   1  17
TORSDOF 3
