REMARK  4 active torsions:
REMARK  status: ('A' for Active; 'I' for Inactive)
REMARK       I    between atoms: C_10  and  N_1 
REMARK    1  A    between atoms: C_7  and  C_2 
REMARK    2  A    between atoms: C_11  and  C_6 
REMARK    3  A    between atoms: N_8  and  C_9 
REMARK    4  A    between atoms: N_17  and  C_16 
ROOT
ATOM      1  N   UNL d   1       0.771   0.924  -0.051  0.00  0.00    -0.225 N 
ATOM      2  C   UNL d   1       0.151  -1.071   0.002  0.00  0.00     0.172 A 
ATOM      3  N   UNL d   1       1.228  -0.361  -0.056  0.00  0.00    -0.272 N 
ATOM      4  HN  UNL d   1       2.194  -0.685  -0.096  1.00  0.00     0.189 HD
ATOM      5  O   UNL d   1      -1.041  -0.419   0.054  0.00  0.00    -0.302 OA
ATOM      6  C   UNL d   1      -0.677   0.966   0.011  0.00  0.00     0.289 A 
ATOM      7  C   UNL d   1       1.579   2.029   0.077  0.00  0.00     0.236 C 
ATOM      8  O   UNL d   1       1.132   3.170   0.197  0.00  0.00    -0.272 OA
ATOM      9  C   UNL d   1       3.069   1.786   0.076  0.00  0.00     0.119 C 
ENDROOT
BRANCH   2  10
ATOM     10  C   UNL d   1       0.064  -2.536   0.031  0.00  0.00     0.050 A 
ATOM     11  C   UNL d   1       1.070  -3.340   0.576  0.00  0.00     0.117 A 
ATOM     12  C   UNL d   1       0.982  -4.739   0.558  0.00  0.00     0.037 A 
ATOM     13  C   UNL d   1      -0.131  -5.345  -0.025  0.00  0.00     0.009 A 
ATOM     14  C   UNL d   1      -1.147  -4.563  -0.592  0.00  0.00    -0.061 A 
ATOM     15  C   UNL d   1      -1.044  -3.162  -0.560  0.00  0.00     0.025 A 
ATOM     16  C   UNL d   1      -2.334  -5.233  -1.222  0.00  0.00     0.048 C 
BRANCH  11  17
ATOM     17  N   UNL d   1       2.216  -2.760   1.242  0.00  0.00    -0.115 N 
ATOM     18  O   UNL d   1       1.995  -2.115   2.278  0.00  0.00    -0.532 OA
ATOM     19  O   UNL d   1       3.329  -3.027   0.776  0.00  0.00    -0.532 OA
ENDBRANCH  11  17
ENDBRANCH   2  10
BRANCH   6  20
ATOM     20  C   UNL d   1      -1.365   1.613  -1.174  0.00  0.00    -0.008 A 
ATOM     21  C   UNL d   1      -2.628   2.199  -1.027  0.00  0.00     0.014 A 
ATOM     22  C   UNL d   1      -3.286   2.793  -2.122  0.00  0.00     0.030 A 
ATOM     23  C   UNL d   1      -2.724   2.827  -3.406  0.00  0.00     0.029 A 
ATOM     24  C   UNL d   1      -1.454   2.241  -3.526  0.00  0.00     0.030 A 
ATOM     25  C   UNL d   1      -0.792   1.634  -2.448  0.00  0.00     0.014 A 
BRANCH  23  26
ATOM     26  N   UNL d   1      -3.342   3.433  -4.491  0.00  0.00    -0.390 N 
ATOM     27  C   UNL d   1      -3.144   2.924  -5.847  0.00  0.00     0.149 C 
ATOM     28  C   UNL d   1      -4.471   4.345  -4.343  0.00  0.00     0.149 C 
ENDBRANCH  23  26
ENDBRANCH   6  20
TORSDOF 4
