REMARK  4 active torsions:
REMARK  status: ('A' for Active; 'I' for Inactive)
REMARK    1  A    between atoms: N_2  and  C_1 
REMARK    2  A    between atoms: N_6  and  C_1 
REMARK    3  A    between atoms: C_4  and  N_2 
REMARK    4  A    between atoms: N_8  and  N_6 
ROOT
ATOM      1  N   UNL d   1       0.625  -0.999  -0.988  0.00  0.00    -0.332 N 
ATOM      2  H   UNL d   1      -0.357  -0.872  -1.207  0.00  0.00     0.168 HD
ENDROOT
BRANCH   1   3
ATOM      3  C   UNL d   1       1.101  -0.114  -0.065  0.00  0.00     0.186 C 
ATOM      4  S   UNL d   1       0.035   0.732   0.900  0.00  0.00    -0.040 SA
BRANCH   3   5
ATOM      5  N   UNL d   1       2.445   0.164   0.000  0.00  0.00    -0.300 N 
ATOM      6  H   UNL d   1       2.668   0.902   0.670  0.00  0.00     0.183 HD
BRANCH   5   7
ATOM      7  N   UNL d   1       3.257   0.138  -1.166  0.00  0.00    -0.248 NA
ATOM      8  H   UNL d   1       2.653  -0.039  -1.975  0.00  0.00     0.143 HD
ATOM      9  H   UNL d   1       3.871  -0.677  -1.109  0.00  0.00     0.143 HD
ENDBRANCH   5   7
ENDBRANCH   3   5
ENDBRANCH   1   3
BRANCH   1  10
ATOM     10  C   UNL d   1       1.207  -2.191  -1.467  0.00  0.00     0.035 A 
ATOM     11  C   UNL d   1       2.255  -2.843  -0.813  0.00  0.00     0.053 A 
ATOM     12  C   UNL d   1       2.784  -4.018  -1.347  0.00  0.00     0.036 A 
ATOM     13 CL   UNL d   1       4.077  -4.815  -0.538  0.00  0.00    -0.084 Cl
ATOM     14  C   UNL d   1       2.275  -4.551  -2.528  0.00  0.00     0.024 A 
ATOM     15  C   UNL d   1       1.209  -3.921  -3.166  0.00  0.00     0.004 A 
ATOM     16  C   UNL d   1       0.664  -2.753  -2.627  0.00  0.00     0.029 A 
ENDBRANCH   1  10
TORSDOF 4
