REMARK  1 active torsions:
REMARK  status: ('A' for Active; 'I' for Inactive)
REMARK    1  A    between atoms: C_5  and  C_1 
ROOT
ATOM      1  N   UNL d   1      -4.561  -1.323   1.006  0.00  0.00    -0.352 N 
ATOM      2  HN  UNL d   1      -3.912  -1.572   1.753  1.00  0.00     0.166 HD
ATOM      3  C   UNL d   1      -4.202  -0.472   0.011  0.00  0.00     0.065 A 
ATOM      4  C   UNL d   1      -5.813  -1.823   0.965  0.00  0.00     0.062 A 
ATOM      5  N   UNL d   1      -6.345  -0.662  -1.078  0.00  0.00    -0.362 N 
ATOM      6  HN  UNL d   1      -6.980  -0.422  -1.839  1.00  0.00     0.165 HD
ATOM      7  C   UNL d   1      -6.241  -2.678   1.970  0.00  0.00     0.074 A 
ATOM      8  C   UNL d   1      -6.709  -1.491  -0.086  0.00  0.00     0.059 A 
ATOM      9  C   UNL d   1      -5.087  -0.161  -1.011  0.00  0.00     0.119 A 
ATOM     10  C   UNL d   1      -7.527  -3.206   1.948  0.00  0.00     0.118 A 
ATOM     11  C   UNL d   1      -7.988  -2.034  -0.089  0.00  0.00     0.035 A 
ATOM     12  C   UNL d   1      -8.407  -2.893   0.925  0.00  0.00     0.044 A 
ATOM     13  F   UNL d   1      -7.920  -4.027   2.929  0.00  0.00    -0.206 F 
ENDROOT
BRANCH   3  14
ATOM     14  C   UNL d   1      -2.833   0.047   0.105  0.00  0.00     0.034 A 
ATOM     15  S   UNL d   1      -2.409   1.571  -0.575  0.00  0.00    -0.081 SA
ATOM     16  C   UNL d   1      -0.805   1.431  -0.057  0.00  0.00     0.052 A 
ATOM     17 BR   UNL d   1       0.493   2.741  -0.385  0.00  0.00    -0.043 Br
ATOM     18  C   UNL d   1      -0.555   0.269   0.625  0.00  0.00     0.028 A 
ATOM     19  C   UNL d   1      -1.735  -0.527   0.729  0.00  0.00     0.023 A 
ENDBRANCH   3  14
TORSDOF 1
