REMARK  7 active torsions:
REMARK  status: ('A' for Active; 'I' for Inactive)
REMARK    1  A    between atoms: C_5  and  C_1 
REMARK       I    between atoms: C_2  and  N_17 
REMARK       I    between atoms: N_13  and  C_2 
REMARK    2  A    between atoms: N_3  and  C_7 
REMARK    3  A    between atoms: C_8  and  N_4 
REMARK    4  A    between atoms: C_6  and  O_14 
REMARK    5  A    between atoms: C_15  and  N_13 
REMARK    6  A    between atoms: O_14  and  C_16 
REMARK    7  A    between atoms: N_17  and  C_34 
ROOT
ATOM      1  C   UNL d   1      -0.550  -8.892  -3.273  0.00  0.00     0.103 A 
ATOM      2  N   UNL d   1       0.042  -9.658  -4.222  0.00  0.00    -0.350 N 
ATOM      3  HN  UNL d   1       0.831  -9.296  -4.757  1.00  0.00     0.166 HD
ATOM      4  C   UNL d   1      -1.581  -9.440  -2.520  0.00  0.00     0.051 A 
ATOM      5  C   UNL d   1      -0.429 -10.917  -4.455  0.00  0.00     0.119 A 
ATOM      6  C   UNL d   1      -1.503 -11.491  -3.791  0.00  0.00     0.051 A 
ATOM      7  C   UNL d   1      -2.045 -10.730  -2.769  0.00  0.00     0.035 A 
ENDROOT
BRANCH   1   8
ATOM      8  N   UNL d   1      -0.084  -7.617  -3.045  0.00  0.00    -0.364 N 
ATOM      9  C   UNL d   1      -0.705  -6.643  -2.137  0.00  0.00     0.144 C 
ATOM     10  C   UNL d   1       0.376  -5.894  -1.321  0.00  0.00     0.144 C 
ATOM     11  N   UNL d   1       1.460  -5.367  -2.164  0.00  0.00    -0.364 N 
ATOM     12  C   UNL d   1       1.979  -6.284  -3.197  0.00  0.00     0.144 C 
ATOM     13  C   UNL d   1       0.860  -6.992  -3.988  0.00  0.00     0.144 C 
BRANCH  11  14
ATOM     14  C   UNL d   1       1.594  -4.002  -2.335  0.00  0.00     0.103 A 
ATOM     15  C   UNL d   1       1.565  -3.148  -1.233  0.00  0.00     0.049 A 
ATOM     16  C   UNL d   1       1.776  -1.781  -1.389  0.00  0.00     0.021 A 
ATOM     17  C   UNL d   1       2.007  -1.264  -2.664  0.00  0.00     0.063 A 
ATOM     18  C   UNL d   1       2.014  -2.171  -3.711  0.00  0.00     0.106 A 
ATOM     19  N   UNL d   1       1.822  -3.506  -3.572  0.00  0.00    -0.352 N 
ATOM     20  HN  UNL d   1       1.850  -4.124  -4.384  1.00  0.00     0.166 HD
BRANCH  17  21
ATOM     21  C   UNL d   1       2.260   0.189  -2.885  0.00  0.00     0.418 C 
ATOM     22  F   UNL d   1       2.446   0.522  -4.193  0.00  0.00    -0.166 F 
ATOM     23  F   UNL d   1       3.368   0.635  -2.229  0.00  0.00    -0.166 F 
ATOM     24  F   UNL d   1       1.232   0.969  -2.447  0.00  0.00    -0.166 F 
ENDBRANCH  17  21
ENDBRANCH  11  14
ENDBRANCH   1   8
BRANCH   6  25
ATOM     25  N   UNL d   1      -2.016 -12.759  -4.170  0.00  0.00    -0.307 N 
ATOM     26  C   UNL d   1      -3.280 -13.206  -3.818  0.00  0.00     0.325 C 
ATOM     27  N   UNL d   1      -3.608 -14.429  -4.383  0.00  0.00    -0.306 N 
ATOM     28  O   UNL d   1      -4.068 -12.569  -3.121  0.00  0.00    -0.247 OA
ATOM     29  H   UNL d   1      -3.101 -14.681  -5.214  0.00  0.00     0.171 HD
ATOM     30  H   UNL d   1      -1.507 -13.275  -4.872  0.00  0.00     0.170 HD
BRANCH  27  31
ATOM     31  C   UNL d   1      -4.894 -15.000  -4.168  0.00  0.00     0.070 A 
ATOM     32  C   UNL d   1      -5.687 -15.543  -5.192  0.00  0.00     0.105 A 
ATOM     33  C   UNL d   1      -7.019 -15.896  -4.896  0.00  0.00     0.039 A 
ATOM     34  C   UNL d   1      -7.547 -15.784  -3.611  0.00  0.00     0.003 A 
ATOM     35  C   UNL d   1      -6.740 -15.332  -2.583  0.00  0.00     0.002 A 
ATOM     36  C   UNL d   1      -5.428 -14.952  -2.861  0.00  0.00     0.032 A 
BRANCH  32  37
ATOM     37  O   UNL d   1      -5.433 -15.690  -6.522  0.00  0.00    -0.253 OA
BRANCH  37  38
ATOM     38  C   UNL d   1      -4.130 -15.846  -7.029  0.00  0.00     0.530 C 
ATOM     39  F   UNL d   1      -3.238 -16.266  -6.106  0.00  0.00    -0.144 F 
ATOM     40  F   UNL d   1      -4.153 -16.752  -8.029  0.00  0.00    -0.144 F 
ATOM     41  F   UNL d   1      -3.693 -14.669  -7.527  0.00  0.00    -0.144 F 
ENDBRANCH  37  38
ENDBRANCH  32  37
ENDBRANCH  27  31
ENDBRANCH   6  25
TORSDOF 7
