REMARK  4 active torsions:
REMARK  status: ('A' for Active; 'I' for Inactive)
REMARK    1  A    between atoms: C_7  and  N_1 
REMARK    2  A    between atoms: C_10  and  C_4 
REMARK    3  A    between atoms: C_11  and  C_12 
REMARK    4  A    between atoms: O_20  and  C_14 
ROOT
ATOM      1  N   UNL d   1      -0.214  -1.247   0.205  0.00  0.00    -0.180 N 
ATOM      2  N   UNL d   1       1.052  -0.784   0.459  0.00  0.00    -0.266 N 
ATOM      3  HN  UNL d   1       1.854  -1.292   0.832  1.00  0.00     0.190 HD
ATOM      4  C   UNL d   1       0.975   0.458   0.107  0.00  0.00     0.181 A 
ATOM      5  C   UNL d   1      -1.026  -0.244  -0.279  0.00  0.00     0.394 A 
ATOM      6  O   UNL d   1      -0.241   0.881  -0.313  0.00  0.00    -0.240 OA
ATOM      7  O   UNL d   1      -2.195  -0.248  -0.622  0.00  0.00    -0.236 OA
ENDROOT
BRANCH   1   8
ATOM      8  C   UNL d   1      -0.458  -2.632   0.188  0.00  0.00     0.133 A 
ATOM      9  N   UNL d   1      -1.528  -3.118  -0.481  0.00  0.00    -0.337 N 
ATOM     10  C   UNL d   1      -1.662  -4.470  -0.618  0.00  0.00     0.118 A 
ATOM     11  HN  UNL d   1      -2.224  -2.485  -0.876  1.00  0.00     0.167 HD
ATOM     12  C   UNL d   1      -0.756  -5.363  -0.044  0.00  0.00     0.034 A 
ATOM     13  C   UNL d   1       0.315  -4.861   0.679  0.00  0.00     0.006 A 
ATOM     14  C   UNL d   1       0.469  -3.483   0.789  0.00  0.00     0.051 A 
BRANCH  10  15
ATOM     15  C   UNL d   1      -2.793  -5.040  -1.465  0.00  0.00     0.432 C 
ATOM     16  F   UNL d   1      -3.623  -4.112  -2.016  0.00  0.00    -0.165 F 
ATOM     17  F   UNL d   1      -2.323  -5.784  -2.511  0.00  0.00    -0.165 F 
ATOM     18  F   UNL d   1      -3.597  -5.888  -0.757  0.00  0.00    -0.165 F 
ENDBRANCH  10  15
ENDBRANCH   1   8
BRANCH   4  19
ATOM     19  C   UNL d   1       2.049   1.456   0.046  0.00  0.00     0.050 A 
ATOM     20  C   UNL d   1       3.373   1.082  -0.255  0.00  0.00     0.082 A 
ATOM     21  C   UNL d   1       4.352   2.078  -0.351  0.00  0.00     0.038 A 
ATOM     22  C   UNL d   1       4.028   3.419  -0.131  0.00  0.00     0.003 A 
ATOM     23  C   UNL d   1       2.722   3.781   0.186  0.00  0.00     0.001 A 
ATOM     24  C   UNL d   1       1.732   2.804   0.272  0.00  0.00     0.018 A 
BRANCH  20  25
ATOM     25  O   UNL d   1       3.624  -0.238  -0.524  0.00  0.00    -0.355 OA
ATOM     26  C   UNL d   1       4.963  -0.688  -0.345  0.00  0.00     0.210 C 
ENDBRANCH  20  25
ENDBRANCH   4  19
TORSDOF 4
