REMARK  5 active torsions:
REMARK  status: ('A' for Active; 'I' for Inactive)
REMARK    1  A    between atoms: C_2  and  C_1 
REMARK    2  A    between atoms: O_16  and  C_2 
REMARK    3  A    between atoms: N_11  and  C_3 
REMARK    4  A    between atoms: C_14  and  N_11 
REMARK    5  A    between atoms: C_18  and  O_16 
ROOT
ATOM      1  C   UNL d   1       0.945  -0.193   0.131  0.00  0.00     0.135 C 
ATOM      2  C   UNL d   1       0.224   0.938   0.258  0.00  0.00     0.117 C 
ATOM      3  C   UNL d   1       0.330  -1.465   0.018  0.00  0.00     0.107 C 
ATOM      4  N   UNL d   1      -0.217  -2.486  -0.083  0.00  0.00    -0.191 NA
ENDROOT
BRANCH   1   5
ATOM      5  C   UNL d   1       2.417  -0.057   0.027  0.00  0.00     0.305 C 
ATOM      6  O   UNL d   1       3.015   1.008   0.055  0.00  0.00    -0.258 OA
BRANCH   5   7
ATOM      7  O   UNL d   1       2.981  -1.269  -0.206  0.00  0.00    -0.317 OA
BRANCH   7   8
ATOM      8  C   UNL d   1       4.298  -1.240  -0.774  0.00  0.00     0.174 C 
ATOM      9  C   UNL d   1       4.146  -1.171  -2.284  0.00  0.00     0.034 C 
ENDBRANCH   7   8
ENDBRANCH   5   7
ENDBRANCH   1   5
BRANCH   2  10
ATOM     10  N   UNL d   1      -1.140   1.089   0.349  0.00  0.00    -0.364 N 
ATOM     11  H   UNL d   1      -1.707   0.243   0.397  0.00  0.00     0.165 HD
BRANCH  10  12
ATOM     12  C   UNL d   1      -1.862   2.292   0.463  0.00  0.00     0.034 A 
ATOM     13  C   UNL d   1      -3.082   2.274   1.159  0.00  0.00     0.069 A 
ATOM     14  C   UNL d   1      -3.745   3.466   1.360  0.00  0.00     0.107 A 
ATOM     15  O   UNL d   1      -4.913   3.619   2.040  0.00  0.00    -0.323 OA
ATOM     16  C   UNL d   1      -3.255   4.658   0.886  0.00  0.00     0.105 A 
ATOM     17  C   UNL d   1      -5.073   5.052   1.982  0.00  0.00     0.352 A 
ATOM     18  O   UNL d   1      -4.055   5.710   1.198  0.00  0.00    -0.323 OA
ATOM     19  C   UNL d   1      -2.070   4.723   0.191  0.00  0.00     0.042 A 
ATOM     20  C   UNL d   1      -1.365   3.529  -0.006  0.00  0.00     0.032 A 
ENDBRANCH  10  12
ENDBRANCH   2  10
TORSDOF 5
