REMARK  2 active torsions:
REMARK  status: ('A' for Active; 'I' for Inactive)
REMARK       I    between atoms: N_4  and  C_1 
REMARK    1  A    between atoms: C_6  and  C_1 
REMARK       I    between atoms: C_2  and  N_3 
REMARK    2  A    between atoms: C_5  and  C_2 
ROOT
ATOM      1  C   UNL d   1       0.858   0.134  -0.029  0.00  0.00     0.277 C 
ATOM      2  C   UNL d   1      -1.475   4.734  -1.576  0.00  0.00     0.277 C 
ATOM      3  N   UNL d   1      -0.627   3.887  -0.850  0.00  0.00    -0.343 N 
ATOM      4  N   UNL d   1       0.010   1.109  -0.566  0.00  0.00    -0.343 N 
ATOM      5  C   UNL d   1      -1.179   1.665   0.093  0.00  0.00     0.146 C 
ATOM      6  C   UNL d   1       0.573   3.342  -1.504  0.00  0.00     0.146 C 
ATOM      7  C   UNL d   1       0.418   1.837  -1.780  0.00  0.00     0.146 C 
ATOM      8  C   UNL d   1      -1.007   3.169   0.370  0.00  0.00     0.146 C 
ATOM      9  O   UNL d   1       1.982  -0.039  -0.507  0.00  0.00    -0.265 OA
ATOM     10  O   UNL d   1      -1.260   4.956  -2.769  0.00  0.00    -0.265 OA
ENDROOT
BRANCH   2  11
ATOM     11  C   UNL d   1      -2.627   5.324  -0.906  0.00  0.00     0.142 A 
ATOM     12  O   UNL d   1      -2.607   5.587   0.438  0.00  0.00    -0.317 OA
ATOM     13  C   UNL d   1      -3.806   6.127   0.770  0.00  0.00     0.143 A 
ATOM     14  C   UNL d   1      -4.595   6.264  -0.346  0.00  0.00     0.027 A 
ATOM     15  C   UNL d   1      -3.827   5.777  -1.430  0.00  0.00     0.045 A 
ENDBRANCH   2  11
BRANCH   1  16
ATOM     16  C   UNL d   1       0.417  -0.653   1.114  0.00  0.00     0.142 A 
ATOM     17  O   UNL d   1      -0.911  -0.920   1.326  0.00  0.00    -0.317 OA
ATOM     18  C   UNL d   1      -1.006  -1.659   2.459  0.00  0.00     0.143 A 
ATOM     19  C   UNL d   1       0.243  -1.922   2.967  0.00  0.00     0.027 A 
ATOM     20  C   UNL d   1       1.161  -1.302   2.086  0.00  0.00     0.045 A 
ENDBRANCH   1  16
TORSDOF 2
