REMARK  3 active torsions:
REMARK  status: ('A' for Active; 'I' for Inactive)
REMARK       I    between atoms: C_4  and  N_1 
REMARK    1  A    between atoms: C_11  and  C_3 
REMARK    2  A    between atoms: C_9  and  C_4 
REMARK    3  A    between atoms: O_25  and  C_19 
ROOT
ATOM      1  N   UNL d   1      -2.531   0.316  -0.354  0.00  0.00    -0.335 N 
ATOM      2  C   UNL d   1      -0.171   0.785   0.096  0.00  0.00    -0.017 A 
ATOM      3  C   UNL d   1      -1.582   1.338   0.155  0.00  0.00     0.155 C 
ATOM      4  C   UNL d   1      -3.589   0.556  -1.241  0.00  0.00     0.254 C 
ATOM      5  C   UNL d   1       0.109  -0.564  -0.033  0.00  0.00    -0.007 A 
ATOM      6  C   UNL d   1      -2.315  -1.079   0.106  0.00  0.00     0.132 C 
ATOM      7  S   UNL d   1       1.774  -0.911  -0.055  0.00  0.00    -0.106 SA
ATOM      8  C   UNL d   1      -0.920  -1.629  -0.215  0.00  0.00     0.067 C 
ATOM      9  C   UNL d   1       1.047   1.548   0.028  0.00  0.00     0.018 A 
ATOM     10  C   UNL d   1       2.170   0.750  -0.005  0.00  0.00     0.051 A 
ATOM     11  O   UNL d   1      -4.296  -0.361  -1.668  0.00  0.00    -0.267 OA
ENDROOT
BRANCH   3  12
ATOM     12  C   UNL d   1      -1.849   1.775   1.608  0.00  0.00    -0.031 A 
ATOM     13  C   UNL d   1      -1.063   2.775   2.220  0.00  0.00     0.011 A 
ATOM     14  C   UNL d   1      -1.280   3.171   3.544  0.00  0.00     0.024 A 
ATOM     15  C   UNL d   1      -2.309   2.604   4.280  0.00  0.00     0.034 A 
ATOM     16  C   UNL d   1      -3.146   1.664   3.690  0.00  0.00     0.024 A 
ATOM     17 CL   UNL d   1      -2.564   3.078   5.913  0.00  0.00    -0.084 Cl
ATOM     18  C   UNL d   1      -2.926   1.271   2.364  0.00  0.00     0.011 A 
ENDBRANCH   3  12
BRANCH   4  19
ATOM     19  C   UNL d   1      -3.899   1.921  -1.762  0.00  0.00     0.032 A 
ATOM     20  C   UNL d   1      -4.317   2.045  -3.096  0.00  0.00     0.020 A 
ATOM     21  C   UNL d   1      -4.595   3.303  -3.651  0.00  0.00     0.038 A 
ATOM     22  C   UNL d   1      -4.441   4.453  -2.878  0.00  0.00     0.068 A 
ATOM     23  C   UNL d   1      -4.091   4.328  -1.535  0.00  0.00     0.038 A 
ATOM     24  C   UNL d   1      -3.861   3.071  -0.970  0.00  0.00     0.020 A 
BRANCH  22  25
ATOM     25  O   UNL d   1      -4.658   5.735  -3.295  0.00  0.00    -0.356 OA
ATOM     26  C   UNL d   1      -4.489   5.976  -4.687  0.00  0.00     0.210 C 
ENDBRANCH  22  25
ENDBRANCH   4  19
TORSDOF 3
