REMARK  2 active torsions:
REMARK  status: ('A' for Active; 'I' for Inactive)
REMARK    1  A    between atoms: C_8  and  C_2 
REMARK    2  A    between atoms: O_11  and  N_6 
ROOT
ATOM      1  C   UNL d   1       1.297  -1.451  -0.013  0.00  0.00     0.052 A 
ATOM      2  C   UNL d   1       2.453  -0.761   0.005  0.00  0.00    -0.018 A 
ATOM      3  C   UNL d   1      -0.009  -0.740   0.002  0.00  0.00    -0.007 A 
ATOM      4  C   UNL d   1      -0.043   0.669   0.001  0.00  0.00    -0.046 A 
ATOM      5  C   UNL d   1       2.529   0.739   0.043  0.00  0.00     0.046 A 
ATOM      6 CL   UNL d   1       1.272  -3.191  -0.046  0.00  0.00    -0.083 Cl
ATOM      7  C   UNL d   1       1.209   1.500  -0.036  0.00  0.00     0.044 A 
ATOM      8  C   UNL d   1      -1.243  -1.419   0.012  0.00  0.00     0.013 A 
ATOM      9  C   UNL d   1      -1.275   1.351   0.007  0.00  0.00     0.008 A 
ATOM     10  C   UNL d   1      -2.462  -0.732   0.017  0.00  0.00     0.001 A 
ATOM     11  C   UNL d   1      -2.477   0.655   0.015  0.00  0.00     0.001 A 
ENDROOT
BRANCH   2  12
ATOM     12  C   UNL d   1       3.788  -1.436  -0.000  0.00  0.00     0.122 C 
ATOM     13  N   UNL d   1       4.903  -0.774   0.019  0.00  0.00    -0.280 N 
ATOM     14  HN  UNL d   1       4.986   0.242   0.040  1.00  0.00     0.193 HD
BRANCH  13  15
ATOM     15  O   UNL d   1       5.974  -1.675   0.005  0.00  0.00    -0.290 OA
ATOM     16  H   UNL d   1       6.747  -1.079   0.016  0.00  0.00     0.244 HD
ENDBRANCH  13  15
ENDBRANCH   2  12
TORSDOF 2
