REMARK  2 active torsions:
REMARK  status: ('A' for Active; 'I' for Inactive)
REMARK    1  A    between atoms: C_6  and  C_2 
REMARK    2  A    between atoms: C_16  and  C_8 
ROOT
ATOM      1  N   UNL d   1       4.540  -0.662   0.949  0.00  0.00    -0.318 N 
ATOM      2  HN  UNL d   1       4.449  -0.091   1.789  1.00  0.00     0.169 HD
ATOM      3  C   UNL d   1       3.620  -0.900   0.023  0.00  0.00     0.189 A 
ATOM      4  C   UNL d   1       5.646  -1.359   0.518  0.00  0.00     0.138 A 
ATOM      5  N   UNL d   1       5.449  -2.016  -0.630  0.00  0.00    -0.242 N 
ATOM      6  HN  UNL d   1       6.111  -2.597  -1.144  1.00  0.00     0.196 HD
ATOM      7  O   UNL d   1       4.136  -1.724  -0.958  0.00  0.00    -0.217 OA
ENDROOT
BRANCH   3   8
ATOM      8  C   UNL d   1       2.288  -0.404  -0.003  0.00  0.00     0.101 A 
ATOM      9  C   UNL d   1       1.343  -0.781  -1.085  0.00  0.00     0.265 A 
ATOM     10  N   UNL d   1       0.084  -0.244  -0.971  0.00  0.00    -0.293 N 
ATOM     11  O   UNL d   1       1.665  -1.514  -2.016  0.00  0.00    -0.267 OA
ATOM     12  C   UNL d   1      -0.233   0.610   0.043  0.00  0.00     0.149 A 
ATOM     13  C   UNL d   1      -0.939  -0.497  -1.957  0.00  0.00     0.145 A 
ATOM     14  N   UNL d   1       0.563   0.968   0.990  0.00  0.00    -0.345 N 
ATOM     15  S   UNL d   1      -1.864   1.183  -0.090  0.00  0.00    -0.092 SA
ATOM     16  C   UNL d   1       1.829   0.430   0.943  0.00  0.00     0.111 A 
ATOM     17  HN  UNL d   1       0.274   1.609   1.728  1.00  0.00     0.167 HD
ATOM     18  C   UNL d   1      -2.236   0.178  -1.550  0.00  0.00     0.103 A 
ENDBRANCH   3   8
BRANCH   4  19
ATOM     19  C   UNL d   1       6.910  -1.359   1.246  0.00  0.00     0.010 A 
ATOM     20  C   UNL d   1       7.037  -0.646   2.448  0.00  0.00     0.017 A 
ATOM     21  C   UNL d   1       8.254  -0.626   3.138  0.00  0.00     0.025 A 
ATOM     22  C   UNL d   1       9.350  -1.321   2.632  0.00  0.00     0.034 A 
ATOM     23  C   UNL d   1       9.240  -2.041   1.446  0.00  0.00     0.025 A 
ATOM     24 CL   UNL d   1      10.849  -1.285   3.474  0.00  0.00    -0.084 Cl
ATOM     25  C   UNL d   1       8.024  -2.061   0.756  0.00  0.00     0.017 A 
ENDBRANCH   4  19
TORSDOF 2
