REMARK  1 active torsions:
REMARK  status: ('A' for Active; 'I' for Inactive)
REMARK    1  A    between atoms: C_13  and  N_6 
ROOT
ATOM      1  C   UNL d   1       0.941  -0.888  -0.322  0.00  0.00     0.102 C 
ATOM      2  C   UNL d   1       0.492   0.412  -0.188  0.00  0.00     0.071 C 
ATOM      3  C   UNL d   1       2.277  -1.438  -0.247  0.00  0.00     0.268 C 
ATOM      4  S   UNL d   1      -0.339  -2.010  -0.469  0.00  0.00    -0.064 SA
ATOM      5  C   UNL d   1      -0.969   0.487  -0.236  0.00  0.00     0.032 C 
ATOM      6  N   UNL d   1       3.029  -0.792   0.728  0.00  0.00    -0.304 N 
ATOM      7  C   UNL d   1      -1.500  -0.800  -0.232  0.00  0.00     0.088 C 
ATOM      8  N   UNL d   1       1.294   1.528   0.017  0.00  0.00    -0.324 N 
ATOM      9  N   UNL d   1      -2.787  -1.159  -0.072  0.00  0.00    -0.354 N 
ATOM     10  HN  UNL d   1      -3.088  -2.133  -0.080  1.00  0.00     0.166 HD
ATOM     11  C   UNL d   1      -1.928   1.548  -0.212  0.00  0.00    -0.045 C 
ATOM     12  C   UNL d   1       2.631   1.656   0.245  0.00  0.00     0.240 C 
ATOM     13  C   UNL d   1       3.587   0.473   0.285  0.00  0.00     0.235 C 
ATOM     14  O   UNL d   1       2.672  -2.396  -0.905  0.00  0.00    -0.266 OA
ATOM     15  C   UNL d   1      -3.273   1.188  -0.005  0.00  0.00     0.032 C 
ATOM     16  C   UNL d   1      -3.644  -0.145   0.099  0.00  0.00     0.006 C 
ATOM     17  O   UNL d   1       3.080   2.807   0.314  0.00  0.00    -0.271 OA
ATOM     18  C   UNL d   1      -1.656   3.024  -0.361  0.00  0.00     0.049 C 
ATOM     19  C   UNL d   1      -5.065  -0.500   0.423  0.00  0.00     0.068 C 
ATOM     20  H   UNL d   1       0.834   2.426   0.060  0.00  0.00     0.169 HD
ENDROOT
BRANCH   6  21
ATOM     21  C   UNL d   1       3.686  -1.511   1.778  0.00  0.00     0.039 A 
ATOM     22  C   UNL d   1       3.851  -2.903   1.749  0.00  0.00     0.053 A 
ATOM     23  C   UNL d   1       4.444  -3.573   2.821  0.00  0.00     0.036 A 
ATOM     24 CL   UNL d   1       4.688  -5.276   2.737  0.00  0.00    -0.084 Cl
ATOM     25  C   UNL d   1       4.843  -2.879   3.959  0.00  0.00     0.024 A 
ATOM     26  C   UNL d   1       4.652  -1.502   4.021  0.00  0.00     0.004 A 
ATOM     27  C   UNL d   1       4.085  -0.824   2.936  0.00  0.00     0.030 A 
ENDBRANCH   6  21
TORSDOF 1
