REMARK  4 active torsions:
REMARK  status: ('A' for Active; 'I' for Inactive)
REMARK    1  A    between atoms: C_2  and  C_1 
REMARK    2  A    between atoms: C_4  and  C_2 
REMARK    3  A    between atoms: S_8  and  C_3 
REMARK    4  A    between atoms: C_9  and  S_8 
ROOT
ATOM      1  C   UNL d   1       0.996   0.004  -0.027  0.00  0.00     0.062 C 
ATOM      2  C   UNL d   1       2.314  -0.205  -0.116  0.00  0.00     0.054 C 
ENDROOT
BRANCH   1   3
ATOM      3  C   UNL d   1       0.312  -0.151   1.282  0.00  0.00     0.182 C 
ATOM      4  O   UNL d   1       0.815  -0.779   2.206  0.00  0.00    -0.288 OA
BRANCH   3   5
ATOM      5  C   UNL d   1      -1.039   0.454   1.425  0.00  0.00     0.014 A 
ATOM      6  C   UNL d   1      -1.942  -0.128   2.325  0.00  0.00     0.017 A 
ATOM      7  C   UNL d   1      -3.209   0.432   2.511  0.00  0.00     0.025 A 
ATOM      8  C   UNL d   1      -3.569   1.580   1.807  0.00  0.00     0.034 A 
ATOM      9  C   UNL d   1      -2.676   2.170   0.913  0.00  0.00     0.025 A 
ATOM     10 CL   UNL d   1      -5.119   2.284   2.050  0.00  0.00    -0.084 Cl
ATOM     11  C   UNL d   1      -1.409   1.611   0.723  0.00  0.00     0.017 A 
ENDBRANCH   3   5
ENDBRANCH   1   3
BRANCH   2  12
ATOM     12  S   UNL d   1       3.136  -0.042  -1.634  0.00  0.00    -0.102 SA
BRANCH  12  13
ATOM     13  C   UNL d   1       3.915  -1.646  -1.695  0.00  0.00     0.004 A 
ATOM     14  C   UNL d   1       3.148  -2.818  -1.690  0.00  0.00     0.020 A 
ATOM     15  C   UNL d   1       3.770  -4.068  -1.741  0.00  0.00     0.025 A 
ATOM     16  C   UNL d   1       5.159  -4.146  -1.808  0.00  0.00     0.034 A 
ATOM     17  C   UNL d   1       5.931  -2.986  -1.833  0.00  0.00     0.025 A 
ATOM     18 CL   UNL d   1       5.925  -5.685  -1.860  0.00  0.00    -0.084 Cl
ATOM     19  C   UNL d   1       5.308  -1.735  -1.779  0.00  0.00     0.020 A 
ENDBRANCH  12  13
ENDBRANCH   2  12
TORSDOF 4
