REMARK  5 active torsions:
REMARK  status: ('A' for Active; 'I' for Inactive)
REMARK    1  A    between atoms: C_7  and  C_1 
REMARK    2  A    between atoms: C_11  and  C_5 
REMARK    3  A    between atoms: S_14  and  C_10 
REMARK    4  A    between atoms: C_20  and  S_14 
REMARK    5  A    between atoms: C_25  and  C_20 
ROOT
ATOM      1  C   UNL d   1      -0.305  -2.611  -0.077  0.00  0.00     0.054 A 
ATOM      2  N   UNL d   1       0.299  -3.289   0.920  0.00  0.00    -0.336 N 
ATOM      3  HN  UNL d   1       0.832  -2.807   1.643  1.00  0.00     0.168 HD
ATOM      4  C   UNL d   1       0.170  -4.626   0.924  0.00  0.00     0.144 A 
ATOM      5  N   UNL d   1      -0.509  -5.328   0.003  0.00  0.00    -0.347 N 
ATOM      6  HN  UNL d   1      -0.580  -6.344   0.046  1.00  0.00     0.167 HD
ATOM      7  C   UNL d   1      -1.019  -3.249  -1.072  0.00  0.00     0.048 A 
ATOM      8  C   UNL d   1      -1.091  -4.618  -0.979  0.00  0.00     0.092 A 
ENDROOT
BRANCH   1   9
ATOM      9  C   UNL d   1      -0.148  -1.149  -0.004  0.00  0.00     0.056 A 
ATOM     10  S   UNL d   1      -1.344  -0.099  -0.661  0.00  0.00    -0.068 SA
ATOM     11  C   UNL d   1      -0.456   1.280  -0.151  0.00  0.00     0.085 A 
ATOM     12  N   UNL d   1       0.662   1.000   0.484  0.00  0.00    -0.352 N 
ATOM     13  C   UNL d   1       0.852  -0.376   0.572  0.00  0.00     0.025 A 
ATOM     14  HN  UNL d   1       1.304   1.698   0.860  1.00  0.00     0.166 HD
ATOM     15  C   UNL d   1       2.087  -0.859   1.251  0.00  0.00     0.070 C 
BRANCH  11  16
ATOM     16  C   UNL d   1      -0.966   2.645  -0.376  0.00  0.00    -0.002 A 
ATOM     17  C   UNL d   1      -0.609   3.667   0.522  0.00  0.00     0.016 A 
ATOM     18  C   UNL d   1      -1.086   4.971   0.360  0.00  0.00     0.024 A 
ATOM     19  C   UNL d   1      -1.919   5.274  -0.714  0.00  0.00     0.034 A 
ATOM     20  C   UNL d   1      -2.271   4.285  -1.627  0.00  0.00     0.024 A 
ATOM     21 CL   UNL d   1      -2.515   6.874  -0.915  0.00  0.00    -0.084 Cl
ATOM     22  C   UNL d   1      -1.795   2.979  -1.461  0.00  0.00     0.016 A 
ENDBRANCH  11  16
ENDBRANCH   1   9
BRANCH   4  23
ATOM     23  S   UNL d   1       0.924  -5.488   2.280  0.00  0.00    -0.089 SA
BRANCH  23  24
ATOM     24  C   UNL d   1       1.220  -7.098   1.494  0.00  0.00     0.121 C 
BRANCH  24  25
ATOM     25  C   UNL d   1       1.956  -8.050   2.409  0.00  0.00    -0.049 A 
ATOM     26  C   UNL d   1       1.250  -8.889   3.285  0.00  0.00     0.008 A 
ATOM     27  C   UNL d   1       1.929  -9.787   4.112  0.00  0.00     0.001 A 
ATOM     28  C   UNL d   1       3.321  -9.853   4.079  0.00  0.00     0.000 A 
ATOM     29  C   UNL d   1       4.035  -9.012   3.227  0.00  0.00     0.001 A 
ATOM     30  C   UNL d   1       3.358  -8.113   2.400  0.00  0.00     0.008 A 
ENDBRANCH  24  25
ENDBRANCH  23  24
ENDBRANCH   4  23
TORSDOF 5
