REMARK  0 active torsions:
REMARK  status: ('A' for Active; 'I' for Inactive)
ROOT
ATOM      1  C   UNL d   1       1.373  -0.444  -0.036  0.00  0.00    -0.001 C 
ATOM      2  C   UNL d   1      -0.060  -0.749   0.191  0.00  0.00     0.011 A 
ATOM      3  C   UNL d   1       2.452  -1.375  -0.083  0.00  0.00     0.004 A 
ATOM      4  N   UNL d   1       3.923   0.389  -0.864  0.00  0.00    -0.365 N 
ATOM      5  HN  UNL d   1       4.824   0.690  -1.236  1.00  0.00     0.165 HD
ATOM      6  C   UNL d   1       1.661   0.912  -0.247  0.00  0.00    -0.007 C 
ATOM      7  O   UNL d   1      -0.421   1.551   0.886  0.00  0.00    -0.346 OA
ATOM      8  C   UNL d   1      -0.899   0.283   0.658  0.00  0.00     0.080 A 
ATOM      9  C   UNL d   1       3.701  -0.893  -0.553  0.00  0.00     0.043 A 
ATOM     10  C   UNL d   1      -0.676  -1.968  -0.132  0.00  0.00     0.039 A 
ATOM     11  C   UNL d   1       2.393  -2.729   0.342  0.00  0.00     0.038 A 
ATOM     12  C   UNL d   1       2.927   1.271  -0.673  0.00  0.00     0.098 C 
ATOM     13  C   UNL d   1       0.581   1.939  -0.068  0.00  0.00     0.216 C 
ATOM     14  C   UNL d   1      -2.258   0.081   0.907  0.00  0.00     0.039 A 
ATOM     15  C   UNL d   1       4.766  -1.772  -0.696  0.00  0.00     0.032 A 
ATOM     16  C   UNL d   1      -2.041  -2.171   0.100  0.00  0.00     0.035 A 
ATOM     17  C   UNL d   1       3.487  -3.584   0.210  0.00  0.00     0.035 A 
ATOM     18  C   UNL d   1      -2.832  -1.156   0.630  0.00  0.00     0.026 A 
ATOM     19  C   UNL d   1       4.671  -3.115  -0.333  0.00  0.00     0.026 A 
ATOM     20 CL   UNL d   1       3.368  -5.218   0.732  0.00  0.00    -0.084 Cl
ATOM     21 CL   UNL d   1      -2.752  -3.689  -0.290  0.00  0.00    -0.084 Cl
ENDROOT
TORSDOF 0
