REMARK  5 active torsions:
REMARK  status: ('A' for Active; 'I' for Inactive)
REMARK    1  A    between atoms: C_6  and  C_1 
REMARK    2  A    between atoms: N_11  and  C_2 
REMARK    3  A    between atoms: C_10  and  C_5 
REMARK       I    between atoms: N_9  and  C_6 
REMARK    4  A    between atoms: N_7  and  N_9 
REMARK    5  A    between atoms: C_16  and  C_15 
ROOT
ATOM      1  C   UNL d   1      -0.016   1.561   0.036  0.00  0.00     0.068 A 
ATOM      2  C   UNL d   1       0.752   0.405   0.092  0.00  0.00     0.084 A 
ATOM      3  C   UNL d   1      -1.413   1.215  -0.000  0.00  0.00     0.039 A 
ATOM      4  S   UNL d   1      -0.194  -1.017   0.067  0.00  0.00    -0.071 SA
ATOM      5  C   UNL d   1      -1.661  -0.146   0.008  0.00  0.00     0.018 A 
ENDROOT
BRANCH   1   6
ATOM      6  C   UNL d   1       0.576   2.913   0.013  0.00  0.00     0.272 C 
ATOM      7  N   UNL d   1      -0.339   3.965  -0.013  0.00  0.00    -0.266 N 
ATOM      8  H   UNL d   1      -1.335   3.803   0.007  0.00  0.00     0.190 HD
ATOM      9  O   UNL d   1       1.795   3.084   0.005  0.00  0.00    -0.266 OA
BRANCH   7  10
ATOM     10  N   UNL d   1       0.122   5.250   0.011  0.00  0.00    -0.308 N 
ATOM     11  C   UNL d   1      -0.756   6.197  -0.013  0.00  0.00     0.118 C 
ATOM     12  HN  UNL d   1       1.121   5.454   0.047  1.00  0.00     0.186 HD
BRANCH  11  13
ATOM     13  C   UNL d   1      -0.330   7.612   0.058  0.00  0.00    -0.017 A 
ATOM     14  C   UNL d   1       1.027   7.925   0.138  0.00  0.00     0.030 A 
ATOM     15  C   UNL d   1       1.377   9.256   0.245  0.00  0.00     0.088 A 
ATOM     16  N   UNL d   1       0.480  10.264   0.273  0.00  0.00    -0.375 N 
ATOM     17  C   UNL d   1      -0.826   9.929   0.186  0.00  0.00     0.088 A 
ATOM     18  HN  UNL d   1       0.775  11.237   0.355  1.00  0.00     0.164 HD
ATOM     19  C   UNL d   1      -1.282   8.626   0.076  0.00  0.00     0.030 A 
ENDBRANCH  11  13
ENDBRANCH   7  10
ENDBRANCH   1   6
BRANCH   2  20
ATOM     20  N   UNL d   1       2.098   0.310   0.159  0.00  0.00    -0.393 N 
ATOM     21  H   UNL d   1       2.661   1.152   0.012  0.00  0.00     0.156 HD
ATOM     22  H   UNL d   1       2.567  -0.565  -0.048  0.00  0.00     0.156 HD
ENDBRANCH   2  20
BRANCH   5  23
ATOM     23  C   UNL d   1      -2.966  -0.826  -0.053  0.00  0.00    -0.019 A 
ATOM     24  C   UNL d   1      -4.012  -0.243  -0.787  0.00  0.00     0.013 A 
ATOM     25  C   UNL d   1      -5.280  -0.827  -0.828  0.00  0.00     0.001 A 
ATOM     26  C   UNL d   1      -5.520  -2.012  -0.139  0.00  0.00     0.000 A 
ATOM     27  C   UNL d   1      -4.492  -2.614   0.584  0.00  0.00     0.001 A 
ATOM     28  C   UNL d   1      -3.224  -2.025   0.628  0.00  0.00     0.013 A 
ENDBRANCH   5  23
TORSDOF 5
