REMARK  3 active torsions:
REMARK  status: ('A' for Active; 'I' for Inactive)
REMARK    1  A    between atoms: C_2  and  C_1 
REMARK       I    between atoms: N_5  and  C_2 
REMARK    2  A    between atoms: O_7  and  C_3 
REMARK    3  A    between atoms: N_6  and  N_5 
ROOT
ATOM      1  C   UNL d   1       0.355   1.223  -0.051  0.00  0.00     0.066 A 
ATOM      2  C   UNL d   1       0.980  -0.030   0.006  0.00  0.00     0.081 A 
ATOM      3  C   UNL d   1      -1.045   1.289  -0.052  0.00  0.00     0.020 A 
ATOM      4  C   UNL d   1       0.221  -1.194   0.108  0.00  0.00     0.037 A 
ATOM      5  C   UNL d   1      -1.806   0.121   0.030  0.00  0.00     0.001 A 
ATOM      6  C   UNL d   1      -1.173  -1.119   0.116  0.00  0.00     0.003 A 
ENDROOT
BRANCH   1   7
ATOM      7  C   UNL d   1       1.108   2.502  -0.126  0.00  0.00     0.268 C 
ATOM      8  O   UNL d   1       0.635   3.481  -0.693  0.00  0.00    -0.266 OA
ATOM      9  N   UNL d   1       2.352   2.513   0.496  0.00  0.00    -0.290 N 
ATOM     10  H   UNL d   1       2.583   1.777   1.167  0.00  0.00     0.183 HD
BRANCH   9  11
ATOM     11  N   UNL d   1       3.077   3.724   0.551  0.00  0.00    -0.247 NA
ATOM     12  H   UNL d   1       2.397   4.482   0.387  0.00  0.00     0.143 HD
ATOM     13  H   UNL d   1       3.681   3.768  -0.274  0.00  0.00     0.143 HD
ENDBRANCH   9  11
ENDBRANCH   1   7
BRANCH   2  14
ATOM     14  O   UNL d   1       2.336  -0.202  -0.060  0.00  0.00    -0.360 OA
ATOM     15  H   UNL d   1       2.712   0.517  -0.603  0.00  0.00     0.217 HD
ENDBRANCH   2  14
TORSDOF 3
