REMARK  6 active torsions:
REMARK  status: ('A' for Active; 'I' for Inactive)
REMARK    1  A    between atoms: C_8  and  C_1 
REMARK    2  A    between atoms: N_16  and  C_2 
REMARK    3  A    between atoms: C_7  and  C_3 
REMARK    4  A    between atoms: C_10  and  C_7 
REMARK    5  A    between atoms: O_20  and  C_8 
REMARK    6  A    between atoms: O_21  and  C_10 
ROOT
ATOM      1  C   UNL d   1      -1.192   2.172   1.242  0.00  0.00     0.205 C 
ATOM      2  C   UNL d   1      -0.020   3.057   1.373  0.00  0.00     0.075 C 
ATOM      3  N   UNL d   1       0.898   3.760   1.448  0.00  0.00    -0.196 NA
ENDROOT
BRANCH   1   4
ATOM      4  C   UNL d   1      -1.204   1.378  -0.100  0.00  0.00     0.092 C 
ATOM      5  C   UNL d   1      -2.463   0.527  -0.250  0.00  0.00     0.073 C 
ATOM      6  C   UNL d   1      -2.412  -0.816  -0.130  0.00  0.00     0.134 C 
ATOM      7  O   UNL d   1      -1.232  -1.470   0.202  0.00  0.00    -0.296 OA
ATOM      8  C   UNL d   1      -0.029  -0.853  -0.030  0.00  0.00     0.102 A 
ATOM      9  C   UNL d   1       0.040   0.520  -0.284  0.00  0.00    -0.011 A 
ATOM     10  C   UNL d   1       1.137  -1.626  -0.003  0.00  0.00     0.046 A 
ATOM     11  C   UNL d   1       1.279   1.085  -0.630  0.00  0.00     0.030 A 
ATOM     12  C   UNL d   1       2.437   0.308  -0.598  0.00  0.00     0.013 A 
ATOM     13 BR   UNL d   1       4.110   1.112  -0.956  0.00  0.00    -0.051 Br
ATOM     14  C   UNL d   1       2.376  -1.042  -0.267  0.00  0.00     0.041 A 
ATOM     15 BR   UNL d   1       1.083  -3.478   0.408  0.00  0.00    -0.048 Br
BRANCH   5  16
ATOM     16  C   UNL d   1      -3.710   1.295  -0.523  0.00  0.00     0.293 C 
ATOM     17  O   UNL d   1      -3.690   2.477  -0.836  0.00  0.00    -0.259 OA
BRANCH  16  18
ATOM     18  O   UNL d   1      -4.827   0.564  -0.278  0.00  0.00    -0.323 OA
ATOM     19  C   UNL d   1      -6.081   1.218  -0.495  0.00  0.00     0.213 C 
ENDBRANCH  16  18
ENDBRANCH   5  16
BRANCH   6  20
ATOM     20  N   UNL d   1      -3.463  -1.689  -0.259  0.00  0.00    -0.282 NA
ATOM     21  H   UNL d   1      -4.377  -1.262  -0.109  0.00  0.00     0.126 HD
ATOM     22  H   UNL d   1      -3.320  -2.548   0.266  0.00  0.00     0.126 HD
ENDBRANCH   6  20
ENDBRANCH   1   4
BRANCH   1  23
ATOM     23  C   UNL d   1      -1.245   1.247   2.440  0.00  0.00     0.277 C 
ATOM     24  O   UNL d   1      -0.279   0.823   3.059  0.00  0.00    -0.264 OA
BRANCH  23  25
ATOM     25  O   UNL d   1      -2.541   0.914   2.713  0.00  0.00    -0.325 OA
ATOM     26  C   UNL d   1      -2.699  -0.045   3.761  0.00  0.00     0.213 C 
ENDBRANCH  23  25
ENDBRANCH   1  23
TORSDOF 6
