REMARK  8 active torsions:
REMARK  status: ('A' for Active; 'I' for Inactive)
REMARK    1  A    between atoms: S_12  and  C_2 
REMARK    2  A    between atoms: N_16  and  C_3 
REMARK       I    between atoms: N_8  and  C_10 
REMARK    3  A    between atoms: C_9  and  N_8 
REMARK    4  A    between atoms: C_10  and  C_17 
REMARK    5  A    between atoms: C_17  and  S_12 
REMARK    6  A    between atoms: C_21  and  C_18 
REMARK    7  A    between atoms: C_22  and  C_21 
REMARK    8  A    between atoms: C_23  and  C_22 
ROOT
ATOM      1  N   UNL d   1       6.042  -1.049  -0.284  0.00  0.00    -0.326 N 
ATOM      2  C   UNL d   1       7.393  -1.216  -0.046  0.00  0.00     0.231 C 
ATOM      3  O   UNL d   1       7.953  -2.309   0.028  0.00  0.00    -0.272 OA
ATOM      4  H   UNL d   1       5.736  -0.132  -0.589  0.00  0.00     0.169 HD
ENDROOT
BRANCH   2   5
ATOM      5  C   UNL d   1       8.222   0.065  -0.042  0.00  0.00     0.184 C 
BRANCH   5   6
ATOM      6  S   UNL d   1       7.479   1.361   0.992  0.00  0.00    -0.094 SA
BRANCH   6   7
ATOM      7  C   UNL d   1       8.822   2.484   1.105  0.00  0.00     0.130 A 
ATOM      8  S   UNL d   1       8.787   3.875   2.102  0.00  0.00    -0.027 SA
ATOM      9  C   UNL d   1      10.393   4.201   1.580  0.00  0.00     0.159 A 
ATOM     10  N   UNL d   1      10.858   3.325   0.721  0.00  0.00    -0.279 N 
ATOM     11  N   UNL d   1       9.945   2.324   0.436  0.00  0.00    -0.286 N 
ATOM     12  HN  UNL d   1      11.790   3.376   0.309  1.00  0.00     0.189 HD
ATOM     13  HN  UNL d   1      10.121   1.557  -0.213  1.00  0.00     0.188 HD
BRANCH   9  14
ATOM     14  N   UNL d   1      11.084   5.259   2.046  0.00  0.00    -0.379 N 
ATOM     15  H   UNL d   1      10.794   5.680   2.920  0.00  0.00     0.158 HD
ATOM     16  H   UNL d   1      12.092   5.227   1.913  0.00  0.00     0.158 HD
ENDBRANCH   9  14
ENDBRANCH   6   7
ENDBRANCH   5   6
ENDBRANCH   2   5
BRANCH   1  17
ATOM     17  C   UNL d   1       5.085  -2.085  -0.292  0.00  0.00     0.040 A 
ATOM     18  C   UNL d   1       3.971  -2.010  -1.150  0.00  0.00    -0.035 A 
ATOM     19  C   UNL d   1       2.964  -2.990  -1.056  0.00  0.00     0.016 A 
ATOM     20  C   UNL d   1       3.835  -0.980  -2.237  0.00  0.00     0.050 C 
ATOM     21  C   UNL d   1       3.049  -4.050  -0.147  0.00  0.00    -0.058 A 
ATOM     22  C   UNL d   1       4.181  -4.136   0.669  0.00  0.00     0.009 A 
ATOM     23  C   UNL d   1       5.191  -3.166   0.588  0.00  0.00     0.030 A 
BRANCH  21  24
ATOM     24  C   UNL d   1       1.929  -5.057  -0.013  0.00  0.00     0.038 C 
BRANCH  24  25
ATOM     25  C   UNL d   1       1.609  -5.851  -1.286  0.00  0.00     0.004 C 
BRANCH  25  26
ATOM     26  C   UNL d   1       2.747  -6.781  -1.714  0.00  0.00    -0.004 C 
ATOM     27  C   UNL d   1       2.371  -7.578  -2.954  0.00  0.00     0.005 C 
ENDBRANCH  25  26
ENDBRANCH  24  25
ENDBRANCH  21  24
ENDBRANCH   1  17
TORSDOF 8
