REMARK  3 active torsions:
REMARK  status: ('A' for Active; 'I' for Inactive)
REMARK    1  A    between atoms: C_6  and  C_1 
REMARK    2  A    between atoms: O_11  and  C_6 
REMARK    3  A    between atoms: C_14  and  O_11 
ROOT
ATOM      1  C   UNL d   1      -2.854   0.466  -0.003  0.00  0.00     0.109 A 
ATOM      2  N   UNL d   1      -2.261  -0.775   0.044  0.00  0.00    -0.351 N 
ATOM      3  C   UNL d   1      -1.832   1.396   0.066  0.00  0.00     0.049 A 
ATOM      4  C   UNL d   1      -0.594   0.699   0.082  0.00  0.00    -0.004 A 
ATOM      5  C   UNL d   1      -0.891  -0.664   0.064  0.00  0.00     0.043 A 
ATOM      6  C   UNL d   1       0.754   1.102   0.091  0.00  0.00     0.056 A 
ATOM      7  C   UNL d   1       0.098  -1.656   0.056  0.00  0.00     0.033 A 
ATOM      8  C   UNL d   1       1.743   0.120   0.072  0.00  0.00     0.117 A 
ATOM      9  C   UNL d   1       1.430  -1.234   0.056  0.00  0.00     0.044 A 
ATOM     10  F   UNL d   1       3.030   0.493   0.062  0.00  0.00    -0.206 F 
ATOM     11  H   UNL d   1      -2.775  -1.647   0.010  0.00  0.00     0.166 HD
ENDROOT
BRANCH   1  12
ATOM     12  C   UNL d   1      -4.277   0.632  -0.149  0.00  0.00     0.310 C 
ATOM     13  O   UNL d   1      -5.074  -0.292  -0.247  0.00  0.00    -0.258 OA
BRANCH  12  14
ATOM     14  O   UNL d   1      -4.579   1.955  -0.234  0.00  0.00    -0.317 OA
BRANCH  14  15
ATOM     15  C   UNL d   1      -5.909   2.265  -0.666  0.00  0.00     0.175 C 
ATOM     16  C   UNL d   1      -5.915   2.364  -2.181  0.00  0.00     0.034 C 
ENDBRANCH  14  15
ENDBRANCH  12  14
ENDBRANCH   1  12
TORSDOF 3
