REMARK  2 active torsions:
REMARK  status: ('A' for Active; 'I' for Inactive)
REMARK    1  A    between atoms: N_3  and  C_1 
REMARK    2  A    between atoms: C_2  and  N_3 
ROOT
ATOM      1  C   UNL d   1       1.230  -3.089   0.288  0.00  0.00     0.046 A 
ATOM      2  C   UNL d   1       2.140  -2.802   1.333  0.00  0.00    -0.034 A 
ATOM      3  C   UNL d   1       1.580  -4.084  -0.658  0.00  0.00    -0.034 A 
ATOM      4  C   UNL d   1       3.409  -3.411   1.341  0.00  0.00     0.015 A 
ATOM      5  C   UNL d   1       2.851  -4.692  -0.605  0.00  0.00     0.015 A 
ATOM      6  C   UNL d   1       3.777  -4.347   0.376  0.00  0.00    -0.061 A 
ATOM      7  C   UNL d   1       1.851  -1.874   2.484  0.00  0.00     0.050 C 
ATOM      8  C   UNL d   1       0.677  -4.512  -1.786  0.00  0.00     0.050 C 
ATOM      9  C   UNL d   1       5.148  -4.952   0.410  0.00  0.00     0.048 C 
ENDROOT
BRANCH   1  10
ATOM     10  N   UNL d   1      -0.013  -2.436   0.151  0.00  0.00    -0.336 N 
ATOM     11  H   UNL d   1      -0.810  -3.059   0.138  0.00  0.00     0.168 HD
BRANCH  10  12
ATOM     12  C   UNL d   1      -0.289  -1.132   0.430  0.00  0.00     0.140 C 
ATOM     13  N   UNL d   1       0.514  -0.122   0.453  0.00  0.00    -0.370 N 
ATOM     14  C   UNL d   1      -0.181   1.075   0.952  0.00  0.00     0.132 C 
ATOM     15  HN  UNL d   1       1.493  -0.149   0.166  1.00  0.00     0.161 HD
ATOM     16  C   UNL d   1      -1.662   0.973   0.652  0.00  0.00     0.102 C 
ATOM     17  S   UNL d   1      -1.976  -0.795   0.777  0.00  0.00    -0.093 SA
ENDBRANCH  10  12
ENDBRANCH   1  10
TORSDOF 2
