REMARK  1 active torsions:
REMARK  status: ('A' for Active; 'I' for Inactive)
REMARK    1  A    between atoms: C_11  and  C_3 
ROOT
ATOM      1  N   UNL d   1       1.232  -1.427   0.060  0.00  0.00    -0.335 N 
ATOM      2  HN  UNL d   1       1.261  -2.446   0.094  1.00  0.00     0.168 HD
ATOM      3  C   UNL d   1       2.315  -0.723   0.008  0.00  0.00     0.162 A 
ATOM      4  O   UNL d   1       2.401   0.625   0.032  0.00  0.00    -0.257 OA
ATOM      5  C   UNL d   1       1.274   1.368   0.084  0.00  0.00     0.302 A 
ATOM      6  C   UNL d   1      -0.008   0.656   0.058  0.00  0.00     0.066 A 
ATOM      7  C   UNL d   1       0.025  -0.731   0.067  0.00  0.00     0.052 A 
ATOM      8  C   UNL d   1      -1.178  -1.439   0.036  0.00  0.00     0.054 A 
ATOM      9  C   UNL d   1      -1.221   1.353   0.008  0.00  0.00     0.022 A 
ATOM     10  O   UNL d   1       1.309   2.593   0.131  0.00  0.00    -0.259 OA
ATOM     11  C   UNL d   1      -2.392  -0.753  -0.017  0.00  0.00     0.036 A 
ATOM     12  C   UNL d   1      -2.419   0.642  -0.036  0.00  0.00     0.025 A 
ATOM     13 CL   UNL d   1      -3.869  -1.632  -0.074  0.00  0.00    -0.084 Cl
ENDROOT
BRANCH   3  14
ATOM     14  C   UNL d   1       3.669  -1.316  -0.092  0.00  0.00     0.015 A 
ATOM     15  C   UNL d   1       4.732  -0.598  -0.657  0.00  0.00     0.016 A 
ATOM     16  C   UNL d   1       5.986  -1.193  -0.797  0.00  0.00     0.001 A 
ATOM     17  C   UNL d   1       6.186  -2.505  -0.370  0.00  0.00     0.000 A 
ATOM     18  C   UNL d   1       5.134  -3.224   0.197  0.00  0.00     0.001 A 
ATOM     19  C   UNL d   1       3.875  -2.635   0.333  0.00  0.00     0.016 A 
ENDBRANCH   3  14
TORSDOF 1
