REMARK  2 active torsions:
REMARK  status: ('A' for Active; 'I' for Inactive)
REMARK    1  A    between atoms: C_6  and  C_3 
REMARK    2  A    between atoms: O_11  and  C_6 
ROOT
ATOM      1  C   UNL d   1      -0.024  -0.301   0.023  0.00  0.00     0.056 A 
ATOM      2  S   UNL d   1      -1.560  -0.955   0.035  0.00  0.00    -0.075 SA
ATOM      3  C   UNL d   1      -2.267   0.637   0.035  0.00  0.00     0.080 A 
ATOM      4  C   UNL d   1      -0.022   1.038   0.016  0.00  0.00    -0.010 A 
ATOM      5  C   UNL d   1      -1.288   1.631   0.020  0.00  0.00     0.039 A 
ATOM      6  S   UNL d   1       1.510  -0.962   0.020  0.00  0.00    -0.094 SA
ATOM      7  C   UNL d   1       2.208   0.632   0.011  0.00  0.00     0.052 A 
ATOM      8  C   UNL d   1       1.244   1.632   0.007  0.00  0.00     0.020 A 
ENDROOT
BRANCH   3   9
ATOM      9  C   UNL d   1      -3.705   0.836   0.051  0.00  0.00     0.183 C 
ATOM     10  O   UNL d   1      -4.263   1.924   0.054  0.00  0.00    -0.646 OA
BRANCH   9  11
ATOM     11  O   UNL d   1      -4.409  -0.326   0.062  0.00  0.00    -0.772 OA
ATOM     12  H   UNL d   1      -3.821  -1.107   0.060  0.00  0.00     0.167 HD
ENDBRANCH   9  11
ENDBRANCH   3   9
TORSDOF 2
