REMARK  3 active torsions:
REMARK  status: ('A' for Active; 'I' for Inactive)
REMARK    1  A    between atoms: N_10  and  N_1 
REMARK    2  A    between atoms: C_19  and  N_6 
REMARK    3  A    between atoms: C_9  and  C_16 
ROOT
ATOM      1  N   UNL d   1       0.839  -3.270  -0.326  0.00  0.00    -0.300 N 
ATOM      2  HN  UNL d   1       0.826  -4.182  -0.782  1.00  0.00     0.186 HD
ATOM      3  C   UNL d   1       1.943  -2.764   0.105  0.00  0.00     0.122 C 
ENDROOT
BRANCH   1   4
ATOM      4  N   UNL d   1      -0.315  -2.558  -0.158  0.00  0.00    -0.210 N 
ATOM      5  C   UNL d   1      -1.549  -3.147   0.009  0.00  0.00     0.161 A 
ATOM      6  N   UNL d   1      -2.545  -2.302  -0.072  0.00  0.00    -0.281 N 
ATOM      7  C   UNL d   1      -1.723  -4.558   0.282  0.00  0.00     0.052 A 
ATOM      8  N   UNL d   1      -1.960  -1.092  -0.323  0.00  0.00    -0.273 N 
ATOM      9  HN  UNL d   1      -3.540  -2.502   0.031  1.00  0.00     0.188 HD
ATOM     10  C   UNL d   1      -0.579  -1.231  -0.452  0.00  0.00     0.214 A 
ATOM     11  H   UNL d   1      -2.510  -0.262  -0.512  0.00  0.00     0.189 HD
ATOM     12  S   UNL d   1       0.403   0.021  -0.924  0.00  0.00    -0.037 SA
ATOM     13  S   UNL d   1      -3.190  -5.330  -0.172  0.00  0.00    -0.098 SA
ATOM     14  C   UNL d   1      -0.871  -5.453   0.907  0.00  0.00     0.023 A 
ATOM     15  C   UNL d   1      -2.684  -6.833   0.462  0.00  0.00     0.050 A 
ATOM     16  C   UNL d   1      -1.429  -6.762   1.018  0.00  0.00     0.009 A 
ENDBRANCH   1   4
BRANCH   3  17
ATOM     17  C   UNL d   1       3.143  -3.562  -0.018  0.00  0.00     0.022 A 
ATOM     18  C   UNL d   1       4.296  -3.388   0.719  0.00  0.00     0.131 A 
ATOM     19  N   UNL d   1       5.168  -4.397   0.366  0.00  0.00    -0.267 N 
ATOM     20  N   UNL d   1       4.653  -5.157  -0.631  0.00  0.00    -0.298 N 
ATOM     21  C   UNL d   1       3.421  -4.681  -0.840  0.00  0.00     0.035 A 
ATOM     22  HN  UNL d   1       5.109  -5.929  -1.118  1.00  0.00     0.187 HD
ATOM     23  C   UNL d   1       2.542  -5.328  -1.848  0.00  0.00     0.070 C 
BRANCH  19  24
ATOM     24  C   UNL d   1       6.436  -4.703   0.937  0.00  0.00     0.056 A 
ATOM     25  C   UNL d   1       6.918  -4.013   2.058  0.00  0.00     0.031 A 
ATOM     26  C   UNL d   1       8.152  -4.361   2.616  0.00  0.00     0.002 A 
ATOM     27  C   UNL d   1       8.915  -5.385   2.057  0.00  0.00     0.000 A 
ATOM     28  C   UNL d   1       8.446  -6.069   0.937  0.00  0.00     0.002 A 
ATOM     29  C   UNL d   1       7.211  -5.734   0.380  0.00  0.00     0.031 A 
ENDBRANCH  19  24
ENDBRANCH   3  17
TORSDOF 3
