REMARK  1 active torsions:
REMARK  status: ('A' for Active; 'I' for Inactive)
REMARK    1  A    between atoms: O_8  and  C_3 
ROOT
ATOM      1  N   UNL d   1      -0.767   1.183  -0.008  0.00  0.00    -0.345 N 
ATOM      2  HN  UNL d   1      -1.299   2.054  -0.012  1.00  0.00     0.167 HD
ATOM      3  C   UNL d   1      -1.366  -0.020  -0.002  0.00  0.00     0.145 A 
ATOM      4  C   UNL d   1      -0.717  -1.245   0.005  0.00  0.00    -0.010 A 
ATOM      5  C   UNL d   1       0.682  -1.217   0.005  0.00  0.00     0.030 A 
ATOM      6  C   UNL d   1       0.588   1.169  -0.008  0.00  0.00     0.108 A 
ATOM      7  C   UNL d   1       1.346   0.007  -0.001  0.00  0.00     0.022 A 
ATOM      8  I   UNL d   1       3.413   0.089  -0.003  0.00  0.00    -0.043 I 
ATOM      9  C   UNL d   1      -1.445  -2.552   0.010  0.00  0.00     0.052 C 
ENDROOT
BRANCH   3  10
ATOM     10  O   UNL d   1      -2.718   0.067  -0.004  0.00  0.00    -0.346 OA
ATOM     11  H   UNL d   1      -2.820   1.036  -0.009  0.00  0.00     0.219 HD
ENDBRANCH   3  10
TORSDOF 1
