REMARK  6 active torsions:
REMARK  status: ('A' for Active; 'I' for Inactive)
REMARK    1  A    between atoms: S_2  and  C_1 
REMARK    2  A    between atoms: C_16  and  S_2 
REMARK    3  A    between atoms: C_6  and  C_3 
REMARK    4  A    between atoms: C_11  and  C_5 
REMARK    5  A    between atoms: C_22  and  C_16 
REMARK    6  A    between atoms: O_20  and  C_17 
ROOT
ATOM      1  C   UNL d   1       0.972  -1.464  -1.446  0.00  0.00     0.140 C 
ATOM      2  C   UNL d   1       0.183  -1.077  -0.426  0.00  0.00     0.053 C 
ATOM      3  C   UNL d   1       0.502  -1.855  -2.725  0.00  0.00     0.111 C 
ATOM      4  N   UNL d   1       0.097  -2.192  -3.757  0.00  0.00    -0.191 NA
ENDROOT
BRANCH   1   5
ATOM      5  S   UNL d   1       2.695  -1.468  -1.202  0.00  0.00     0.185 S 
ATOM      6  O   UNL d   1       3.367  -1.308  -2.478  0.00  0.00    -0.222 OA
ATOM      7  O   UNL d   1       3.026  -0.575  -0.103  0.00  0.00    -0.222 OA
BRANCH   5   8
ATOM      8  C   UNL d   1       3.012  -3.136  -0.634  0.00  0.00     0.146 C 
BRANCH   8   9
ATOM      9  C   UNL d   1       4.499  -3.352  -0.355  0.00  0.00     0.011 C 
ATOM     10  C   UNL d   1       4.787  -4.758   0.145  0.00  0.00     0.006 C 
ENDBRANCH   8   9
ENDBRANCH   5   8
ENDBRANCH   1   5
BRANCH   2  11
ATOM     11  C   UNL d   1      -1.234  -1.004  -0.532  0.00  0.00     0.007 A 
ATOM     12  S   UNL d   1      -2.215  -2.321  -0.033  0.00  0.00    -0.090 SA
ATOM     13  C   UNL d   1      -3.678  -1.503  -0.412  0.00  0.00     0.015 A 
ATOM     14  C   UNL d   1      -3.406  -0.233  -0.891  0.00  0.00     0.021 A 
ATOM     15  C   UNL d   1      -2.012   0.051  -0.963  0.00  0.00     0.020 A 
BRANCH  13  16
ATOM     16  C   UNL d   1      -4.997  -2.130  -0.199  0.00  0.00    -0.019 A 
ATOM     17  C   UNL d   1      -6.097  -1.331   0.155  0.00  0.00     0.015 A 
ATOM     18  C   UNL d   1      -7.378  -1.876   0.314  0.00  0.00     0.037 A 
ATOM     19  C   UNL d   1      -7.587  -3.240   0.128  0.00  0.00     0.068 A 
ATOM     20  C   UNL d   1      -6.502  -4.047  -0.221  0.00  0.00     0.037 A 
ATOM     21  C   UNL d   1      -5.221  -3.501  -0.381  0.00  0.00     0.015 A 
BRANCH  19  22
ATOM     22  O   UNL d   1      -8.781  -3.893   0.253  0.00  0.00    -0.356 OA
ATOM     23  C   UNL d   1      -9.901  -3.110   0.651  0.00  0.00     0.210 C 
ENDBRANCH  19  22
ENDBRANCH  13  16
ENDBRANCH   2  11
TORSDOF 6
