REMARK  4 active torsions:
REMARK  status: ('A' for Active; 'I' for Inactive)
REMARK       I    between atoms: N_2  and  C_1 
REMARK    1  A    between atoms: C_3  and  C_1 
REMARK    2  A    between atoms: C_15  and  N_2 
REMARK    3  A    between atoms: C_4  and  C_6 
REMARK    4  A    between atoms: C_20  and  C_15 
ROOT
ATOM      1  C   UNL d   1      -0.019   1.112  -0.144  0.00  0.00     0.078 C 
ATOM      2  C   UNL d   1      -0.093   3.534   1.633  0.00  0.00     0.018 C 
ATOM      3  C   UNL d   1       0.448   2.477  -0.678  0.00  0.00     0.015 C 
ATOM      4  C   UNL d   1      -0.537   1.066   1.301  0.00  0.00     0.015 C 
ATOM      5  C   UNL d   1       0.741   3.583   0.343  0.00  0.00     0.010 C 
ATOM      6  C   UNL d   1       0.069   2.122   2.217  0.00  0.00     0.010 C 
ENDROOT
BRANCH   1   7
ATOM      7  C   UNL d   1       1.016  -0.003  -0.336  0.00  0.00     0.222 C 
ATOM      8  N   UNL d   1       0.409  -1.238  -0.476  0.00  0.00    -0.356 N 
ATOM      9  H   UNL d   1      -0.596  -1.303  -0.374  0.00  0.00     0.162 HD
ATOM     10  O   UNL d   1       2.227   0.171  -0.320  0.00  0.00    -0.273 OA
BRANCH   8  11
ATOM     11  C   UNL d   1       1.147  -2.477  -0.523  0.00  0.00     0.161 C 
BRANCH  11  12
ATOM     12  C   UNL d   1       0.371  -3.515  -1.288  0.00  0.00    -0.038 A 
ATOM     13  C   UNL d   1       0.615  -3.722  -2.649  0.00  0.00     0.025 A 
ATOM     14  C   UNL d   1      -0.140  -4.668  -3.326  0.00  0.00     0.088 A 
ATOM     15  N   UNL d   1      -1.114  -5.403  -2.751  0.00  0.00    -0.375 N 
ATOM     16  C   UNL d   1      -1.346  -5.181  -1.440  0.00  0.00     0.088 A 
ATOM     17  HN  UNL d   1      -1.649  -6.092  -3.280  1.00  0.00     0.164 HD
ATOM     18  C   UNL d   1      -0.644  -4.259  -0.677  0.00  0.00     0.025 A 
ENDBRANCH  11  12
ENDBRANCH   8  11
ENDBRANCH   1   7
BRANCH   2  19
ATOM     19  C   UNL d   1      -1.560   3.957   1.555  0.00  0.00    -0.054 A 
ATOM     20  C   UNL d   1      -2.312   4.015   2.746  0.00  0.00     0.009 A 
ATOM     21  C   UNL d   1      -3.674   4.333   2.732  0.00  0.00     0.024 A 
ATOM     22  C   UNL d   1      -4.305   4.608   1.525  0.00  0.00     0.034 A 
ATOM     23  C   UNL d   1      -3.579   4.592   0.340  0.00  0.00     0.024 A 
ATOM     24 CL   UNL d   1      -5.986   4.973   1.497  0.00  0.00    -0.084 Cl
ATOM     25  C   UNL d   1      -2.214   4.283   0.359  0.00  0.00     0.009 A 
ENDBRANCH   2  19
TORSDOF 4
