REMARK  5 active torsions:
REMARK  status: ('A' for Active; 'I' for Inactive)
REMARK    1  A    between atoms: C_7  and  C_1 
REMARK    2  A    between atoms: C_9  and  N_3 
REMARK    3  A    between atoms: C_10  and  C_9 
REMARK    4  A    between atoms: O_18  and  C_10 
REMARK    5  A    between atoms: C_21  and  O_18 
ROOT
ATOM      1  C   UNL d   1       1.285   1.414   0.113  0.00  0.00     0.069 A 
ATOM      2  C   UNL d   1      -0.016   0.742   0.125  0.00  0.00     0.048 A 
ATOM      3  N   UNL d   1       1.084  -1.388  -0.033  0.00  0.00    -0.308 N 
ATOM      4  C   UNL d   1      -0.093  -0.618   0.056  0.00  0.00     0.030 A 
ATOM      5  C   UNL d   1       2.350  -0.815   0.017  0.00  0.00     0.249 A 
ATOM      6  C   UNL d   1       2.394   0.653   0.081  0.00  0.00     0.091 A 
ATOM      7  C   UNL d   1      -1.329   1.482   0.202  0.00  0.00     0.162 C 
ATOM      8  O   UNL d   1       3.403  -1.441  -0.019  0.00  0.00    -0.268 OA
ATOM      9  O   UNL d   1      -1.422   2.597   0.700  0.00  0.00    -0.292 OA
ATOM     10  C   UNL d   1      -1.413  -1.381   0.088  0.00  0.00     0.059 C 
ATOM     11  C   UNL d   1      -2.564   0.770  -0.289  0.00  0.00     0.084 C 
ATOM     12  C   UNL d   1      -2.622  -0.537   0.468  0.00  0.00     0.014 C 
ENDROOT
BRANCH   3  13
ATOM     13  C   UNL d   1       1.066  -2.851  -0.225  0.00  0.00     0.243 C 
BRANCH  13  14
ATOM     14  C   UNL d   1       1.102  -3.746   1.009  0.00  0.00     0.277 C 
ATOM     15  O   UNL d   1       1.083  -4.969   0.935  0.00  0.00    -0.263 OA
BRANCH  14  16
ATOM     16  O   UNL d   1       1.098  -3.049   2.182  0.00  0.00    -0.321 OA
BRANCH  16  17
ATOM     17  C   UNL d   1       1.013  -3.842   3.376  0.00  0.00     0.174 C 
ATOM     18  C   UNL d   1       2.379  -4.349   3.803  0.00  0.00     0.034 C 
ENDBRANCH  16  17
ENDBRANCH  14  16
ENDBRANCH  13  14
ENDBRANCH   3  13
BRANCH   1  19
ATOM     19  C   UNL d   1       1.528   2.908   0.111  0.00  0.00     0.418 C 
ATOM     20  F   UNL d   1       0.464   3.730   0.051  0.00  0.00    -0.166 F 
ATOM     21  F   UNL d   1       2.251   3.273   1.204  0.00  0.00    -0.166 F 
ATOM     22  F   UNL d   1       2.296   3.244  -0.967  0.00  0.00    -0.166 F 
ENDBRANCH   1  19
TORSDOF 5
