REMARK  2 active torsions:
REMARK  status: ('A' for Active; 'I' for Inactive)
REMARK    1  A    between atoms: N_18  and  C_4 
REMARK    2  A    between atoms: C_11  and  C_6 
ROOT
ATOM      1  C   UNL d   1       1.441   0.877  -0.002  0.00  0.00     0.073 A 
ATOM      2  C   UNL d   1       0.651   2.148  -0.024  0.00  0.00     0.301 A 
ATOM      3  C   UNL d   1       0.769  -0.359  -0.002  0.00  0.00    -0.004 A 
ATOM      4  C   UNL d   1       2.862   0.942  -0.029  0.00  0.00     0.045 A 
ATOM      5  C   UNL d   1       3.606  -0.265  -0.027  0.00  0.00     0.078 A 
ATOM      6  C   UNL d   1       2.966  -1.520   0.000  0.00  0.00     0.004 A 
ATOM      7  O   UNL d   1      -0.729   2.044   0.017  0.00  0.00    -0.274 OA
ATOM      8  C   UNL d   1       1.555  -1.531   0.012  0.00  0.00     0.028 A 
ATOM      9  C   UNL d   1      -0.703  -0.393   0.001  0.00  0.00     0.009 A 
ATOM     10  C   UNL d   1      -1.403   0.813   0.012  0.00  0.00     0.090 A 
ATOM     11  C   UNL d   1       5.038  -0.170  -0.099  0.00  0.00     0.102 C 
ATOM     12  N   UNL d   1       6.193  -0.057  -0.167  0.00  0.00    -0.191 NA
ATOM     13  O   UNL d   1       1.185   3.251  -0.103  0.00  0.00    -0.259 OA
ATOM     14  C   UNL d   1      -1.482  -1.563  -0.009  0.00  0.00     0.015 A 
ATOM     15  C   UNL d   1      -2.798   0.887   0.013  0.00  0.00     0.038 A 
ATOM     16  C   UNL d   1      -2.884  -1.511  -0.005  0.00  0.00     0.001 A 
ATOM     17  C   UNL d   1      -3.542  -0.285   0.006  0.00  0.00     0.003 A 
ENDROOT
BRANCH   4  18
ATOM     18  N   UNL d   1       3.532   2.171   0.185  0.00  0.00    -0.301 NA
ATOM     19  H   UNL d   1       2.959   3.000  -0.020  0.00  0.00     0.124 HD
ATOM     20  H   UNL d   1       4.478   2.264  -0.177  0.00  0.00     0.124 HD
ENDBRANCH   4  18
BRANCH   6  21
ATOM     21  C   UNL d   1       3.715  -2.802   0.058  0.00  0.00     0.016 A 
ATOM     22  S   UNL d   1       3.142  -4.194  -0.787  0.00  0.00    -0.101 SA
ATOM     23  C   UNL d   1       4.455  -5.155  -0.270  0.00  0.00     0.050 A 
ATOM     24  C   UNL d   1       5.336  -4.444   0.508  0.00  0.00     0.008 A 
ATOM     25  C   UNL d   1       4.894  -3.107   0.723  0.00  0.00     0.020 A 
ENDBRANCH   6  21
TORSDOF 2
