REMARK  3 active torsions:
REMARK  status: ('A' for Active; 'I' for Inactive)
REMARK       I    between atoms: N_3  and  C_1 
REMARK    1  A    between atoms: C_6  and  C_1 
REMARK    2  A    between atoms: N_2  and  C_5 
REMARK    3  A    between atoms: C_4  and  N_3 
ROOT
ATOM      1  C   UNL d   1      -1.152  -0.751  -0.626  0.00  0.00     0.256 C 
ATOM      2  N   UNL d   1       0.214  -0.864  -0.779  0.00  0.00    -0.321 N 
ATOM      3  O   UNL d   1      -2.015  -1.375  -1.230  0.00  0.00    -0.267 OA
ATOM      4  H   UNL d   1       0.792  -0.499  -0.031  0.00  0.00     0.169 HD
ENDROOT
BRANCH   2   5
ATOM      5  C   UNL d   1       0.847  -1.747  -1.686  0.00  0.00     0.062 A 
ATOM      6  C   UNL d   1       2.068  -2.380  -1.366  0.00  0.00     0.065 A 
ATOM      7  C   UNL d   1       2.756  -3.101  -2.359  0.00  0.00     0.032 A 
ATOM      8  C   UNL d   1       2.226  -3.219  -3.645  0.00  0.00     0.002 A 
ATOM      9  C   UNL d   1       1.010  -2.617  -3.953  0.00  0.00     0.002 A 
ATOM     10  C   UNL d   1       0.325  -1.888  -2.981  0.00  0.00     0.032 A 
BRANCH   6  11
ATOM     11  N   UNL d   1       2.593  -2.397  -0.038  0.00  0.00    -0.331 N 
ATOM     12  C   UNL d   1       1.869  -2.359   1.142  0.00  0.00     0.097 A 
ATOM     13  C   UNL d   1       2.736  -2.338   2.211  0.00  0.00     0.019 A 
ATOM     14  C   UNL d   1       4.040  -2.435   1.686  0.00  0.00     0.019 A 
ATOM     15  C   UNL d   1       3.926  -2.504   0.314  0.00  0.00     0.097 A 
ENDBRANCH   6  11
ENDBRANCH   2   5
BRANCH   1  16
ATOM     16  C   UNL d   1      -1.568   0.150   0.479  0.00  0.00     0.034 A 
ATOM     17  C   UNL d   1      -2.547  -0.292   1.375  0.00  0.00     0.042 A 
ATOM     18  C   UNL d   1      -2.954   0.537   2.424  0.00  0.00     0.056 A 
ATOM     19 CL   UNL d   1      -4.149  -0.072   3.513  0.00  0.00    -0.083 Cl
ATOM     20  C   UNL d   1      -2.389   1.812   2.567  0.00  0.00     0.055 A 
ATOM     21  C   UNL d   1      -1.415   2.249   1.663  0.00  0.00     0.026 A 
ATOM     22 CL   UNL d   1      -2.853   2.894   3.831  0.00  0.00    -0.083 Cl
ATOM     23  C   UNL d   1      -0.998   1.420   0.619  0.00  0.00     0.019 A 
ENDBRANCH   1  16
TORSDOF 3
