REMARK  2 active torsions:
REMARK  status: ('A' for Active; 'I' for Inactive)
REMARK    1  A    between atoms: C_5  and  N_1 
REMARK    2  A    between atoms: C_9  and  C_5 
ROOT
ATOM      1  N   UNL d   1       0.456  -0.804   0.067  0.00  0.00    -0.289 N 
ATOM      2  C   UNL d   1       0.493   0.011   1.165  0.00  0.00     0.177 A 
ATOM      3  C   UNL d   1       0.524  -0.045  -1.077  0.00  0.00     0.244 A 
ATOM      4  N   UNL d   1       0.636   1.316   0.744  0.00  0.00    -0.358 N 
ATOM      5  S   UNL d   1       0.364  -0.361   2.775  0.00  0.00    -0.041 SA
ATOM      6  C   UNL d   1       0.651   1.419  -0.688  0.00  0.00     0.225 A 
ATOM      7  O   UNL d   1       0.463  -0.452  -2.230  0.00  0.00    -0.271 OA
ATOM      8  H   UNL d   1       0.657   2.094   1.391  0.00  0.00     0.162 HD
ENDROOT
BRANCH   1   9
ATOM      9  C   UNL d   1       0.243  -2.242   0.027  0.00  0.00     0.173 C 
BRANCH   9  10
ATOM     10  C   UNL d   1       1.522  -3.050   0.058  0.00  0.00    -0.038 A 
ATOM     11  C   UNL d   1       2.154  -3.435  -1.135  0.00  0.00     0.032 A 
ATOM     12  C   UNL d   1       3.289  -4.248  -1.100  0.00  0.00     0.034 A 
ATOM     13 CL   UNL d   1       4.022  -4.759  -2.571  0.00  0.00    -0.084 Cl
ATOM     14  C   UNL d   1       3.823  -4.670   0.116  0.00  0.00     0.024 A 
ATOM     15  C   UNL d   1       3.222  -4.269   1.307  0.00  0.00     0.002 A 
ATOM     16  C   UNL d   1       2.078  -3.466   1.278  0.00  0.00     0.009 A 
ENDBRANCH   9  10
ENDBRANCH   1   9
TORSDOF 2
