REMARK  4 active torsions:
REMARK  status: ('A' for Active; 'I' for Inactive)
REMARK    1  A    between atoms: C_3  and  C_5 
REMARK    2  A    between atoms: C_4  and  C_6 
REMARK    3  A    between atoms: N_15  and  N_8 
REMARK    4  A    between atoms: C_16  and  N_15 
ROOT
ATOM      1  C   UNL d   1       1.197   6.611  -2.113  0.00  0.00     0.050 A 
ATOM      2  C   UNL d   1       3.255   6.970  -0.855  0.00  0.00     0.050 A 
ATOM      3  C   UNL d   1       2.230   7.455  -1.679  0.00  0.00     0.032 A 
ATOM      4  C   UNL d   1       2.176   4.771  -0.825  0.00  0.00     0.049 A 
ATOM      5  C   UNL d   1       3.221   5.624  -0.449  0.00  0.00     0.047 A 
ATOM      6  C   UNL d   1       1.193   5.268  -1.692  0.00  0.00     0.047 A 
ENDROOT
BRANCH   4   7
ATOM      7  N   UNL d   1       2.215   3.416  -0.416  0.00  0.00    -0.301 N 
ATOM      8  H   UNL d   1       2.759   3.299   0.439  0.00  0.00     0.187 HD
BRANCH   7   9
ATOM      9  N   UNL d   1       1.060   2.706  -0.499  0.00  0.00    -0.304 N 
ATOM     10  C   UNL d   1       1.012   1.472  -0.085  0.00  0.00     0.038 C 
ATOM     11  C   UNL d   1       2.153   0.663   0.372  0.00  0.00     0.012 A 
ATOM     12  C   UNL d   1      -0.365   0.825  -0.074  0.00  0.00     0.070 C 
ATOM     13  C   UNL d   1       1.971  -0.469   1.151  0.00  0.00     0.053 A 
ATOM     14  C   UNL d   1       3.552   0.831   0.073  0.00  0.00     0.022 A 
ATOM     15  S   UNL d   1       3.438  -1.236   1.573  0.00  0.00    -0.094 SA
ATOM     16  S   UNL d   1       0.434  -1.137   1.689  0.00  0.00    -0.121 SA
ATOM     17  C   UNL d   1       4.353  -0.106   0.684  0.00  0.00     0.052 A 
ATOM     18  C   UNL d   1      -0.666   0.252   1.299  0.00  0.00     0.086 C 
ATOM     19  HN  UNL d   1       0.224   3.143  -0.888  1.00  0.00     0.186 HD
ENDBRANCH   7   9
ENDBRANCH   4   7
BRANCH   2  20
ATOM     20  C   UNL d   1       4.388   7.857  -0.401  0.00  0.00     0.417 C 
ATOM     21  F   UNL d   1       4.305   9.132  -0.872  0.00  0.00    -0.166 F 
ATOM     22  F   UNL d   1       4.451   7.962   0.955  0.00  0.00    -0.166 F 
ATOM     23  F   UNL d   1       5.604   7.389  -0.797  0.00  0.00    -0.166 F 
ENDBRANCH   2  20
BRANCH   1  24
ATOM     24  C   UNL d   1       0.105   7.117  -3.025  0.00  0.00     0.417 C 
ATOM     25  F   UNL d   1       0.206   8.449  -3.298  0.00  0.00    -0.166 F 
ATOM     26  F   UNL d   1       0.102   6.491  -4.234  0.00  0.00    -0.166 F 
ATOM     27  F   UNL d   1      -1.139   6.939  -2.503  0.00  0.00    -0.166 F 
ENDBRANCH   1  24
TORSDOF 4
