REMARK  3 active torsions:
REMARK  status: ('A' for Active; 'I' for Inactive)
REMARK    1  A    between atoms: C_10  and  C_15 
REMARK    2  A    between atoms: O_13  and  C_11 
REMARK    3  A    between atoms: C_15  and  O_13 
ROOT
ATOM      1  C   UNL d   1      -0.093   0.632   0.057  0.00  0.00     0.092 A 
ATOM      2  C   UNL d   1       0.014  -0.758   0.029  0.00  0.00     0.044 A 
ATOM      3  C   UNL d   1       1.058   1.450   0.116  0.00  0.00     0.006 A 
ATOM      4  C   UNL d   1      -1.213  -1.576   0.090  0.00  0.00     0.165 C 
ATOM      5  O   UNL d   1      -1.305   1.278   0.044  0.00  0.00    -0.339 OA
ATOM      6  C   UNL d   1      -2.432   0.521  -0.422  0.00  0.00     0.067 C 
ATOM      7  C   UNL d   1      -2.504  -0.828   0.287  0.00  0.00     0.121 C 
ATOM      8  C   UNL d   1       1.268  -1.366  -0.015  0.00  0.00     0.021 A 
ATOM      9  C   UNL d   1       2.325   0.833   0.002  0.00  0.00     0.077 A 
ATOM     10  O   UNL d   1      -1.164  -2.800   0.048  0.00  0.00    -0.292 OA
ATOM     11  C   UNL d   1       2.413  -0.568  -0.040  0.00  0.00     0.038 A 
ATOM     12  C   UNL d   1       0.863   2.931   0.323  0.00  0.00     0.054 C 
ATOM     13  C   UNL d   1      -2.396   0.388  -1.955  0.00  0.00     0.046 C 
ATOM     14  C   UNL d   1      -3.661   1.362  -0.045  0.00  0.00     0.046 C 
ENDROOT
BRANCH   9  15
ATOM     15  O   UNL d   1       3.558   1.445  -0.047  0.00  0.00    -0.346 OA
BRANCH  15  16
ATOM     16  C   UNL d   1       3.597   2.717  -0.696  0.00  0.00     0.216 C 
BRANCH  16  17
ATOM     17  C   UNL d   1       4.952   3.124  -1.236  0.00  0.00    -0.012 A 
ATOM     18  C   UNL d   1       5.097   4.385  -1.851  0.00  0.00     0.044 A 
ATOM     19  C   UNL d   1       6.322   4.802  -2.370  0.00  0.00     0.048 A 
ATOM     20 CL   UNL d   1       3.763   5.483  -1.991  0.00  0.00    -0.084 Cl
ATOM     21  C   UNL d   1       7.422   3.957  -2.278  0.00  0.00     0.035 A 
ATOM     22  C   UNL d   1       7.306   2.709  -1.670  0.00  0.00     0.024 A 
ATOM     23 CL   UNL d   1       8.936   4.464  -2.922  0.00  0.00    -0.084 Cl
ATOM     24  C   UNL d   1       6.076   2.291  -1.150  0.00  0.00     0.013 A 
ENDBRANCH  16  17
ENDBRANCH  15  16
ENDBRANCH   9  15
TORSDOF 3
