REMARK  6 active torsions:
REMARK  status: ('A' for Active; 'I' for Inactive)
REMARK    1  A    between atoms: C_8  and  N_1 
REMARK    2  A    between atoms: S_11  and  C_2 
REMARK    3  A    between atoms: O_26  and  C_3 
REMARK    4  A    between atoms: C_20  and  S_11 
REMARK    5  A    between atoms: C_13  and  C_15 
REMARK    6  A    between atoms: C_15  and  C_20 
ROOT
ATOM      1  N   UNL d   1      -0.177  -1.232  -0.037  0.00  0.00    -0.254 N 
ATOM      2  C   UNL d   1       1.066  -0.593  -0.043  0.00  0.00     0.169 C 
ATOM      3  C   UNL d   1      -1.062  -0.154  -0.091  0.00  0.00     0.245 C 
ATOM      4  N   UNL d   1       0.914   0.712   0.037  0.00  0.00    -0.276 N 
ATOM      5  HN  UNL d   1       1.664   1.399   0.112  1.00  0.00     0.189 HD
ATOM      6  N   UNL d   1      -0.424   0.987   0.002  0.00  0.00    -0.263 N 
ATOM      7  HN  UNL d   1      -0.849   1.914   0.040  1.00  0.00     0.190 HD
ENDROOT
BRANCH   2   8
ATOM      8  S   UNL d   1       2.618  -1.360  -0.003  0.00  0.00    -0.084 SA
BRANCH   8   9
ATOM      9  C   UNL d   1       3.801  -0.043  -0.373  0.00  0.00     0.166 C 
BRANCH   9  10
ATOM     10  C   UNL d   1       3.453   0.938  -1.491  0.00  0.00     0.169 C 
ATOM     11  O   UNL d   1       2.840   0.637  -2.504  0.00  0.00    -0.291 OA
BRANCH  10  12
ATOM     12  C   UNL d   1       3.989   2.333  -1.310  0.00  0.00     0.013 A 
ATOM     13  C   UNL d   1       5.171   2.562  -0.589  0.00  0.00     0.054 A 
ATOM     14  C   UNL d   1       5.566   3.865  -0.280  0.00  0.00     0.103 A 
ATOM     15  O   UNL d   1       6.676   3.993   0.514  0.00  0.00    -0.346 OA
ATOM     16  C   UNL d   1       4.831   4.950  -0.750  0.00  0.00     0.102 A 
ATOM     17  C   UNL d   1       6.701   5.278   1.149  0.00  0.00     0.202 C 
ATOM     18  C   UNL d   1       6.449   6.378   0.128  0.00  0.00     0.202 C 
ATOM     19  O   UNL d   1       5.149   6.255  -0.464  0.00  0.00    -0.346 OA
ATOM     20  C   UNL d   1       3.689   4.734  -1.523  0.00  0.00     0.040 A 
ATOM     21  C   UNL d   1       3.267   3.426  -1.806  0.00  0.00     0.018 A 
ENDBRANCH  10  12
ENDBRANCH   9  10
ENDBRANCH   8   9
ENDBRANCH   2   8
BRANCH   1  22
ATOM     22  C   UNL d   1      -0.556  -2.624  -0.005  0.00  0.00     0.057 A 
ATOM     23  C   UNL d   1      -1.618  -3.054   0.853  0.00  0.00    -0.034 A 
ATOM     24  C   UNL d   1      -2.089  -4.386   0.776  0.00  0.00     0.015 A 
ATOM     25  C   UNL d   1      -2.319  -2.225   1.908  0.00  0.00     0.050 C 
ATOM     26  C   UNL d   1      -1.514  -5.319  -0.078  0.00  0.00    -0.061 A 
ATOM     27  C   UNL d   1      -0.439  -4.915  -0.862  0.00  0.00     0.015 A 
ATOM     28  C   UNL d   1      -2.055  -6.716  -0.162  0.00  0.00     0.048 C 
ATOM     29  C   UNL d   1       0.029  -3.579  -0.875  0.00  0.00    -0.034 A 
ATOM     30  C   UNL d   1       1.095  -3.331  -1.912  0.00  0.00     0.050 C 
ENDBRANCH   1  22
BRANCH   3  31
ATOM     31  O   UNL d   1      -2.378  -0.213  -0.264  0.00  0.00    -0.331 OA
ATOM     32  H   UNL d   1      -2.617  -1.122  -0.503  0.00  0.00     0.221 HD
ENDBRANCH   3  31
TORSDOF 6
