REMARK  4 active torsions:
REMARK  status: ('A' for Active; 'I' for Inactive)
REMARK    1  A    between atoms: N_3  and  S_1 
REMARK    2  A    between atoms: C_5  and  S_1 
REMARK    3  A    between atoms: C_2  and  C_4 
REMARK    4  A    between atoms: C_6  and  N_3 
ROOT
ATOM      1  S   UNL d   1       1.002  -0.102  -0.082  0.00  0.00     0.245 S 
ATOM      2  O   UNL d   1       0.161  -1.144  -0.629  0.00  0.00    -0.206 OA
ATOM      3  O   UNL d   1       2.428  -0.051  -0.304  0.00  0.00    -0.206 OA
ENDROOT
BRANCH   1   4
ATOM      4  N   UNL d   1       0.683  -0.044   1.602  0.00  0.00    -0.181 NA
ATOM      5  H   UNL d   1      -0.333  -0.002   1.714  0.00  0.00     0.146 HD
BRANCH   4   6
ATOM      6  C   UNL d   1       1.269  -1.088   2.381  0.00  0.00     0.037 A 
ATOM      7  C   UNL d   1       2.526  -0.960   2.982  0.00  0.00     0.070 A 
ATOM      8  C   UNL d   1       3.018  -2.048   3.732  0.00  0.00     0.018 A 
ATOM      9  C   UNL d   1       2.275  -3.219   3.885  0.00  0.00     0.001 A 
ATOM     10  C   UNL d   1       1.030  -3.330   3.278  0.00  0.00     0.002 A 
ATOM     11  C   UNL d   1       0.534  -2.273   2.518  0.00  0.00     0.025 A 
BRANCH   7  12
ATOM     12  C   UNL d   1       3.375   0.285   2.941  0.00  0.00     0.419 C 
ATOM     13  F   UNL d   1       2.841   1.359   2.302  0.00  0.00    -0.166 F 
ATOM     14  F   UNL d   1       3.654   0.736   4.202  0.00  0.00    -0.166 F 
ATOM     15  F   UNL d   1       4.592   0.071   2.365  0.00  0.00    -0.166 F 
ENDBRANCH   7  12
ENDBRANCH   4   6
ENDBRANCH   1   4
BRANCH   1  16
ATOM     16  C   UNL d   1       0.306   1.469  -0.537  0.00  0.00     0.075 A 
ATOM     17  C   UNL d   1       0.797   2.590   0.129  0.00  0.00     0.034 A 
ATOM     18  C   UNL d   1       0.126   3.784  -0.025  0.00  0.00    -0.021 A 
ATOM     19  C   UNL d   1       0.341   5.051   0.698  0.00  0.00     0.068 C 
ATOM     20  C   UNL d   1      -0.974   3.880  -0.854  0.00  0.00     0.075 A 
ATOM     21  C   UNL d   1      -0.677   5.932  -0.024  0.00  0.00     0.180 C 
ATOM     22  O   UNL d   1      -1.552   5.120  -0.850  0.00  0.00    -0.350 OA
ATOM     23  C   UNL d   1      -1.452   2.791  -1.562  0.00  0.00     0.039 A 
ATOM     24  C   UNL d   1      -0.807   1.557  -1.393  0.00  0.00     0.027 A 
ENDBRANCH   1  16
TORSDOF 4
