REMARK  6 active torsions:
REMARK  status: ('A' for Active; 'I' for Inactive)
REMARK    1  A    between atoms: C_16  and  N_1 
REMARK    2  A    between atoms: S_15  and  C_2 
REMARK    3  A    between atoms: O_22  and  C_3 
REMARK    4  A    between atoms: C_4  and  C_14 
REMARK    5  A    between atoms: C_14  and  S_15 
REMARK    6  A    between atoms: C_17  and  C_16 
ROOT
ATOM      1  N   UNL d   1      -0.227  -1.065  -0.017  0.00  0.00    -0.285 N 
ATOM      2  C   UNL d   1       1.048  -0.568  -0.027  0.00  0.00     0.165 A 
ATOM      3  C   UNL d   1      -1.024   0.009  -0.331  0.00  0.00     0.240 A 
ATOM      4  N   UNL d   1       1.028   0.681  -0.421  0.00  0.00    -0.277 N 
ATOM      5  HN  UNL d   1       1.845   1.268  -0.589  1.00  0.00     0.189 HD
ATOM      6  N   UNL d   1      -0.284   1.063  -0.568  0.00  0.00    -0.263 N 
ATOM      7  HN  UNL d   1      -0.619   1.994  -0.815  1.00  0.00     0.190 HD
ENDROOT
BRANCH   2   8
ATOM      8  S   UNL d   1       2.461  -1.458   0.416  0.00  0.00    -0.087 SA
BRANCH   8   9
ATOM      9  C   UNL d   1       3.709  -0.128   0.535  0.00  0.00     0.125 C 
BRANCH   9  10
ATOM     10  C   UNL d   1       3.628   0.631   1.813  0.00  0.00     0.007 A 
ATOM     11  C   UNL d   1       3.171   1.919   2.028  0.00  0.00     0.081 A 
ATOM     12  O   UNL d   1       3.295   2.230   3.346  0.00  0.00    -0.242 OA
ATOM     13  C   UNL d   1       2.655   3.010   1.177  0.00  0.00     0.079 C 
ATOM     14  N   UNL d   1       3.879   1.181   4.019  0.00  0.00    -0.265 N 
ATOM     15  C   UNL d   1       4.102   0.236   3.100  0.00  0.00     0.038 A 
ATOM     16  HN  UNL d   1       4.096   1.133   5.015  1.00  0.00     0.194 HD
ATOM     17  C   UNL d   1       4.817  -1.001   3.492  0.00  0.00     0.071 C 
ENDBRANCH   9  10
ENDBRANCH   8   9
ENDBRANCH   2   8
BRANCH   1  18
ATOM     18  C   UNL d   1      -0.680  -2.405   0.272  0.00  0.00     0.200 C 
BRANCH  18  19
ATOM     19  C   UNL d   1      -1.158  -3.049  -0.979  0.00  0.00     0.070 A 
ATOM     20  O   UNL d   1      -2.421  -2.715  -1.384  0.00  0.00    -0.325 OA
ATOM     21  C   UNL d   1      -2.641  -3.356  -2.561  0.00  0.00     0.142 A 
ATOM     22  C   UNL d   1      -1.545  -4.108  -2.911  0.00  0.00     0.027 A 
ATOM     23  C   UNL d   1      -0.586  -3.914  -1.888  0.00  0.00     0.036 A 
ENDBRANCH  18  19
ENDBRANCH   1  18
BRANCH   3  24
ATOM     24  O   UNL d   1      -2.348   0.012  -0.402  0.00  0.00    -0.331 OA
ATOM     25  H   UNL d   1      -2.651  -0.889  -0.605  0.00  0.00     0.221 HD
ENDBRANCH   3  24
TORSDOF 6
