REMARK  7 active torsions:
REMARK  status: ('A' for Active; 'I' for Inactive)
REMARK    1  A    between atoms: N_7  and  C_2 
REMARK    2  A    between atoms: C_6  and  C_5 
REMARK    3  A    between atoms: C_9  and  C_6 
REMARK    4  A    between atoms: N_10  and  N_7 
REMARK    5  A    between atoms: O_19  and  C_9 
REMARK    6  A    between atoms: C_20  and  C_13 
REMARK    7  A    between atoms: C_18  and  C_17 
ROOT
ATOM      1  N   UNL d   1       2.414   2.886   0.776  0.00  0.00    -0.280 N 
ATOM      2  HN  UNL d   1       1.805   2.322   0.184  1.00  0.00     0.189 HD
ENDROOT
BRANCH   1   3
ATOM      3  C   UNL d   1       1.984   3.852   1.518  0.00  0.00     0.162 A 
ATOM      4  N   UNL d   1       0.663   4.138   1.582  0.00  0.00    -0.305 N 
ATOM      5  C   UNL d   1       0.243   5.090   2.462  0.00  0.00     0.238 A 
ATOM      6  H   UNL d   1       0.001   3.594   1.051  0.00  0.00     0.171 HD
ATOM      7  C   UNL d   1       1.395   5.734   3.208  0.00  0.00     0.157 A 
ATOM      8  O   UNL d   1      -0.938   5.346   2.658  0.00  0.00    -0.272 OA
ATOM      9  S   UNL d   1       2.890   4.917   2.551  0.00  0.00    -0.077 SA
BRANCH   7  10
ATOM     10  C   UNL d   1       1.240   5.484   4.703  0.00  0.00     0.135 C 
BRANCH  10  11
ATOM     11  C   UNL d   1       2.303   6.200   5.492  0.00  0.00     0.141 C 
ATOM     12  O   UNL d   1       2.756   7.295   5.200  0.00  0.00    -0.650 OA
BRANCH  11  13
ATOM     13  O   UNL d   1       2.680   5.537   6.608  0.00  0.00    -0.776 OA
ATOM     14  H   UNL d   1       2.245   4.675   6.744  0.00  0.00     0.167 HD
ENDBRANCH  11  13
ENDBRANCH  10  11
ENDBRANCH   7  10
ENDBRANCH   1   3
BRANCH   1  15
ATOM     15  N   UNL d   1       3.790   2.692   0.864  0.00  0.00    -0.309 N 
ATOM     16  C   UNL d   1       4.197   1.734   0.097  0.00  0.00     0.118 C 
ATOM     17  HN  UNL d   1       4.405   3.241   1.465  1.00  0.00     0.186 HD
BRANCH  16  18
ATOM     18  C   UNL d   1       5.616   1.330   0.053  0.00  0.00    -0.019 A 
ATOM     19  C   UNL d   1       6.565   1.979   0.845  0.00  0.00     0.013 A 
ATOM     20  C   UNL d   1       7.897   1.561   0.818  0.00  0.00     0.008 A 
ATOM     21  C   UNL d   1       8.300   0.494  -0.001  0.00  0.00    -0.055 A 
ATOM     22  C   UNL d   1       7.335  -0.140  -0.801  0.00  0.00     0.008 A 
ATOM     23  C   UNL d   1       5.999   0.274  -0.775  0.00  0.00     0.013 A 
BRANCH  21  24
ATOM     24  C   UNL d   1       9.743   0.018  -0.023  0.00  0.00     0.010 C 
ATOM     25  C   UNL d   1      10.697   1.121  -0.489  0.00  0.00     0.015 C 
ATOM     26  C   UNL d   1      10.172  -0.528   1.342  0.00  0.00     0.015 C 
ENDBRANCH  21  24
ENDBRANCH  16  18
ENDBRANCH   1  15
TORSDOF 7
