REMARK  3 active torsions:
REMARK  status: ('A' for Active; 'I' for Inactive)
REMARK    1  A    between atoms: C_4  and  C_1 
REMARK    2  A    between atoms: N_6  and  C_2 
REMARK       I    between atoms: C_3  and  N_5 
REMARK       I    between atoms: N_7  and  C_3 
REMARK    3  A    between atoms: C_15  and  N_7 
ROOT
ATOM      1  C   UNL d   1      -2.983   6.273  -0.209  0.00  0.00     0.319 C 
ATOM      2  N   UNL d   1      -2.371   5.035  -0.095  0.00  0.00    -0.331 N 
ATOM      3  N   UNL d   1      -1.012   2.526  -0.105  0.00  0.00    -0.363 N 
ATOM      4  N   UNL d   1      -3.902   6.570   0.759  0.00  0.00    -0.335 N 
ATOM      5  O   UNL d   1      -2.734   7.032  -1.137  0.00  0.00    -0.247 OA
ATOM      6  C   UNL d   1      -2.354   4.175   1.106  0.00  0.00     0.147 C 
ATOM      7  C   UNL d   1      -1.302   4.748  -1.070  0.00  0.00     0.147 C 
ATOM      8  C   UNL d   1      -2.196   2.677   0.757  0.00  0.00     0.144 C 
ATOM      9  C   UNL d   1      -1.186   3.245  -1.381  0.00  0.00     0.144 C 
ATOM     10  H   UNL d   1      -4.293   5.767   1.217  0.00  0.00     0.165 HD
ENDROOT
BRANCH   3  11
ATOM     11  C   UNL d   1      -0.421   1.274  -0.145  0.00  0.00     0.118 A 
ATOM     12  C   UNL d   1       0.930   1.109  -0.462  0.00  0.00     0.091 A 
ATOM     13  C   UNL d   1       1.477  -0.190  -0.418  0.00  0.00     0.021 A 
ATOM     14  C   UNL d   1       0.702  -1.267  -0.026  0.00  0.00     0.018 A 
ATOM     15  C   UNL d   1      -0.614  -1.014   0.294  0.00  0.00     0.089 A 
ATOM     16  N   UNL d   1      -1.176   0.215   0.240  0.00  0.00    -0.352 N 
ATOM     17  HN  UNL d   1      -2.157   0.343   0.486  1.00  0.00     0.166 HD
BRANCH  12  18
ATOM     18  C   UNL d   1       1.855   2.236  -0.818  0.00  0.00     0.421 C 
ATOM     19  F   UNL d   1       1.464   3.490  -0.457  0.00  0.00    -0.166 F 
ATOM     20  F   UNL d   1       3.091   2.086  -0.254  0.00  0.00    -0.166 F 
ATOM     21  F   UNL d   1       2.083   2.297  -2.163  0.00  0.00    -0.166 F 
ENDBRANCH  12  18
ENDBRANCH   3  11
BRANCH   4  22
ATOM     22  C   UNL d   1      -4.836   7.707   0.657  0.00  0.00     0.023 C 
ATOM     23  C   UNL d   1      -5.756   7.514  -0.561  0.00  0.00     0.037 C 
ATOM     24  C   UNL d   1      -5.702   7.720   1.932  0.00  0.00     0.037 C 
ATOM     25  C   UNL d   1      -4.112   9.060   0.569  0.00  0.00     0.037 C 
ENDBRANCH   4  22
TORSDOF 3
