REMARK  1 active torsions:
REMARK  status: ('A' for Active; 'I' for Inactive)
REMARK    1  A    between atoms: C_2  and  C_1 
ROOT
ATOM      1  C   UNL d   1       1.245   0.230   1.096  0.00  0.00     0.217 C 
ATOM      2  O   UNL d   1       0.543  -0.278   2.262  0.00  0.00    -0.349 OA
ATOM      3  O   UNL d   1       2.460  -0.534   0.918  0.00  0.00    -0.349 OA
ATOM      4  C   UNL d   1       1.636   1.674   1.430  0.00  0.00     0.085 C 
ATOM      5  C   UNL d   1       2.603  -1.284   2.122  0.00  0.00     0.198 C 
ATOM      6  C   UNL d   1       1.183  -1.520   2.553  0.00  0.00     0.198 C 
ENDROOT
BRANCH   1   7
ATOM      7  C   UNL d   1       0.331   0.150  -0.196  0.00  0.00     0.217 C 
ATOM      8  O   UNL d   1      -0.269  -1.161  -0.337  0.00  0.00    -0.349 OA
ATOM      9  C   UNL d   1      -1.597  -1.007   0.149  0.00  0.00     0.198 C 
ATOM     10  C   UNL d   1      -1.948   0.420  -0.177  0.00  0.00     0.198 C 
ATOM     11  O   UNL d   1      -0.720   1.137  -0.115  0.00  0.00    -0.349 OA
ATOM     12  C   UNL d   1       1.131   0.398  -1.477  0.00  0.00     0.085 C 
ENDBRANCH   1   7
TORSDOF 1
