REMARK  1 active torsions:
REMARK  status: ('A' for Active; 'I' for Inactive)
REMARK    1  A    between atoms: N_2  and  C_1 
ROOT
ATOM      1  C   UNL d   1      -2.016  -0.907   0.039  0.00  0.00     0.171 A 
ATOM      2  N   UNL d   1      -1.492   0.040  -0.708  0.00  0.00    -0.334 N 
ATOM      3  HN  UNL d   1      -1.943   0.472  -1.514  1.00  0.00     0.168 HD
ATOM      4  S   UNL d   1      -1.032  -1.514   1.297  0.00  0.00    -0.050 SA
ATOM      5  C   UNL d   1      -0.231   0.358  -0.228  0.00  0.00     0.051 A 
ATOM      6  C   UNL d   1       0.200  -0.392   0.869  0.00  0.00     0.035 A 
ATOM      7  C   UNL d   1       0.621   1.358  -0.738  0.00  0.00     0.031 A 
ATOM      8  C   UNL d   1       1.453  -0.183   1.468  0.00  0.00     0.021 A 
ATOM      9  C   UNL d   1       1.864   1.587  -0.138  0.00  0.00     0.002 A 
ATOM     10  C   UNL d   1       2.274   0.823   0.950  0.00  0.00     0.002 A 
ENDROOT
BRANCH   1  11
ATOM     11  N   UNL d   1      -3.320  -1.413  -0.126  0.00  0.00    -0.238 N 
ATOM     12  N   UNL d   1      -3.805  -2.292   0.799  0.00  0.00    -0.296 N 
ATOM     13  C   UNL d   1      -5.078  -2.500   0.463  0.00  0.00     0.024 A 
ATOM     14  HN  UNL d   1      -3.300  -2.703   1.584  1.00  0.00     0.187 HD
ATOM     15  C   UNL d   1      -5.938  -3.384   1.285  0.00  0.00     0.070 C 
ATOM     16  C   UNL d   1      -5.423  -1.807  -0.709  0.00  0.00     0.052 A 
ATOM     17  C   UNL d   1      -4.279  -1.139  -1.097  0.00  0.00     0.034 A 
ATOM     18  C   UNL d   1      -4.077  -0.296  -2.303  0.00  0.00     0.070 C 
ENDBRANCH   1  11
TORSDOF 1
