REMARK  1 active torsions:
REMARK  status: ('A' for Active; 'I' for Inactive)
REMARK    1  A    between atoms: O_22  and  C_14 
ROOT
ATOM      1  C   UNL d   1      14.121   8.122  -2.321  0.00  0.00    -0.036 C 
ATOM      2  C   UNL d   1      10.119   9.807  -3.620  0.00  0.00    -0.014 C 
ATOM      3  C   UNL d   1      12.584   8.341  -2.556  0.00  0.00    -0.002 C 
ATOM      4  C   UNL d   1      11.103   9.117  -4.605  0.00  0.00     0.001 C 
ATOM      5  C   UNL d   1      12.041   8.046  -4.004  0.00  0.00    -0.005 C 
ATOM      6  C   UNL d   1      14.455   6.904  -3.233  0.00  0.00    -0.001 C 
ATOM      7  C   UNL d   1      15.275   5.550  -1.357  0.00  0.00     0.164 C 
ATOM      8  C   UNL d   1      10.480   9.611  -2.137  0.00  0.00     0.012 C 
ATOM      9  C   UNL d   1      11.990   9.605  -1.928  0.00  0.00     0.007 C 
ATOM     10  C   UNL d   1      14.407   7.849  -0.789  0.00  0.00     0.015 C 
ATOM     11  C   UNL d   1      13.034   7.561  -5.113  0.00  0.00     0.006 C 
ATOM     12  C   UNL d   1      10.216   8.490  -5.721  0.00  0.00     0.008 C 
ATOM     13  C   UNL d   1      15.613   6.040  -2.779  0.00  0.00     0.074 C 
ATOM     14  C   UNL d   1       8.761   9.152  -3.959  0.00  0.00     0.126 C 
ATOM     15  O   UNL d   1      13.904   5.127  -1.268  0.00  0.00    -0.353 OA
ATOM     16  O   UNL d   1      16.094   4.439  -1.010  0.00  0.00    -0.353 OA
ATOM     17  C   UNL d   1      14.473   7.289  -4.697  0.00  0.00     0.006 C 
ATOM     18  C   UNL d   1       8.800   8.966  -5.465  0.00  0.00     0.033 C 
ATOM     19  C   UNL d   1      15.443   6.760  -0.449  0.00  0.00     0.069 C 
ATOM     20  C   UNL d   1      14.913   9.396  -2.704  0.00  0.00     0.016 C 
ATOM     21  C   UNL d   1      10.108  11.327  -3.914  0.00  0.00     0.018 C 
ATOM     22  C   UNL d   1      13.897   3.709  -1.280  0.00  0.00     0.197 C 
ATOM     23  C   UNL d   1      15.337   3.309  -1.472  0.00  0.00     0.197 C 
ENDROOT
BRANCH  14  24
ATOM     24  O   UNL d   1       7.642   9.914  -3.545  0.00  0.00    -0.395 OA
ATOM     25  H   UNL d   1       7.561  10.693  -4.122  0.00  0.00     0.210 HD
ENDBRANCH  14  24
TORSDOF 1
