REMARK  10 active torsions:
REMARK  status: ('A' for Active; 'I' for Inactive)
REMARK    1  A    between atoms: N_6  and  C_1 
REMARK    2  A    between atoms: N_9  and  C_1 
REMARK    3  A    between atoms: C_2  and  N_10 
REMARK    4  A    between atoms: N_5  and  C_2 
REMARK    5  A    between atoms: C_3  and  N_6 
REMARK    6  A    between atoms: C_4  and  N_5 
REMARK    7  A    between atoms: C_16  and  N_9 
REMARK    8  A    between atoms: N_10  and  C_15 
REMARK    9  A    between atoms: C_15  and  C_18 
REMARK   10  A    between atoms: C_17  and  C_16 
ROOT
ATOM      1  C   UNL d   1       4.635  -0.150  -0.820  0.00  0.00     0.003 C 
ATOM      2  C   UNL d   1       6.022  -1.800  -2.923  0.00  0.00     0.003 C 
ATOM      3  C   UNL d   1       5.336   0.486  -2.036  0.00  0.00     0.007 C 
ATOM      4  C   UNL d   1       5.334  -2.451  -1.714  0.00  0.00     0.007 C 
ATOM      5  C   UNL d   1       5.370  -0.447  -3.248  0.00  0.00     0.007 C 
ATOM      6  C   UNL d   1       5.251  -1.521  -0.497  0.00  0.00     0.007 C 
ENDROOT
BRANCH   1   7
ATOM      7  C   UNL d   1       3.125  -0.235  -1.085  0.00  0.00     0.126 C 
BRANCH   7   8
ATOM      8  N   UNL d   1       2.319  -0.410   0.112  0.00  0.00    -0.367 N 
ATOM      9  H   UNL d   1       2.651   0.020   0.969  0.00  0.00     0.161 HD
BRANCH   8  10
ATOM     10  C   UNL d   1       0.976  -0.716   0.147  0.00  0.00     0.172 C 
ATOM     11  S   UNL d   1       0.149  -0.399   1.563  0.00  0.00    -0.041 SA
BRANCH  10  12
ATOM     12  N   UNL d   1       0.474  -1.199  -1.038  0.00  0.00    -0.332 N 
ATOM     13  H   UNL d   1       0.900  -0.764  -1.839  0.00  0.00     0.168 HD
BRANCH  12  14
ATOM     14  C   UNL d   1      -0.764  -1.819  -1.330  0.00  0.00     0.046 A 
ATOM     15  C   UNL d   1      -1.448  -1.388  -2.496  0.00  0.00    -0.035 A 
ATOM     16  C   UNL d   1      -2.596  -2.074  -2.927  0.00  0.00     0.009 A 
ATOM     17  C   UNL d   1      -1.025  -0.205  -3.332  0.00  0.00     0.050 C 
ATOM     18  C   UNL d   1      -3.089  -3.152  -2.207  0.00  0.00     0.001 A 
ATOM     19  C   UNL d   1      -2.430  -3.568  -1.057  0.00  0.00     0.009 A 
ATOM     20  C   UNL d   1      -1.251  -2.936  -0.616  0.00  0.00    -0.035 A 
ATOM     21  C   UNL d   1      -0.556  -3.608   0.540  0.00  0.00     0.050 C 
ENDBRANCH  12  14
ENDBRANCH  10  12
ENDBRANCH   8  10
ENDBRANCH   7   8
ENDBRANCH   1   7
BRANCH   2  22
ATOM     22  C   UNL d   1       7.537  -1.674  -2.680  0.00  0.00     0.126 C 
BRANCH  22  23
ATOM     23  N   UNL d   1       8.272  -1.264  -3.867  0.00  0.00    -0.367 N 
ATOM     24  H   UNL d   1       7.844  -1.442  -4.767  0.00  0.00     0.161 HD
BRANCH  23  25
ATOM     25  C   UNL d   1       9.612  -0.998  -3.900  0.00  0.00     0.172 C 
ATOM     26  S   UNL d   1      10.525  -0.490  -2.593  0.00  0.00    -0.041 SA
BRANCH  25  27
ATOM     27  N   UNL d   1      10.235  -1.079  -5.112  0.00  0.00    -0.332 N 
ATOM     28  H   UNL d   1      11.123  -0.591  -5.112  0.00  0.00     0.168 HD
BRANCH  27  29
ATOM     29  C   UNL d   1       9.887  -1.736  -6.318  0.00  0.00     0.046 A 
ATOM     30  C   UNL d   1      10.343  -1.166  -7.532  0.00  0.00    -0.035 A 
ATOM     31  C   UNL d   1       9.965  -1.751  -8.755  0.00  0.00     0.009 A 
ATOM     32  C   UNL d   1      11.182   0.083  -7.638  0.00  0.00     0.050 C 
ATOM     33  C   UNL d   1       9.172  -2.893  -8.791  0.00  0.00     0.001 A 
ATOM     34  C   UNL d   1       8.791  -3.494  -7.603  0.00  0.00     0.009 A 
ATOM     35  C   UNL d   1       9.177  -2.958  -6.358  0.00  0.00    -0.035 A 
ATOM     36  C   UNL d   1       8.882  -3.827  -5.162  0.00  0.00     0.050 C 
ENDBRANCH  27  29
ENDBRANCH  25  27
ENDBRANCH  23  25
ENDBRANCH  22  23
ENDBRANCH   2  22
TORSDOF 10
