REMARK  5 active torsions:
REMARK  status: ('A' for Active; 'I' for Inactive)
REMARK    1  A    between atoms: C_2  and  N_1 
REMARK    2  A    between atoms: S_11  and  C_4 
REMARK    3  A    between atoms: C_14  and  S_11 
REMARK    4  A    between atoms: O_13  and  C_15 
REMARK    5  A    between atoms: C_15  and  C_14 
ROOT
ATOM      1  C   UNL d   1       0.385   0.380   1.224  0.00  0.00     0.121 A 
ATOM      2  N   UNL d   1       0.829   4.033   4.390  0.00  0.00    -0.191 NA
ATOM      3  C   UNL d   1      -0.681  -0.419   1.666  0.00  0.00     0.033 A 
ATOM      4  C   UNL d   1       0.511   3.083   3.804  0.00  0.00     0.099 C 
ATOM      5  C   UNL d   1       0.791   1.533   1.921  0.00  0.00     0.060 A 
ATOM      6  C   UNL d   1       0.113   1.911   3.081  0.00  0.00     0.047 A 
ATOM      7  C   UNL d   1      -1.357  -0.005   2.827  0.00  0.00     0.022 A 
ATOM      8  C   UNL d   1      -0.964   1.142   3.529  0.00  0.00     0.024 A 
ENDROOT
BRANCH   1   9
ATOM      9  N   UNL d   1       1.105   0.074   0.005  0.00  0.00    -0.114 N 
ATOM     10  O   UNL d   1       0.455   0.025  -1.048  0.00  0.00    -0.532 OA
ATOM     11  O   UNL d   1       2.333  -0.055   0.096  0.00  0.00    -0.532 OA
ENDBRANCH   1   9
BRANCH   3  12
ATOM     12  S   UNL d   1      -1.298  -1.919   0.910  0.00  0.00    -0.125 SA
BRANCH  12  13
ATOM     13  C   UNL d   1       0.152  -3.042   1.017  0.00  0.00     0.105 C 
BRANCH  13  14
ATOM     14  C   UNL d   1       0.627  -3.316   2.442  0.00  0.00     0.174 C 
BRANCH  14  15
ATOM     15  O   UNL d   1       1.292  -2.182   2.989  0.00  0.00    -0.400 OA
ATOM     16  H   UNL d   1       1.594  -2.431   3.880  0.00  0.00     0.209 HD
ENDBRANCH  14  15
ENDBRANCH  13  14
ENDBRANCH  12  13
ENDBRANCH   3  12
TORSDOF 5
