REMARK  7 active torsions:
REMARK  status: ('A' for Active; 'I' for Inactive)
REMARK    1  A    between atoms: N_6  and  C_1 
REMARK    2  A    between atoms: C_7  and  C_2 
REMARK    3  A    between atoms: C_11  and  C_5 
REMARK       I    between atoms: C_8  and  N_6 
REMARK    4  A    between atoms: O_19  and  C_7 
REMARK    5  A    between atoms: C_12  and  C_8 
REMARK    6  A    between atoms: N_9  and  C_12 
REMARK    7  A    between atoms: C_23  and  O_19 
ROOT
ATOM      1  C   UNL d   1       0.331   1.274   0.050  0.00  0.00     0.093 A 
ATOM      2  C   UNL d   1       1.547   0.608   0.174  0.00  0.00     0.074 A 
ATOM      3  S   UNL d   1      -0.956   0.146  -0.074  0.00  0.00    -0.071 SA
ATOM      4  C   UNL d   1       1.352  -0.829   0.094  0.00  0.00     0.040 A 
ATOM      5  C   UNL d   1       0.035  -1.226   0.033  0.00  0.00     0.018 A 
ENDROOT
BRANCH   1   6
ATOM      6  N   UNL d   1       0.031   2.646  -0.023  0.00  0.00    -0.319 N 
ATOM      7  C   UNL d   1      -1.254   3.181   0.005  0.00  0.00     0.251 C 
ATOM      8  O   UNL d   1      -2.296   2.560   0.235  0.00  0.00    -0.271 OA
ATOM      9  H   UNL d   1       0.805   3.301  -0.071  0.00  0.00     0.169 HD
BRANCH   7  10
ATOM     10  C   UNL d   1      -1.392   4.699  -0.126  0.00  0.00     0.375 C 
BRANCH  10  11
ATOM     11  N   UNL d   1      -0.531   5.395  -1.119  0.00  0.00     0.100 N 
ATOM     12  C   UNL d   1      -0.789   4.923  -2.501  0.00  0.00     0.303 C 
ATOM     13  C   UNL d   1      -0.143   5.823  -3.593  0.00  0.00     0.302 C 
ATOM     14  N   UNL d   1      -0.453   7.262  -3.517  0.00  0.00     0.087 N 
ATOM     15  C   UNL d   1      -0.270   7.734  -2.135  0.00  0.00     0.302 C 
ATOM     16  C   UNL d   1      -1.778   7.581  -4.040  0.00  0.00     0.310 C 
ATOM     17  C   UNL d   1      -0.906   6.840  -1.049  0.00  0.00     0.303 C 
ENDBRANCH  10  11
ENDBRANCH   7  10
ENDBRANCH   1   6
BRANCH   2  18
ATOM     18  C   UNL d   1       2.897   1.123   0.400  0.00  0.00     0.296 C 
ATOM     19  O   UNL d   1       3.875   0.391   0.371  0.00  0.00    -0.259 OA
BRANCH  18  20
ATOM     20  O   UNL d   1       2.960   2.445   0.740  0.00  0.00    -0.318 OA
BRANCH  20  21
ATOM     21  C   UNL d   1       4.275   2.860   1.161  0.00  0.00     0.174 C 
ATOM     22  C   UNL d   1       4.527   2.486   2.616  0.00  0.00     0.034 C 
ENDBRANCH  20  21
ENDBRANCH  18  20
ENDBRANCH   2  18
BRANCH   5  23
ATOM     23  C   UNL d   1      -0.526  -2.589   0.092  0.00  0.00    -0.019 A 
ATOM     24  C   UNL d   1      -1.768  -2.916  -0.474  0.00  0.00     0.013 A 
ATOM     25  C   UNL d   1      -2.292  -4.208  -0.366  0.00  0.00     0.001 A 
ATOM     26  C   UNL d   1      -1.577  -5.198   0.302  0.00  0.00     0.000 A 
ATOM     27  C   UNL d   1      -0.338  -4.899   0.858  0.00  0.00     0.001 A 
ATOM     28  C   UNL d   1       0.181  -3.607   0.754  0.00  0.00     0.013 A 
ENDBRANCH   5  23
TORSDOF 7
