REMARK  6 active torsions:
REMARK  status: ('A' for Active; 'I' for Inactive)
REMARK    1  A    between atoms: C_8  and  N_1 
REMARK    2  A    between atoms: C_10  and  C_2 
REMARK    3  A    between atoms: S_12  and  C_3 
REMARK    4  A    between atoms: C_9  and  C_8 
REMARK    5  A    between atoms: C_16  and  C_10 
REMARK    6  A    between atoms: O_19  and  C_18 
ROOT
ATOM      1  N   UNL d   1       0.026  -0.133  -0.882  0.00  0.00    -0.309 N 
ATOM      2  C   UNL d   1       1.002  -0.574  -0.002  0.00  0.00     0.104 A 
ATOM      3  C   UNL d   1      -1.118  -0.046  -0.123  0.00  0.00     0.160 A 
ATOM      4  N   UNL d   1       0.493  -0.601   1.214  0.00  0.00    -0.286 N 
ATOM      5  HN  UNL d   1       1.003  -0.822   2.070  1.00  0.00     0.188 HD
ATOM      6  N   UNL d   1      -0.835  -0.284   1.135  0.00  0.00    -0.278 N 
ATOM      7  HN  UNL d   1      -1.489  -0.241   1.916  1.00  0.00     0.189 HD
ENDROOT
BRANCH   2   8
ATOM      8  C   UNL d   1       2.402  -0.984  -0.334  0.00  0.00     0.116 C 
BRANCH   8   9
ATOM      9  C   UNL d   1       2.633  -2.478  -0.517  0.00  0.00    -0.048 A 
ATOM     10  C   UNL d   1       3.955  -2.970  -0.443  0.00  0.00     0.044 A 
ATOM     11  C   UNL d   1       4.236  -4.327  -0.639  0.00  0.00     0.068 A 
ATOM     12  C   UNL d   1       3.189  -5.205  -0.918  0.00  0.00     0.037 A 
ATOM     13  C   UNL d   1       1.878  -4.742  -0.989  0.00  0.00     0.003 A 
ATOM     14  C   UNL d   1       1.601  -3.389  -0.792  0.00  0.00     0.007 A 
BRANCH  11  15
ATOM     15  O   UNL d   1       5.470  -4.913  -0.601  0.00  0.00    -0.356 OA
ATOM     16  C   UNL d   1       6.557  -4.117  -0.151  0.00  0.00     0.210 C 
ENDBRANCH  11  15
ENDBRANCH   8   9
ENDBRANCH   2   8
BRANCH   1  17
ATOM     17  C   UNL d   1       0.163   0.053  -2.318  0.00  0.00     0.197 C 
BRANCH  17  18
ATOM     18  C   UNL d   1      -0.099   1.458  -2.727  0.00  0.00     0.070 A 
ATOM     19  O   UNL d   1      -1.374   1.738  -3.133  0.00  0.00    -0.325 OA
ATOM     20  C   UNL d   1      -1.431   3.062  -3.423  0.00  0.00     0.142 A 
ATOM     21  C   UNL d   1      -0.193   3.638  -3.255  0.00  0.00     0.027 A 
ATOM     22  C   UNL d   1       0.672   2.603  -2.817  0.00  0.00     0.036 A 
ENDBRANCH  17  18
ENDBRANCH   1  17
BRANCH   3  23
ATOM     23  S   UNL d   1      -2.723   0.243  -0.697  0.00  0.00    -0.105 SA
ATOM     24  H   UNL d   1      -2.459   0.734  -1.916  0.00  0.00     0.110 HD
ENDBRANCH   3  23
TORSDOF 6
