REMARK  4 active torsions:
REMARK  status: ('A' for Active; 'I' for Inactive)
REMARK       I    between atoms: N_2  and  C_1 
REMARK       I    between atoms: N_3  and  C_1 
REMARK    1  A    between atoms: C_5  and  N_3 
REMARK    2  A    between atoms: C_6  and  N_4 
REMARK    3  A    between atoms: O_19  and  C_9 
REMARK    4  A    between atoms: O_20  and  C_14 
ROOT
ATOM      1  C   UNL d   1       1.275   0.067   0.005  0.00  0.00     0.323 C 
ATOM      2  N   UNL d   1       0.797  -0.419   1.226  0.00  0.00    -0.331 N 
ATOM      3  N   UNL d   1       0.735  -0.515  -1.120  0.00  0.00    -0.306 N 
ATOM      4  N   UNL d   1      -0.424  -0.739   3.813  0.00  0.00    -0.376 N 
ATOM      5  O   UNL d   1       2.107   0.976  -0.022  0.00  0.00    -0.247 OA
ATOM      6  C   UNL d   1       1.274   0.332   2.403  0.00  0.00     0.147 C 
ATOM      7  C   UNL d   1      -0.537  -1.024   1.375  0.00  0.00     0.147 C 
ATOM      8  C   UNL d   1       0.996  -0.347   3.758  0.00  0.00     0.143 C 
ATOM      9  C   UNL d   1      -0.771  -1.685   2.743  0.00  0.00     0.143 C 
ATOM     10  H   UNL d   1       0.102  -1.283  -1.006  0.00  0.00     0.171 HD
ENDROOT
BRANCH   3  11
ATOM     11  C   UNL d   1       1.001  -0.180  -2.469  0.00  0.00     0.071 A 
ATOM     12  C   UNL d   1       2.083   0.615  -2.854  0.00  0.00     0.056 A 
ATOM     13  C   UNL d   1       2.333   0.870  -4.204  0.00  0.00     0.036 A 
ATOM     14 CL   UNL d   1       3.710   1.799  -4.655  0.00  0.00    -0.084 Cl
ATOM     15  C   UNL d   1       1.498   0.352  -5.190  0.00  0.00     0.026 A 
ATOM     16  C   UNL d   1       0.410  -0.443  -4.823  0.00  0.00     0.041 A 
ATOM     17  C   UNL d   1       0.164  -0.709  -3.469  0.00  0.00     0.095 A 
BRANCH  17  18
ATOM     18  O   UNL d   1      -0.879  -1.559  -3.197  0.00  0.00    -0.354 OA
ATOM     19  C   UNL d   1      -1.974  -0.923  -2.536  0.00  0.00     0.210 C 
ENDBRANCH  17  18
ENDBRANCH   3  11
BRANCH   4  20
ATOM     20  C   UNL d   1      -1.037  -0.854   5.063  0.00  0.00     0.064 A 
ATOM     21  C   UNL d   1      -1.136   0.227   5.972  0.00  0.00     0.094 A 
ATOM     22  C   UNL d   1      -1.858   0.110   7.169  0.00  0.00     0.039 A 
ATOM     23  C   UNL d   1      -2.503  -1.079   7.496  0.00  0.00     0.003 A 
ATOM     24  C   UNL d   1      -2.389  -2.169   6.646  0.00  0.00     0.002 A 
ATOM     25  C   UNL d   1      -1.664  -2.054   5.454  0.00  0.00     0.032 A 
BRANCH  21  26
ATOM     26  O   UNL d   1      -0.502   1.437   5.819  0.00  0.00    -0.354 OA
ATOM     27  C   UNL d   1      -0.924   2.181   4.682  0.00  0.00     0.210 C 
ENDBRANCH  21  26
ENDBRANCH   4  20
TORSDOF 4
