REMARK  4 active torsions:
REMARK  status: ('A' for Active; 'I' for Inactive)
REMARK    1  A    between atoms: C_6  and  C_1 
REMARK    2  A    between atoms: C_10  and  N_2 
REMARK    3  A    between atoms: C_8  and  C_4 
REMARK       I    between atoms: N_7  and  C_6 
REMARK    4  A    between atoms: C_9  and  N_7 
ROOT
ATOM      1  C   UNL d   1      -0.177   0.992   0.110  0.00  0.00     0.057 C 
ATOM      2  N   UNL d   1       1.020  -0.953   0.333  0.00  0.00    -0.318 N 
ATOM      3  C   UNL d   1       1.017   0.446   0.565  0.00  0.00     0.029 C 
ATOM      4  C   UNL d   1      -0.353  -1.295   0.132  0.00  0.00     0.025 C 
ATOM      5  C   UNL d   1      -1.027  -0.101  -0.117  0.00  0.00     0.045 C 
ATOM      6  C   UNL d   1       2.107   1.235   1.227  0.00  0.00     0.070 C 
ENDROOT
BRANCH   1   7
ATOM      7  C   UNL d   1      -0.460   2.424  -0.058  0.00  0.00     0.258 C 
ATOM      8  N   UNL d   1      -1.786   2.776   0.144  0.00  0.00    -0.322 N 
ATOM      9  H   UNL d   1      -2.350   2.116   0.656  0.00  0.00     0.169 HD
ATOM     10  O   UNL d   1       0.442   3.215  -0.330  0.00  0.00    -0.267 OA
BRANCH   8  11
ATOM     11  C   UNL d   1      -2.369   4.023  -0.191  0.00  0.00     0.041 A 
ATOM     12  C   UNL d   1      -3.553   4.457   0.438  0.00  0.00    -0.035 A 
ATOM     13  C   UNL d   1      -4.225   3.725   1.567  0.00  0.00     0.050 C 
ATOM     14  C   UNL d   1      -4.157   5.659   0.012  0.00  0.00     0.009 A 
ATOM     15  C   UNL d   1      -3.593   6.431  -1.001  0.00  0.00     0.001 A 
ATOM     16  C   UNL d   1      -2.417   6.012  -1.607  0.00  0.00     0.002 A 
ATOM     17  C   UNL d   1      -1.811   4.820  -1.205  0.00  0.00     0.030 A 
ENDBRANCH   8  11
ENDBRANCH   1   7
BRANCH   2  18
ATOM     18  C   UNL d   1       2.229  -1.786   0.303  0.00  0.00     0.039 A 
ATOM     19  C   UNL d   1       3.501  -1.202   0.155  0.00  0.00     0.030 A 
ATOM     20  C   UNL d   1       4.688  -1.956   0.169  0.00  0.00     0.002 A 
ATOM     21  C   UNL d   1       4.638  -3.337   0.274  0.00  0.00     0.000 A 
ATOM     22  C   UNL d   1       3.402  -3.952   0.350  0.00  0.00     0.002 A 
ATOM     23  C   UNL d   1       2.224  -3.185   0.364  0.00  0.00     0.030 A 
ENDBRANCH   2  18
BRANCH   4  24
ATOM     24  C   UNL d   1      -1.022  -2.679   0.089  0.00  0.00    -0.008 C 
ATOM     25  C   UNL d   1      -2.574  -2.563  -0.048  0.00  0.00     0.021 C 
ATOM     26  C   UNL d   1      -0.593  -3.457  -1.177  0.00  0.00     0.021 C 
ATOM     27  C   UNL d   1      -0.841  -3.421   1.436  0.00  0.00     0.021 C 
ENDBRANCH   4  24
TORSDOF 4
