REMARK  6 active torsions:
REMARK  status: ('A' for Active; 'I' for Inactive)
REMARK    1  A    between atoms: C_2  and  C_1 
REMARK    2  A    between atoms: N_3  and  C_1 
REMARK    3  A    between atoms: C_8  and  N_4 
REMARK    4  A    between atoms: C_5  and  O_7 
REMARK    5  A    between atoms: O_7  and  C_6 
REMARK    6  A    between atoms: O_19  and  C_14 
ROOT
ATOM      1  N   UNL d   1       0.644  -0.189   1.143  0.00  0.00    -0.270 NA
ATOM      2  N   UNL d   1      -0.497  -0.342   3.784  0.00  0.00    -0.376 N 
ATOM      3  C   UNL d   1       1.158   0.666   2.241  0.00  0.00     0.116 C 
ATOM      4  C   UNL d   1      -0.730  -0.661   1.388  0.00  0.00     0.116 C 
ATOM      5  C   UNL d   1       0.911   0.089   3.663  0.00  0.00     0.138 C 
ATOM      6  C   UNL d   1      -0.878  -1.325   2.759  0.00  0.00     0.138 C 
ENDROOT
BRANCH   1   7
ATOM      7  C   UNL d   1       0.895   0.251  -0.177  0.00  0.00     0.092 C 
ATOM      8  S   UNL d   1       0.127   1.599  -0.846  0.00  0.00    -0.066 SA
BRANCH   7   9
ATOM      9  C   UNL d   1       1.777  -0.669  -0.973  0.00  0.00     0.030 A 
ATOM     10  C   UNL d   1       2.719  -0.233  -1.925  0.00  0.00     0.091 A 
ATOM     11  C   UNL d   1       3.366  -1.173  -2.742  0.00  0.00     0.038 A 
ATOM     12  C   UNL d   1       3.104  -2.538  -2.602  0.00  0.00     0.003 A 
ATOM     13  C   UNL d   1       2.211  -2.979  -1.641  0.00  0.00     0.001 A 
ATOM     14  C   UNL d   1       1.559  -2.053  -0.823  0.00  0.00     0.017 A 
BRANCH  10  15
ATOM     15  O   UNL d   1       2.959   1.076  -2.238  0.00  0.00    -0.254 OA
BRANCH  15  16
ATOM     16  C   UNL d   1       3.675   1.819  -1.258  0.00  0.00     0.530 C 
ATOM     17  F   UNL d   1       3.497   1.363  -0.000  0.00  0.00    -0.144 F 
ATOM     18  F   UNL d   1       4.996   1.785  -1.541  0.00  0.00    -0.144 F 
ATOM     19  F   UNL d   1       3.274   3.110  -1.305  0.00  0.00    -0.144 F 
ENDBRANCH  15  16
ENDBRANCH  10  15
ENDBRANCH   7   9
ENDBRANCH   1   7
BRANCH   2  20
ATOM     20  C   UNL d   1      -1.074  -0.432   5.051  0.00  0.00     0.064 A 
ATOM     21  C   UNL d   1      -1.295   0.695   5.875  0.00  0.00     0.094 A 
ATOM     22  C   UNL d   1      -1.971   0.573   7.100  0.00  0.00     0.039 A 
ATOM     23  C   UNL d   1      -2.448  -0.660   7.534  0.00  0.00     0.003 A 
ATOM     24  C   UNL d   1      -2.218  -1.785   6.762  0.00  0.00     0.002 A 
ATOM     25  C   UNL d   1      -1.539  -1.671   5.541  0.00  0.00     0.032 A 
BRANCH  21  26
ATOM     26  O   UNL d   1      -0.860   1.973   5.620  0.00  0.00    -0.354 OA
ATOM     27  C   UNL d   1      -1.233   2.506   4.354  0.00  0.00     0.210 C 
ENDBRANCH  21  26
ENDBRANCH   2  20
TORSDOF 6
