REMARK  7 active torsions:
REMARK  status: ('A' for Active; 'I' for Inactive)
REMARK    1  A    between atoms: S_7  and  C_1 
REMARK    2  A    between atoms: C_3  and  C_5 
REMARK    3  A    between atoms: O_11  and  C_3 
REMARK    4  A    between atoms: O_13  and  C_4 
REMARK    5  A    between atoms: C_5  and  C_10 
REMARK    6  A    between atoms: C_10  and  S_7 
REMARK    7  A    between atoms: O_14  and  C_9 
ROOT
ATOM      1  C   UNL d   1       1.531  -0.276   0.126  0.00  0.00     0.036 A 
ATOM      2  C   UNL d   1       0.618  -1.350   0.084  0.00  0.00     0.058 A 
ATOM      3  C   UNL d   1       1.042   1.040   0.081  0.00  0.00     0.085 A 
ATOM      4  C   UNL d   1      -0.343   1.251   0.017  0.00  0.00     0.041 A 
ATOM      5  C   UNL d   1      -0.759  -1.130   0.017  0.00  0.00     0.069 A 
ATOM      6  C   UNL d   1      -1.234   0.178  -0.022  0.00  0.00     0.039 A 
ENDROOT
BRANCH   1   7
ATOM      7  S   UNL d   1       3.257  -0.747   0.224  0.00  0.00    -0.127 SA
BRANCH   7   8
ATOM      8  C   UNL d   1       3.522  -0.597   2.024  0.00  0.00     0.090 C 
BRANCH   8   9
ATOM      9  C   UNL d   1       4.993  -0.880   2.303  0.00  0.00     0.120 C 
BRANCH   9  10
ATOM     10  C   UNL d   1       5.291  -0.842   3.777  0.00  0.00     0.140 C 
ATOM     11  O   UNL d   1       4.473  -0.625   4.657  0.00  0.00    -0.650 OA
BRANCH  10  12
ATOM     12  O   UNL d   1       6.594  -1.087   4.042  0.00  0.00    -0.776 OA
ATOM     13  H   UNL d   1       7.142  -1.248   3.249  0.00  0.00     0.167 HD
ENDBRANCH  10  12
ENDBRANCH   9  10
ENDBRANCH   8   9
ENDBRANCH   7   8
ENDBRANCH   1   7
BRANCH   3  14
ATOM     14  O   UNL d   1       1.756   2.205   0.179  0.00  0.00    -0.355 OA
ATOM     15  C   UNL d   1       2.953   2.299  -0.582  0.00  0.00     0.210 C 
ENDBRANCH   3  14
BRANCH   5  16
ATOM     16  O   UNL d   1      -1.728  -2.094  -0.011  0.00  0.00    -0.356 OA
ATOM     17  C   UNL d   1      -1.296  -3.448   0.056  0.00  0.00     0.210 C 
ENDBRANCH   5  16
TORSDOF 7
