REMARK  29 active torsions:
REMARK  status: ('A' for Active; 'I' for Inactive)
REMARK    1  A    between atoms: C_2  and  C_1 
REMARK       I    between atoms: N_7  and  C_1 
REMARK       I    between atoms: N_8  and  C_2 
REMARK    2  A    between atoms: C_3  and  C_6 
REMARK    3  A    between atoms: C_11  and  C_3 
REMARK    4  A    between atoms: C_4  and  C_5 
REMARK    5  A    between atoms: C_12  and  C_4 
REMARK    6  A    between atoms: C_9  and  N_7 
REMARK    7  A    between atoms: C_10  and  N_8 
REMARK       I    between atoms: N_20  and  C_11 
REMARK       I    between atoms: N_19  and  C_12 
REMARK    8  A    between atoms: C_26  and  N_19 
REMARK    9  A    between atoms: C_25  and  N_20 
REMARK   10  A    between atoms: C_27  and  C_25 
REMARK   11  A    between atoms: C_28  and  C_26 
REMARK   12  A    between atoms: C_33  and  C_27 
REMARK   13  A    between atoms: C_35  and  C_28 
REMARK   14  A    between atoms: C_29  and  C_32 
REMARK   15  A    between atoms: C_30  and  C_31 
REMARK   16  A    between atoms: C_31  and  C_44 
REMARK   17  A    between atoms: C_32  and  C_36 
REMARK   18  A    between atoms: C_38  and  C_33 
REMARK   19  A    between atoms: C_34  and  C_46 
REMARK   20  A    between atoms: C_36  and  C_34 
REMARK   21  A    between atoms: C_37  and  C_35 
REMARK   22  A    between atoms: C_39  and  C_37 
REMARK   23  A    between atoms: C_45  and  C_38 
REMARK   24  A    between atoms: C_41  and  C_39 
REMARK   25  A    between atoms: C_40  and  C_45 
REMARK   26  A    between atoms: C_46  and  C_40 
REMARK   27  A    between atoms: C_42  and  C_41 
REMARK   28  A    between atoms: C_43  and  C_42 
REMARK   29  A    between atoms: C_44  and  C_43 
ROOT
ATOM      1  C   UNL d   1       0.665   0.328   0.246  0.00  0.00     0.314 C 
ATOM      2  N   UNL d   1       1.974  -0.108   0.544  0.00  0.00    -0.318 N 
ATOM      3  O   UNL d   1      -0.183   0.768   1.011  0.00  0.00    -0.262 OA
ATOM      4  H   UNL d   1       2.501  -0.483  -0.251  0.00  0.00     0.169 HD
ENDROOT
BRANCH   1   5
ATOM      5  C   UNL d   1       0.239   0.051  -1.200  0.00  0.00     0.314 C 
ATOM      6  N   UNL d   1      -1.154   0.016  -1.432  0.00  0.00    -0.318 N 
ATOM      7  H   UNL d   1      -1.734   0.128  -0.593  0.00  0.00     0.169 HD
ATOM      8  O   UNL d   1       1.140  -0.254  -1.976  0.00  0.00    -0.262 OA
BRANCH   6   9
ATOM      9  C   UNL d   1      -1.683  -0.738  -2.520  0.00  0.00     0.049 C 
ATOM     10  C   UNL d   1      -2.777  -1.623  -2.402  0.00  0.00     0.046 C 
ATOM     11  C   UNL d   1      -2.753  -2.761  -3.241  0.00  0.00     0.018 C 
ATOM     12  C   UNL d   1      -1.787  -2.930  -4.238  0.00  0.00     0.001 C 
ATOM     13  C   UNL d   1      -0.917  -1.894  -4.523  0.00  0.00     0.002 C 
ATOM     14  C   UNL d   1      -0.898  -0.786  -3.688  0.00  0.00     0.030 C 
BRANCH  10  15
ATOM     15  C   UNL d   1      -4.003  -1.542  -1.516  0.00  0.00     0.251 C 
ATOM     16  O   UNL d   1      -4.998  -2.216  -1.800  0.00  0.00    -0.281 OA
BRANCH  15  17
ATOM     17  C   UNL d   1      -4.130  -0.660  -0.296  0.00  0.00     0.292 C 
ATOM     18  O   UNL d   1      -3.173  -0.027   0.137  0.00  0.00    -0.264 OA
ATOM     19  N   UNL d   1      -5.382  -0.655   0.325  0.00  0.00    -0.354 N 
ATOM     20  H   UNL d   1      -6.133  -1.136  -0.165  0.00  0.00     0.162 HD
BRANCH  19  21
ATOM     21  C   UNL d   1      -5.653   0.140   1.510  0.00  0.00     0.123 C 
BRANCH  21  22
ATOM     22  C   UNL d   1      -6.680  -0.481   2.464  0.00  0.00     0.020 C 
BRANCH  22  23
ATOM     23  C   UNL d   1      -6.256  -1.868   2.943  0.00  0.00     0.002 C 
BRANCH  23  24
ATOM     24  C   UNL d   1      -7.264  -2.504   3.904  0.00  0.00     0.000 C 
BRANCH  24  25
ATOM     25  C   UNL d   1      -6.803  -3.919   4.258  0.00  0.00     0.000 C 
BRANCH  25  26
ATOM     26  C   UNL d   1      -7.773  -4.633   5.193  0.00  0.00     0.000 C 
BRANCH  26  27
ATOM     27  C   UNL d   1      -7.267  -6.041   5.503  0.00  0.00     0.000 C 
BRANCH  27  28
ATOM     28  C   UNL d   1      -8.221  -6.778   6.436  0.00  0.00     0.000 C 
BRANCH  28  29
ATOM     29  C   UNL d   1      -7.709  -8.184   6.744  0.00  0.00     0.000 C 
BRANCH  29  30
ATOM     30  C   UNL d   1      -8.668  -8.916   7.679  0.00  0.00    -0.000 C 
BRANCH  30  31
ATOM     31  C   UNL d   1      -8.167 -10.323   7.995  0.00  0.00    -0.005 C 
ATOM     32  C   UNL d   1      -9.125 -11.048   8.925  0.00  0.00     0.005 C 
ENDBRANCH  30  31
ENDBRANCH  29  30
ENDBRANCH  28  29
ENDBRANCH  27  28
ENDBRANCH  26  27
ENDBRANCH  25  26
ENDBRANCH  24  25
ENDBRANCH  23  24
ENDBRANCH  22  23
ENDBRANCH  21  22
ENDBRANCH  19  21
ENDBRANCH  15  17
ENDBRANCH  10  15
ENDBRANCH   6   9
ENDBRANCH   1   5
BRANCH   2  33
ATOM     33  C   UNL d   1       2.336  -0.524   1.855  0.00  0.00     0.049 C 
ATOM     34  C   UNL d   1       3.094  -1.687   2.111  0.00  0.00     0.046 C 
ATOM     35  C   UNL d   1       2.804  -2.370   3.316  0.00  0.00     0.018 C 
ATOM     36  C   UNL d   1       1.924  -1.854   4.274  0.00  0.00     0.001 C 
ATOM     37  C   UNL d   1       1.418  -0.578   4.113  0.00  0.00     0.002 C 
ATOM     38  C   UNL d   1       1.661   0.096   2.924  0.00  0.00     0.030 C 
BRANCH  34  39
ATOM     39  C   UNL d   1       4.141  -2.356   1.256  0.00  0.00     0.251 C 
ATOM     40  O   UNL d   1       4.556  -3.480   1.557  0.00  0.00    -0.281 OA
BRANCH  39  41
ATOM     41  C   UNL d   1       4.841  -1.696   0.054  0.00  0.00     0.292 C 
ATOM     42  O   UNL d   1       4.375  -0.700  -0.473  0.00  0.00    -0.264 OA
ATOM     43  N   UNL d   1       5.977  -2.367  -0.376  0.00  0.00    -0.354 N 
ATOM     44  H   UNL d   1       6.201  -3.234   0.114  0.00  0.00     0.162 HD
BRANCH  43  45
ATOM     45  C   UNL d   1       6.696  -2.043  -1.605  0.00  0.00     0.123 C 
BRANCH  45  46
ATOM     46  C   UNL d   1       7.992  -1.260  -1.357  0.00  0.00     0.020 C 
BRANCH  46  47
ATOM     47  C   UNL d   1       8.701  -0.855  -2.663  0.00  0.00     0.002 C 
BRANCH  47  48
ATOM     48  C   UNL d   1       9.957  -0.011  -2.396  0.00  0.00     0.000 C 
BRANCH  48  49
ATOM     49  C   UNL d   1      10.641   0.430  -3.696  0.00  0.00     0.000 C 
BRANCH  49  50
ATOM     50  C   UNL d   1      11.879   1.293  -3.425  0.00  0.00     0.000 C 
BRANCH  50  51
ATOM     51  C   UNL d   1      12.546   1.732  -4.731  0.00  0.00     0.000 C 
BRANCH  51  52
ATOM     52  C   UNL d   1      13.779   2.597  -4.467  0.00  0.00     0.000 C 
BRANCH  52  53
ATOM     53  C   UNL d   1      14.441   3.030  -5.776  0.00  0.00     0.000 C 
BRANCH  53  54
ATOM     54  C   UNL d   1      15.674   3.893  -5.510  0.00  0.00    -0.000 C 
BRANCH  54  55
ATOM     55  C   UNL d   1      16.338   4.330  -6.814  0.00  0.00    -0.005 C 
ATOM     56  C   UNL d   1      17.564   5.187  -6.545  0.00  0.00     0.005 C 
ENDBRANCH  54  55
ENDBRANCH  53  54
ENDBRANCH  52  53
ENDBRANCH  51  52
ENDBRANCH  50  51
ENDBRANCH  49  50
ENDBRANCH  48  49
ENDBRANCH  47  48
ENDBRANCH  46  47
ENDBRANCH  45  46
ENDBRANCH  43  45
ENDBRANCH  39  41
ENDBRANCH  34  39
ENDBRANCH   2  33
TORSDOF 29
