REMARK  5 active torsions:
REMARK  status: ('A' for Active; 'I' for Inactive)
REMARK    1  A    between atoms: C_5  and  C_3 
REMARK    2  A    between atoms: C_7  and  C_3 
REMARK    3  A    between atoms: N_6  and  C_4 
REMARK    4  A    between atoms: C_12  and  C_7 
REMARK    5  A    between atoms: N_14  and  C_13 
ROOT
ATOM      1  N   UNL d   1       4.635  -2.435  -0.567  0.00  0.00    -0.197 NA
ATOM      2  C   UNL d   1       4.257  -1.359  -0.340  0.00  0.00     0.069 C 
ATOM      3  C   UNL d   1       3.759  -0.002  -0.047  0.00  0.00     0.130 C 
ENDROOT
BRANCH   3   4
ATOM      4  C   UNL d   1       2.236  -0.010   0.018  0.00  0.00    -0.040 A 
ATOM      5  C   UNL d   1       1.560  -0.800   0.962  0.00  0.00     0.010 A 
ATOM      6  C   UNL d   1       0.167  -0.798   1.027  0.00  0.00     0.024 A 
ATOM      7  C   UNL d   1      -0.588  -0.052   0.123  0.00  0.00     0.005 A 
ATOM      8  C   UNL d   1       0.082   0.763  -0.793  0.00  0.00     0.024 A 
ATOM      9  C   UNL d   1       1.479   0.772  -0.864  0.00  0.00     0.010 A 
BRANCH   7  10
ATOM     10  N   UNL d   1      -1.972   0.055   0.289  0.00  0.00    -0.303 NA
ATOM     11  H   UNL d   1      -2.466   0.327  -0.554  0.00  0.00     0.124 HD
ATOM     12  H   UNL d   1      -2.392  -0.754   0.737  0.00  0.00     0.124 HD
ENDBRANCH   7  10
ENDBRANCH   3   4
BRANCH   3  13
ATOM     13  C   UNL d   1       4.348   0.566   1.266  0.00  0.00     0.062 C 
BRANCH  13  14
ATOM     14  C   UNL d   1       5.856   0.610   1.277  0.00  0.00    -0.057 A 
ATOM     15  C   UNL d   1       6.559   1.702   0.771  0.00  0.00     0.009 A 
ATOM     16  C   UNL d   1       7.962   1.670   0.693  0.00  0.00     0.030 A 
ATOM     17  C   UNL d   1       8.717   0.562   1.113  0.00  0.00     0.029 A 
ATOM     18  C   UNL d   1       7.981  -0.493   1.678  0.00  0.00     0.030 A 
ATOM     19  C   UNL d   1       6.583  -0.480   1.754  0.00  0.00     0.009 A 
BRANCH  17  20
ATOM     20  N   UNL d   1      10.111   0.512   1.054  0.00  0.00    -0.390 N 
ATOM     21  C   UNL d   1      10.751  -0.769   0.730  0.00  0.00     0.149 C 
ATOM     22  C   UNL d   1      10.874   1.668   0.584  0.00  0.00     0.149 C 
ENDBRANCH  17  20
ENDBRANCH  13  14
ENDBRANCH   3  13
TORSDOF 5
