REMARK  2 active torsions:
REMARK  status: ('A' for Active; 'I' for Inactive)
REMARK    1  A    between atoms: C_9  and  C_6 
REMARK    2  A    between atoms: O_15  and  C_10 
ROOT
ATOM      1  N   UNL d   1      -1.427   4.343   1.064  0.00  0.00    -0.307 N 
ATOM      2  C   UNL d   1      -2.639   4.633   1.612  0.00  0.00     0.146 A 
ATOM      3  C   UNL d   1      -2.536   2.359   0.548  0.00  0.00     0.076 A 
ATOM      4  C   UNL d   1      -1.266   3.127   0.462  0.00  0.00     0.264 A 
ATOM      5  S   UNL d   1      -3.729   3.285   1.383  0.00  0.00    -0.055 SA
ATOM      6  C   UNL d   1      -2.661   1.134   0.022  0.00  0.00     0.036 C 
ATOM      7  S   UNL d   1      -2.985   6.062   2.372  0.00  0.00    -0.052 SA
ATOM      8  O   UNL d   1      -0.235   2.742  -0.066  0.00  0.00    -0.267 OA
ATOM      9  H   UNL d   1      -0.661   5.000   1.091  0.00  0.00     0.170 HD
ENDROOT
BRANCH   6  10
ATOM     10  C   UNL d   1      -3.880   0.325   0.048  0.00  0.00    -0.035 A 
ATOM     11  C   UNL d   1      -4.811   0.430  -0.992  0.00  0.00     0.014 A 
ATOM     12  C   UNL d   1      -5.960  -0.363  -0.985  0.00  0.00     0.037 A 
ATOM     13  C   UNL d   1      -6.174  -1.256   0.058  0.00  0.00     0.065 A 
ATOM     14  C   UNL d   1      -5.266  -1.360   1.107  0.00  0.00     0.037 A 
ATOM     15  C   UNL d   1      -4.117  -0.565   1.102  0.00  0.00     0.014 A 
BRANCH  13  16
ATOM     16  O   UNL d   1      -7.298  -2.027   0.011  0.00  0.00    -0.361 OA
ATOM     17  H   UNL d   1      -7.292  -2.631   0.772  0.00  0.00     0.217 HD
ENDBRANCH  13  16
ENDBRANCH   6  10
TORSDOF 2
