REMARK  7 active torsions:
REMARK  status: ('A' for Active; 'I' for Inactive)
REMARK    1  A    between atoms: C_7  and  C_1 
REMARK    2  A    between atoms: C_2  and  C_5 
REMARK    3  A    between atoms: C_3  and  C_4 
REMARK    4  A    between atoms: C_8  and  O_19 
REMARK       I    between atoms: N_9  and  C_8 
REMARK    5  A    between atoms: C_11  and  N_9 
REMARK    6  A    between atoms: C_27  and  C_15 
REMARK    7  A    between atoms: O_19  and  C_27 
ROOT
ATOM      1  C   UNL d   1       1.722   0.071  -0.229  0.00  0.00     0.086 A 
ATOM      2  O   UNL d   1       0.944  -1.003  -0.577  0.00  0.00    -0.312 OA
ATOM      3  C   UNL d   1       1.361   0.508   1.030  0.00  0.00     0.040 A 
ATOM      4  C   UNL d   1       0.120  -1.274   0.479  0.00  0.00     0.078 A 
ATOM      5  C   UNL d   1       0.342  -0.361   1.488  0.00  0.00     0.038 A 
ENDROOT
BRANCH   4   6
ATOM      6  C   UNL d   1      -0.826  -2.413   0.346  0.00  0.00     0.245 C 
BRANCH   6   7
ATOM      7  O   UNL d   1      -0.112  -3.621   0.052  0.00  0.00    -0.297 OA
BRANCH   7   8
ATOM      8  C   UNL d   1       0.466  -4.266   1.078  0.00  0.00     0.365 C 
ATOM      9  N   UNL d   1       1.138  -5.425   0.786  0.00  0.00    -0.302 N 
ATOM     10  H   UNL d   1       1.548  -5.770   1.646  0.00  0.00     0.171 HD
ATOM     11  O   UNL d   1       0.423  -3.873   2.243  0.00  0.00    -0.238 OA
BRANCH   9  12
ATOM     12  C   UNL d   1       1.075  -6.380  -0.267  0.00  0.00     0.048 C 
ATOM     13  C   UNL d   1       0.460  -6.255  -1.551  0.00  0.00     0.001 C 
ATOM     14  C   UNL d   1       0.143  -7.449  -2.260  0.00  0.00    -0.024 C 
ATOM     15  C   UNL d   1       0.168  -5.052  -2.233  0.00  0.00     0.014 C 
ATOM     16  C   UNL d   1      -0.623  -7.404  -3.435  0.00  0.00     0.012 C 
ATOM     17  C   UNL d   1       0.609  -8.687  -1.805  0.00  0.00     0.012 C 
ATOM     18  C   UNL d   1      -1.022  -6.192  -3.990  0.00  0.00     0.001 C 
ATOM     19  C   UNL d   1      -0.584  -5.010  -3.415  0.00  0.00     0.001 C 
ATOM     20  C   UNL d   1       1.377  -8.778  -0.654  0.00  0.00     0.003 C 
ATOM     21  C   UNL d   1       1.587  -7.640   0.116  0.00  0.00     0.030 C 
ENDBRANCH   9  12
ENDBRANCH   7   8
ENDBRANCH   6   7
ENDBRANCH   4   6
BRANCH   1  22
ATOM     22  C   UNL d   1       2.752   0.463  -1.191  0.00  0.00    -0.001 A 
ATOM     23  C   UNL d   1       2.755  -0.049  -2.496  0.00  0.00     0.030 A 
ATOM     24  C   UNL d   1       3.794   0.241  -3.397  0.00  0.00     0.049 A 
ATOM     25  C   UNL d   1       4.840   1.078  -2.983  0.00  0.00     0.032 A 
ATOM     26  C   UNL d   1       4.858   1.617  -1.688  0.00  0.00     0.049 A 
ATOM     27  C   UNL d   1       3.801   1.313  -0.809  0.00  0.00     0.030 A 
BRANCH  24  28
ATOM     28  C   UNL d   1       3.775  -0.372  -4.778  0.00  0.00     0.417 C 
ATOM     29  F   UNL d   1       4.904  -0.118  -5.497  0.00  0.00    -0.166 F 
ATOM     30  F   UNL d   1       3.652  -1.727  -4.744  0.00  0.00    -0.166 F 
ATOM     31  F   UNL d   1       2.739   0.082  -5.535  0.00  0.00    -0.166 F 
ENDBRANCH  24  28
BRANCH  26  32
ATOM     32  C   UNL d   1       5.999   2.489  -1.219  0.00  0.00     0.417 C 
ATOM     33  F   UNL d   1       7.034   2.550  -2.102  0.00  0.00    -0.166 F 
ATOM     34  F   UNL d   1       5.615   3.777  -1.001  0.00  0.00    -0.166 F 
ATOM     35  F   UNL d   1       6.536   2.055  -0.045  0.00  0.00    -0.166 F 
ENDBRANCH  26  32
ENDBRANCH   1  22
TORSDOF 7
