REMARK  4 active torsions:
REMARK  status: ('A' for Active; 'I' for Inactive)
REMARK       I    between atoms: N_2  and  C_1 
REMARK    1  A    between atoms: C_3  and  C_1 
REMARK       I    between atoms: C_4  and  N_2 
REMARK    2  A    between atoms: C_5  and  C_4 
REMARK    3  A    between atoms: O_11  and  C_6 
REMARK    4  A    between atoms: O_13  and  C_10 
ROOT
ATOM      1  C   UNL d   1      -1.014   0.551   0.664  0.00  0.00     0.261 C 
ATOM      2  N   UNL d   1       0.343   0.781   0.797  0.00  0.00    -0.289 N 
ATOM      3  C   UNL d   1       0.915   1.339   1.931  0.00  0.00     0.258 C 
ATOM      4  O   UNL d   1      -1.880   0.886   1.465  0.00  0.00    -0.267 OA
ATOM      5  O   UNL d   1       0.324   1.658   2.953  0.00  0.00    -0.267 OA
ATOM      6  H   UNL d   1       0.923   0.665  -0.018  0.00  0.00     0.172 HD
ENDROOT
BRANCH   1   7
ATOM      7  C   UNL d   1      -1.474  -0.093  -0.595  0.00  0.00     0.065 A 
ATOM      8  C   UNL d   1      -2.767   0.189  -1.067  0.00  0.00     0.081 A 
ATOM      9  C   UNL d   1      -3.253  -0.415  -2.224  0.00  0.00     0.037 A 
ATOM     10  C   UNL d   1      -2.462  -1.335  -2.907  0.00  0.00     0.003 A 
ATOM     11  C   UNL d   1      -1.183  -1.642  -2.439  0.00  0.00     0.001 A 
ATOM     12  C   UNL d   1      -0.684  -1.023  -1.286  0.00  0.00     0.020 A 
BRANCH   8  13
ATOM     13  O   UNL d   1      -3.623   1.051  -0.432  0.00  0.00    -0.360 OA
ATOM     14  H   UNL d   1      -3.271   1.212   0.474  0.00  0.00     0.217 HD
ENDBRANCH   8  13
ENDBRANCH   1   7
BRANCH   3  15
ATOM     15  C   UNL d   1       2.381   1.589   1.865  0.00  0.00     0.035 A 
ATOM     16  C   UNL d   1       2.885   2.705   2.552  0.00  0.00     0.053 A 
ATOM     17  C   UNL d   1       4.246   2.999   2.510  0.00  0.00     0.069 A 
ATOM     18  C   UNL d   1       5.105   2.152   1.806  0.00  0.00     0.037 A 
ATOM     19  C   UNL d   1       4.615   1.021   1.149  0.00  0.00     0.004 A 
ATOM     20  C   UNL d   1       3.250   0.736   1.176  0.00  0.00     0.017 A 
BRANCH  17  21
ATOM     21  O   UNL d   1       4.855   4.071   3.102  0.00  0.00    -0.356 OA
ATOM     22  C   UNL d   1       4.018   4.982   3.805  0.00  0.00     0.210 C 
ENDBRANCH  17  21
ENDBRANCH   3  15
TORSDOF 4
