REMARK  3 active torsions:
REMARK  status: ('A' for Active; 'I' for Inactive)
REMARK    1  A    between atoms: C_4  and  C_1 
REMARK       I    between atoms: C_2  and  N_3 
REMARK       I    between atoms: N_8  and  C_2 
REMARK    2  A    between atoms: N_3  and  C_7 
REMARK    3  A    between atoms: C_12  and  N_8 
ROOT
ATOM      1  C   UNL d   1      -1.658   5.384   2.110  0.00  0.00     0.326 C 
ATOM      2  N   UNL d   1      -0.536   5.106   1.379  0.00  0.00    -0.294 N 
ATOM      3  N   UNL d   1      -2.474   4.337   2.421  0.00  0.00    -0.309 N 
ATOM      4  O   UNL d   1      -1.843   6.558   2.415  0.00  0.00    -0.247 OA
ATOM      5  H   UNL d   1      -0.015   5.947   1.174  0.00  0.00     0.172 HD
ATOM      6  H   UNL d   1      -2.075   3.422   2.236  0.00  0.00     0.170 HD
ENDROOT
BRANCH   2   7
ATOM      7  C   UNL d   1      -0.173   3.936   0.714  0.00  0.00     0.108 A 
ATOM      8  C   UNL d   1       0.884   4.023  -0.186  0.00  0.00     0.049 A 
ATOM      9  C   UNL d   1       1.149   2.940  -1.022  0.00  0.00     0.021 A 
ATOM     10  C   UNL d   1       0.360   1.793  -0.933  0.00  0.00     0.063 A 
ATOM     11  C   UNL d   1      -0.604   1.760   0.063  0.00  0.00     0.106 A 
ATOM     12  N   UNL d   1      -0.886   2.801   0.886  0.00  0.00    -0.351 N 
ATOM     13  HN  UNL d   1      -1.606   2.730   1.605  1.00  0.00     0.166 HD
BRANCH  10  14
ATOM     14  C   UNL d   1       0.500   0.667  -1.912  0.00  0.00     0.418 C 
ATOM     15  F   UNL d   1      -0.426  -0.317  -1.744  0.00  0.00    -0.166 F 
ATOM     16  F   UNL d   1       1.714   0.058  -1.851  0.00  0.00    -0.166 F 
ATOM     17  F   UNL d   1       0.358   1.091  -3.199  0.00  0.00    -0.166 F 
ENDBRANCH  10  14
ENDBRANCH   2   7
BRANCH   3  18
ATOM     18  C   UNL d   1      -3.788   4.401   2.932  0.00  0.00     0.038 A 
ATOM     19  C   UNL d   1      -4.542   5.575   2.960  0.00  0.00     0.054 A 
ATOM     20  C   UNL d   1      -5.885   5.552   3.353  0.00  0.00     0.042 A 
ATOM     21 CL   UNL d   1      -6.771   7.037   3.289  0.00  0.00    -0.084 Cl
ATOM     22  C   UNL d   1      -6.498   4.354   3.748  0.00  0.00    -0.040 A 
ATOM     23  C   UNL d   1      -5.720   3.187   3.771  0.00  0.00     0.011 A 
ATOM     24  C   UNL d   1      -7.965   4.280   4.067  0.00  0.00     0.050 C 
ATOM     25  C   UNL d   1      -4.383   3.209   3.357  0.00  0.00     0.030 A 
ENDBRANCH   3  18
TORSDOF 3
