REMARK  4 active torsions:
REMARK  status: ('A' for Active; 'I' for Inactive)
REMARK    1  A    between atoms: C_2  and  C_1 
REMARK       I    between atoms: N_4  and  C_1 
REMARK    2  A    between atoms: C_11  and  N_4 
REMARK    3  A    between atoms: O_10  and  C_12 
REMARK    4  A    between atoms: C_12  and  C_11 
ROOT
ATOM      1  C   UNL d   1       2.517   0.011  -0.001  0.00  0.00     0.251 C 
ATOM      2  O   UNL d   1       3.097  -0.960   0.469  0.00  0.00    -0.268 OA
ATOM      3  N   UNL d   1       3.185   1.084  -0.557  0.00  0.00    -0.355 N 
ATOM      4  H   UNL d   1       2.682   1.736  -1.143  0.00  0.00     0.162 HD
ENDROOT
BRANCH   1   5
ATOM      5  C   UNL d   1       1.025   0.054  -0.026  0.00  0.00     0.032 A 
ATOM      6  C   UNL d   1       0.302   1.251  -0.025  0.00  0.00     0.017 A 
ATOM      7  C   UNL d   1      -1.098   1.227  -0.026  0.00  0.00     0.007 A 
ATOM      8  C   UNL d   1      -1.792   0.007  -0.027  0.00  0.00    -0.062 A 
ATOM      9  C   UNL d   1      -1.065  -1.187  -0.014  0.00  0.00     0.007 A 
ATOM     10  C   UNL d   1      -3.294  -0.004  -0.035  0.00  0.00     0.048 C 
ATOM     11  C   UNL d   1       0.333  -1.165  -0.008  0.00  0.00     0.017 A 
ENDBRANCH   1   5
BRANCH   3  12
ATOM     12  C   UNL d   1       4.637   1.100  -0.660  0.00  0.00     0.148 C 
BRANCH  12  13
ATOM     13  C   UNL d   1       5.162   0.379  -1.905  0.00  0.00     0.183 C 
BRANCH  13  14
ATOM     14  O   UNL d   1       4.705   1.036  -3.089  0.00  0.00    -0.399 OA
ATOM     15  H   UNL d   1       5.048   0.520  -3.840  0.00  0.00     0.209 HD
ENDBRANCH  13  14
ENDBRANCH  12  13
ENDBRANCH   3  12
TORSDOF 4
