REMARK  8 active torsions:
REMARK  status: ('A' for Active; 'I' for Inactive)
REMARK    1  A    between atoms: N_14  and  C_1 
REMARK    2  A    between atoms: C_8  and  C_4 
REMARK    3  A    between atoms: O_20  and  C_8 
REMARK    4  A    between atoms: C_9  and  N_14 
REMARK    5  A    between atoms: C_11  and  C_13 
REMARK    6  A    between atoms: O_21  and  C_11 
REMARK    7  A    between atoms: C_23  and  O_20 
REMARK    8  A    between atoms: C_22  and  O_21 
ROOT
ATOM      1  C   UNL d   1      -6.574   0.815  -0.614  0.00  0.00     0.135 C 
ATOM      2  C   UNL d   1      -5.352   1.377  -0.547  0.00  0.00     0.119 C 
ATOM      3  C   UNL d   1      -6.818  -0.463  -0.050  0.00  0.00     0.107 C 
ATOM      4  N   UNL d   1      -6.934  -1.517   0.430  0.00  0.00    -0.191 NA
ENDROOT
BRANCH   1   5
ATOM      5  C   UNL d   1      -7.705   1.447  -1.338  0.00  0.00     0.305 C 
ATOM      6  O   UNL d   1      -8.811   0.933  -1.428  0.00  0.00    -0.258 OA
BRANCH   5   7
ATOM      7  O   UNL d   1      -7.318   2.581  -1.976  0.00  0.00    -0.317 OA
BRANCH   7   8
ATOM      8  C   UNL d   1      -8.180   3.018  -3.039  0.00  0.00     0.174 C 
ATOM      9  C   UNL d   1      -7.712   2.356  -4.322  0.00  0.00     0.034 C 
ENDBRANCH   7   8
ENDBRANCH   5   7
ENDBRANCH   1   5
BRANCH   2  10
ATOM     10  N   UNL d   1      -4.182   0.842  -0.040  0.00  0.00    -0.345 N 
ATOM     11  H   UNL d   1      -4.207  -0.145   0.207  0.00  0.00     0.167 HD
BRANCH  10  12
ATOM     12  C   UNL d   1      -2.968   1.444  -0.006  0.00  0.00     0.149 A 
ATOM     13  N   UNL d   1      -2.755   2.737  -0.082  0.00  0.00    -0.335 N 
ATOM     14  C   UNL d   1      -1.403   3.010   0.017  0.00  0.00     0.051 A 
ATOM     15  HN  UNL d   1      -3.484   3.442  -0.197  1.00  0.00     0.168 HD
ATOM     16  C   UNL d   1      -0.815   4.291   0.045  0.00  0.00     0.032 A 
ATOM     17  C   UNL d   1      -0.574   1.892   0.095  0.00  0.00     0.036 A 
ATOM     18  C   UNL d   1       0.578   4.419   0.131  0.00  0.00     0.020 A 
ATOM     19  C   UNL d   1       1.395   3.284   0.174  0.00  0.00     0.041 A 
ATOM     20  C   UNL d   1       0.825   2.001   0.151  0.00  0.00     0.038 A 
ATOM     21  S   UNL d   1      -1.550   0.479   0.140  0.00  0.00    -0.052 SA
BRANCH  19  22
ATOM     22  C   UNL d   1       2.873   3.370   0.329  0.00  0.00     0.293 C 
ATOM     23  O   UNL d   1       3.596   2.390   0.398  0.00  0.00    -0.259 OA
BRANCH  22  24
ATOM     24  O   UNL d   1       3.252   4.660   0.496  0.00  0.00    -0.318 OA
BRANCH  24  25
ATOM     25  C   UNL d   1       4.541   4.846   1.098  0.00  0.00     0.174 C 
ATOM     26  C   UNL d   1       4.347   4.890   2.603  0.00  0.00     0.034 C 
ENDBRANCH  24  25
ENDBRANCH  22  24
ENDBRANCH  19  22
ENDBRANCH  10  12
ENDBRANCH   2  10
TORSDOF 8
