REMARK  1 active torsions:
REMARK  status: ('A' for Active; 'I' for Inactive)
REMARK    1  A    between atoms: C_13  and  C_11 
ROOT
ATOM      1  N   UNL d   1       0.134  -0.435   0.043  0.00  0.00    -0.237 N 
ATOM      2  C   UNL d   1       0.432   0.887  -0.014  0.00  0.00     0.175 A 
ATOM      3  C   UNL d   1       1.349  -1.066   0.062  0.00  0.00     0.166 A 
ATOM      4  C   UNL d   1      -1.204  -0.768   0.078  0.00  0.00     0.273 A 
ATOM      5  C   UNL d   1      -1.982   0.516   0.013  0.00  0.00     0.079 A 
ATOM      6  N   UNL d   1       2.302  -0.139   0.011  0.00  0.00    -0.281 N 
ATOM      7  HN  UNL d   1       3.306  -0.321   0.007  1.00  0.00     0.188 HD
ATOM      8  N   UNL d   1       1.714   1.105  -0.037  0.00  0.00    -0.277 N 
ATOM      9  HN  UNL d   1       2.185   2.009  -0.081  1.00  0.00     0.189 HD
ATOM     10  S   UNL d   1      -0.929   1.914  -0.026  0.00  0.00    -0.046 SA
ATOM     11  C   UNL d   1      -3.325   0.514   0.009  0.00  0.00     0.061 C 
ATOM     12  C   UNL d   1       1.649  -2.458   0.144  0.00  0.00     0.120 A 
ATOM     13  O   UNL d   1       0.728  -3.469   0.115  0.00  0.00    -0.319 OA
ATOM     14  O   UNL d   1      -1.620  -1.905   0.145  0.00  0.00    -0.266 OA
ATOM     15  C   UNL d   1       2.912  -3.021   0.267  0.00  0.00     0.043 A 
ATOM     16  C   UNL d   1       1.399  -4.645   0.229  0.00  0.00     0.142 A 
ATOM     17  C   UNL d   1       2.749  -4.422   0.332  0.00  0.00     0.027 A 
ENDROOT
BRANCH  11  18
ATOM     18  C   UNL d   1      -4.109   1.701  -0.103  0.00  0.00     0.077 A 
ATOM     19  O   UNL d   1      -3.703   2.816  -0.801  0.00  0.00    -0.316 OA
ATOM     20  C   UNL d   1      -4.654   3.777  -0.702  0.00  0.00     0.050 A 
ATOM     21  C   UNL d   1      -4.357   5.060  -1.369  0.00  0.00     0.076 C 
ATOM     22  C   UNL d   1      -5.715   3.305   0.032  0.00  0.00     0.035 A 
ATOM     23  C   UNL d   1      -5.377   1.977   0.399  0.00  0.00     0.040 A 
ENDBRANCH  11  18
TORSDOF 1
