REMARK  7 active torsions:
REMARK  status: ('A' for Active; 'I' for Inactive)
REMARK    1  A    between atoms: C_12  and  N_1 
REMARK    2  A    between atoms: S_5  and  C_10 
REMARK    3  A    between atoms: N_18  and  S_5 
REMARK    4  A    between atoms: S_11  and  C_6 
REMARK    5  A    between atoms: C_25  and  S_11 
REMARK    6  A    between atoms: C_15  and  C_25 
REMARK       I    between atoms: N_17  and  C_15 
REMARK    7  A    between atoms: C_26  and  N_17 
ROOT
ATOM      1  N   UNL d   1      -0.121   0.027   0.993  0.00  0.00    -0.273 N 
ATOM      2  C   UNL d   1       0.664   0.543  -0.041  0.00  0.00     0.163 C 
ATOM      3  N   UNL d   1       0.018   0.452  -1.186  0.00  0.00    -0.281 N 
ATOM      4  HN  UNL d   1       0.403   0.646  -2.111  1.00  0.00     0.188 HD
ATOM      5  C   UNL d   1      -1.365  -0.122   0.381  0.00  0.00     0.168 C 
ATOM      6  N   UNL d   1      -1.261   0.052  -0.915  0.00  0.00    -0.278 N 
ATOM      7  HN  UNL d   1      -2.004  -0.087  -1.600  1.00  0.00     0.189 HD
ATOM      8  C   UNL d   1       1.931   1.201   0.083  0.00  0.00     0.120 A 
ATOM      9  O   UNL d   1       2.332   1.849   1.225  0.00  0.00    -0.319 OA
ATOM     10  C   UNL d   1       2.931   1.339  -0.868  0.00  0.00     0.043 A 
ATOM     11  C   UNL d   1       3.569   2.358   1.008  0.00  0.00     0.142 A 
ATOM     12  C   UNL d   1       3.988   2.067  -0.266  0.00  0.00     0.027 A 
ENDROOT
BRANCH   5  13
ATOM     13  S   UNL d   1      -2.864  -0.542   1.147  0.00  0.00    -0.083 SA
BRANCH  13  14
ATOM     14  C   UNL d   1      -3.559  -1.707  -0.055  0.00  0.00     0.185 C 
BRANCH  14  15
ATOM     15  C   UNL d   1      -4.918  -2.275   0.352  0.00  0.00     0.231 C 
ATOM     16  N   UNL d   1      -5.569  -1.627   1.386  0.00  0.00    -0.327 N 
ATOM     17  H   UNL d   1      -5.105  -0.799   1.744  0.00  0.00     0.169 HD
ATOM     18  O   UNL d   1      -5.365  -3.241  -0.268  0.00  0.00    -0.272 OA
BRANCH  16  19
ATOM     19  C   UNL d   1      -6.763  -2.010   2.033  0.00  0.00     0.034 A 
ATOM     20  C   UNL d   1      -7.474  -3.174   1.726  0.00  0.00     0.031 A 
ATOM     21  C   UNL d   1      -8.616  -3.528   2.451  0.00  0.00     0.027 A 
ATOM     22  C   UNL d   1      -9.050  -2.714   3.497  0.00  0.00     0.074 A 
ATOM     23  C   UNL d   1      -8.378  -1.528   3.794  0.00  0.00     0.027 A 
ATOM     24  C   UNL d   1      -7.234  -1.184   3.065  0.00  0.00     0.031 A 
BRANCH  22  25
ATOM     25  S   UNL d   1     -10.471  -3.186   4.436  0.00  0.00     0.239 S 
ATOM     26  O   UNL d   1     -11.030  -2.017   5.074  0.00  0.00    -0.206 OA
ATOM     27  O   UNL d   1     -11.272  -4.108   3.667  0.00  0.00    -0.206 OA
BRANCH  25  28
ATOM     28  N   UNL d   1      -9.775  -4.094   5.666  0.00  0.00    -0.225 NA
ATOM     29  H   UNL d   1      -9.962  -3.658   6.569  0.00  0.00     0.136 HD
ATOM     30  H   UNL d   1     -10.086  -5.064   5.601  0.00  0.00     0.136 HD
ENDBRANCH  25  28
ENDBRANCH  22  25
ENDBRANCH  16  19
ENDBRANCH  14  15
ENDBRANCH  13  14
ENDBRANCH   5  13
BRANCH   1  31
ATOM     31  C   UNL d   1       0.312  -0.343   2.310  0.00  0.00     0.043 A 
ATOM     32  C   UNL d   1      -0.555  -0.352   3.408  0.00  0.00     0.030 A 
ATOM     33  C   UNL d   1      -0.105  -0.753   4.672  0.00  0.00     0.002 A 
ATOM     34  C   UNL d   1       1.220  -1.130   4.861  0.00  0.00     0.000 A 
ATOM     35  C   UNL d   1       2.096  -1.121   3.784  0.00  0.00     0.002 A 
ATOM     36  C   UNL d   1       1.644  -0.748   2.515  0.00  0.00     0.030 A 
ENDBRANCH   1  31
TORSDOF 7
