REMARK  6 active torsions:
REMARK  status: ('A' for Active; 'I' for Inactive)
REMARK    1  A    between atoms: O_2  and  C_1 
REMARK    2  A    between atoms: C_7  and  O_2 
REMARK    3  A    between atoms: O_9  and  C_3 
REMARK    4  A    between atoms: C_12  and  C_6 
REMARK    5  A    between atoms: C_10  and  C_7 
REMARK    6  A    between atoms: O_11  and  C_12 
ROOT
ATOM      1  C   UNL d   1       1.380  -0.197   0.026  0.00  0.00     0.103 A 
ATOM      2  C   UNL d   1       0.553  -1.328  -0.040  0.00  0.00     0.101 A 
ATOM      3  C   UNL d   1       0.774   1.064   0.198  0.00  0.00     0.049 A 
ATOM      4  C   UNL d   1      -0.842  -1.158   0.013  0.00  0.00     0.040 A 
ATOM      5  C   UNL d   1      -0.617   1.239   0.204  0.00  0.00    -0.032 A 
ATOM      6  C   UNL d   1      -1.426   0.108   0.126  0.00  0.00     0.012 A 
ENDROOT
BRANCH   1   7
ATOM      7  O   UNL d   1       2.748  -0.335  -0.105  0.00  0.00    -0.344 OA
BRANCH   7   8
ATOM      8  C   UNL d   1       3.443   0.876  -0.429  0.00  0.00     0.214 C 
BRANCH   8   9
ATOM      9  C   UNL d   1       4.878   0.700  -0.873  0.00  0.00    -0.034 A 
ATOM     10  C   UNL d   1       5.604  -0.483  -0.703  0.00  0.00     0.009 A 
ATOM     11  C   UNL d   1       6.940  -0.551  -1.105  0.00  0.00     0.001 A 
ATOM     12  C   UNL d   1       7.567   0.564  -1.669  0.00  0.00     0.000 A 
ATOM     13  C   UNL d   1       6.856   1.748  -1.835  0.00  0.00     0.001 A 
ATOM     14  C   UNL d   1       5.526   1.815  -1.437  0.00  0.00     0.009 A 
ENDBRANCH   8   9
ENDBRANCH   7   8
ENDBRANCH   1   7
BRANCH   2  15
ATOM     15  O   UNL d   1       0.899  -2.644  -0.193  0.00  0.00    -0.353 OA
ATOM     16  C   UNL d   1       2.251  -3.019   0.009  0.00  0.00     0.210 C 
ENDBRANCH   2  15
BRANCH   5  17
ATOM     17  C   UNL d   1      -1.227   2.611   0.325  0.00  0.00     0.203 C 
BRANCH  17  18
ATOM     18  O   UNL d   1      -0.369   3.594  -0.248  0.00  0.00    -0.396 OA
ATOM     19  H   UNL d   1      -0.840   4.441  -0.198  0.00  0.00     0.209 HD
ENDBRANCH  17  18
ENDBRANCH   5  17
TORSDOF 6
