REMARK  4 active torsions:
REMARK  status: ('A' for Active; 'I' for Inactive)
REMARK       I    between atoms: C_4  and  N_1 
REMARK       I    between atoms: C_5  and  N_1 
REMARK    1  A    between atoms: C_6  and  C_2 
REMARK    2  A    between atoms: C_11  and  C_4 
REMARK       I    between atoms: N_12  and  C_5 
REMARK    3  A    between atoms: C_8  and  C_20 
REMARK    4  A    between atoms: C_20  and  N_12 
ROOT
ATOM      1  N   UNL d   1       3.410  -0.081   1.017  0.00  0.00    -0.275 N 
ATOM      2  C   UNL d   1       4.790   0.000   0.934  0.00  0.00     0.259 C 
ATOM      3  C   UNL d   1       2.518  -0.238  -0.020  0.00  0.00     0.323 C 
ATOM      4  N   UNL d   1       3.066  -0.327  -1.260  0.00  0.00    -0.338 N 
ATOM      5  O   UNL d   1       5.425  -0.153  -0.105  0.00  0.00    -0.267 OA
ATOM      6  O   UNL d   1       1.315  -0.276   0.210  0.00  0.00    -0.247 OA
ATOM      7  H   UNL d   1       2.954  -0.038   1.914  0.00  0.00     0.173 HD
ATOM      8  H   UNL d   1       4.083  -0.338  -1.322  0.00  0.00     0.164 HD
ENDROOT
BRANCH   4   9
ATOM      9  C   UNL d   1       2.314  -0.507  -2.475  0.00  0.00     0.170 C 
BRANCH   9  10
ATOM     10  C   UNL d   1       2.719  -1.807  -3.096  0.00  0.00     0.001 A 
ATOM     11  S   UNL d   1       4.043  -1.886  -4.181  0.00  0.00    -0.092 SA
ATOM     12  C   UNL d   1       3.820  -3.566  -4.470  0.00  0.00     0.022 A 
ATOM     13  C   UNL d   1       2.773  -4.054  -3.708  0.00  0.00     0.021 A 
ATOM     14  C   UNL d   1       2.145  -3.048  -2.918  0.00  0.00     0.018 A 
BRANCH  12  15
ATOM     15  C   UNL d   1       4.640  -4.293  -5.416  0.00  0.00     0.021 A 
ATOM     16  S   UNL d   1       4.030  -5.667  -6.254  0.00  0.00    -0.101 SA
ATOM     17  C   UNL d   1       5.481  -5.877  -7.129  0.00  0.00     0.050 A 
ATOM     18  C   UNL d   1       6.427  -4.939  -6.788  0.00  0.00     0.008 A 
ATOM     19  C   UNL d   1       5.944  -4.029  -5.801  0.00  0.00     0.021 A 
ENDBRANCH  12  15
ENDBRANCH   9  10
ENDBRANCH   4   9
BRANCH   2  20
ATOM     20  C   UNL d   1       5.532   0.265   2.193  0.00  0.00     0.032 A 
ATOM     21  C   UNL d   1       6.834  -0.248   2.295  0.00  0.00     0.018 A 
ATOM     22  C   UNL d   1       7.625   0.048   3.405  0.00  0.00     0.025 A 
ATOM     23  C   UNL d   1       7.119   0.864   4.413  0.00  0.00     0.034 A 
ATOM     24  C   UNL d   1       5.820   1.369   4.329  0.00  0.00     0.025 A 
ATOM     25 CL   UNL d   1       8.112   1.275   5.756  0.00  0.00    -0.084 Cl
ATOM     26  C   UNL d   1       5.020   1.071   3.218  0.00  0.00     0.018 A 
ENDBRANCH   2  20
TORSDOF 4
