REMARK  7 active torsions:
REMARK  status: ('A' for Active; 'I' for Inactive)
REMARK    1  A    between atoms: C_15  and  C_3 
REMARK    2  A    between atoms: C_7  and  C_4 
REMARK    3  A    between atoms: C_10  and  C_7 
REMARK    4  A    between atoms: C_8  and  O_14 
REMARK       I    between atoms: C_9  and  N_11 
REMARK    5  A    between atoms: C_12  and  C_9 
REMARK       I    between atoms: N_13  and  C_10 
REMARK    6  A    between atoms: N_11  and  N_13 
REMARK    7  A    between atoms: O_14  and  C_18 
ROOT
ATOM      1  C   UNL d   1       1.948  -2.888  -0.575  0.00  0.00     0.241 C 
ATOM      2  N   UNL d   1       2.552  -1.792  -1.144  0.00  0.00    -0.267 N 
ATOM      3  O   UNL d   1       2.572  -3.933  -0.356  0.00  0.00    -0.271 OA
ATOM      4  H   UNL d   1       2.049  -0.916  -1.314  0.00  0.00     0.190 HD
ENDROOT
BRANCH   2   5
ATOM      5  N   UNL d   1       3.924  -1.835  -1.454  0.00  0.00    -0.263 N 
ATOM      6  C   UNL d   1       4.484  -0.706  -2.022  0.00  0.00     0.270 C 
ATOM      7  O   UNL d   1       3.861   0.339  -2.183  0.00  0.00    -0.266 OA
ATOM      8  H   UNL d   1       4.356  -2.754  -1.465  0.00  0.00     0.190 HD
BRANCH   6   9
ATOM      9  C   UNL d   1       5.883  -0.813  -2.522  0.00  0.00     0.036 A 
ATOM     10  C   UNL d   1       6.213  -0.062  -3.665  0.00  0.00     0.054 A 
ATOM     11  C   UNL d   1       7.482  -0.152  -4.230  0.00  0.00     0.079 A 
ATOM     12  C   UNL d   1       8.465  -0.901  -3.577  0.00  0.00     0.037 A 
ATOM     13  C   UNL d   1       8.159  -1.615  -2.417  0.00  0.00     0.004 A 
ATOM     14  C   UNL d   1       6.862  -1.594  -1.898  0.00  0.00     0.017 A 
BRANCH  11  15
ATOM     15  O   UNL d   1       7.889   0.465  -5.373  0.00  0.00    -0.255 OA
BRANCH  15  16
ATOM     16  C   UNL d   1       6.933   0.703  -6.404  0.00  0.00     0.530 C 
ATOM     17  F   UNL d   1       5.774   0.032  -6.243  0.00  0.00    -0.144 F 
ATOM     18  F   UNL d   1       6.672   2.025  -6.477  0.00  0.00    -0.144 F 
ATOM     19  F   UNL d   1       7.469   0.311  -7.579  0.00  0.00    -0.144 F 
ENDBRANCH  15  16
ENDBRANCH  11  15
ENDBRANCH   6   9
ENDBRANCH   2   5
BRANCH   1  20
ATOM     20  C   UNL d   1       0.507  -2.716  -0.121  0.00  0.00     0.162 C 
BRANCH  20  21
ATOM     21  C   UNL d   1      -0.347  -1.859  -1.005  0.00  0.00     0.031 A 
ATOM     22  N   UNL d   1       0.007  -0.523  -1.159  0.00  0.00    -0.352 N 
ATOM     23  C   UNL d   1      -0.869   0.114  -1.915  0.00  0.00     0.085 A 
ATOM     24  HN  UNL d   1       0.833  -0.093  -0.743  1.00  0.00     0.166 HD
ATOM     25  S   UNL d   1      -2.176  -0.860  -2.463  0.00  0.00    -0.075 SA
ATOM     26  C   UNL d   1      -1.503  -2.225  -1.678  0.00  0.00     0.004 A 
ATOM     27  C   UNL d   1      -2.179  -3.548  -1.778  0.00  0.00     0.058 C 
BRANCH  23  28
ATOM     28  C   UNL d   1      -0.718   1.502  -2.380  0.00  0.00    -0.002 A 
ATOM     29  C   UNL d   1       0.576   2.004  -2.587  0.00  0.00     0.014 A 
ATOM     30  C   UNL d   1       0.776   3.276  -3.125  0.00  0.00     0.001 A 
ATOM     31  C   UNL d   1      -0.318   4.075  -3.445  0.00  0.00     0.000 A 
ATOM     32  C   UNL d   1      -1.610   3.613  -3.205  0.00  0.00     0.001 A 
ATOM     33  C   UNL d   1      -1.810   2.336  -2.671  0.00  0.00     0.014 A 
ENDBRANCH  23  28
ENDBRANCH  20  21
ENDBRANCH   1  20
TORSDOF 7
