REMARK  5 active torsions:
REMARK  status: ('A' for Active; 'I' for Inactive)
REMARK       I    between atoms: N_7  and  C_1 
REMARK       I    between atoms: N_12  and  C_1 
REMARK       I    between atoms: C_2  and  N_9 
REMARK    1  A    between atoms: C_3  and  C_2 
REMARK    2  A    between atoms: C_5  and  C_3 
REMARK    3  A    between atoms: C_4  and  C_5 
REMARK    4  A    between atoms: O_13  and  C_4 
REMARK    5  A    between atoms: N_9  and  N_6 
ROOT
ATOM      1  C   UNL d   1       0.192   2.969  -2.119  0.00  0.00     0.259 C 
ATOM      2  N   UNL d   1       0.787   1.960  -1.393  0.00  0.00    -0.264 N 
ATOM      3  O   UNL d   1       0.802   3.825  -2.749  0.00  0.00    -0.267 OA
ATOM      4  H   UNL d   1       0.272   1.128  -1.121  0.00  0.00     0.190 HD
ENDROOT
BRANCH   2   5
ATOM      5  N   UNL d   1       2.162   1.765  -1.585  0.00  0.00    -0.274 N 
ATOM      6  C   UNL d   1       2.895   1.399  -0.498  0.00  0.00     0.163 C 
ATOM      7  N   UNL d   1       2.442   1.089   0.668  0.00  0.00    -0.375 N 
ATOM      8  N   UNL d   1       4.220   1.289  -0.722  0.00  0.00    -0.273 NA
ATOM      9  H   UNL d   1       1.431   1.231   0.656  0.00  0.00     0.158 HD
ATOM     10  HN  UNL d   1       2.994   0.761   1.460  1.00  0.00     0.158 HD
ATOM     11  H   UNL d   1       4.648   2.045  -1.237  0.00  0.00     0.127 HD
ATOM     12  H   UNL d   1       4.707   1.107   0.150  0.00  0.00     0.127 HD
ATOM     13  H   UNL d   1       2.588   2.439  -2.223  0.00  0.00     0.189 HD
ENDBRANCH   2   5
BRANCH   1  14
ATOM     14  C   UNL d   1      -1.286   2.893  -2.089  0.00  0.00     0.082 C 
BRANCH  14  15
ATOM     15  C   UNL d   1      -2.021   3.777  -2.778  0.00  0.00     0.086 C 
BRANCH  15  16
ATOM     16  C   UNL d   1      -3.486   3.654  -2.714  0.00  0.00     0.165 C 
ATOM     17  O   UNL d   1      -4.073   2.781  -2.096  0.00  0.00    -0.647 OA
BRANCH  16  18
ATOM     18  O   UNL d   1      -4.114   4.613  -3.417  0.00  0.00    -0.773 OA
ATOM     19  H   UNL d   1      -3.539   5.260  -3.863  0.00  0.00     0.167 HD
ENDBRANCH  16  18
ENDBRANCH  15  16
ENDBRANCH  14  15
ENDBRANCH   1  14
TORSDOF 5
