REMARK  3 active torsions:
REMARK  status: ('A' for Active; 'I' for Inactive)
REMARK    1  A    between atoms: N_3  and  C_1 
REMARK    2  A    between atoms: C_2  and  C_4 
REMARK    3  A    between atoms: N_5  and  N_3 
ROOT
ATOM      1  N   UNL d   1      -1.213   4.059  -0.618  0.00  0.00    -0.297 N 
ATOM      2  H   UNL d   1      -1.218   4.902  -0.037  0.00  0.00     0.187 HD
ENDROOT
BRANCH   1   3
ATOM      3  C   UNL d   1      -0.392   4.214  -1.768  0.00  0.00     0.091 A 
ATOM      4  C   UNL d   1       0.074   3.165  -2.589  0.00  0.00     0.064 A 
ATOM      5  C   UNL d   1       0.729   3.434  -3.805  0.00  0.00     0.042 A 
ATOM      6 CL   UNL d   1      -0.138   1.480  -2.240  0.00  0.00    -0.082 Cl
ATOM      7  C   UNL d   1       0.920   4.745  -4.256  0.00  0.00     0.051 A 
ATOM      8  C   UNL d   1       0.476   5.796  -3.450  0.00  0.00     0.042 A 
ATOM      9  C   UNL d   1      -0.171   5.532  -2.238  0.00  0.00     0.064 A 
ATOM     10 CL   UNL d   1      -0.728   6.900  -1.324  0.00  0.00    -0.082 Cl
BRANCH   7  11
ATOM     11  C   UNL d   1       1.548   5.028  -5.597  0.00  0.00     0.417 C 
ATOM     12  F   UNL d   1       1.929   3.908  -6.269  0.00  0.00    -0.166 F 
ATOM     13  F   UNL d   1       0.697   5.691  -6.429  0.00  0.00    -0.166 F 
ATOM     14  F   UNL d   1       2.659   5.806  -5.499  0.00  0.00    -0.166 F 
ENDBRANCH   7  11
ENDBRANCH   1   3
BRANCH   1  15
ATOM     15  N   UNL d   1      -1.250   2.892   0.044  0.00  0.00    -0.303 N 
ATOM     16  C   UNL d   1      -2.369   2.522   0.607  0.00  0.00     0.036 C 
ATOM     17  C   UNL d   1      -3.719   3.183   0.550  0.00  0.00    -0.006 A 
ATOM     18  C   UNL d   1      -2.283   1.251   1.437  0.00  0.00     0.060 C 
ATOM     19  C   UNL d   1      -4.674   2.870   1.538  0.00  0.00    -0.046 A 
ATOM     20  C   UNL d   1      -4.071   4.083  -0.464  0.00  0.00     0.014 A 
ATOM     21  C   UNL d   1      -5.911   3.540   1.546  0.00  0.00     0.008 A 
ATOM     22  C   UNL d   1      -4.462   1.756   2.534  0.00  0.00     0.040 C 
ATOM     23  C   UNL d   1      -6.210   4.492   0.573  0.00  0.00     0.001 A 
ATOM     24  C   UNL d   1      -5.300   4.746  -0.445  0.00  0.00     0.001 A 
ATOM     25  C   UNL d   1      -2.991   1.450   2.765  0.00  0.00     0.011 C 
ATOM     26  HN  UNL d   1      -0.419   2.304   0.107  1.00  0.00     0.186 HD
ENDBRANCH   1  15
TORSDOF 3
