REMARK  5 active torsions:
REMARK  status: ('A' for Active; 'I' for Inactive)
REMARK    1  A    between atoms: C_11  and  C_3 
REMARK    2  A    between atoms: C_17  and  N_6 
REMARK    3  A    between atoms: C_14  and  C_11 
REMARK    4  A    between atoms: C_16  and  C_12 
REMARK    5  A    between atoms: C_23  and  C_16 
ROOT
ATOM      1  N   UNL d   1      -0.255   0.550   0.020  0.00  0.00    -0.062 N 
ATOM      2  C   UNL d   1       0.065  -0.806   0.077  0.00  0.00     0.730 A 
ATOM      3  C   UNL d   1      -1.642   0.673  -0.085  0.00  0.00     0.212 A 
ATOM      4  N   UNL d   1       1.240  -1.324   0.181  0.00  0.00    -0.151 N 
ATOM      5  HN  UNL d   1       1.415  -2.329   0.186  1.00  0.00     0.188 HD
ATOM      6  N   UNL d   1      -1.188  -1.414  -0.041  0.00  0.00    -0.083 N 
ATOM      7  N   UNL d   1      -2.250  -0.509  -0.152  0.00  0.00    -0.259 N 
ATOM      8  HN  UNL d   1      -3.245  -0.706  -0.258  1.00  0.00     0.190 HD
ATOM      9  N   UNL d   1       0.696   1.545  -0.046  0.00  0.00    -0.276 N 
ATOM     10  HN  UNL d   1       0.463   2.530  -0.174  1.00  0.00     0.188 HD
ATOM     11  C   UNL d   1       1.926   1.109   0.071  0.00  0.00     0.099 C 
ATOM     12  C   UNL d   1       2.230  -0.380   0.285  0.00  0.00     0.284 C 
ATOM     13  O   UNL d   1       3.380  -0.682   0.581  0.00  0.00    -0.265 OA
ENDROOT
BRANCH   3  14
ATOM     14  C   UNL d   1      -2.409   1.970  -0.025  0.00  0.00     0.236 C 
ATOM     15  O   UNL d   1      -1.936   2.866   0.666  0.00  0.00    -0.283 OA
BRANCH  14  16
ATOM     16  C   UNL d   1      -3.691   2.019  -0.709  0.00  0.00     0.059 A 
ATOM     17  S   UNL d   1      -4.885   3.114  -0.131  0.00  0.00    -0.098 SA
ATOM     18  C   UNL d   1      -6.035   2.584  -1.278  0.00  0.00     0.050 A 
ATOM     19  C   UNL d   1      -5.517   1.627  -2.119  0.00  0.00     0.009 A 
ATOM     20  C   UNL d   1      -4.165   1.302  -1.793  0.00  0.00     0.023 A 
ENDBRANCH  14  16
ENDBRANCH   3  14
BRANCH   6  21
ATOM     21  C   UNL d   1      -1.415  -2.808  -0.020  0.00  0.00     0.074 A 
ATOM     22  C   UNL d   1      -0.607  -3.651   0.763  0.00  0.00     0.032 A 
ATOM     23  C   UNL d   1      -0.732  -5.038   0.709  0.00  0.00     0.002 A 
ATOM     24  C   UNL d   1      -1.674  -5.610  -0.137  0.00  0.00     0.000 A 
ATOM     25  C   UNL d   1      -2.513  -4.793  -0.894  0.00  0.00     0.002 A 
ATOM     26  C   UNL d   1      -2.399  -3.400  -0.821  0.00  0.00     0.032 A 
ENDBRANCH   6  21
BRANCH  11  27
ATOM     27  C   UNL d   1       3.116   2.029  -0.022  0.00  0.00     0.103 C 
BRANCH  27  28
ATOM     28  C   UNL d   1       3.660   2.112  -1.428  0.00  0.00    -0.052 A 
ATOM     29  C   UNL d   1       3.259   3.154  -2.273  0.00  0.00     0.007 A 
ATOM     30  C   UNL d   1       3.747   3.236  -3.577  0.00  0.00     0.001 A 
ATOM     31  C   UNL d   1       4.631   2.271  -4.056  0.00  0.00     0.000 A 
ATOM     32  C   UNL d   1       5.031   1.224  -3.228  0.00  0.00     0.001 A 
ATOM     33  C   UNL d   1       4.550   1.145  -1.919  0.00  0.00     0.007 A 
ENDBRANCH  27  28
ENDBRANCH  11  27
TORSDOF 5
