REMARK  4 active torsions:
REMARK  status: ('A' for Active; 'I' for Inactive)
REMARK    1  A    between atoms: S_11  and  C_2 
REMARK    2  A    between atoms: C_9  and  C_8 
REMARK    3  A    between atoms: C_12  and  C_9 
REMARK    4  A    between atoms: C_10  and  S_11 
ROOT
ATOM      1  C   UNL d   1       2.885   4.232  -0.203  0.00  0.00     0.063 C 
ATOM      2  C   UNL d   1       2.154   3.154   0.119  0.00  0.00     0.057 C 
ENDROOT
BRANCH   1   3
ATOM      3  C   UNL d   1       4.368   4.153  -0.199  0.00  0.00     0.182 C 
ATOM      4  O   UNL d   1       4.952   3.223   0.340  0.00  0.00    -0.288 OA
BRANCH   3   5
ATOM      5  C   UNL d   1       5.129   5.288  -0.790  0.00  0.00     0.014 A 
ATOM      6  C   UNL d   1       6.398   5.579  -0.265  0.00  0.00     0.018 A 
ATOM      7  C   UNL d   1       7.161   6.620  -0.801  0.00  0.00     0.043 A 
ATOM      8  C   UNL d   1       6.658   7.359  -1.866  0.00  0.00     0.116 A 
ATOM      9  C   UNL d   1       5.406   7.080  -2.402  0.00  0.00     0.043 A 
ATOM     10  F   UNL d   1       7.394   8.348  -2.389  0.00  0.00    -0.206 F 
ATOM     11  C   UNL d   1       4.637   6.042  -1.866  0.00  0.00     0.018 A 
ENDBRANCH   3   5
ENDBRANCH   1   3
BRANCH   2  12
ATOM     12  S   UNL d   1       0.437   3.303   0.255  0.00  0.00    -0.064 SA
BRANCH  12  13
ATOM     13  C   UNL d   1       0.082   2.160   1.506  0.00  0.00     0.166 A 
ATOM     14  N   UNL d   1       0.635   2.100   2.756  0.00  0.00    -0.326 N 
ATOM     15  C   UNL d   1      -0.132   1.205   3.451  0.00  0.00     0.201 A 
ATOM     16  C   UNL d   1       1.754   2.788   3.339  0.00  0.00     0.159 C 
ATOM     17  N   UNL d   1      -1.066   0.718   2.671  0.00  0.00    -0.294 N 
ATOM     18  N   UNL d   1      -0.934   1.325   1.445  0.00  0.00    -0.279 N 
ATOM     19  HN  UNL d   1      -1.762   0.017   2.927  1.00  0.00     0.187 HD
ATOM     20  HN  UNL d   1      -1.522   1.158   0.629  1.00  0.00     0.189 HD
ENDBRANCH  12  13
ENDBRANCH   2  12
TORSDOF 4
