REMARK  8 active torsions:
REMARK  status: ('A' for Active; 'I' for Inactive)
REMARK    1  A    between atoms: C_10  and  C_1 
REMARK    2  A    between atoms: C_14  and  C_2 
REMARK    3  A    between atoms: C_15  and  N_3 
REMARK    4  A    between atoms: C_4  and  N_13 
REMARK    5  A    between atoms: C_17  and  C_9 
REMARK       I    between atoms: N_13  and  C_10 
REMARK    6  A    between atoms: C_16  and  C_11 
REMARK    7  A    between atoms: O_22  and  C_14 
REMARK    8  A    between atoms: C_24  and  C_15 
ROOT
ATOM      1  C   UNL d   1      -1.177  -2.965  -0.120  0.00  0.00     0.274 C 
ATOM      2  N   UNL d   1      -2.487  -3.419   0.033  0.00  0.00    -0.320 N 
ATOM      3  O   UNL d   1      -0.258  -3.744  -0.359  0.00  0.00    -0.266 OA
ATOM      4  H   UNL d   1      -3.137  -2.860   0.570  0.00  0.00     0.169 HD
ENDROOT
BRANCH   1   5
ATOM      5  C   UNL d   1      -0.942  -1.541   0.047  0.00  0.00     0.121 C 
ATOM      6  N   UNL d   1       0.320  -0.972   0.074  0.00  0.00    -0.282 N 
ATOM      7  N   UNL d   1       0.301   0.363   0.251  0.00  0.00    -0.301 N 
ATOM      8  C   UNL d   1      -0.983   0.712   0.162  0.00  0.00     0.036 C 
ATOM      9  HN  UNL d   1       1.099   0.977   0.416  1.00  0.00     0.187 HD
ATOM     10  C   UNL d   1      -1.803  -0.450   0.092  0.00  0.00     0.064 C 
BRANCH   6  11
ATOM     11  C   UNL d   1       1.630  -1.600  -0.088  0.00  0.00     0.188 C 
BRANCH  11  12
ATOM     12  C   UNL d   1       2.080  -1.577  -1.531  0.00  0.00    -0.038 A 
ATOM     13  C   UNL d   1       2.568  -0.390  -2.103  0.00  0.00     0.009 A 
ATOM     14  C   UNL d   1       2.962  -0.353  -3.441  0.00  0.00     0.001 A 
ATOM     15  C   UNL d   1       2.869  -1.499  -4.227  0.00  0.00     0.000 A 
ATOM     16  C   UNL d   1       2.386  -2.683  -3.674  0.00  0.00     0.001 A 
ATOM     17  C   UNL d   1       2.000  -2.724  -2.333  0.00  0.00     0.009 A 
ENDBRANCH  11  12
ENDBRANCH   6  11
BRANCH   8  18
ATOM     18  C   UNL d   1      -1.322   2.196   0.099  0.00  0.00    -0.007 C 
ATOM     19  C   UNL d   1      -2.832   2.461   0.227  0.00  0.00     0.021 C 
ATOM     20  C   UNL d   1      -0.607   2.970   1.229  0.00  0.00     0.021 C 
ATOM     21  C   UNL d   1      -0.846   2.775  -1.253  0.00  0.00     0.021 C 
ENDBRANCH   8  18
ENDBRANCH   1   5
BRANCH   2  22
ATOM     22  C   UNL d   1      -2.924  -4.678  -0.425  0.00  0.00     0.059 A 
ATOM     23  C   UNL d   1      -4.108  -5.299  -0.054  0.00  0.00     0.107 A 
ATOM     24  S   UNL d   1      -4.354  -6.759  -0.929  0.00  0.00    -0.081 SA
ATOM     25  C   UNL d   1      -2.903  -6.615  -1.813  0.00  0.00     0.018 A 
ATOM     26  C   UNL d   1      -2.227  -5.479  -1.405  0.00  0.00     0.051 A 
BRANCH  23  27
ATOM     27  C   UNL d   1      -5.133  -4.989   0.926  0.00  0.00     0.302 C 
ATOM     28  O   UNL d   1      -6.218  -5.546   1.033  0.00  0.00    -0.259 OA
BRANCH  27  29
ATOM     29  O   UNL d   1      -4.706  -4.017   1.790  0.00  0.00    -0.322 OA
ATOM     30  C   UNL d   1      -5.581  -3.873   2.916  0.00  0.00     0.213 C 
ENDBRANCH  27  29
ENDBRANCH  23  27
BRANCH  25  31
ATOM     31  C   UNL d   1      -2.567  -7.578  -2.888  0.00  0.00    -0.019 A 
ATOM     32  C   UNL d   1      -3.142  -8.862  -2.956  0.00  0.00     0.014 A 
ATOM     33  C   UNL d   1      -2.899  -9.711  -4.043  0.00  0.00     0.024 A 
ATOM     34  C   UNL d   1      -2.062  -9.297  -5.071  0.00  0.00     0.034 A 
ATOM     35  C   UNL d   1      -1.446  -8.051  -5.010  0.00  0.00     0.024 A 
ATOM     36 CL   UNL d   1      -1.801 -10.318  -6.430  0.00  0.00    -0.084 Cl
ATOM     37  C   UNL d   1      -1.695  -7.202  -3.925  0.00  0.00     0.014 A 
ENDBRANCH  25  31
ENDBRANCH   2  22
TORSDOF 8
