REMARK  1 active torsions:
REMARK  status: ('A' for Active; 'I' for Inactive)
REMARK    1  A    between atoms: C_12  and  N_3 
ROOT
ATOM      1  C   UNL d   1      -0.196  -0.687   0.016  0.00  0.00     0.147 A 
ATOM      2  C   UNL d   1      -0.242   0.678  -0.005  0.00  0.00     0.102 A 
ATOM      3  N   UNL d   1      -1.517  -1.131  -0.025  0.00  0.00    -0.239 N 
ATOM      4  N   UNL d   1       0.940  -1.418   0.044  0.00  0.00    -0.324 N 
ATOM      5  HN  UNL d   1       0.947  -2.438   0.057  1.00  0.00     0.169 HD
ATOM      6  N   UNL d   1      -2.375  -0.061  -0.099  0.00  0.00    -0.302 N 
ATOM      7  HN  UNL d   1      -3.393  -0.085  -0.159  1.00  0.00     0.186 HD
ATOM      8  C   UNL d   1       0.980   1.417   0.027  0.00  0.00     0.304 A 
ATOM      9  O   UNL d   1       2.126   0.662   0.052  0.00  0.00    -0.262 OA
ATOM     10  C   UNL d   1      -1.589   1.018  -0.073  0.00  0.00     0.129 A 
ATOM     11  C   UNL d   1       2.022  -0.700   0.053  0.00  0.00     0.125 A 
ATOM     12  O   UNL d   1       1.016   2.641   0.028  0.00  0.00    -0.259 OA
ATOM     13  C   UNL d   1       3.369  -1.356   0.062  0.00  0.00     0.098 C 
ENDROOT
BRANCH   3  14
ATOM     14  C   UNL d   1      -2.033  -2.462  -0.006  0.00  0.00     0.058 A 
ATOM     15  C   UNL d   1      -1.201  -3.576   0.164  0.00  0.00     0.031 A 
ATOM     16  C   UNL d   1      -1.742  -4.866   0.176  0.00  0.00     0.002 A 
ATOM     17  C   UNL d   1      -3.112  -5.055   0.017  0.00  0.00     0.000 A 
ATOM     18  C   UNL d   1      -3.949  -3.955  -0.149  0.00  0.00     0.002 A 
ATOM     19  C   UNL d   1      -3.416  -2.663  -0.157  0.00  0.00     0.031 A 
ENDBRANCH   3  14
TORSDOF 1
