REMARK  3 active torsions:
REMARK  status: ('A' for Active; 'I' for Inactive)
REMARK    1  A    between atoms: O_12  and  C_10 
REMARK    2  A    between atoms: C_15  and  O_12 
REMARK    3  A    between atoms: C_14  and  C_15 
ROOT
ATOM      1  C   UNL d   1      -0.023  -0.852   0.004  0.00  0.00     0.049 A 
ATOM      2  C   UNL d   1      -1.333  -1.557  -0.010  0.00  0.00     0.165 C 
ATOM      3  C   UNL d   1      -0.077   0.551   0.030  0.00  0.00     0.086 A 
ATOM      4  O   UNL d   1      -1.226   1.301  -0.004  0.00  0.00    -0.340 OA
ATOM      5  C   UNL d   1       1.229  -1.498  -0.007  0.00  0.00    -0.043 A 
ATOM      6  C   UNL d   1      -2.411   0.611  -0.429  0.00  0.00     0.067 C 
ATOM      7  C   UNL d   1      -2.534  -0.713   0.313  0.00  0.00     0.121 C 
ATOM      8  C   UNL d   1       1.091   1.313   0.067  0.00  0.00     0.074 A 
ATOM      9  C   UNL d   1       2.395  -0.701  -0.019  0.00  0.00     0.044 A 
ATOM     10  C   UNL d   1       2.333   0.693  -0.005  0.00  0.00     0.072 A 
ATOM     11  O   UNL d   1      -1.455  -2.750  -0.257  0.00  0.00    -0.292 OA
ATOM     12  C   UNL d   1       1.441  -2.987  -0.053  0.00  0.00     0.049 C 
ATOM     13  C   UNL d   1      -2.416   0.451  -1.960  0.00  0.00     0.046 C 
ATOM     14  C   UNL d   1      -3.587   1.518  -0.039  0.00  0.00     0.046 C 
ENDROOT
BRANCH  10  15
ATOM     15  O   UNL d   1       3.534   1.347  -0.086  0.00  0.00    -0.347 OA
BRANCH  15  16
ATOM     16  C   UNL d   1       3.452   2.705  -0.530  0.00  0.00     0.214 C 
BRANCH  16  17
ATOM     17  C   UNL d   1       4.776   3.194  -1.072  0.00  0.00    -0.034 A 
ATOM     18  C   UNL d   1       4.783   4.094  -2.152  0.00  0.00     0.011 A 
ATOM     19  C   UNL d   1       5.984   4.597  -2.651  0.00  0.00     0.019 A 
ATOM     20  C   UNL d   1       7.186   4.212  -2.069  0.00  0.00     0.011 A 
ATOM     21  C   UNL d   1       7.199   3.331  -0.988  0.00  0.00     0.019 A 
ATOM     22 BR   UNL d   1       8.813   4.898  -2.747  0.00  0.00    -0.051 Br
ATOM     23  C   UNL d   1       5.995   2.828  -0.486  0.00  0.00     0.011 A 
ENDBRANCH  16  17
ENDBRANCH  15  16
ENDBRANCH  10  15
TORSDOF 3
