REMARK  1 active torsions:
REMARK  status: ('A' for Active; 'I' for Inactive)
REMARK    1  A    between atoms: C_7  and  N_1 
ROOT
ATOM      1  N   UNL d   1       1.445  -1.269  -0.017  0.00  0.00    -0.254 N 
ATOM      2  N   UNL d   1       2.356  -0.273  -0.079  0.00  0.00    -0.018 NA
ATOM      3  C   UNL d   1       0.164  -0.781  -0.012  0.00  0.00     0.149 A 
ATOM      4  N   UNL d   1       1.689   0.880  -0.086  0.00  0.00    -0.280 N 
ATOM      5  HN  UNL d   1       2.103   1.811  -0.117  1.00  0.00     0.184 HD
ATOM      6  C   UNL d   1       0.351   0.595  -0.043  0.00  0.00     0.091 A 
ATOM      7  N   UNL d   1      -1.008  -1.454   0.021  0.00  0.00    -0.349 N 
ATOM      8  HN  UNL d   1      -1.078  -2.471   0.042  1.00  0.00     0.167 HD
ATOM      9  C   UNL d   1      -0.785   1.410  -0.026  0.00  0.00     0.036 A 
ATOM     10  C   UNL d   1      -2.078  -0.623   0.024  0.00  0.00     0.090 A 
ATOM     11  C   UNL d   1      -2.028   0.768   0.006  0.00  0.00     0.019 A 
ENDROOT
BRANCH   1  12
ATOM     12  C   UNL d   1       1.783  -2.672   0.069  0.00  0.00     0.108 A 
ATOM     13  C   UNL d   1       3.041  -3.135   0.785  0.00  0.00     0.029 A 
ATOM     14  C   UNL d   1       2.952  -3.270  -0.695  0.00  0.00     0.029 A 
ENDBRANCH   1  12
TORSDOF 1
