REMARK  3 active torsions:
REMARK  status: ('A' for Active; 'I' for Inactive)
REMARK    1  A    between atoms: C_4  and  C_3 
REMARK    2  A    between atoms: C_11  and  C_7 
REMARK    3  A    between atoms: C_8  and  C_10 
ROOT
ATOM      1  N   UNL d   1       1.241   0.135   0.183  0.00  0.00    -0.318 N 
ATOM      2  HN  UNL d   1       2.220   0.275   0.433  1.00  0.00     0.169 HD
ATOM      3  C   UNL d   1       0.272   1.084  -0.049  0.00  0.00     0.140 A 
ATOM      4  N   UNL d   1      -0.916   0.580  -0.412  0.00  0.00    -0.242 N 
ATOM      5  HN  UNL d   1      -1.765   1.083  -0.670  1.00  0.00     0.196 HD
ATOM      6  C   UNL d   1       0.595  -0.994   0.006  0.00  0.00     0.182 A 
ATOM      7  O   UNL d   1      -0.710  -0.803  -0.351  0.00  0.00    -0.217 OA
ENDROOT
BRANCH   3   8
ATOM      8  C   UNL d   1       0.561   2.504  -0.025  0.00  0.00     0.040 A 
ATOM      9  C   UNL d   1      -0.294   3.498   0.480  0.00  0.00     0.064 A 
ATOM     10  C   UNL d   1       0.092   4.846   0.343  0.00  0.00     0.034 A 
ATOM     11  C   UNL d   1       1.309   5.153  -0.242  0.00  0.00     0.088 A 
ATOM     12  N   UNL d   1       2.163   4.219  -0.693  0.00  0.00    -0.374 N 
ATOM     13  C   UNL d   1       1.773   2.927  -0.574  0.00  0.00     0.103 A 
ATOM     14  HN  UNL d   1       3.062   4.471  -1.105  1.00  0.00     0.164 HD
BRANCH   9  15
ATOM     15  C   UNL d   1      -1.603   3.224   1.177  0.00  0.00     0.418 C 
ATOM     16  F   UNL d   1      -1.763   1.968   1.666  0.00  0.00    -0.166 F 
ATOM     17  F   UNL d   1      -1.767   4.039   2.264  0.00  0.00    -0.166 F 
ATOM     18  F   UNL d   1      -2.674   3.474   0.376  0.00  0.00    -0.166 F 
ENDBRANCH   9  15
ENDBRANCH   3   8
BRANCH   6  19
ATOM     19  C   UNL d   1       1.073  -2.369   0.083  0.00  0.00     0.017 A 
ATOM     20  C   UNL d   1       2.441  -2.621   0.285  0.00  0.00     0.019 A 
ATOM     21  C   UNL d   1       2.929  -3.931   0.344  0.00  0.00     0.043 A 
ATOM     22  C   UNL d   1       2.046  -4.996   0.206  0.00  0.00     0.116 A 
ATOM     23  C   UNL d   1       0.688  -4.776   0.013  0.00  0.00     0.043 A 
ATOM     24  F   UNL d   1       2.511  -6.247   0.257  0.00  0.00    -0.206 F 
ATOM     25  C   UNL d   1       0.203  -3.468  -0.048  0.00  0.00     0.019 A 
ENDBRANCH   6  19
TORSDOF 3
