REMARK  1 active torsions:
REMARK  status: ('A' for Active; 'I' for Inactive)
REMARK    1  A    between atoms: C_10  and  C_5 
ROOT
ATOM      1  C   UNL d   1      -0.729   0.356  -0.005  0.00  0.00     0.050 C 
ATOM      2  C   UNL d   1      -1.381  -0.819  -0.017  0.00  0.00    -0.025 C 
ATOM      3  N   UNL d   1      -1.468   1.516  -0.054  0.00  0.00    -0.332 N 
ATOM      4  C   UNL d   1      -2.822   1.575   0.064  0.00  0.00     0.173 C 
ATOM      5  C   UNL d   1      -2.886  -0.871  -0.149  0.00  0.00     0.148 C 
ATOM      6  N   UNL d   1      -3.478   0.398   0.211  0.00  0.00    -0.354 N 
ATOM      7  C   UNL d   1       0.753   0.411   0.034  0.00  0.00    -0.003 A 
ATOM      8  C   UNL d   1      -0.686  -2.150   0.065  0.00  0.00     0.043 C 
ATOM      9  S   UNL d   1      -3.635   3.023   0.054  0.00  0.00    -0.041 SA
ATOM     10  C   UNL d   1       1.498  -0.784   0.010  0.00  0.00    -0.045 A 
ATOM     11  C   UNL d   1       0.836  -2.134  -0.075  0.00  0.00     0.044 C 
ATOM     12  C   UNL d   1       1.464   1.625   0.084  0.00  0.00     0.014 A 
ATOM     13  C   UNL d   1       2.905  -0.744   0.019  0.00  0.00     0.008 A 
ATOM     14  C   UNL d   1       2.862   1.655   0.092  0.00  0.00     0.001 A 
ATOM     15  C   UNL d   1       3.583   0.470   0.058  0.00  0.00     0.001 A 
ATOM     16  H   UNL d   1      -1.008   2.412  -0.124  0.00  0.00     0.168 HD
ATOM     17  H   UNL d   1      -4.487   0.456   0.244  0.00  0.00     0.163 HD
ENDROOT
BRANCH   5  18
ATOM     18  C   UNL d   1      -3.331  -1.277  -1.548  0.00  0.00    -0.031 A 
ATOM     19  C   UNL d   1      -4.101  -2.434  -1.742  0.00  0.00     0.011 A 
ATOM     20  C   UNL d   1      -4.474  -2.828  -3.032  0.00  0.00     0.024 A 
ATOM     21  C   UNL d   1      -4.083  -2.070  -4.132  0.00  0.00     0.034 A 
ATOM     22  C   UNL d   1      -3.338  -0.908  -3.959  0.00  0.00     0.024 A 
ATOM     23 CL   UNL d   1      -4.517  -2.574  -5.720  0.00  0.00    -0.084 Cl
ATOM     24  C   UNL d   1      -2.965  -0.514  -2.672  0.00  0.00     0.011 A 
ENDBRANCH   5  18
TORSDOF 1
