REMARK  5 active torsions:
REMARK  status: ('A' for Active; 'I' for Inactive)
REMARK    1  A    between atoms: N_2  and  S_1 
REMARK    2  A    between atoms: C_3  and  S_1 
REMARK    3  A    between atoms: C_9  and  N_2 
REMARK    4  A    between atoms: O_6  and  C_10 
REMARK    5  A    between atoms: C_11  and  O_6 
ROOT
ATOM      1  C   UNL d   1       0.712   1.779   2.146  0.00  0.00     0.042 A 
ATOM      2  C   UNL d   1       1.531   2.349   4.754  0.00  0.00     0.076 A 
ATOM      3  C   UNL d   1       2.026   1.522   2.534  0.00  0.00     0.033 A 
ATOM      4  C   UNL d   1      -0.194   2.328   3.052  0.00  0.00     0.033 A 
ATOM      5  C   UNL d   1       2.446   1.840   3.828  0.00  0.00     0.039 A 
ATOM      6  C   UNL d   1       0.217   2.611   4.357  0.00  0.00     0.039 A 
ENDROOT
BRANCH   1   7
ATOM      7  N   UNL d   1       0.307   1.490   0.819  0.00  0.00    -0.281 N 
ATOM      8  H   UNL d   1      -0.181   2.211   0.292  0.00  0.00     0.179 HD
BRANCH   7   9
ATOM      9  S   UNL d   1      -0.144  -0.078   0.397  0.00  0.00     0.263 S 
ATOM     10  O   UNL d   1       0.893  -1.000   0.805  0.00  0.00    -0.200 OA
ATOM     11  O   UNL d   1      -0.584  -0.006  -0.983  0.00  0.00    -0.200 OA
BRANCH   9  12
ATOM     12  C   UNL d   1      -1.586  -0.381   1.395  0.00  0.00     0.079 A 
ATOM     13  C   UNL d   1      -2.845   0.003   0.922  0.00  0.00     0.026 A 
ATOM     14  C   UNL d   1      -3.984  -0.287   1.675  0.00  0.00     0.008 A 
ATOM     15  C   UNL d   1      -3.874  -0.972   2.892  0.00  0.00    -0.062 A 
ATOM     16  C   UNL d   1      -2.607  -1.359   3.350  0.00  0.00     0.008 A 
ATOM     17  C   UNL d   1      -5.111  -1.304   3.677  0.00  0.00     0.048 C 
ATOM     18  C   UNL d   1      -1.462  -1.072   2.602  0.00  0.00     0.026 A 
ENDBRANCH   9  12
ENDBRANCH   7   9
ENDBRANCH   1   7
BRANCH   2  19
ATOM     19  O   UNL d   1       1.849   2.684   6.051  0.00  0.00    -0.311 OA
BRANCH  19  20
ATOM     20  C   UNL d   1       2.756   1.915   6.747  0.00  0.00     0.076 A 
ATOM     21  C   UNL d   1       3.550   2.590   7.679  0.00  0.00     0.040 A 
ATOM     22  C   UNL d   1       4.499   1.890   8.426  0.00  0.00     0.045 A 
ATOM     23  C   UNL d   1       4.642   0.520   8.239  0.00  0.00     0.116 A 
ATOM     24  C   UNL d   1       3.833  -0.169   7.343  0.00  0.00     0.045 A 
ATOM     25  F   UNL d   1       5.569  -0.149   8.937  0.00  0.00    -0.206 F 
ATOM     26  C   UNL d   1       2.868   0.526   6.612  0.00  0.00     0.040 A 
ENDBRANCH  19  20
ENDBRANCH   2  19
TORSDOF 5
