REMARK  4 active torsions:
REMARK  status: ('A' for Active; 'I' for Inactive)
REMARK    1  A    between atoms: N_2  and  S_1 
REMARK    2  A    between atoms: C_10  and  S_1 
REMARK    3  A    between atoms: C_3  and  N_8 
REMARK    4  A    between atoms: C_4  and  C_5 
ROOT
ATOM      1  C   UNL d   1       1.083   1.514  -0.561  0.00  0.00     0.074 A 
ATOM      2  N   UNL d   1       0.146   6.108  -3.206  0.00  0.00    -0.191 NA
ATOM      3  C   UNL d   1       0.359   5.122  -2.631  0.00  0.00     0.099 C 
ATOM      4  C   UNL d   1       0.468   2.578   0.105  0.00  0.00     0.026 A 
ATOM      5  C   UNL d   1       1.484   1.639  -1.896  0.00  0.00     0.026 A 
ATOM      6  C   UNL d   1       0.614   3.901  -1.925  0.00  0.00     0.044 A 
ATOM      7  C   UNL d   1       1.245   2.833  -2.578  0.00  0.00     0.024 A 
ATOM      8  C   UNL d   1       0.232   3.771  -0.583  0.00  0.00     0.024 A 
ENDROOT
BRANCH   1   9
ATOM      9  S   UNL d   1       1.419  -0.010   0.291  0.00  0.00     0.243 S 
ATOM     10  O   UNL d   1       2.815  -0.314   0.055  0.00  0.00    -0.206 OA
ATOM     11  O   UNL d   1       0.893   0.097   1.631  0.00  0.00    -0.206 OA
BRANCH   9  12
ATOM     12  N   UNL d   1       0.475  -1.126  -0.578  0.00  0.00    -0.203 NA
ATOM     13  C   UNL d   1      -1.007  -1.083  -0.365  0.00  0.00     0.127 C 
ATOM     14  C   UNL d   1      -1.452  -1.763   0.951  0.00  0.00     0.140 C 
ATOM     15  N   UNL d   1      -0.840  -3.099   1.125  0.00  0.00    -0.364 N 
ATOM     16  C   UNL d   1       0.594  -3.201   0.834  0.00  0.00     0.140 C 
ATOM     17  C   UNL d   1       0.944  -2.541  -0.509  0.00  0.00     0.127 C 
BRANCH  15  18
ATOM     18  C   UNL d   1      -1.506  -3.974   1.971  0.00  0.00     0.125 A 
ATOM     19  N   UNL d   1      -2.864  -3.936   1.865  0.00  0.00    -0.350 N 
ATOM     20  C   UNL d   1      -3.628  -4.846   2.515  0.00  0.00     0.106 A 
ATOM     21  HN  UNL d   1      -3.307  -3.218   1.291  1.00  0.00     0.166 HD
ATOM     22  C   UNL d   1      -3.119  -5.852   3.308  0.00  0.00     0.065 A 
ATOM     23  C   UNL d   1      -1.739  -5.872   3.479  0.00  0.00     0.045 A 
ATOM     24  C   UNL d   1      -0.926  -4.928   2.832  0.00  0.00     0.078 A 
ATOM     25 CL   UNL d   1       0.751  -5.018   3.258  0.00  0.00    -0.080 Cl
BRANCH  22  26
ATOM     26  C   UNL d   1      -4.032  -6.855   3.935  0.00  0.00     0.418 C 
ATOM     27  F   UNL d   1      -3.377  -7.801   4.664  0.00  0.00    -0.166 F 
ATOM     28  F   UNL d   1      -4.932  -6.286   4.782  0.00  0.00    -0.166 F 
ATOM     29  F   UNL d   1      -4.764  -7.538   3.013  0.00  0.00    -0.166 F 
ENDBRANCH  22  26
ENDBRANCH  15  18
ENDBRANCH   9  12
ENDBRANCH   1   9
TORSDOF 4
