REMARK  5 active torsions:
REMARK  status: ('A' for Active; 'I' for Inactive)
REMARK    1  A    between atoms: C_9  and  C_1 
REMARK    2  A    between atoms: C_8  and  C_2 
REMARK    3  A    between atoms: C_7  and  C_3 
REMARK       I    between atoms: N_11  and  C_8 
REMARK    4  A    between atoms: O_19  and  C_9 
REMARK       I    between atoms: C_10  and  N_12 
REMARK       I    between atoms: N_18  and  C_10 
REMARK    5  A    between atoms: N_12  and  N_11 
ROOT
ATOM      1  C   UNL d   1      -1.440  -0.268   0.040  0.00  0.00     0.110 A 
ATOM      2  C   UNL d   1      -0.931   1.010  -0.144  0.00  0.00     0.186 A 
ATOM      3  C   UNL d   1      -0.328  -1.145  -0.187  0.00  0.00     0.087 A 
ATOM      4  N   UNL d   1       0.760  -0.428  -0.500  0.00  0.00    -0.259 N 
ATOM      5  HN  UNL d   1       1.683  -0.795  -0.736  1.00  0.00     0.195 HD
ATOM      6  O   UNL d   1       0.396   0.891  -0.441  0.00  0.00    -0.231 OA
ENDROOT
BRANCH   2   7
ATOM      7  C   UNL d   1      -1.430   2.371  -0.080  0.00  0.00     0.297 C 
ATOM      8  N   UNL d   1      -2.783   2.521   0.121  0.00  0.00    -0.260 N 
ATOM      9  H   UNL d   1      -3.429   1.739   0.223  0.00  0.00     0.190 HD
ATOM     10  O   UNL d   1      -0.710   3.368  -0.214  0.00  0.00    -0.264 OA
BRANCH   8  11
ATOM     11  N   UNL d   1      -3.366   3.781   0.306  0.00  0.00    -0.249 N 
ATOM     12  C   UNL d   1      -4.661   3.778   0.777  0.00  0.00     0.334 C 
ATOM     13  O   UNL d   1      -5.227   2.745   1.127  0.00  0.00    -0.246 OA
ATOM     14  N   UNL d   1      -5.220   5.022   0.831  0.00  0.00    -0.346 N 
ATOM     15  C   UNL d   1      -6.532   5.246   1.384  0.00  0.00     0.151 C 
ATOM     16  H   UNL d   1      -4.674   5.819   0.539  0.00  0.00     0.163 HD
ATOM     17  H   UNL d   1      -3.009   4.532  -0.276  0.00  0.00     0.192 HD
ENDBRANCH   8  11
ENDBRANCH   2   7
BRANCH   1  18
ATOM     18  C   UNL d   1      -2.794  -0.657   0.355  0.00  0.00     0.298 C 
ATOM     19  O   UNL d   1      -3.076  -1.610   1.065  0.00  0.00    -0.259 OA
BRANCH  18  20
ATOM     20  O   UNL d   1      -3.705   0.108  -0.313  0.00  0.00    -0.322 OA
ATOM     21  C   UNL d   1      -5.069  -0.318  -0.213  0.00  0.00     0.213 C 
ENDBRANCH  18  20
ENDBRANCH   1  18
BRANCH   3  22
ATOM     22  C   UNL d   1      -0.266  -2.616  -0.185  0.00  0.00     0.037 A 
ATOM     23  C   UNL d   1      -1.167  -3.396  -0.942  0.00  0.00     0.048 A 
ATOM     24 CL   UNL d   1      -2.338  -2.715  -2.027  0.00  0.00    -0.083 Cl
ATOM     25  C   UNL d   1      -1.115  -4.798  -0.916  0.00  0.00     0.025 A 
ATOM     26  C   UNL d   1      -0.125  -5.453  -0.194  0.00  0.00     0.003 A 
ATOM     27  C   UNL d   1       0.806  -4.707   0.519  0.00  0.00     0.025 A 
ATOM     28  C   UNL d   1       0.729  -3.305   0.543  0.00  0.00     0.048 A 
ATOM     29 CL   UNL d   1       1.911  -2.507   1.530  0.00  0.00    -0.083 Cl
ENDBRANCH   3  22
TORSDOF 5
