REMARK  6 active torsions:
REMARK  status: ('A' for Active; 'I' for Inactive)
REMARK       I    between atoms: N_2  and  C_1 
REMARK    1  A    between atoms: C_11  and  C_1 
REMARK    2  A    between atoms: C_9  and  N_2 
REMARK    3  A    between atoms: C_3  and  C_12 
REMARK    4  A    between atoms: O_10  and  C_3 
REMARK    5  A    between atoms: S_8  and  C_11 
REMARK    6  A    between atoms: C_12  and  S_8 
ROOT
ATOM      1  C   UNL d   1       1.230  -0.018   0.017  0.00  0.00     0.231 C 
ATOM      2  N   UNL d   1       0.556  -1.220   0.115  0.00  0.00    -0.325 N 
ATOM      3  O   UNL d   1       0.691   1.089  -0.006  0.00  0.00    -0.272 OA
ATOM      4  H   UNL d   1       1.086  -2.047   0.357  0.00  0.00     0.169 HD
ENDROOT
BRANCH   1   5
ATOM      5  C   UNL d   1       2.748  -0.130  -0.019  0.00  0.00     0.177 C 
BRANCH   5   6
ATOM      6  S   UNL d   1       3.438   0.535  -1.575  0.00  0.00    -0.149 SA
BRANCH   6   7
ATOM      7  C   UNL d   1       2.838   2.262  -1.579  0.00  0.00     0.184 C 
BRANCH   7   8
ATOM      8  C   UNL d   1       3.200   3.029  -0.328  0.00  0.00     0.149 C 
ATOM      9  O   UNL d   1       4.259   3.625  -0.173  0.00  0.00    -0.649 OA
BRANCH   8  10
ATOM     10  O   UNL d   1       2.257   2.995   0.642  0.00  0.00    -0.776 OA
ATOM     11  H   UNL d   1       1.452   2.472   0.400  0.00  0.00     0.167 HD
ENDBRANCH   8  10
ENDBRANCH   7   8
ENDBRANCH   6   7
ENDBRANCH   5   6
ENDBRANCH   1   5
BRANCH   2  12
ATOM     12  C   UNL d   1      -0.846  -1.376   0.014  0.00  0.00     0.050 A 
ATOM     13  C   UNL d   1      -1.714  -0.413  -0.496  0.00  0.00     0.117 A 
ATOM     14  N   UNL d   1      -3.055  -0.579  -0.620  0.00  0.00    -0.373 N 
ATOM     15  C   UNL d   1      -3.562  -1.757  -0.208  0.00  0.00     0.088 A 
ATOM     16  HN  UNL d   1      -3.650   0.154  -1.006  1.00  0.00     0.164 HD
ATOM     17  C   UNL d   1      -2.789  -2.780   0.315  0.00  0.00     0.019 A 
ATOM     18  C   UNL d   1      -1.410  -2.588   0.418  0.00  0.00     0.032 A 
ENDBRANCH   2  12
TORSDOF 6
