REMARK  6 active torsions:
REMARK  status: ('A' for Active; 'I' for Inactive)
REMARK    1  A    between atoms: C_8  and  N_2 
REMARK    2  A    between atoms: C_19  and  C_6 
REMARK    3  A    between atoms: C_17  and  C_7 
REMARK    4  A    between atoms: C_10  and  C_8 
REMARK       I    between atoms: N_20  and  C_10 
REMARK    5  A    between atoms: C_12  and  C_18 
REMARK    6  A    between atoms: N_13  and  N_20 
ROOT
ATOM      1  C   UNL d   1      -0.643   1.278  -0.188  0.00  0.00     0.127 C 
ATOM      2  N   UNL d   1      -0.801  -1.135   0.171  0.00  0.00    -0.247 N 
ATOM      3  N   UNL d   1       0.570  -1.222   0.316  0.00  0.00    -0.294 N 
ATOM      4  HN  UNL d   1       1.017  -2.115   0.521  1.00  0.00     0.187 HD
ATOM      5  C   UNL d   1      -1.431   0.032  -0.258  0.00  0.00     0.284 C 
ATOM      6  C   UNL d   1       0.687   1.238   0.003  0.00  0.00     0.029 C 
ATOM      7  C   UNL d   1       1.282  -0.134   0.186  0.00  0.00     0.071 C 
ATOM      8  C   UNL d   1      -1.367   2.494  -0.362  0.00  0.00     0.106 C 
ATOM      9  N   UNL d   1      -1.925   3.503  -0.504  0.00  0.00    -0.191 NA
ATOM     10  O   UNL d   1      -2.586   0.068  -0.679  0.00  0.00    -0.265 OA
ENDROOT
BRANCH   6  11
ATOM     11  C   UNL d   1       1.442   2.507   0.074  0.00  0.00    -0.022 A 
ATOM     12  C   UNL d   1       1.790   3.065   1.309  0.00  0.00     0.012 A 
ATOM     13  C   UNL d   1       2.432   4.306   1.363  0.00  0.00     0.001 A 
ATOM     14  C   UNL d   1       2.738   4.992   0.188  0.00  0.00     0.000 A 
ATOM     15  C   UNL d   1       2.391   4.449  -1.046  0.00  0.00     0.001 A 
ATOM     16  C   UNL d   1       1.732   3.221  -1.103  0.00  0.00     0.012 A 
ENDBRANCH   6  11
BRANCH   2  17
ATOM     17  C   UNL d   1      -1.537  -2.383  -0.053  0.00  0.00     0.257 C 
BRANCH  17  18
ATOM     18  C   UNL d   1      -1.604  -3.498   0.984  0.00  0.00     0.256 C 
ATOM     19  N   UNL d   1      -0.680  -3.456   2.021  0.00  0.00    -0.269 N 
ATOM     20  H   UNL d   1       0.137  -2.870   1.853  0.00  0.00     0.190 HD
ATOM     21  O   UNL d   1      -2.409  -4.420   0.817  0.00  0.00    -0.270 OA
BRANCH  19  22
ATOM     22  N   UNL d   1      -0.438  -4.590   2.796  0.00  0.00    -0.308 N 
ATOM     23  C   UNL d   1      -1.493  -5.228   3.221  0.00  0.00     0.126 C 
ATOM     24  HN  UNL d   1       0.508  -4.902   3.017  1.00  0.00     0.186 HD
BRANCH  23  25
ATOM     25  C   UNL d   1      -1.419  -6.548   3.803  0.00  0.00     0.021 A 
ATOM     26  S   UNL d   1      -2.881  -7.371   4.151  0.00  0.00    -0.101 SA
ATOM     27  C   UNL d   1      -2.052  -8.794   4.612  0.00  0.00     0.050 A 
ATOM     28  C   UNL d   1      -0.685  -8.633   4.550  0.00  0.00     0.008 A 
ATOM     29  C   UNL d   1      -0.316  -7.329   4.089  0.00  0.00     0.021 A 
ENDBRANCH  23  25
ENDBRANCH  19  22
ENDBRANCH  17  18
ENDBRANCH   2  17
BRANCH   7  30
ATOM     30  C   UNL d   1       2.779  -0.276   0.215  0.00  0.00    -0.007 A 
ATOM     31  C   UNL d   1       3.612   0.434  -0.661  0.00  0.00     0.014 A 
ATOM     32  C   UNL d   1       5.001   0.299  -0.601  0.00  0.00     0.001 A 
ATOM     33  C   UNL d   1       5.572  -0.598   0.295  0.00  0.00     0.000 A 
ATOM     34  C   UNL d   1       4.754  -1.365   1.122  0.00  0.00     0.001 A 
ATOM     35  C   UNL d   1       3.363  -1.205   1.085  0.00  0.00     0.014 A 
ENDBRANCH   7  30
TORSDOF 6
