REMARK  4 active torsions:
REMARK  status: ('A' for Active; 'I' for Inactive)
REMARK    1  A    between atoms: N_2  and  C_1 
REMARK    2  A    between atoms: S_5  and  C_3 
REMARK    3  A    between atoms: C_9  and  S_5 
REMARK    4  A    between atoms: O_17  and  C_10 
ROOT
ATOM      1  C   UNL d   1       1.373  -0.140  -0.099  0.00  0.00     0.122 A 
ATOM      2  C   UNL d   1       0.618  -1.319  -0.022  0.00  0.00     0.038 A 
ATOM      3  C   UNL d   1       0.778   1.130  -0.023  0.00  0.00     0.074 A 
ATOM      4  C   UNL d   1      -0.774  -1.177   0.081  0.00  0.00     0.024 A 
ATOM      5  C   UNL d   1      -0.604   1.246   0.106  0.00  0.00     0.070 A 
ATOM      6  C   UNL d   1      -1.379   0.091   0.141  0.00  0.00     0.038 A 
ENDROOT
BRANCH   2   7
ATOM      7  S   UNL d   1       1.263  -2.984  -0.160  0.00  0.00    -0.088 SA
BRANCH   7   8
ATOM      8  C   UNL d   1       1.451  -3.441   1.558  0.00  0.00     0.005 A 
ATOM      9  C   UNL d   1       0.382  -3.949   2.302  0.00  0.00     0.019 A 
ATOM     10  C   UNL d   1       0.556  -4.292   3.651  0.00  0.00     0.008 A 
ATOM     11  C   UNL d   1       1.802  -4.138   4.269  0.00  0.00    -0.062 A 
ATOM     12  C   UNL d   1       2.879  -3.665   3.513  0.00  0.00     0.008 A 
ATOM     13  C   UNL d   1       1.972  -4.444   5.728  0.00  0.00     0.048 C 
ATOM     14  C   UNL d   1       2.705  -3.334   2.166  0.00  0.00     0.019 A 
ENDBRANCH   7   8
ENDBRANCH   2   7
BRANCH   1  15
ATOM     15  N   UNL d   1       2.803  -0.163  -0.326  0.00  0.00    -0.114 N 
ATOM     16  O   UNL d   1       3.519  -0.678   0.543  0.00  0.00    -0.532 OA
ATOM     17  O   UNL d   1       3.215   0.400  -1.349  0.00  0.00    -0.532 OA
ENDBRANCH   1  15
BRANCH   5  18
ATOM     18  O   UNL d   1      -1.062   2.531   0.179  0.00  0.00    -0.356 OA
ATOM     19  C   UNL d   1      -2.467   2.716   0.304  0.00  0.00     0.210 C 
ENDBRANCH   5  18
TORSDOF 4
