REMARK  3 active torsions:
REMARK  status: ('A' for Active; 'I' for Inactive)
REMARK    1  A    between atoms: N_2  and  C_1 
REMARK    2  A    between atoms: N_6  and  C_3 
REMARK    3  A    between atoms: C_4  and  C_7 
ROOT
ATOM      1  C   UNL d   1      -0.124  -0.550   0.747  0.00  0.00     0.130 A 
ATOM      2  C   UNL d   1       0.636  -1.373  -0.111  0.00  0.00     0.063 A 
ATOM      3  C   UNL d   1      -0.647   0.700   0.355  0.00  0.00     0.054 A 
ATOM      4  C   UNL d   1      -0.408   1.187  -0.932  0.00  0.00     0.050 A 
ATOM      5  C   UNL d   1       0.935  -0.800  -1.364  0.00  0.00     0.032 A 
ATOM      6  C   UNL d   1       0.423   0.442  -1.773  0.00  0.00     0.018 A 
ENDROOT
BRANCH   2   7
ATOM      7  N   UNL d   1       0.974  -2.701   0.161  0.00  0.00    -0.379 N 
ATOM      8  C   UNL d   1       1.161  -3.620  -0.979  0.00  0.00     0.123 C 
ATOM      9  C   UNL d   1       0.870  -5.054  -0.542  0.00  0.00     0.020 C 
ATOM     10  C   UNL d   1       1.682  -5.449   0.688  0.00  0.00     0.003 C 
ATOM     11  C   UNL d   1       1.533  -4.413   1.802  0.00  0.00     0.020 C 
ATOM     12  C   UNL d   1       1.865  -3.007   1.293  0.00  0.00     0.123 C 
ENDBRANCH   2   7
BRANCH   1  13
ATOM     13  N   UNL d   1      -0.510  -0.984   2.073  0.00  0.00    -0.113 N 
ATOM     14  O   UNL d   1       0.244  -0.673   3.007  0.00  0.00    -0.532 OA
ATOM     15  O   UNL d   1      -1.619  -1.525   2.192  0.00  0.00    -0.532 OA
ENDBRANCH   1  13
BRANCH   4  16
ATOM     16  C   UNL d   1      -1.053   2.455  -1.435  0.00  0.00     0.417 C 
ATOM     17  F   UNL d   1      -1.876   3.044  -0.525  0.00  0.00    -0.166 F 
ATOM     18  F   UNL d   1      -0.139   3.400  -1.786  0.00  0.00    -0.166 F 
ATOM     19  F   UNL d   1      -1.815   2.240  -2.542  0.00  0.00    -0.166 F 
ENDBRANCH   4  16
TORSDOF 3
