REMARK  4 active torsions:
REMARK  status: ('A' for Active; 'I' for Inactive)
REMARK       I    between atoms: C_9  and  N_12 
REMARK       I    between atoms: N_14  and  C_9 
REMARK    1  A    between atoms: N_12  and  C_10 
REMARK    2  A    between atoms: C_17  and  N_14 
REMARK    3  A    between atoms: O_16  and  C_18 
REMARK    4  A    between atoms: C_19  and  O_16 
ROOT
ATOM      1  C   UNL d   1      -5.208  -0.313  -0.833  0.00  0.00     0.325 C 
ATOM      2  N   UNL d   1      -6.260  -1.005  -0.254  0.00  0.00    -0.309 N 
ATOM      3  N   UNL d   1      -5.005   0.924  -0.233  0.00  0.00    -0.309 N 
ATOM      4  O   UNL d   1      -4.508  -0.764  -1.733  0.00  0.00    -0.247 OA
ATOM      5  H   UNL d   1      -6.823  -0.507   0.421  0.00  0.00     0.170 HD
ATOM      6  H   UNL d   1      -5.604   1.172   0.535  0.00  0.00     0.170 HD
ENDROOT
BRANCH   2   7
ATOM      7  C   UNL d   1      -6.589  -2.371  -0.479  0.00  0.00     0.038 A 
ATOM      8  C   UNL d   1      -5.878  -3.184  -1.383  0.00  0.00     0.062 A 
ATOM      9  C   UNL d   1      -6.235  -4.554  -1.451  0.00  0.00     0.069 A 
ATOM     10  C   UNL d   1      -7.345  -5.099  -0.604  0.00  0.00     0.067 A 
ATOM     11  N   UNL d   1      -5.658  -5.483  -2.227  0.00  0.00    -0.310 N 
ATOM     12  N   UNL d   1      -7.546  -6.415  -0.774  0.00  0.00    -0.310 N 
ATOM     13  C   UNL d   1      -8.063  -4.253   0.270  0.00  0.00     0.035 A 
ATOM     14  S   UNL d   1      -6.430  -6.915  -1.901  0.00  0.00     0.068 SA
ATOM     15  HN  UNL d   1      -8.244  -6.993  -0.305  1.00  0.00     0.176 HD
ATOM     16  C   UNL d   1      -7.655  -2.901   0.305  0.00  0.00     0.032 A 
ATOM     17  HN  UNL d   1      -4.894  -5.337  -2.888  1.00  0.00     0.176 HD
ENDBRANCH   2   7
BRANCH   3  18
ATOM     18  C   UNL d   1      -3.875   1.758  -0.438  0.00  0.00     0.036 C 
ATOM     19  C   UNL d   1      -2.922   1.539  -1.437  0.00  0.00     0.032 C 
ATOM     20  C   UNL d   1      -1.747   2.289  -1.488  0.00  0.00     0.039 C 
ATOM     21  C   UNL d   1      -1.494   3.250  -0.513  0.00  0.00     0.076 C 
ATOM     22  C   UNL d   1      -2.487   3.565   0.413  0.00  0.00     0.039 C 
ATOM     23  C   UNL d   1      -3.676   2.824   0.449  0.00  0.00     0.032 C 
BRANCH  21  24
ATOM     24  O   UNL d   1      -0.305   3.939  -0.430  0.00  0.00    -0.311 OA
BRANCH  24  25
ATOM     25  C   UNL d   1       0.875   3.247  -0.621  0.00  0.00     0.076 A 
ATOM     26  C   UNL d   1       1.939   3.982  -1.147  0.00  0.00     0.037 A 
ATOM     27  C   UNL d   1       3.168   3.364  -1.392  0.00  0.00     0.003 A 
ATOM     28  C   UNL d   1       3.338   2.009  -1.109  0.00  0.00     0.000 A 
ATOM     29  C   UNL d   1       2.290   1.279  -0.551  0.00  0.00     0.003 A 
ATOM     30  C   UNL d   1       1.069   1.901  -0.284  0.00  0.00     0.037 A 
ENDBRANCH  24  25
ENDBRANCH  21  24
ENDBRANCH   3  18
TORSDOF 4
