REMARK  6 active torsions:
REMARK  status: ('A' for Active; 'I' for Inactive)
REMARK    1  A    between atoms: C_8  and  C_1 
REMARK    2  A    between atoms: N_7  and  C_2 
REMARK    3  A    between atoms: C_10  and  C_4 
REMARK       I    between atoms: C_6  and  N_7 
REMARK       I    between atoms: N_9  and  C_6 
REMARK    4  A    between atoms: O_17  and  C_8 
REMARK    5  A    between atoms: C_12  and  N_9 
REMARK    6  A    between atoms: O_23  and  C_19 
ROOT
ATOM      1  C   UNL d   1      -0.294   1.362  -0.098  0.00  0.00     0.107 C 
ATOM      2  C   UNL d   1       1.038   0.949  -0.137  0.00  0.00     0.060 C 
ATOM      3  S   UNL d   1      -1.356   0.000  -0.370  0.00  0.00    -0.081 SA
ATOM      4  C   UNL d   1      -0.104  -1.131  -0.263  0.00  0.00     0.018 C 
ATOM      5  C   UNL d   1       1.109  -0.492  -0.169  0.00  0.00     0.051 C 
ENDROOT
BRANCH   2   6
ATOM      6  N   UNL d   1       2.278   1.586  -0.125  0.00  0.00    -0.307 N 
ATOM      7  C   UNL d   1       2.796   2.815  -0.357  0.00  0.00     0.325 C 
ATOM      8  N   UNL d   1       1.989   3.896  -0.403  0.00  0.00    -0.309 N 
ATOM      9  O   UNL d   1       4.020   2.853  -0.509  0.00  0.00    -0.247 OA
ATOM     10  H   UNL d   1       1.192   3.855   0.225  0.00  0.00     0.170 HD
ATOM     11  H   UNL d   1       3.065   0.946  -0.109  0.00  0.00     0.170 HD
BRANCH   8  12
ATOM     12  C   UNL d   1       2.427   5.199  -0.724  0.00  0.00     0.039 A 
ATOM     13  C   UNL d   1       1.810   6.269  -0.065  0.00  0.00     0.066 A 
ATOM     14  C   UNL d   1       2.181   7.585  -0.342  0.00  0.00     0.070 A 
ATOM     15  C   UNL d   1       3.168   7.831  -1.300  0.00  0.00     0.037 A 
ATOM     16  C   UNL d   1       3.784   6.770  -1.966  0.00  0.00     0.005 A 
ATOM     17  C   UNL d   1       3.420   5.456  -1.676  0.00  0.00     0.030 A 
BRANCH  14  18
ATOM     18  O   UNL d   1       1.654   8.702   0.248  0.00  0.00    -0.356 OA
ATOM     19  C   UNL d   1       0.696   8.488   1.279  0.00  0.00     0.210 C 
ENDBRANCH  14  18
ENDBRANCH   8  12
ENDBRANCH   2   6
BRANCH   1  20
ATOM     20  C   UNL d   1      -0.922   2.644   0.212  0.00  0.00     0.302 C 
ATOM     21  O   UNL d   1      -0.350   3.609   0.709  0.00  0.00    -0.259 OA
BRANCH  20  22
ATOM     22  O   UNL d   1      -2.268   2.628  -0.043  0.00  0.00    -0.322 OA
ATOM     23  C   UNL d   1      -3.012   3.766   0.401  0.00  0.00     0.213 C 
ENDBRANCH  20  22
ENDBRANCH   1  20
BRANCH   4  24
ATOM     24  C   UNL d   1      -0.355  -2.573  -0.221  0.00  0.00    -0.019 A 
ATOM     25  C   UNL d   1      -1.017  -3.251  -1.253  0.00  0.00     0.014 A 
ATOM     26  C   UNL d   1      -1.198  -4.638  -1.182  0.00  0.00     0.024 A 
ATOM     27  C   UNL d   1      -0.722  -5.349  -0.080  0.00  0.00     0.034 A 
ATOM     28  C   UNL d   1      -0.059  -4.689   0.947  0.00  0.00     0.024 A 
ATOM     29 CL   UNL d   1      -0.952  -7.051   0.009  0.00  0.00    -0.084 Cl
ATOM     30  C   UNL d   1       0.126  -3.307   0.875  0.00  0.00     0.014 A 
ENDBRANCH   4  24
TORSDOF 6
