REMARK  4 active torsions:
REMARK  status: ('A' for Active; 'I' for Inactive)
REMARK    1  A    between atoms: C_3  and  C_1 
REMARK    2  A    between atoms: C_9  and  C_2 
REMARK    3  A    between atoms: C_17  and  C_12 
REMARK    4  A    between atoms: C_14  and  C_16 
ROOT
ATOM      1  C   UNL d   1       0.499  -2.648  -0.114  0.00  0.00     0.179 A 
ATOM      2  O   UNL d   1      -0.214  -3.691  -0.649  0.00  0.00    -0.272 OA
ATOM      3  N   UNL d   1       1.713  -3.022   0.253  0.00  0.00    -0.277 N 
ATOM      4  HN  UNL d   1       2.438  -2.424   0.651  1.00  0.00     0.189 HD
ATOM      5  N   UNL d   1       1.813  -4.372  -0.004  0.00  0.00    -0.277 N 
ATOM      6  HN  UNL d   1       2.607  -4.977   0.203  1.00  0.00     0.189 HD
ATOM      7  C   UNL d   1       0.679  -4.724  -0.570  0.00  0.00     0.174 A 
ENDROOT
BRANCH   1   8
ATOM      8  C   UNL d   1      -0.017  -1.271   0.021  0.00  0.00     0.077 A 
ATOM      9  C   UNL d   1      -1.358  -0.788   0.037  0.00  0.00     0.086 A 
ATOM     10  N   UNL d   1      -1.349   0.548   0.183  0.00  0.00    -0.259 N 
ATOM     11  O   UNL d   1      -0.026   0.938   0.227  0.00  0.00    -0.241 OA
ATOM     12  HN  UNL d   1      -2.164   1.158   0.250  1.00  0.00     0.195 HD
ATOM     13  C   UNL d   1       0.774  -0.154   0.141  0.00  0.00     0.089 A 
ATOM     14  C   UNL d   1       2.231   0.086   0.132  0.00  0.00     0.080 C 
BRANCH   9  15
ATOM     15  C   UNL d   1      -2.621  -1.536  -0.000  0.00  0.00     0.054 A 
ATOM     16  C   UNL d   1      -2.744  -2.711   0.759  0.00  0.00     0.130 A 
ATOM     17  F   UNL d   1      -1.748  -3.115   1.561  0.00  0.00    -0.205 F 
ATOM     18  C   UNL d   1      -3.893  -3.502   0.727  0.00  0.00     0.043 A 
ATOM     19  C   UNL d   1      -4.982  -3.103  -0.035  0.00  0.00     0.005 A 
ATOM     20  C   UNL d   1      -4.912  -1.915  -0.759  0.00  0.00     0.025 A 
ATOM     21  C   UNL d   1      -3.739  -1.139  -0.755  0.00  0.00     0.049 A 
ATOM     22 CL   UNL d   1      -3.765   0.277  -1.751  0.00  0.00    -0.083 Cl
ENDBRANCH   9  15
ENDBRANCH   1   8
BRANCH   7  23
ATOM     23  C   UNL d   1       0.287  -5.992  -1.170  0.00  0.00     0.017 A 
ATOM     24  C   UNL d   1      -0.827  -6.086  -2.017  0.00  0.00     0.017 A 
ATOM     25  C   UNL d   1      -1.135  -7.293  -2.656  0.00  0.00     0.017 A 
ATOM     26  C   UNL d   1      -0.344  -8.430  -2.449  0.00  0.00     0.048 A 
ATOM     27  C   UNL d   1       0.756  -8.344  -1.583  0.00  0.00     0.017 A 
ATOM     28  C   UNL d   1       1.066  -7.133  -0.950  0.00  0.00     0.017 A 
BRANCH  26  29
ATOM     29  C   UNL d   1      -0.645  -9.731  -3.156  0.00  0.00     0.417 C 
ATOM     30  F   UNL d   1      -1.728  -9.664  -3.979  0.00  0.00    -0.166 F 
ATOM     31  F   UNL d   1       0.390 -10.152  -3.934  0.00  0.00    -0.166 F 
ATOM     32  F   UNL d   1      -0.899 -10.749  -2.288  0.00  0.00    -0.166 F 
ENDBRANCH  26  29
ENDBRANCH   7  23
TORSDOF 4
