REMARK  2 active torsions:
REMARK  status: ('A' for Active; 'I' for Inactive)
REMARK    1  A    between atoms: S_11  and  C_2 
REMARK    2  A    between atoms: N_12  and  C_3 
ROOT
ATOM      1  C   UNL d   1      -0.663   1.297  -0.060  0.00  0.00     0.116 A 
ATOM      2  C   UNL d   1      -1.324   0.081  -0.004  0.00  0.00     0.095 A 
ATOM      3  C   UNL d   1       0.722   1.235  -0.066  0.00  0.00     0.102 A 
ATOM      4  N   UNL d   1      -0.669  -1.097   0.037  0.00  0.00    -0.339 N 
ATOM      5  HN  UNL d   1      -1.172  -1.983   0.081  1.00  0.00     0.167 HD
ATOM      6  N   UNL d   1       1.393   0.073  -0.034  0.00  0.00    -0.336 N 
ATOM      7  HN  UNL d   1       2.413   0.050  -0.046  1.00  0.00     0.168 HD
ATOM      8  C   UNL d   1       0.671  -1.055   0.016  0.00  0.00     0.079 A 
ATOM      9  C   UNL d   1      -1.338   2.552  -0.086  0.00  0.00     0.105 C 
ATOM     10  N   UNL d   1      -1.851   3.594  -0.073  0.00  0.00    -0.191 NA
ATOM     11  C   UNL d   1       1.395  -2.363   0.023  0.00  0.00     0.089 C 
ENDROOT
BRANCH   2  12
ATOM     12  S   UNL d   1      -3.117  -0.022   0.011  0.00  0.00    -0.115 SA
ATOM     13  C   UNL d   1      -3.360  -1.821   0.043  0.00  0.00     0.097 C 
ENDBRANCH   2  12
BRANCH   3  14
ATOM     14  N   UNL d   1       1.529   2.364  -0.206  0.00  0.00    -0.287 NA
ATOM     15  H   UNL d   1       1.291   3.141   0.402  0.00  0.00     0.125 HD
ATOM     16  H   UNL d   1       2.503   2.084  -0.119  0.00  0.00     0.125 HD
ENDBRANCH   3  14
TORSDOF 2
