REMARK  7 active torsions:
REMARK  status: ('A' for Active; 'I' for Inactive)
REMARK    1  A    between atoms: C_9  and  N_1 
REMARK    2  A    between atoms: N_7  and  C_4 
REMARK    3  A    between atoms: C_8  and  C_5 
REMARK    4  A    between atoms: S_13  and  C_6 
REMARK       I    between atoms: C_11  and  N_7 
REMARK    5  A    between atoms: O_19  and  C_8 
REMARK    6  A    between atoms: C_10  and  C_9 
REMARK    7  A    between atoms: C_22  and  O_19 
ROOT
ATOM      1  N   UNL d   1      -0.216  -1.256   0.046  0.00  0.00    -0.315 N 
ATOM      2  N   UNL d   1      -0.161   0.944  -0.191  0.00  0.00    -0.321 N 
ATOM      3  HN  UNL d   1      -0.449   1.912  -0.332  1.00  0.00     0.169 HD
ATOM      4  C   UNL d   1       1.112   0.480  -0.077  0.00  0.00     0.143 A 
ATOM      5  C   UNL d   1       1.133  -0.898   0.091  0.00  0.00     0.157 A 
ATOM      6  C   UNL d   1      -0.940  -0.097  -0.085  0.00  0.00     0.148 A 
ENDROOT
BRANCH   1   7
ATOM      7  C   UNL d   1      -0.764  -2.606   0.102  0.00  0.00     0.177 C 
BRANCH   7   8
ATOM      8  C   UNL d   1      -0.960  -3.147  -1.284  0.00  0.00     0.001 A 
ATOM      9  S   UNL d   1       0.280  -4.059  -2.039  0.00  0.00    -0.105 SA
ATOM     10  C   UNL d   1      -0.622  -4.214  -3.482  0.00  0.00     0.050 A 
ATOM     11  C   UNL d   1      -1.854  -3.608  -3.389  0.00  0.00     0.008 A 
ATOM     12  C   UNL d   1      -2.061  -3.016  -2.111  0.00  0.00     0.017 A 
ENDBRANCH   7   8
ENDBRANCH   1   7
BRANCH   5  13
ATOM     13  C   UNL d   1       2.227  -1.797   0.363  0.00  0.00     0.314 C 
ATOM     14  O   UNL d   1       2.147  -2.804   1.051  0.00  0.00    -0.257 OA
BRANCH  13  15
ATOM     15  O   UNL d   1       3.382  -1.347  -0.208  0.00  0.00    -0.317 OA
BRANCH  15  16
ATOM     16  C   UNL d   1       4.582  -2.050   0.168  0.00  0.00     0.175 C 
ATOM     17  C   UNL d   1       4.721  -3.427  -0.459  0.00  0.00     0.034 C 
ENDBRANCH  15  16
ENDBRANCH  13  15
ENDBRANCH   5  13
BRANCH   6  18
ATOM     18  S   UNL d   1      -2.671  -0.018  -0.071  0.00  0.00    -0.098 SA
ATOM     19  C   UNL d   1      -2.921   1.773  -0.135  0.00  0.00     0.099 C 
ENDBRANCH   6  18
BRANCH   4  20
ATOM     20  N   UNL d   1       2.192   1.338  -0.059  0.00  0.00    -0.311 N 
ATOM     21  C   UNL d   1       2.071   2.718  -0.082  0.00  0.00     0.219 C 
ATOM     22  O   UNL d   1       1.044   3.380  -0.180  0.00  0.00    -0.274 OA
ATOM     23  C   UNL d   1       3.398   3.424   0.029  0.00  0.00     0.117 C 
ATOM     24  H   UNL d   1       3.106   0.912   0.004  0.00  0.00     0.170 HD
ENDBRANCH   4  20
TORSDOF 7
