REMARK  6 active torsions:
REMARK  status: ('A' for Active; 'I' for Inactive)
REMARK    1  A    between atoms: C_8  and  C_2 
REMARK    2  A    between atoms: C_15  and  N_4 
REMARK    3  A    between atoms: O_18  and  C_8 
REMARK    4  A    between atoms: O_19  and  C_12 
REMARK    5  A    between atoms: O_20  and  C_14 
REMARK    6  A    between atoms: C_23  and  O_18 
ROOT
ATOM      1  N   UNL d   1      -2.478   1.378   0.334  0.00  0.00    -0.338 N 
ATOM      2  C   UNL d   1      -3.171   2.289   1.215  0.00  0.00     0.193 C 
ATOM      3  C   UNL d   1      -1.126   1.922   0.295  0.00  0.00     0.220 C 
ATOM      4  N   UNL d   1      -1.083   2.597   1.615  0.00  0.00    -0.167 NA
ATOM      5  N   UNL d   1      -2.377   2.982   1.970  0.00  0.00    -0.293 N 
ATOM      6  HN  UNL d   1      -2.642   3.666   2.678  1.00  0.00     0.183 HD
ATOM      7  C   UNL d   1      -0.031   0.966  -0.042  0.00  0.00    -0.010 A 
ATOM      8  C   UNL d   1      -0.267  -0.401  -0.223  0.00  0.00    -0.044 A 
ATOM      9  C   UNL d   1       1.276   1.477  -0.153  0.00  0.00     0.050 A 
ATOM     10  C   UNL d   1      -2.753  -0.057   0.398  0.00  0.00     0.131 C 
ATOM     11  C   UNL d   1       2.362   0.635  -0.363  0.00  0.00     0.102 A 
ATOM     12  C   UNL d   1       0.836  -1.257  -0.395  0.00  0.00     0.047 A 
ATOM     13  C   UNL d   1       2.147  -0.750  -0.427  0.00  0.00     0.102 A 
ATOM     14  C   UNL d   1      -1.684  -0.917  -0.298  0.00  0.00     0.059 C 
ENDROOT
BRANCH   4  15
ATOM     15  C   UNL d   1      -0.355   2.091   2.709  0.00  0.00     0.033 A 
ATOM     16  C   UNL d   1       0.235   3.006   3.594  0.00  0.00     0.025 A 
ATOM     17  C   UNL d   1       1.019   2.575   4.672  0.00  0.00     0.002 A 
ATOM     18  C   UNL d   1       1.218   1.218   4.896  0.00  0.00     0.000 A 
ATOM     19  C   UNL d   1       0.605   0.291   4.063  0.00  0.00     0.002 A 
ATOM     20  C   UNL d   1      -0.188   0.726   2.997  0.00  0.00     0.025 A 
ENDBRANCH   4  15
BRANCH   2  21
ATOM     21  C   UNL d   1      -4.677   2.454   1.204  0.00  0.00     0.328 C 
ATOM     22  O   UNL d   1      -5.439   1.538   0.958  0.00  0.00    -0.256 OA
BRANCH  21  23
ATOM     23  O   UNL d   1      -4.954   3.758   1.417  0.00  0.00    -0.316 OA
BRANCH  23  24
ATOM     24  C   UNL d   1      -6.320   4.189   1.357  0.00  0.00     0.175 C 
ATOM     25  C   UNL d   1      -6.498   5.056   0.124  0.00  0.00     0.034 C 
ENDBRANCH  23  24
ENDBRANCH  21  23
ENDBRANCH   2  21
BRANCH  11  26
ATOM     26  O   UNL d   1       3.656   1.083  -0.449  0.00  0.00    -0.353 OA
ATOM     27  C   UNL d   1       3.834   2.422  -0.901  0.00  0.00     0.210 C 
ENDBRANCH  11  26
BRANCH  13  28
ATOM     28  O   UNL d   1       3.270  -1.522  -0.580  0.00  0.00    -0.353 OA
ATOM     29  C   UNL d   1       3.187  -2.871  -0.143  0.00  0.00     0.210 C 
ENDBRANCH  13  28
TORSDOF 6
