REMARK  3 active torsions:
REMARK  status: ('A' for Active; 'I' for Inactive)
REMARK    1  A    between atoms: C_5  and  C_1 
REMARK       I    between atoms: C_2  and  N_3 
REMARK    2  A    between atoms: C_7  and  C_2 
REMARK    3  A    between atoms: N_3  and  C_4 
REMARK       I    between atoms: N_9  and  C_5 
ROOT
ATOM      1  C   UNL d   1      -0.598  -0.966  -0.384  0.00  0.00     0.058 A 
ATOM      2  C   UNL d   1       0.701  -1.342   0.004  0.00  0.00     0.050 A 
ATOM      3  C   UNL d   1      -1.046   0.345  -0.147  0.00  0.00     0.019 A 
ATOM      4  C   UNL d   1       1.527  -0.389   0.618  0.00  0.00     0.030 A 
ATOM      5  C   UNL d   1      -0.212   1.279   0.468  0.00  0.00     0.001 A 
ATOM      6  C   UNL d   1       1.073   0.911   0.851  0.00  0.00     0.002 A 
ENDROOT
BRANCH   2   7
ATOM      7  N   UNL d   1       1.163  -2.672  -0.149  0.00  0.00    -0.322 N 
ATOM      8  C   UNL d   1       2.465  -2.982  -0.494  0.00  0.00     0.256 C 
ATOM      9  O   UNL d   1       3.314  -2.179  -0.866  0.00  0.00    -0.267 OA
ATOM     10  H   UNL d   1       0.461  -3.397  -0.271  0.00  0.00     0.169 HD
BRANCH   8  11
ATOM     11  C   UNL d   1       2.808  -4.420  -0.485  0.00  0.00     0.032 A 
ATOM     12  C   UNL d   1       3.534  -4.947  -1.559  0.00  0.00     0.017 A 
ATOM     13  C   UNL d   1       3.974  -6.269  -1.516  0.00  0.00     0.001 A 
ATOM     14  C   UNL d   1       3.701  -7.056  -0.397  0.00  0.00     0.000 A 
ATOM     15  C   UNL d   1       2.972  -6.531   0.673  0.00  0.00     0.001 A 
ATOM     16  C   UNL d   1       2.517  -5.212   0.628  0.00  0.00     0.017 A 
ENDBRANCH   8  11
ENDBRANCH   2   7
BRANCH   1  17
ATOM     17  C   UNL d   1      -1.522  -1.864  -1.128  0.00  0.00     0.251 C 
ATOM     18  O   UNL d   1      -2.738  -1.751  -1.052  0.00  0.00    -0.268 OA
ATOM     19  N   UNL d   1      -0.954  -2.790  -1.962  0.00  0.00    -0.366 N 
ATOM     20  H   UNL d   1      -0.005  -2.650  -2.292  0.00  0.00     0.159 HD
ATOM     21  H   UNL d   1      -1.594  -3.246  -2.601  0.00  0.00     0.159 HD
ENDBRANCH   1  17
TORSDOF 3
