REMARK  6 active torsions:
REMARK  status: ('A' for Active; 'I' for Inactive)
REMARK    1  A    between atoms: C_5  and  C_1 
REMARK    2  A    between atoms: C_11  and  C_6 
REMARK    3  A    between atoms: O_20  and  C_8 
REMARK    4  A    between atoms: O_22  and  C_14 
REMARK    5  A    between atoms: O_23  and  C_16 
REMARK    6  A    between atoms: O_24  and  C_19 
ROOT
ATOM      1  C   UNL d   1      -1.601   1.702  -0.131  0.00  0.00     0.024 C 
ATOM      2  N   UNL d   1      -0.480   1.575  -0.790  0.00  0.00    -0.358 N 
ATOM      3  HN  UNL d   1      -0.325   2.124  -1.636  1.00  0.00     0.166 HD
ATOM      4  S   UNL d   1      -1.211  -1.531  -0.470  0.00  0.00    -0.118 SA
ATOM      5  C   UNL d   1      -2.380  -0.609   0.622  0.00  0.00     0.091 C 
ATOM      6  C   UNL d   1      -1.979   0.818   1.048  0.00  0.00     0.078 C 
ATOM      7  C   UNL d   1       0.515   0.686  -0.340  0.00  0.00     0.049 A 
ATOM      8  C   UNL d   1       0.335  -0.697  -0.156  0.00  0.00     0.028 A 
ATOM      9  C   UNL d   1       1.784   1.240  -0.109  0.00  0.00     0.031 A 
ATOM     10  C   UNL d   1       1.423  -1.492   0.238  0.00  0.00     0.021 A 
ATOM     11  C   UNL d   1       2.677  -0.921   0.468  0.00  0.00     0.002 A 
ATOM     12  C   UNL d   1       2.856   0.445   0.298  0.00  0.00     0.002 A 
ENDROOT
BRANCH   1  13
ATOM     13  C   UNL d   1      -2.543   2.769  -0.596  0.00  0.00     0.020 A 
ATOM     14  C   UNL d   1      -2.634   3.099  -1.957  0.00  0.00     0.080 A 
ATOM     15  C   UNL d   1      -3.448   4.146  -2.387  0.00  0.00     0.074 A 
ATOM     16  C   UNL d   1      -4.191   4.884  -1.466  0.00  0.00     0.070 A 
ATOM     17  C   UNL d   1      -4.139   4.537  -0.115  0.00  0.00     0.038 A 
ATOM     18  C   UNL d   1      -3.315   3.492   0.320  0.00  0.00     0.019 A 
BRANCH  14  19
ATOM     19  O   UNL d   1      -1.962   2.403  -2.927  0.00  0.00    -0.360 OA
ATOM     20  H   UNL d   1      -1.239   1.907  -2.481  0.00  0.00     0.217 HD
ENDBRANCH  14  19
BRANCH  16  21
ATOM     21  O   UNL d   1      -4.915   5.918  -1.995  0.00  0.00    -0.356 OA
ATOM     22  C   UNL d   1      -5.627   6.739  -1.077  0.00  0.00     0.210 C 
ENDBRANCH  16  21
ENDBRANCH   1  13
BRANCH   5  23
ATOM     23  C   UNL d   1      -3.781  -0.621   0.019  0.00  0.00    -0.041 A 
ATOM     24  C   UNL d   1      -4.021  -0.103  -1.263  0.00  0.00     0.047 A 
ATOM     25  C   UNL d   1      -5.316   0.038  -1.766  0.00  0.00     0.099 A 
ATOM     26  C   UNL d   1      -6.409  -0.415  -1.026  0.00  0.00     0.101 A 
ATOM     27  C   UNL d   1      -6.169  -0.999   0.225  0.00  0.00     0.040 A 
ATOM     28  C   UNL d   1      -4.876  -1.091   0.753  0.00  0.00     0.011 A 
BRANCH  25  29
ATOM     29  O   UNL d   1      -5.458   0.644  -2.984  0.00  0.00    -0.358 OA
ATOM     30  H   UNL d   1      -4.610   1.051  -3.239  0.00  0.00     0.217 HD
ENDBRANCH  25  29
BRANCH  26  31
ATOM     31  O   UNL d   1      -7.736  -0.363  -1.355  0.00  0.00    -0.353 OA
ATOM     32  C   UNL d   1      -8.090   0.275  -2.575  0.00  0.00     0.210 C 
ENDBRANCH  26  31
ENDBRANCH   5  23
TORSDOF 6
