REMARK  7 active torsions:
REMARK  status: ('A' for Active; 'I' for Inactive)
REMARK    1  A    between atoms: O_16  and  C_1 
REMARK    2  A    between atoms: C_3  and  C_2 
REMARK    3  A    between atoms: O_10  and  C_3 
REMARK    4  A    between atoms: O_18  and  C_4 
REMARK    5  A    between atoms: O_19  and  C_5 
REMARK    6  A    between atoms: N_6  and  O_10 
REMARK    7  A    between atoms: C_12  and  C_11 
ROOT
ATOM      1  C   UNL d   1      -0.847   1.423  -0.174  0.00  0.00     0.315 C 
ATOM      2  O   UNL d   1      -1.380   2.524  -0.274  0.00  0.00    -0.257 OA
ENDROOT
BRANCH   1   3
ATOM      3  C   UNL d   1      -1.653   0.173  -0.094  0.00  0.00     0.046 A 
ATOM      4  C   UNL d   1      -3.052   0.272  -0.116  0.00  0.00     0.057 A 
ATOM      5  C   UNL d   1      -3.880  -0.860  -0.018  0.00  0.00     0.105 A 
ATOM      6  C   UNL d   1      -3.292  -2.132   0.085  0.00  0.00     0.135 A 
ATOM      7  C   UNL d   1      -1.881  -2.246   0.017  0.00  0.00     0.105 A 
ATOM      8  C   UNL d   1      -1.077  -1.095  -0.019  0.00  0.00     0.057 A 
BRANCH   5   9
ATOM      9  O   UNL d   1      -5.206  -0.515  -0.034  0.00  0.00    -0.353 OA
ATOM     10  C   UNL d   1      -6.208  -1.515   0.049  0.00  0.00     0.210 C 
ENDBRANCH   5   9
BRANCH   6  11
ATOM     11  O   UNL d   1      -4.104  -3.238   0.131  0.00  0.00    -0.351 OA
ATOM     12  C   UNL d   1      -3.817  -4.172   1.174  0.00  0.00     0.210 C 
ENDBRANCH   6  11
BRANCH   7  13
ATOM     13  O   UNL d   1      -1.348  -3.515  -0.024  0.00  0.00    -0.353 OA
ATOM     14  C   UNL d   1      -0.022  -3.629  -0.532  0.00  0.00     0.210 C 
ENDBRANCH   7  13
ENDBRANCH   1   3
BRANCH   1  15
ATOM     15  O   UNL d   1       0.503   1.162  -0.117  0.00  0.00    -0.195 OA
BRANCH  15  16
ATOM     16  N   UNL d   1       1.213   2.374  -0.194  0.00  0.00    -0.261 N 
ATOM     17  C   UNL d   1       2.505   2.252  -0.125  0.00  0.00     0.039 C 
ATOM     18  C   UNL d   1       3.233   0.931   0.019  0.00  0.00     0.071 C 
ATOM     19  HN  UNL d   1       0.751   3.278  -0.295  1.00  0.00     0.194 HD
BRANCH  17  20
ATOM     20  C   UNL d   1       3.338   3.508  -0.200  0.00  0.00    -0.012 A 
ATOM     21  C   UNL d   1       2.686   4.751  -0.275  0.00  0.00     0.016 A 
ATOM     22  C   UNL d   1       3.419   5.940  -0.343  0.00  0.00     0.043 A 
ATOM     23  C   UNL d   1       4.806   5.888  -0.337  0.00  0.00     0.116 A 
ATOM     24  C   UNL d   1       5.473   4.671  -0.266  0.00  0.00     0.043 A 
ATOM     25  F   UNL d   1       5.512   7.024  -0.402  0.00  0.00    -0.206 F 
ATOM     26  C   UNL d   1       4.741   3.479  -0.199  0.00  0.00     0.016 A 
ENDBRANCH  17  20
ENDBRANCH  15  16
ENDBRANCH   1  15
TORSDOF 7
