REMARK  4 active torsions:
REMARK  status: ('A' for Active; 'I' for Inactive)
REMARK    1  A    between atoms: C_11  and  N_1 
REMARK    2  A    between atoms: C_8  and  C_4 
REMARK    3  A    between atoms: N_10  and  C_6 
REMARK    4  A    between atoms: C_9  and  C_8 
REMARK       I    between atoms: C_13  and  N_10 
ROOT
ATOM      1  N   UNL d   1      -0.560   1.162   0.060  0.00  0.00    -0.218 N 
ATOM      2  N   UNL d   1      -1.339   0.024   0.148  0.00  0.00    -0.287 N 
ATOM      3  HN  UNL d   1      -2.345   0.088   0.305  1.00  0.00     0.188 HD
ATOM      4  C   UNL d   1      -0.756  -1.127   0.026  0.00  0.00     0.102 A 
ATOM      5  C   UNL d   1       0.833   1.131  -0.042  0.00  0.00     0.293 A 
ATOM      6  C   UNL d   1       1.469  -0.236  -0.121  0.00  0.00     0.107 A 
ATOM      7  C   UNL d   1       0.693  -1.318  -0.143  0.00  0.00     0.070 A 
ATOM      8  O   UNL d   1       1.598   2.099  -0.053  0.00  0.00    -0.264 OA
ENDROOT
BRANCH   1   9
ATOM      9  C   UNL d   1      -1.327   2.377   0.051  0.00  0.00     0.060 A 
ATOM     10  C   UNL d   1      -0.844   3.550  -0.548  0.00  0.00     0.033 A 
ATOM     11  C   UNL d   1      -1.614   4.721  -0.575  0.00  0.00     0.026 A 
ATOM     12  C   UNL d   1      -2.873   4.738   0.014  0.00  0.00     0.034 A 
ATOM     13  C   UNL d   1      -3.377   3.590   0.615  0.00  0.00     0.026 A 
ATOM     14 CL   UNL d   1      -3.809   6.181  -0.008  0.00  0.00    -0.084 Cl
ATOM     15  C   UNL d   1      -2.614   2.414   0.618  0.00  0.00     0.033 A 
ENDBRANCH   1   9
BRANCH   4  16
ATOM     16  C   UNL d   1      -1.588  -2.402   0.104  0.00  0.00     0.216 C 
ATOM     17  O   UNL d   1      -1.056  -3.385   0.615  0.00  0.00    -0.284 OA
BRANCH  16  18
ATOM     18  C   UNL d   1      -2.945  -2.349  -0.406  0.00  0.00     0.057 A 
ATOM     19  S   UNL d   1      -4.076  -3.507   0.171  0.00  0.00    -0.098 SA
ATOM     20  C   UNL d   1      -5.356  -2.801  -0.711  0.00  0.00     0.050 A 
ATOM     21  C   UNL d   1      -4.930  -1.742  -1.478  0.00  0.00     0.009 A 
ATOM     22  C   UNL d   1      -3.535  -1.491  -1.317  0.00  0.00     0.023 A 
ENDBRANCH  16  18
ENDBRANCH   4  16
BRANCH   6  23
ATOM     23  N   UNL d   1       2.857  -0.249  -0.154  0.00  0.00    -0.323 N 
ATOM     24  C   UNL d   1       3.689  -1.345  -0.207  0.00  0.00     0.218 C 
ATOM     25  O   UNL d   1       3.319  -2.513  -0.296  0.00  0.00    -0.274 OA
ATOM     26  C   UNL d   1       5.155  -1.013  -0.156  0.00  0.00     0.117 C 
ATOM     27  H   UNL d   1       3.275   0.680  -0.097  0.00  0.00     0.169 HD
ENDBRANCH   6  23
TORSDOF 4
