REMARK  4 active torsions:
REMARK  status: ('A' for Active; 'I' for Inactive)
REMARK    1  A    between atoms: C_7  and  C_1 
REMARK    2  A    between atoms: C_13  and  C_5 
REMARK       I    between atoms: N_10  and  C_7 
REMARK       I    between atoms: C_8  and  N_11 
REMARK    3  A    between atoms: C_9  and  C_8 
REMARK    4  A    between atoms: N_11  and  N_10 
ROOT
ATOM      1  C   UNL d   1      -0.195  -2.497   0.054  0.00  0.00     0.279 C 
ATOM      2  N   UNL d   1       0.809  -3.449   0.157  0.00  0.00    -0.262 N 
ATOM      3  O   UNL d   1       0.112  -1.320  -0.161  0.00  0.00    -0.265 OA
ATOM      4  H   UNL d   1       0.645  -4.445   0.289  0.00  0.00     0.190 HD
ENDROOT
BRANCH   2   5
ATOM      5  N   UNL d   1       2.141  -3.022   0.010  0.00  0.00    -0.263 N 
ATOM      6  C   UNL d   1       3.163  -3.953   0.009  0.00  0.00     0.271 C 
ATOM      7  O   UNL d   1       2.949  -5.152   0.159  0.00  0.00    -0.266 OA
ATOM      8  H   UNL d   1       2.282  -2.014  -0.049  0.00  0.00     0.190 HD
BRANCH   6   9
ATOM      9  C   UNL d   1       4.546  -3.403  -0.202  0.00  0.00     0.044 A 
ATOM     10  C   UNL d   1       5.693  -3.957   0.444  0.00  0.00    -0.010 A 
ATOM     11  C   UNL d   1       6.966  -3.397   0.145  0.00  0.00    -0.025 A 
ATOM     12  C   UNL d   1       5.671  -5.022   1.377  0.00  0.00     0.013 A 
ATOM     13  C   UNL d   1       8.129  -3.907   0.747  0.00  0.00     0.012 A 
ATOM     14  C   UNL d   1       7.075  -2.329  -0.756  0.00  0.00     0.012 A 
ATOM     15  C   UNL d   1       8.066  -4.963   1.653  0.00  0.00     0.001 A 
ATOM     16  C   UNL d   1       6.835  -5.518   1.970  0.00  0.00     0.001 A 
ATOM     17  C   UNL d   1       5.949  -1.797  -1.375  0.00  0.00     0.002 A 
ATOM     18  C   UNL d   1       4.692  -2.333  -1.108  0.00  0.00     0.018 A 
ENDBRANCH   6   9
ENDBRANCH   2   5
BRANCH   1  19
ATOM     19  C   UNL d   1      -1.570  -2.939   0.214  0.00  0.00     0.098 A 
ATOM     20  S   UNL d   1      -2.017  -4.557   0.575  0.00  0.00    -0.064 SA
ATOM     21  C   UNL d   1      -3.683  -4.107   0.618  0.00  0.00     0.085 A 
ATOM     22  N   UNL d   1      -3.905  -2.841   0.331  0.00  0.00    -0.352 N 
ATOM     23  C   UNL d   1      -2.716  -2.161   0.128  0.00  0.00     0.029 A 
ATOM     24  HN  UNL d   1      -4.831  -2.417   0.267  1.00  0.00     0.166 HD
ATOM     25  C   UNL d   1      -2.794  -0.699  -0.142  0.00  0.00     0.070 C 
BRANCH  21  26
ATOM     26  C   UNL d   1      -4.760  -5.066   0.932  0.00  0.00    -0.002 A 
ATOM     27  C   UNL d   1      -4.577  -6.178   1.768  0.00  0.00     0.014 A 
ATOM     28  C   UNL d   1      -5.649  -7.021   2.085  0.00  0.00     0.001 A 
ATOM     29  C   UNL d   1      -6.920  -6.768   1.572  0.00  0.00     0.000 A 
ATOM     30  C   UNL d   1      -7.122  -5.672   0.739  0.00  0.00     0.001 A 
ATOM     31  C   UNL d   1      -6.052  -4.827   0.426  0.00  0.00     0.014 A 
ENDBRANCH  21  26
ENDBRANCH   1  19
TORSDOF 4
