REMARK  2 active torsions:
REMARK  status: ('A' for Active; 'I' for Inactive)
REMARK       I    between atoms: C_7  and  N_1 
REMARK    1  A    between atoms: C_10  and  C_4 
REMARK    2  A    between atoms: C_11  and  C_5 
ROOT
ATOM      1  N   UNL d   1      -0.733   1.238  -0.076  0.00  0.00    -0.247 N 
ATOM      2  C   UNL d   1      -0.718  -1.244  -0.005  0.00  0.00     0.124 C 
ATOM      3  C   UNL d   1      -1.470   0.052   0.019  0.00  0.00     0.276 C 
ATOM      4  C   UNL d   1       0.663   1.198   0.023  0.00  0.00     0.056 C 
ATOM      5  C   UNL d   1       0.631  -1.238   0.002  0.00  0.00     0.003 C 
ATOM      6  C   UNL d   1       1.325   0.030   0.055  0.00  0.00     0.045 C 
ATOM      7  C   UNL d   1      -1.417   2.458  -0.061  0.00  0.00     0.227 C 
ATOM      8  C   UNL d   1      -1.488  -2.445  -0.027  0.00  0.00     0.106 C 
ATOM      9  N   UNL d   1      -2.088  -3.438  -0.051  0.00  0.00    -0.191 NA
ATOM     10  O   UNL d   1      -2.696   0.014   0.132  0.00  0.00    -0.266 OA
ATOM     11  O   UNL d   1      -1.071   3.443   0.596  0.00  0.00    -0.273 OA
ATOM     12  C   UNL d   1      -2.683   2.537  -0.889  0.00  0.00     0.118 C 
ENDROOT
BRANCH   5  13
ATOM     13  C   UNL d   1       1.381  -2.510  -0.033  0.00  0.00    -0.024 A 
ATOM     14  C   UNL d   1       1.693  -3.109  -1.258  0.00  0.00     0.013 A 
ATOM     15  C   UNL d   1       2.310  -4.362  -1.289  0.00  0.00     0.007 A 
ATOM     16  C   UNL d   1       2.631  -5.025  -0.099  0.00  0.00    -0.062 A 
ATOM     17  C   UNL d   1       2.361  -4.401   1.124  0.00  0.00     0.007 A 
ATOM     18  C   UNL d   1       3.204  -6.411  -0.147  0.00  0.00     0.048 C 
ATOM     19  C   UNL d   1       1.745  -3.147   1.159  0.00  0.00     0.013 A 
ENDBRANCH   5  13
BRANCH   4  20
ATOM     20  C   UNL d   1       1.511   2.402   0.051  0.00  0.00    -0.009 A 
ATOM     21  C   UNL d   1       1.978   2.977  -1.137  0.00  0.00     0.014 A 
ATOM     22  C   UNL d   1       2.921   4.009  -1.095  0.00  0.00     0.007 A 
ATOM     23  C   UNL d   1       3.408   4.480   0.131  0.00  0.00    -0.062 A 
ATOM     24  C   UNL d   1       2.914   3.928   1.318  0.00  0.00     0.007 A 
ATOM     25  C   UNL d   1       4.481   5.527   0.162  0.00  0.00     0.048 C 
ATOM     26  C   UNL d   1       1.974   2.897   1.279  0.00  0.00     0.014 A 
ENDBRANCH   4  20
TORSDOF 2
