REMARK  6 active torsions:
REMARK  status: ('A' for Active; 'I' for Inactive)
REMARK    1  A    between atoms: C_6  and  C_1 
REMARK    2  A    between atoms: C_7  and  C_2 
REMARK    3  A    between atoms: C_11  and  N_3 
REMARK    4  A    between atoms: S_10  and  C_7 
REMARK    5  A    between atoms: N_8  and  C_12 
REMARK    6  A    between atoms: C_23  and  S_10 
ROOT
ATOM      1  C   UNL d   1       0.797  -0.567   0.415  0.00  0.00     0.156 C 
ATOM      2  C   UNL d   1      -0.313  -1.189  -0.140  0.00  0.00     0.072 C 
ATOM      3  N   UNL d   1       0.702   0.766   0.082  0.00  0.00    -0.251 N 
ATOM      4  N   UNL d   1      -0.546   1.079  -0.336  0.00  0.00    -0.303 N 
ATOM      5  HN  UNL d   1      -0.957   2.005  -0.452  1.00  0.00     0.186 HD
ATOM      6  C   UNL d   1      -1.116  -0.106  -0.561  0.00  0.00     0.126 C 
ENDROOT
BRANCH   2   7
ATOM      7  C   UNL d   1      -0.601  -2.613  -0.181  0.00  0.00     0.227 C 
ATOM      8  O   UNL d   1      -0.377  -3.365   0.754  0.00  0.00    -0.279 OA
BRANCH   7   9
ATOM      9  S   UNL d   1      -1.244  -3.134  -1.732  0.00  0.00    -0.048 SA
BRANCH   9  10
ATOM     10  C   UNL d   1      -1.133  -4.914  -1.760  0.00  0.00     0.008 A 
ATOM     11  C   UNL d   1      -0.155  -5.660  -1.096  0.00  0.00     0.019 A 
ATOM     12  C   UNL d   1      -0.142  -7.059  -1.176  0.00  0.00     0.008 A 
ATOM     13  C   UNL d   1      -1.083  -7.738  -1.955  0.00  0.00    -0.062 A 
ATOM     14  C   UNL d   1      -2.041  -6.997  -2.650  0.00  0.00     0.008 A 
ATOM     15  C   UNL d   1      -1.111  -9.238  -1.984  0.00  0.00     0.048 C 
ATOM     16  C   UNL d   1      -2.061  -5.601  -2.556  0.00  0.00     0.019 A 
ENDBRANCH   9  10
ENDBRANCH   7   9
ENDBRANCH   2   7
BRANCH   1  17
ATOM     17  C   UNL d   1       1.907  -1.062   1.253  0.00  0.00     0.435 C 
ATOM     18  F   UNL d   1       1.634  -2.232   1.870  0.00  0.00    -0.165 F 
ATOM     19  F   UNL d   1       3.034  -1.267   0.532  0.00  0.00    -0.165 F 
ATOM     20  F   UNL d   1       2.220  -0.182   2.240  0.00  0.00    -0.165 F 
ENDBRANCH   1  17
BRANCH   3  21
ATOM     21  C   UNL d   1       1.723   1.751   0.060  0.00  0.00     0.057 A 
ATOM     22  C   UNL d   1       2.996   1.421  -0.425  0.00  0.00     0.034 A 
ATOM     23  C   UNL d   1       4.027   2.358  -0.379  0.00  0.00     0.038 A 
ATOM     24  C   UNL d   1       3.781   3.628   0.154  0.00  0.00     0.103 A 
ATOM     25  C   UNL d   1       2.490   3.985   0.581  0.00  0.00     0.038 A 
ATOM     26  C   UNL d   1       1.452   3.049   0.509  0.00  0.00     0.034 A 
BRANCH  24  27
ATOM     27  N   UNL d   1       4.891   4.582   0.274  0.00  0.00    -0.116 N 
ATOM     28  O   UNL d   1       4.647   5.682   0.791  0.00  0.00    -0.532 OA
ATOM     29  O   UNL d   1       6.004   4.228  -0.138  0.00  0.00    -0.532 OA
ENDBRANCH  24  27
ENDBRANCH   3  21
TORSDOF 6
