REMARK  6 active torsions:
REMARK  status: ('A' for Active; 'I' for Inactive)
REMARK    1  A    between atoms: C_2  and  S_1 
REMARK    2  A    between atoms: N_3  and  S_1 
REMARK    3  A    between atoms: C_8  and  N_3 
REMARK    4  A    between atoms: O_19  and  C_4 
REMARK    5  A    between atoms: O_21  and  C_6 
REMARK    6  A    between atoms: O_22  and  C_7 
ROOT
ATOM      1  C   UNL d   1       1.754   1.315   2.901  0.00  0.00     0.101 A 
ATOM      2  C   UNL d   1       2.868   1.616   2.113  0.00  0.00     0.058 A 
ATOM      3  N   UNL d   1       6.344   2.921   5.241  0.00  0.00    -0.191 NA
ATOM      4  C   UNL d   1       1.827   1.441   4.297  0.00  0.00     0.028 A 
ATOM      5  C   UNL d   1       5.354   2.573   4.742  0.00  0.00     0.099 C 
ATOM      6  C   UNL d   1       4.057   2.028   2.730  0.00  0.00     0.048 A 
ATOM      7  C   UNL d   1       4.134   2.149   4.121  0.00  0.00     0.046 A 
ATOM      8 CL   UNL d   1       2.896   1.494   0.391  0.00  0.00    -0.083 Cl
ATOM      9  C   UNL d   1       3.013   1.859   4.907  0.00  0.00     0.024 A 
ENDROOT
BRANCH   1  10
ATOM     10  S   UNL d   1       0.213   0.799   2.189  0.00  0.00     0.264 S 
ATOM     11  O   UNL d   1      -0.170   1.795   1.212  0.00  0.00    -0.200 OA
ATOM     12  O   UNL d   1      -0.687   0.451   3.270  0.00  0.00    -0.200 OA
BRANCH  10  13
ATOM     13  N   UNL d   1       0.587  -0.599   1.356  0.00  0.00    -0.280 N 
ATOM     14  H   UNL d   1       0.450  -0.587   0.347  0.00  0.00     0.179 HD
BRANCH  13  15
ATOM     15  C   UNL d   1       0.973  -1.786   2.017  0.00  0.00     0.048 A 
ATOM     16  C   UNL d   1       0.021  -2.597   2.618  0.00  0.00     0.070 A 
ATOM     17  C   UNL d   1       0.391  -3.828   3.184  0.00  0.00     0.106 A 
ATOM     18  C   UNL d   1       1.742  -4.250   3.147  0.00  0.00     0.135 A 
ATOM     19  C   UNL d   1       2.704  -3.387   2.579  0.00  0.00     0.106 A 
ATOM     20  C   UNL d   1       2.304  -2.174   2.001  0.00  0.00     0.070 A 
BRANCH  17  21
ATOM     21  O   UNL d   1      -0.523  -4.595   3.870  0.00  0.00    -0.353 OA
ATOM     22  C   UNL d   1      -1.870  -4.521   3.406  0.00  0.00     0.210 C 
ENDBRANCH  17  21
BRANCH  18  23
ATOM     23  O   UNL d   1       2.204  -5.403   3.722  0.00  0.00    -0.351 OA
ATOM     24  C   UNL d   1       1.408  -6.582   3.666  0.00  0.00     0.210 C 
ENDBRANCH  18  23
BRANCH  19  25
ATOM     25  O   UNL d   1       4.069  -3.525   2.558  0.00  0.00    -0.353 OA
ATOM     26  C   UNL d   1       4.629  -4.829   2.545  0.00  0.00     0.210 C 
ENDBRANCH  19  25
ENDBRANCH  13  15
ENDBRANCH  10  13
ENDBRANCH   1  10
TORSDOF 6
