REMARK  7 active torsions:
REMARK  status: ('A' for Active; 'I' for Inactive)
REMARK    1  A    between atoms: N_7  and  S_1 
REMARK    2  A    between atoms: C_11  and  S_1 
REMARK    3  A    between atoms: C_3  and  S_16 
REMARK    4  A    between atoms: N_9  and  N_7 
REMARK       I    between atoms: C_10  and  N_9 
REMARK    5  A    between atoms: C_23  and  C_10 
REMARK    6  A    between atoms: S_16  and  C_23 
REMARK    7  A    between atoms: C_24  and  C_17 
ROOT
ATOM      1  N   UNL d   1       0.848  -1.585  -2.094  0.00  0.00    -0.260 N 
ATOM      2  C   UNL d   1       0.365  -2.739  -2.680  0.00  0.00     0.246 C 
ATOM      3  O   UNL d   1      -0.384  -3.519  -2.090  0.00  0.00    -0.271 OA
ATOM      4  H   UNL d   1       1.506  -0.967  -2.569  0.00  0.00     0.190 HD
ENDROOT
BRANCH   1   5
ATOM      5  N   UNL d   1       0.499  -1.263  -0.720  0.00  0.00    -0.220 N 
ATOM      6  H   UNL d   1      -0.131  -1.879  -0.197  0.00  0.00     0.200 HD
BRANCH   5   7
ATOM      7  S   UNL d   1       1.141   0.141  -0.038  0.00  0.00     0.276 S 
ATOM      8  O   UNL d   1       0.587   1.260  -0.769  0.00  0.00    -0.199 OA
ATOM      9  O   UNL d   1       2.575  -0.043   0.044  0.00  0.00    -0.199 OA
BRANCH   7  10
ATOM     10  C   UNL d   1       0.487   0.173   1.614  0.00  0.00     0.081 A 
ATOM     11  C   UNL d   1       1.225  -0.370   2.669  0.00  0.00     0.026 A 
ATOM     12  C   UNL d   1       0.762  -0.234   3.985  0.00  0.00     0.009 A 
ATOM     13  C   UNL d   1      -0.434   0.449   4.262  0.00  0.00    -0.055 A 
ATOM     14  C   UNL d   1      -1.149   1.006   3.189  0.00  0.00     0.009 A 
ATOM     15  C   UNL d   1      -0.692   0.874   1.873  0.00  0.00     0.026 A 
BRANCH  13  16
ATOM     16  C   UNL d   1      -0.972   0.595   5.679  0.00  0.00     0.010 C 
ATOM     17  C   UNL d   1      -1.274  -0.768   6.307  0.00  0.00     0.015 C 
ATOM     18  C   UNL d   1      -0.044   1.411   6.583  0.00  0.00     0.015 C 
ENDBRANCH  13  16
ENDBRANCH   7  10
ENDBRANCH   5   7
ENDBRANCH   1   5
BRANCH   2  19
ATOM     19  C   UNL d   1       0.760  -2.923  -4.140  0.00  0.00     0.186 C 
BRANCH  19  20
ATOM     20  S   UNL d   1       2.566  -3.015  -4.303  0.00  0.00    -0.095 SA
BRANCH  20  21
ATOM     21  C   UNL d   1       2.754  -3.125  -6.045  0.00  0.00     0.115 A 
ATOM     22  S   UNL d   1       4.308  -3.252  -6.768  0.00  0.00    -0.045 SA
ATOM     23  C   UNL d   1       3.575  -3.265  -8.303  0.00  0.00     0.103 A 
ATOM     24  N   UNL d   1       4.282  -3.344  -9.450  0.00  0.00    -0.358 N 
ATOM     25  C   UNL d   1       2.191  -3.180  -8.171  0.00  0.00     0.067 A 
ATOM     26  C   UNL d   1       3.509  -3.336 -10.558  0.00  0.00     0.089 A 
ATOM     27  HN  UNL d   1       5.300  -3.403  -9.478  1.00  0.00     0.166 HD
ATOM     28  C   UNL d   1       2.123  -3.260 -10.575  0.00  0.00     0.019 A 
ATOM     29  C   UNL d   1       1.439  -3.183  -9.359  0.00  0.00     0.034 A 
ATOM     30  N   UNL d   1       1.726  -3.099  -6.867  0.00  0.00    -0.343 N 
ATOM     31  HN  UNL d   1       0.747  -3.030  -6.589  1.00  0.00     0.167 HD
ENDBRANCH  20  21
ENDBRANCH  19  20
ENDBRANCH   2  19
TORSDOF 7
