REMARK  5 active torsions:
REMARK  status: ('A' for Active; 'I' for Inactive)
REMARK    1  A    between atoms: N_2  and  S_1 
REMARK    2  A    between atoms: C_5  and  S_1 
REMARK    3  A    between atoms: C_3  and  N_2 
REMARK    4  A    between atoms: O_8  and  C_4 
REMARK    5  A    between atoms: C_13  and  O_8 
ROOT
ATOM      1  C   UNL d   1       1.050   2.302  -1.437  0.00  0.00     0.094 A 
ATOM      2  C   UNL d   1       0.050   3.240  -1.730  0.00  0.00     0.175 A 
ATOM      3  N   UNL d   1       0.289   4.576  -1.793  0.00  0.00    -0.345 N 
ATOM      4  HN  UNL d   1      -0.449   5.234  -2.045  1.00  0.00     0.167 HD
ATOM      5  C   UNL d   1       2.323   2.782  -1.131  0.00  0.00     0.036 A 
ATOM      6  C   UNL d   1       1.535   5.000  -1.509  0.00  0.00     0.090 A 
ATOM      7  C   UNL d   1       2.571   4.151  -1.164  0.00  0.00     0.019 A 
ENDROOT
BRANCH   1   8
ATOM      8  N   UNL d   1       0.852   0.889  -1.490  0.00  0.00    -0.276 N 
ATOM      9  H   UNL d   1       1.157   0.327  -0.697  0.00  0.00     0.179 HD
BRANCH   8  10
ATOM     10  S   UNL d   1       1.048   0.099  -2.968  0.00  0.00     0.263 S 
ATOM     11  O   UNL d   1       0.190   0.715  -3.957  0.00  0.00    -0.200 OA
ATOM     12  O   UNL d   1       0.974  -1.316  -2.680  0.00  0.00    -0.200 OA
BRANCH  10  13
ATOM     13  C   UNL d   1       2.740   0.444  -3.437  0.00  0.00     0.080 A 
ATOM     14  C   UNL d   1       3.769  -0.404  -3.001  0.00  0.00     0.027 A 
ATOM     15  C   UNL d   1       5.082  -0.175  -3.428  0.00  0.00     0.025 A 
ATOM     16  C   UNL d   1       5.357   0.886  -4.290  0.00  0.00     0.034 A 
ATOM     17  C   UNL d   1       4.334   1.724  -4.732  0.00  0.00     0.025 A 
ATOM     18 CL   UNL d   1       6.971   1.152  -4.828  0.00  0.00    -0.084 Cl
ATOM     19  C   UNL d   1       3.019   1.500  -4.313  0.00  0.00     0.027 A 
ENDBRANCH  10  13
ENDBRANCH   8  10
ENDBRANCH   1   8
BRANCH   2  20
ATOM     20  O   UNL d   1      -1.256   2.787  -1.910  0.00  0.00    -0.292 OA
BRANCH  20  21
ATOM     21  C   UNL d   1      -2.280   3.669  -1.629  0.00  0.00     0.078 A 
ATOM     22  C   UNL d   1      -3.355   3.704  -2.522  0.00  0.00     0.039 A 
ATOM     23  C   UNL d   1      -4.423   4.580  -2.301  0.00  0.00     0.026 A 
ATOM     24  C   UNL d   1      -4.421   5.410  -1.180  0.00  0.00     0.034 A 
ATOM     25  C   UNL d   1      -3.374   5.352  -0.263  0.00  0.00     0.026 A 
ATOM     26 CL   UNL d   1      -5.718   6.513  -0.924  0.00  0.00    -0.084 Cl
ATOM     27  C   UNL d   1      -2.313   4.466  -0.477  0.00  0.00     0.039 A 
ENDBRANCH  20  21
ENDBRANCH   2  20
TORSDOF 5
