REMARK  9 active torsions:
REMARK  status: ('A' for Active; 'I' for Inactive)
REMARK    1  A    between atoms: C_1  and  O_8 
REMARK    2  A    between atoms: C_2  and  N_10 
REMARK    3  A    between atoms: C_5  and  O_16 
REMARK    4  A    between atoms: C_13  and  O_8 
REMARK    5  A    between atoms: C_18  and  C_9 
REMARK       I    between atoms: C_14  and  N_10 
REMARK    6  A    between atoms: C_12  and  C_13 
REMARK    7  A    between atoms: O_20  and  C_12 
REMARK    8  A    between atoms: C_21  and  O_16 
REMARK    9  A    between atoms: C_22  and  C_21 
ROOT
ATOM      1  C   UNL d   1      -1.085   1.689  -0.155  0.00  0.00     0.181 C 
ATOM      2  C   UNL d   1      -2.445   0.921  -0.177  0.00  0.00     0.171 C 
ATOM      3  C   UNL d   1       0.058   0.763   0.325  0.00  0.00     0.187 C 
ATOM      4  O   UNL d   1       1.343   1.356   0.111  0.00  0.00    -0.346 OA
ATOM      5  C   UNL d   1      -2.372  -0.571  -0.619  0.00  0.00     0.285 C 
ATOM      6  C   UNL d   1      -0.029  -0.544  -0.443  0.00  0.00     0.180 C 
ATOM      7  O   UNL d   1      -1.226  -1.217  -0.069  0.00  0.00    -0.349 OA
ATOM      8  C   UNL d   1       2.413   0.491   0.528  0.00  0.00     0.295 C 
ATOM      9  O   UNL d   1       2.396  -0.764  -0.149  0.00  0.00    -0.354 OA
ATOM     10  C   UNL d   1       1.148  -1.439  -0.106  0.00  0.00     0.206 C 
ENDROOT
BRANCH   5  11
ATOM     11  O   UNL d   1      -2.389  -0.761  -2.039  0.00  0.00    -0.355 OA
BRANCH  11  12
ATOM     12  C   UNL d   1      -2.496  -2.162  -2.324  0.00  0.00     0.209 C 
BRANCH  12  13
ATOM     13  C   UNL d   1      -2.544  -2.412  -3.806  0.00  0.00    -0.035 A 
ATOM     14  C   UNL d   1      -1.358  -2.485  -4.551  0.00  0.00     0.009 A 
ATOM     15  C   UNL d   1      -1.397  -2.790  -5.912  0.00  0.00     0.001 A 
ATOM     16  C   UNL d   1      -2.620  -3.014  -6.541  0.00  0.00     0.000 A 
ATOM     17  C   UNL d   1      -3.806  -2.923  -5.813  0.00  0.00     0.001 A 
ATOM     18  C   UNL d   1      -3.769  -2.619  -4.452  0.00  0.00     0.009 A 
ENDBRANCH  12  13
ENDBRANCH  11  12
ENDBRANCH   5  11
BRANCH   2  19
ATOM     19  N   UNL d   1      -3.482   1.681  -0.887  0.00  0.00    -0.349 N 
ATOM     20  C   UNL d   1      -4.816   1.434  -0.679  0.00  0.00     0.214 C 
ATOM     21  O   UNL d   1      -5.232   0.593   0.113  0.00  0.00    -0.274 OA
ATOM     22  C   UNL d   1      -5.738   2.322  -1.468  0.00  0.00     0.117 C 
ATOM     23  H   UNL d   1      -3.199   2.287  -1.648  0.00  0.00     0.163 HD
ENDBRANCH   2  19
BRANCH   1  24
ATOM     24  O   UNL d   1      -1.326   2.807   0.737  0.00  0.00    -0.365 OA
BRANCH  24  25
ATOM     25  C   UNL d   1      -0.258   3.684   1.060  0.00  0.00     0.215 C 
ATOM     26  C   UNL d   1      -0.805   4.577   2.176  0.00  0.00     0.051 C 
BRANCH  25  27
ATOM     27  C   UNL d   1       0.293   4.562  -0.078  0.00  0.00     0.169 C 
ATOM     28  O   UNL d   1      -0.101   4.529  -1.240  0.00  0.00    -0.648 OA
BRANCH  27  29
ATOM     29  O   UNL d   1       1.295   5.395   0.302  0.00  0.00    -0.775 OA
ATOM     30  H   UNL d   1       1.537   5.346   1.245  0.00  0.00     0.167 HD
ENDBRANCH  27  29
ENDBRANCH  25  27
ENDBRANCH  24  25
ENDBRANCH   1  24
BRANCH   8  31
ATOM     31  C   UNL d   1       2.554   0.436   2.047  0.00  0.00    -0.004 A 
ATOM     32  C   UNL d   1       2.509  -0.760   2.779  0.00  0.00     0.012 A 
ATOM     33  C   UNL d   1       2.558  -0.755   4.174  0.00  0.00     0.001 A 
ATOM     34  C   UNL d   1       2.711   0.443   4.862  0.00  0.00     0.000 A 
ATOM     35  C   UNL d   1       2.823   1.637   4.154  0.00  0.00     0.001 A 
ATOM     36  C   UNL d   1       2.743   1.633   2.760  0.00  0.00     0.012 A 
ENDBRANCH   8  31
TORSDOF 9
