REMARK  2 active torsions:
REMARK  status: ('A' for Active; 'I' for Inactive)
REMARK    1  A    between atoms: C_6  and  N_1 
REMARK    2  A    between atoms: C_7  and  C_6 
REMARK       I    between atoms: N_8  and  C_7 
ROOT
ATOM      1  N   UNL d   1       2.574  -0.554  -1.256  0.00  0.00    -0.271 N 
ATOM      2  C   UNL d   1       1.274  -0.424  -1.657  0.00  0.00     0.262 A 
ATOM      3  C   UNL d   1       3.300  -1.322  -2.125  0.00  0.00     0.262 A 
ATOM      4  C   UNL d   1       2.409  -1.637  -3.240  0.00  0.00     0.048 A 
ATOM      5  C   UNL d   1       1.169  -1.100  -2.948  0.00  0.00     0.048 A 
ATOM      6  O   UNL d   1       4.435  -1.745  -2.023  0.00  0.00    -0.267 OA
ATOM      7  O   UNL d   1       0.345   0.114  -1.089  0.00  0.00    -0.267 OA
ATOM      8  C   UNL d   1       0.090  -1.238  -3.801  0.00  0.00     0.018 A 
ATOM      9  C   UNL d   1       2.646  -2.334  -4.410  0.00  0.00     0.018 A 
ATOM     10  C   UNL d   1       1.573  -2.474  -5.297  0.00  0.00     0.001 A 
ATOM     11  C   UNL d   1       0.306  -1.934  -4.993  0.00  0.00     0.001 A 
ENDROOT
BRANCH   1  12
ATOM     12  C   UNL d   1       3.108   0.011  -0.034  0.00  0.00     0.238 C 
BRANCH  12  13
ATOM     13  C   UNL d   1       3.628   1.426  -0.316  0.00  0.00     0.238 C 
ATOM     14  N   UNL d   1       2.939   2.529   0.174  0.00  0.00    -0.351 N 
ATOM     15  C   UNL d   1       3.499   3.864  -0.034  0.00  0.00     0.126 C 
ATOM     16  C   UNL d   1       1.591   2.531   0.741  0.00  0.00     0.126 C 
ATOM     17  C   UNL d   1       2.604   4.699  -0.948  0.00  0.00     0.024 C 
ATOM     18  C   UNL d   1       1.155   4.740  -0.438  0.00  0.00    -0.015 C 
ATOM     19  C   UNL d   1       0.635   3.322  -0.153  0.00  0.00     0.024 C 
ATOM     20  C   UNL d   1       0.252   5.448  -1.447  0.00  0.00     0.010 C 
ATOM     21  O   UNL d   1       4.644   1.565  -1.006  0.00  0.00    -0.272 OA
ENDBRANCH  12  13
ENDBRANCH   1  12
TORSDOF 2
