REMARK  5 active torsions:
REMARK  status: ('A' for Active; 'I' for Inactive)
REMARK    1  A    between atoms: C_9  and  C_1 
REMARK    2  A    between atoms: C_11  and  C_7 
REMARK    3  A    between atoms: C_8  and  C_10 
REMARK    4  A    between atoms: O_20  and  C_9 
REMARK    5  A    between atoms: C_21  and  O_20 
ROOT
ATOM      1  C   UNL d   1      -0.258  -1.087  -0.069  0.00  0.00     0.241 A 
ATOM      2  O   UNL d   1      -1.127  -0.027  -0.016  0.00  0.00    -0.268 OA
ATOM      3  N   UNL d   1       1.000  -0.708  -0.197  0.00  0.00    -0.273 N 
ATOM      4  HN  UNL d   1       1.817  -1.315  -0.259  1.00  0.00     0.189 HD
ATOM      5  N   UNL d   1       0.989   0.671  -0.231  0.00  0.00    -0.277 N 
ATOM      6  HN  UNL d   1       1.798   1.285  -0.322  1.00  0.00     0.189 HD
ATOM      7  C   UNL d   1      -0.272   1.040  -0.122  0.00  0.00     0.175 A 
ENDROOT
BRANCH   7   8
ATOM      8  C   UNL d   1      -0.858   2.371  -0.135  0.00  0.00     0.017 A 
ATOM      9  C   UNL d   1      -2.236   2.577   0.022  0.00  0.00     0.017 A 
ATOM     10  C   UNL d   1      -2.779   3.863  -0.055  0.00  0.00     0.017 A 
ATOM     11  C   UNL d   1      -1.954   4.973  -0.289  0.00  0.00     0.048 A 
ATOM     12  C   UNL d   1      -0.572   4.771  -0.415  0.00  0.00     0.017 A 
ATOM     13  C   UNL d   1      -0.032   3.485  -0.337  0.00  0.00     0.017 A 
BRANCH  11  14
ATOM     14  C   UNL d   1      -2.528   6.362  -0.422  0.00  0.00     0.417 C 
ATOM     15  F   UNL d   1      -3.883   6.407  -0.293  0.00  0.00    -0.166 F 
ATOM     16  F   UNL d   1      -2.034   7.223   0.509  0.00  0.00    -0.166 F 
ATOM     17  F   UNL d   1      -2.251   6.921  -1.633  0.00  0.00    -0.166 F 
ENDBRANCH  11  14
ENDBRANCH   7   8
BRANCH   1  18
ATOM     18  C   UNL d   1      -0.752  -2.431   0.093  0.00  0.00     0.336 C 
ATOM     19  O   UNL d   1      -1.923  -2.748   0.287  0.00  0.00    -0.255 OA
BRANCH  18  20
ATOM     20  O   UNL d   1       0.294  -3.307   0.088  0.00  0.00    -0.315 OA
BRANCH  20  21
ATOM     21  C   UNL d   1       0.033  -4.597   0.653  0.00  0.00     0.175 C 
ATOM     22  C   UNL d   1       0.271  -4.511   2.150  0.00  0.00     0.034 C 
ENDBRANCH  20  21
ENDBRANCH  18  20
ENDBRANCH   1  18
TORSDOF 5
