REMARK  4 active torsions:
REMARK  status: ('A' for Active; 'I' for Inactive)
REMARK    1  A    between atoms: C_13  and  C_2 
REMARK    2  A    between atoms: N_14  and  C_10 
REMARK    3  A    between atoms: C_15  and  N_14 
REMARK    4  A    between atoms: C_16  and  C_15 
ROOT
ATOM      1  N   UNL d   1       0.141   0.596   0.016  0.00  0.00    -0.219 N 
ATOM      2  C   UNL d   1       1.422   1.129  -0.006  0.00  0.00     0.154 A 
ATOM      3  N   UNL d   1       2.286   0.131  -0.127  0.00  0.00    -0.282 N 
ATOM      4  HN  UNL d   1       3.299   0.229  -0.188  1.00  0.00     0.188 HD
ATOM      5  C   UNL d   1       0.320  -0.770  -0.075  0.00  0.00     0.143 A 
ATOM      6  N   UNL d   1      -1.061   1.263   0.069  0.00  0.00    -0.276 N 
ATOM      7  HN  UNL d   1      -1.126   2.279   0.131  1.00  0.00     0.189 HD
ATOM      8  N   UNL d   1       1.597  -1.057  -0.155  0.00  0.00    -0.282 N 
ATOM      9  HN  UNL d   1       2.003  -1.990  -0.225  1.00  0.00     0.188 HD
ATOM     10  C   UNL d   1      -2.114   0.486   0.034  0.00  0.00     0.116 A 
ATOM     11  C   UNL d   1      -0.826  -1.583  -0.070  0.00  0.00     0.056 A 
ATOM     12  C   UNL d   1      -2.031  -1.006  -0.019  0.00  0.00     0.053 A 
ENDROOT
BRANCH  10  13
ATOM     13  N   UNL d   1      -3.322   1.139   0.063  0.00  0.00    -0.371 N 
ATOM     14  H   UNL d   1      -3.196   2.147   0.061  0.00  0.00     0.161 HD
BRANCH  13  15
ATOM     15  C   UNL d   1      -4.506   0.709  -0.656  0.00  0.00     0.160 C 
BRANCH  15  16
ATOM     16  C   UNL d   1      -5.438  -0.063   0.245  0.00  0.00    -0.041 A 
ATOM     17  C   UNL d   1      -5.952   0.526   1.409  0.00  0.00     0.009 A 
ATOM     18  C   UNL d   1      -6.814  -0.184   2.245  0.00  0.00     0.007 A 
ATOM     19  C   UNL d   1      -7.183  -1.498   1.935  0.00  0.00    -0.062 A 
ATOM     20  C   UNL d   1      -6.682  -2.086   0.769  0.00  0.00     0.007 A 
ATOM     21  C   UNL d   1      -8.094  -2.255   2.856  0.00  0.00     0.048 C 
ATOM     22  C   UNL d   1      -5.824  -1.374  -0.073  0.00  0.00     0.009 A 
ENDBRANCH  15  16
ENDBRANCH  13  15
ENDBRANCH  10  13
BRANCH   2  23
ATOM     23  C   UNL d   1       1.794   2.548   0.052  0.00  0.00     0.011 A 
ATOM     24  C   UNL d   1       1.005   3.521   0.680  0.00  0.00     0.015 A 
ATOM     25  C   UNL d   1       1.425   4.854   0.740  0.00  0.00     0.001 A 
ATOM     26  C   UNL d   1       2.640   5.233   0.173  0.00  0.00     0.000 A 
ATOM     27  C   UNL d   1       3.438   4.281  -0.453  0.00  0.00     0.001 A 
ATOM     28  C   UNL d   1       3.019   2.949  -0.509  0.00  0.00     0.015 A 
ENDBRANCH   2  23
TORSDOF 4
