REMARK  9 active torsions:
REMARK  status: ('A' for Active; 'I' for Inactive)
REMARK    1  A    between atoms: C_2  and  C_1 
REMARK    2  A    between atoms: O_14  and  C_2 
REMARK    3  A    between atoms: C_3  and  C_5 
REMARK    4  A    between atoms: C_4  and  C_6 
REMARK    5  A    between atoms: O_27  and  C_7 
REMARK    6  A    between atoms: C_8  and  C_9 
REMARK    7  A    between atoms: N_26  and  C_9 
REMARK    8  A    between atoms: N_10  and  O_14 
REMARK    9  A    between atoms: C_28  and  O_27 
ROOT
ATOM      1  C   UNL d   1      -3.866   2.623  -0.006  0.00  0.00     0.109 C 
ATOM      2  N   UNL d   1      -2.642   2.243  -0.215  0.00  0.00    -0.246 N 
ATOM      3  HN  UNL d   1      -1.885   2.879  -0.466  1.00  0.00     0.196 HD
ENDROOT
BRANCH   1   4
ATOM      4  C   UNL d   1      -4.144   4.100  -0.038  0.00  0.00     0.005 A 
ATOM      5  C   UNL d   1      -3.400   4.944  -0.872  0.00  0.00     0.031 A 
ATOM      6  C   UNL d   1      -3.580   6.339  -0.824  0.00  0.00     0.049 A 
ATOM      7  C   UNL d   1      -4.518   6.873   0.077  0.00  0.00     0.032 A 
ATOM      8  C   UNL d   1      -5.258   6.040   0.932  0.00  0.00     0.049 A 
ATOM      9  C   UNL d   1      -5.080   4.648   0.850  0.00  0.00     0.031 A 
BRANCH   6  10
ATOM     10  C   UNL d   1      -2.736   7.249  -1.689  0.00  0.00     0.417 C 
ATOM     11  F   UNL d   1      -2.988   8.572  -1.483  0.00  0.00    -0.166 F 
ATOM     12  F   UNL d   1      -1.403   7.087  -1.468  0.00  0.00    -0.166 F 
ATOM     13  F   UNL d   1      -2.930   7.036  -3.019  0.00  0.00    -0.166 F 
ENDBRANCH   6  10
BRANCH   8  14
ATOM     14  C   UNL d   1      -6.181   6.626   1.977  0.00  0.00     0.417 C 
ATOM     15  F   UNL d   1      -6.179   7.985   2.003  0.00  0.00    -0.166 F 
ATOM     16  F   UNL d   1      -7.478   6.254   1.796  0.00  0.00    -0.166 F 
ATOM     17  F   UNL d   1      -5.848   6.228   3.236  0.00  0.00    -0.166 F 
ENDBRANCH   8  14
ENDBRANCH   1   4
BRANCH   1  18
ATOM     18  N   UNL d   1      -4.908   1.766   0.264  0.00  0.00    -0.286 NA
ATOM     19  H   UNL d   1      -5.812   2.039  -0.106  0.00  0.00     0.125 HD
ATOM     20  H   UNL d   1      -4.683   0.799   0.050  0.00  0.00     0.125 HD
ENDBRANCH   1  18
BRANCH   2  21
ATOM     21  O   UNL d   1      -2.477   0.842  -0.055  0.00  0.00    -0.193 OA
BRANCH  21  22
ATOM     22  C   UNL d   1      -1.143   0.503  -0.231  0.00  0.00     0.325 C 
ATOM     23  O   UNL d   1      -0.278   1.289  -0.613  0.00  0.00    -0.257 OA
BRANCH  22  24
ATOM     24  C   UNL d   1      -0.895  -0.895   0.110  0.00  0.00     0.115 A 
ATOM     25  C   UNL d   1       0.274  -1.549   0.496  0.00  0.00     0.092 A 
ATOM     26  C   UNL d   1       0.098  -2.964   0.595  0.00  0.00     0.045 A 
ATOM     27  C   UNL d   1      -1.188  -3.362   0.322  0.00  0.00     0.053 A 
ATOM     28  S   UNL d   1      -2.189  -2.036  -0.046  0.00  0.00    -0.093 SA
BRANCH  25  29
ATOM     29  O   UNL d   1       1.520  -1.041   0.700  0.00  0.00    -0.350 OA
BRANCH  29  30
ATOM     30  C   UNL d   1       1.603   0.239   1.319  0.00  0.00     0.171 C 
ATOM     31  C   UNL d   1       2.841   0.277   2.201  0.00  0.00     0.034 C 
ENDBRANCH  29  30
ENDBRANCH  25  29
ENDBRANCH  22  24
ENDBRANCH  21  22
ENDBRANCH   2  21
TORSDOF 9
