REMARK  3 active torsions:
REMARK  status: ('A' for Active; 'I' for Inactive)
REMARK    1  A    between atoms: C_10  and  C_3 
REMARK    2  A    between atoms: C_4  and  O_6 
REMARK       I    between atoms: N_11  and  C_4 
REMARK    3  A    between atoms: O_6  and  C_5 
ROOT
ATOM      1  N   UNL d   1       1.725   0.061  -0.115  0.00  0.00    -0.322 N 
ATOM      2  HN  UNL d   1       2.738   0.027   0.003  1.00  0.00     0.169 HD
ATOM      3  C   UNL d   1       1.037   1.217  -0.024  0.00  0.00     0.117 A 
ATOM      4  C   UNL d   1       1.003  -1.048  -0.370  0.00  0.00     0.156 A 
ATOM      5  N   UNL d   1      -0.306   1.306  -0.086  0.00  0.00    -0.345 N 
ATOM      6  HN  UNL d   1      -0.784   2.197   0.050  1.00  0.00     0.167 HD
ATOM      7  C   UNL d   1      -0.363  -1.033  -0.536  0.00  0.00     0.081 A 
ATOM      8  C   UNL d   1      -0.989   0.176  -0.335  0.00  0.00     0.011 A 
ATOM      9  C   UNL d   1      -2.482   0.284  -0.391  0.00  0.00     0.068 C 
ENDROOT
BRANCH   3  10
ATOM     10  C   UNL d   1       1.787   2.493   0.005  0.00  0.00     0.009 A 
ATOM     11  C   UNL d   1       3.188   2.530  -0.126  0.00  0.00     0.022 A 
ATOM     12  C   UNL d   1       3.888   3.741  -0.253  0.00  0.00    -0.061 A 
ATOM     13  C   UNL d   1       5.371   3.751  -0.470  0.00  0.00     0.048 C 
ATOM     14  C   UNL d   1       3.182   4.948  -0.216  0.00  0.00     0.007 A 
ATOM     15  C   UNL d   1       1.802   4.945  -0.042  0.00  0.00     0.002 A 
ATOM     16  C   UNL d   1       1.116   3.733   0.070  0.00  0.00     0.015 A 
ENDBRANCH   3  10
BRANCH   4  17
ATOM     17  O   UNL d   1       1.761  -2.250  -0.344  0.00  0.00    -0.244 OA
BRANCH  17  18
ATOM     18  C   UNL d   1       1.281  -3.509  -0.725  0.00  0.00     0.368 C 
ATOM     19  N   UNL d   1       2.141  -4.549  -0.396  0.00  0.00    -0.336 N 
ATOM     20  C   UNL d   1       1.685  -5.916  -0.596  0.00  0.00     0.154 C 
ATOM     21  C   UNL d   1       3.332  -4.375   0.414  0.00  0.00     0.154 C 
ATOM     22  O   UNL d   1       0.207  -3.695  -1.280  0.00  0.00    -0.238 OA
ENDBRANCH  17  18
ENDBRANCH   4  17
TORSDOF 3
