REMARK  5 active torsions:
REMARK  status: ('A' for Active; 'I' for Inactive)
REMARK    1  A    between atoms: C_12  and  N_7 
REMARK    2  A    between atoms: N_11  and  C_10 
REMARK    3  A    between atoms: C_19  and  N_11 
REMARK    4  A    between atoms: C_15  and  C_12 
REMARK    5  A    between atoms: C_22  and  C_19 
ROOT
ATOM      1  C   UNL d   1      -0.247  -0.821   0.076  0.00  0.00     0.146 A 
ATOM      2  C   UNL d   1      -0.531   0.511   0.065  0.00  0.00     0.151 A 
ATOM      3  N   UNL d   1      -1.366  -1.578   0.130  0.00  0.00    -0.316 N 
ATOM      4  HN  UNL d   1      -1.423  -2.596   0.170  1.00  0.00     0.170 HD
ATOM      5  N   UNL d   1       1.038  -1.298   0.028  0.00  0.00    -0.287 N 
ATOM      6  N   UNL d   1       1.782   0.972   0.014  0.00  0.00    -0.269 N 
ATOM      7  N   UNL d   1      -1.904   0.582   0.087  0.00  0.00    -0.311 N 
ATOM      8  C   UNL d   1       2.102  -0.399  -0.002  0.00  0.00     0.332 A 
ATOM      9  C   UNL d   1       0.486   1.506   0.026  0.00  0.00     0.282 A 
ATOM     10  C   UNL d   1      -2.365  -0.723   0.120  0.00  0.00     0.162 A 
ATOM     11  O   UNL d   1       3.270  -0.797  -0.043  0.00  0.00    -0.246 OA
ATOM     12  O   UNL d   1       0.248   2.712  -0.005  0.00  0.00    -0.265 OA
ATOM     13  C   UNL d   1       1.321  -2.720   0.004  0.00  0.00     0.163 C 
ATOM     14  C   UNL d   1       2.874   1.925  -0.003  0.00  0.00     0.164 C 
ENDROOT
BRANCH   7  15
ATOM     15  C   UNL d   1      -2.714   1.788   0.001  0.00  0.00     0.170 C 
BRANCH  15  16
ATOM     16  C   UNL d   1      -3.077   2.381   1.343  0.00  0.00    -0.039 A 
ATOM     17  C   UNL d   1      -3.942   1.708   2.220  0.00  0.00     0.027 A 
ATOM     18  C   UNL d   1      -4.356   2.307   3.410  0.00  0.00     0.011 A 
ATOM     19 BR   UNL d   1      -5.543   1.382   4.557  0.00  0.00    -0.051 Br
ATOM     20  C   UNL d   1      -3.920   3.584   3.748  0.00  0.00     0.019 A 
ATOM     21  C   UNL d   1      -3.050   4.260   2.895  0.00  0.00     0.002 A 
ATOM     22  C   UNL d   1      -2.628   3.663   1.703  0.00  0.00     0.009 A 
ENDBRANCH  15  16
ENDBRANCH   7  15
BRANCH  10  23
ATOM     23  N   UNL d   1      -3.685  -1.037   0.173  0.00  0.00    -0.261 NA
ATOM     24  H   UNL d   1      -4.168  -0.953  -0.724  0.00  0.00     0.130 HD
BRANCH  23  25
ATOM     25  C   UNL d   1      -3.954  -2.386   0.710  0.00  0.00     0.127 C 
BRANCH  25  26
ATOM     26  C   UNL d   1      -5.447  -2.724   0.655  0.00  0.00     0.134 C 
ATOM     27  O   UNL d   1      -5.880  -2.862  -0.717  0.00  0.00    -0.385 OA
ATOM     28  C   UNL d   1      -6.653  -4.066  -0.831  0.00  0.00     0.168 C 
ATOM     29  C   UNL d   1      -6.958  -4.534   0.575  0.00  0.00     0.029 C 
ATOM     30  C   UNL d   1      -5.751  -4.051   1.336  0.00  0.00     0.035 C 
ENDBRANCH  25  26
ENDBRANCH  23  25
ENDBRANCH  10  23
TORSDOF 5
