REMARK  4 active torsions:
REMARK  status: ('A' for Active; 'I' for Inactive)
REMARK    1  A    between atoms: N_12  and  C_1 
REMARK    2  A    between atoms: C_2  and  C_3 
REMARK    3  A    between atoms: C_8  and  C_13 
REMARK    4  A    between atoms: N_9  and  N_12 
ROOT
ATOM      1  C   UNL d   1      -0.151   0.741  -0.001  0.00  0.00     0.091 A 
ATOM      2  C   UNL d   1       0.000  -2.117   0.015  0.00  0.00     0.051 A 
ATOM      3  C   UNL d   1      -1.317  -0.056  -0.032  0.00  0.00     0.064 A 
ATOM      4  C   UNL d   1       1.086   0.055  -0.004  0.00  0.00     0.064 A 
ATOM      5  C   UNL d   1      -1.235  -1.459  -0.007  0.00  0.00     0.042 A 
ATOM      6  C   UNL d   1       1.165  -1.343   0.011  0.00  0.00     0.042 A 
ATOM      7 CL   UNL d   1      -2.930   0.573  -0.150  0.00  0.00    -0.082 Cl
ATOM      8 CL   UNL d   1       2.582   0.935  -0.012  0.00  0.00    -0.082 Cl
ENDROOT
BRANCH   1   9
ATOM      9  N   UNL d   1      -0.127   2.164  -0.068  0.00  0.00    -0.298 N 
ATOM     10  H   UNL d   1       0.803   2.539   0.135  0.00  0.00     0.187 HD
BRANCH   9  11
ATOM     11  N   UNL d   1      -1.206   2.849   0.380  0.00  0.00    -0.310 N 
ATOM     12  C   UNL d   1      -1.134   4.140   0.317  0.00  0.00     0.126 C 
ATOM     13  HN  UNL d   1      -2.030   2.374   0.748  1.00  0.00     0.186 HD
BRANCH  12  14
ATOM     14  C   UNL d   1      -2.269   4.939   0.706  0.00  0.00     0.021 A 
ATOM     15  S   UNL d   1      -2.182   6.642   0.610  0.00  0.00    -0.101 SA
ATOM     16  C   UNL d   1      -3.804   6.815   1.132  0.00  0.00     0.050 A 
ATOM     17  C   UNL d   1      -4.396   5.599   1.389  0.00  0.00     0.008 A 
ATOM     18  C   UNL d   1      -3.505   4.514   1.150  0.00  0.00     0.021 A 
ENDBRANCH  12  14
ENDBRANCH   9  11
ENDBRANCH   1   9
BRANCH   2  19
ATOM     19  C   UNL d   1       0.086  -3.622   0.019  0.00  0.00     0.417 C 
ATOM     20  F   UNL d   1      -1.129  -4.236   0.033  0.00  0.00    -0.166 F 
ATOM     21  F   UNL d   1       0.738  -4.104  -1.073  0.00  0.00    -0.166 F 
ATOM     22  F   UNL d   1       0.759  -4.099   1.101  0.00  0.00    -0.166 F 
ENDBRANCH   2  19
TORSDOF 4
