REMARK  7 active torsions:
REMARK  status: ('A' for Active; 'I' for Inactive)
REMARK    1  A    between atoms: N_3  and  C_1 
REMARK    2  A    between atoms: N_10  and  C_1 
REMARK    3  A    between atoms: C_2  and  N_3 
REMARK    4  A    between atoms: C_4  and  C_5 
REMARK    5  A    between atoms: O_14  and  C_4 
REMARK    6  A    between atoms: N_13  and  N_10 
REMARK    7  A    between atoms: C_16  and  O_14 
ROOT
ATOM      1  C   UNL d   1       0.904   1.538   2.155  0.00  0.00     0.057 A 
ATOM      2  C   UNL d   1       1.291   2.039   4.506  0.00  0.00     0.041 A 
ATOM      3  C   UNL d   1       0.646   1.296   3.506  0.00  0.00     0.049 A 
ATOM      4  C   UNL d   1       1.749   2.606   1.808  0.00  0.00     0.060 A 
ATOM      5  C   UNL d   1       2.169   3.067   4.146  0.00  0.00     0.019 A 
ATOM      6  C   UNL d   1       2.387   3.360   2.798  0.00  0.00     0.027 A 
ATOM      7 CL   UNL d   1       2.068   2.988   0.152  0.00  0.00    -0.082 Cl
ENDROOT
BRANCH   1   8
ATOM      8  N   UNL d   1       0.299   0.762   1.135  0.00  0.00    -0.331 N 
ATOM      9  H   UNL d   1       0.410   1.137   0.200  0.00  0.00     0.168 HD
BRANCH   8  10
ATOM     10  C   UNL d   1       0.020  -0.592   1.133  0.00  0.00     0.186 C 
ATOM     11  S   UNL d   1       0.580  -1.769   2.180  0.00  0.00    -0.040 SA
BRANCH  10  12
ATOM     12  N   UNL d   1      -0.785  -1.004   0.085  0.00  0.00    -0.300 N 
ATOM     13  H   UNL d   1      -1.011  -2.000   0.075  0.00  0.00     0.183 HD
BRANCH  12  14
ATOM     14  N   UNL d   1      -1.633  -0.132  -0.622  0.00  0.00    -0.248 NA
ATOM     15  H   UNL d   1      -1.088   0.595  -1.084  0.00  0.00     0.143 HD
ATOM     16  H   UNL d   1      -2.249   0.337   0.048  0.00  0.00     0.143 HD
ENDBRANCH  12  14
ENDBRANCH  10  12
ENDBRANCH   8  10
ENDBRANCH   1   8
BRANCH   2  17
ATOM     17  C   UNL d   1       1.123   1.717   5.949  0.00  0.00     0.293 C 
ATOM     18  O   UNL d   1       1.791   2.217   6.836  0.00  0.00    -0.259 OA
BRANCH  17  19
ATOM     19  O   UNL d   1       0.180   0.751   6.095  0.00  0.00    -0.318 OA
BRANCH  19  20
ATOM     20  C   UNL d   1       0.129   0.101   7.370  0.00  0.00     0.174 C 
ATOM     21  C   UNL d   1       1.053  -1.101   7.332  0.00  0.00     0.034 C 
ENDBRANCH  19  20
ENDBRANCH  17  19
ENDBRANCH   2  17
TORSDOF 7
