REMARK  8 active torsions:
REMARK  status: ('A' for Active; 'I' for Inactive)
REMARK    1  A    between atoms: N_5  and  C_1 
REMARK    2  A    between atoms: C_10  and  C_2 
REMARK    3  A    between atoms: C_7  and  N_5 
REMARK    4  A    between atoms: N_11  and  C_7 
REMARK       I    between atoms: C_9  and  N_8 
REMARK    5  A    between atoms: O_19  and  C_9 
REMARK    6  A    between atoms: O_20  and  C_10 
REMARK    7  A    between atoms: C_25  and  O_19 
REMARK    8  A    between atoms: C_26  and  O_20 
ROOT
ATOM      1  C   UNL d   1       2.307   1.015   0.077  0.00  0.00     0.093 C 
ATOM      2  C   UNL d   1       1.295   1.770  -0.489  0.00  0.00     0.080 C 
ATOM      3  C   UNL d   1       0.306  -0.332  -0.172  0.00  0.00     0.010 C 
ATOM      4  C   UNL d   1       0.060   1.019  -0.387  0.00  0.00    -0.023 C 
ATOM      5  S   UNL d   1       1.951  -0.649   0.113  0.00  0.00    -0.074 SA
ATOM      6  N   UNL d   1      -2.029  -0.871  -0.501  0.00  0.00    -0.323 N 
ATOM      7  C   UNL d   1      -2.934  -1.500  -1.330  0.00  0.00     0.363 C 
ATOM      8  C   UNL d   1      -0.719  -1.434  -0.161  0.00  0.00     0.174 C 
ATOM      9  C   UNL d   1      -1.355   1.505  -0.557  0.00  0.00     0.061 C 
ATOM     10  C   UNL d   1      -2.332   0.462   0.031  0.00  0.00     0.133 C 
ATOM     11  O   UNL d   1      -4.042  -1.047  -1.588  0.00  0.00    -0.238 OA
ENDROOT
BRANCH   1  12
ATOM     12  N   UNL d   1       3.551   1.307   0.595  0.00  0.00    -0.327 N 
ATOM     13  H   UNL d   1       4.269   0.607   0.455  0.00  0.00     0.169 HD
BRANCH  12  14
ATOM     14  C   UNL d   1       3.951   2.501   1.134  0.00  0.00     0.174 C 
ATOM     15  S   UNL d   1       5.591   2.853   1.015  0.00  0.00    -0.041 SA
BRANCH  14  16
ATOM     16  N   UNL d   1       3.019   3.278   1.813  0.00  0.00    -0.354 N 
ATOM     17  C   UNL d   1       1.926   2.685   2.610  0.00  0.00     0.151 C 
ATOM     18  C   UNL d   1       2.162   2.898   4.112  0.00  0.00     0.187 C 
ATOM     19  O   UNL d   1       2.328   4.288   4.420  0.00  0.00    -0.388 OA
ATOM     20  C   UNL d   1       3.450   4.833   3.705  0.00  0.00     0.187 C 
ATOM     21  C   UNL d   1       3.255   4.686   2.188  0.00  0.00     0.151 C 
ENDBRANCH  14  16
ENDBRANCH  12  14
ENDBRANCH   1  12
BRANCH   2  22
ATOM     22  C   UNL d   1       1.481   3.076  -1.139  0.00  0.00     0.296 C 
ATOM     23  O   UNL d   1       0.560   3.767  -1.548  0.00  0.00    -0.259 OA
BRANCH  22  24
ATOM     24  O   UNL d   1       2.800   3.309  -1.419  0.00  0.00    -0.318 OA
BRANCH  24  25
ATOM     25  C   UNL d   1       3.145   4.110  -2.551  0.00  0.00     0.174 C 
ATOM     26  C   UNL d   1       3.732   5.441  -2.128  0.00  0.00     0.034 C 
ENDBRANCH  24  25
ENDBRANCH  22  24
ENDBRANCH   2  22
BRANCH   7  27
ATOM     27  O   UNL d   1      -2.453  -2.658  -1.854  0.00  0.00    -0.304 OA
BRANCH  27  28
ATOM     28  C   UNL d   1      -3.309  -3.320  -2.799  0.00  0.00     0.176 C 
ATOM     29  C   UNL d   1      -3.215  -2.664  -4.167  0.00  0.00     0.034 C 
ENDBRANCH  27  28
ENDBRANCH   7  27
TORSDOF 8
