REMARK  7 active torsions:
REMARK  status: ('A' for Active; 'I' for Inactive)
REMARK    1  A    between atoms: C_15  and  C_1 
REMARK    2  A    between atoms: C_2  and  C_8 
REMARK    3  A    between atoms: N_22  and  C_4 
REMARK    4  A    between atoms: C_20  and  N_9 
REMARK    5  A    between atoms: C_21  and  C_10 
REMARK    6  A    between atoms: C_18  and  C_15 
REMARK    7  A    between atoms: C_19  and  C_16 
ROOT
ATOM      1  C   UNL d   1       2.407  -0.006   0.035  0.00  0.00     0.155 A 
ATOM      2  C   UNL d   1       0.300   0.827   0.068  0.00  0.00     0.056 A 
ATOM      3  C   UNL d   1       1.681   1.166  -0.035  0.00  0.00     0.080 A 
ATOM      4  C   UNL d   1       0.277  -0.568   0.130  0.00  0.00     0.162 A 
ATOM      5  C   UNL d   1      -0.953   1.472   0.109  0.00  0.00    -0.003 A 
ATOM      6  O   UNL d   1       1.548  -1.066   0.118  0.00  0.00    -0.286 OA
ATOM      7  N   UNL d   1      -0.805  -1.370   0.194  0.00  0.00    -0.335 N 
ATOM      8  HN  UNL d   1      -0.734  -2.387   0.206  1.00  0.00     0.168 HD
ATOM      9  C   UNL d   1      -1.992  -0.722   0.242  0.00  0.00     0.045 A 
ATOM     10  C   UNL d   1      -2.092   0.669   0.226  0.00  0.00     0.044 A 
ENDROOT
BRANCH   5  11
ATOM     11  C   UNL d   1      -1.075   2.913   0.023  0.00  0.00     0.022 C 
ATOM     12  C   UNL d   1      -2.003   3.777  -0.644  0.00  0.00     0.071 C 
ATOM     13  N   UNL d   1      -1.736   5.066  -0.363  0.00  0.00    -0.292 N 
ATOM     14  N   UNL d   1      -0.642   5.042   0.436  0.00  0.00    -0.266 N 
ATOM     15  HN  UNL d   1      -2.250   5.888  -0.683  1.00  0.00     0.187 HD
ATOM     16  C   UNL d   1      -0.321   3.761   0.798  0.00  0.00     0.131 C 
BRANCH  12  17
ATOM     17  C   UNL d   1      -3.168   3.409  -1.461  0.00  0.00    -0.007 A 
ATOM     18  C   UNL d   1      -3.141   2.304  -2.327  0.00  0.00     0.014 A 
ATOM     19  C   UNL d   1      -4.312   1.853  -2.944  0.00  0.00     0.001 A 
ATOM     20  C   UNL d   1      -5.513   2.530  -2.742  0.00  0.00     0.000 A 
ATOM     21  C   UNL d   1      -5.540   3.669  -1.940  0.00  0.00     0.001 A 
ATOM     22  C   UNL d   1      -4.375   4.106  -1.304  0.00  0.00     0.014 A 
ENDBRANCH  12  17
BRANCH  14  23
ATOM     23  C   UNL d   1       0.048   6.225   0.815  0.00  0.00     0.056 A 
ATOM     24  C   UNL d   1       1.296   6.149   1.456  0.00  0.00     0.031 A 
ATOM     25  C   UNL d   1       1.968   7.315   1.829  0.00  0.00     0.002 A 
ATOM     26  C   UNL d   1       1.398   8.559   1.568  0.00  0.00     0.000 A 
ATOM     27  C   UNL d   1       0.166   8.642   0.920  0.00  0.00     0.002 A 
ATOM     28  C   UNL d   1      -0.507   7.479   0.533  0.00  0.00     0.031 A 
ENDBRANCH  14  23
ENDBRANCH   5  11
BRANCH   3  29
ATOM     29  N   UNL d   1       2.238   2.393  -0.159  0.00  0.00    -0.396 N 
ATOM     30  H   UNL d   1       1.717   3.153  -0.590  0.00  0.00     0.156 HD
ATOM     31  H   UNL d   1       3.237   2.454  -0.378  0.00  0.00     0.156 HD
ENDBRANCH   3  29
BRANCH   9  32
ATOM     32  C   UNL d   1      -3.209  -1.573   0.280  0.00  0.00    -0.009 A 
ATOM     33  C   UNL d   1      -4.418  -1.118   0.843  0.00  0.00     0.014 A 
ATOM     34  C   UNL d   1      -5.572  -1.908   0.854  0.00  0.00     0.007 A 
ATOM     35  C   UNL d   1      -5.553  -3.195   0.316  0.00  0.00    -0.062 A 
ATOM     36  C   UNL d   1      -4.368  -3.667  -0.254  0.00  0.00     0.007 A 
ATOM     37  C   UNL d   1      -6.795  -4.034   0.353  0.00  0.00     0.048 C 
ATOM     38  C   UNL d   1      -3.215  -2.868  -0.268  0.00  0.00     0.014 A 
ENDBRANCH   9  32
BRANCH   1  39
ATOM     39  C   UNL d   1       3.838  -0.205  -0.036  0.00  0.00     0.218 C 
ATOM     40  O   UNL d   1       4.598   0.651  -0.504  0.00  0.00    -0.284 OA
BRANCH  39  41
ATOM     41  C   UNL d   1       4.476  -1.444   0.495  0.00  0.00     0.017 A 
ATOM     42  C   UNL d   1       3.930  -2.172   1.560  0.00  0.00     0.017 A 
ATOM     43  C   UNL d   1       4.609  -3.284   2.069  0.00  0.00     0.025 A 
ATOM     44  C   UNL d   1       5.834  -3.665   1.521  0.00  0.00     0.034 A 
ATOM     45  C   UNL d   1       6.391  -2.942   0.469  0.00  0.00     0.025 A 
ATOM     46 CL   UNL d   1       6.671  -5.024   2.161  0.00  0.00    -0.084 Cl
ATOM     47  C   UNL d   1       5.716  -1.831  -0.041  0.00  0.00     0.017 A 
ENDBRANCH  39  41
ENDBRANCH   1  39
TORSDOF 7
