REMARK  2 active torsions:
REMARK  status: ('A' for Active; 'I' for Inactive)
REMARK    1  A    between atoms: C_7  and  C_3 
REMARK    2  A    between atoms: O_8  and  C_4 
ROOT
ATOM      1  N   UNL d   1      -1.188  -0.101  -0.469  0.00  0.00    -0.330 N 
ATOM      2  HN  UNL d   1      -2.081  -0.291  -0.923  1.00  0.00     0.168 HD
ATOM      3  C   UNL d   1      -0.331  -1.059   0.061  0.00  0.00     0.051 A 
ATOM      4  C   UNL d   1      -0.662   1.081  -0.290  0.00  0.00     0.184 A 
ATOM      5  S   UNL d   1       0.857   1.158   0.465  0.00  0.00    -0.056 SA
ATOM      6  C   UNL d   1       0.842  -0.554   0.597  0.00  0.00     0.084 A 
ENDROOT
BRANCH   3   7
ATOM      7  C   UNL d   1      -0.663  -2.479   0.022  0.00  0.00    -0.009 A 
ATOM      8  C   UNL d   1      -1.463  -2.977  -1.017  0.00  0.00     0.014 A 
ATOM      9  C   UNL d   1      -1.795  -4.333  -1.073  0.00  0.00     0.001 A 
ATOM     10  C   UNL d   1      -1.337  -5.205  -0.087  0.00  0.00     0.000 A 
ATOM     11  C   UNL d   1      -0.550  -4.722   0.956  0.00  0.00     0.001 A 
ATOM     12  C   UNL d   1      -0.215  -3.367   1.011  0.00  0.00     0.014 A 
ENDBRANCH   3   7
BRANCH   4  13
ATOM     13  O   UNL d   1      -1.323   2.149  -0.694  0.00  0.00    -0.341 OA
ATOM     14  H   UNL d   1      -2.131   1.740  -1.050  0.00  0.00     0.220 HD
ENDBRANCH   4  13
TORSDOF 2
