REMARK  2 active torsions:
REMARK  status: ('A' for Active; 'I' for Inactive)
REMARK    1  A    between atoms: C_9  and  C_5 
REMARK    2  A    between atoms: N_19  and  C_6 
ROOT
ATOM      1  C   UNL d   1      -1.661  -1.556  -0.004  0.00  0.00     0.084 A 
ATOM      2  C   UNL d   1      -0.757  -0.494  -0.024  0.00  0.00     0.005 A 
ATOM      3  C   UNL d   1      -3.501   0.065   0.001  0.00  0.00     0.086 A 
ATOM      4  C   UNL d   1      -1.234   0.848  -0.015  0.00  0.00    -0.027 A 
ATOM      5  C   UNL d   1      -2.599   1.160   0.022  0.00  0.00     0.028 A 
ATOM      6  C   UNL d   1      -3.052  -1.289  -0.032  0.00  0.00     0.069 A 
ATOM      7  C   UNL d   1       0.704  -0.468  -0.020  0.00  0.00    -0.017 A 
ATOM      8  C   UNL d   1      -0.052   1.810  -0.010  0.00  0.00     0.080 A 
ATOM      9  C   UNL d   1       1.134   0.873  -0.009  0.00  0.00    -0.043 A 
ATOM     10  C   UNL d   1      -1.208  -2.915   0.026  0.00  0.00     0.102 C 
ATOM     11  C   UNL d   1      -4.921   0.296  -0.034  0.00  0.00     0.102 C 
ATOM     12  N   UNL d   1      -0.883  -4.029   0.029  0.00  0.00    -0.191 NA
ATOM     13  N   UNL d   1      -6.073   0.439  -0.072  0.00  0.00    -0.191 NA
ATOM     14  C   UNL d   1       1.651  -1.484  -0.020  0.00  0.00     0.013 A 
ATOM     15  C   UNL d   1       2.479   1.215   0.001  0.00  0.00     0.008 A 
ATOM     16  C   UNL d   1       3.010  -1.151  -0.006  0.00  0.00     0.001 A 
ATOM     17  C   UNL d   1       3.422   0.188   0.004  0.00  0.00     0.001 A 
ENDROOT
BRANCH   6  18
ATOM     18  N   UNL d   1      -3.981  -2.345   0.148  0.00  0.00    -0.397 N 
ATOM     19  H   UNL d   1      -4.943  -2.167  -0.136  0.00  0.00     0.156 HD
ATOM     20  H   UNL d   1      -3.678  -3.276  -0.136  0.00  0.00     0.156 HD
ENDBRANCH   6  18
BRANCH   5  21
ATOM     21  C   UNL d   1      -3.073   2.545   0.126  0.00  0.00     0.087 A 
ATOM     22  O   UNL d   1      -2.326   3.499  -0.508  0.00  0.00    -0.322 OA
ATOM     23  C   UNL d   1      -2.950   4.693  -0.328  0.00  0.00     0.142 A 
ATOM     24  C   UNL d   1      -4.095   4.530   0.412  0.00  0.00     0.027 A 
ATOM     25  C   UNL d   1      -4.161   3.153   0.727  0.00  0.00     0.040 A 
ENDBRANCH   5  21
TORSDOF 2
