REMARK  7 active torsions:
REMARK  status: ('A' for Active; 'I' for Inactive)
REMARK    1  A    between atoms: C_2  and  N_1 
REMARK    2  A    between atoms: C_4  and  O_18 
REMARK    3  A    between atoms: C_10  and  C_4 
REMARK    4  A    between atoms: S_16  and  C_5 
REMARK    5  A    between atoms: C_23  and  S_16 
REMARK    6  A    between atoms: O_18  and  C_24 
REMARK    7  A    between atoms: C_24  and  C_23 
ROOT
ATOM      1  C   UNL d   1       0.305   1.872   1.764  0.00  0.00     0.121 A 
ATOM      2  N   UNL d   1       0.441   5.522  -1.434  0.00  0.00    -0.191 NA
ATOM      3  C   UNL d   1      -0.702   0.990   1.345  0.00  0.00     0.033 A 
ATOM      4  C   UNL d   1       0.206   4.549  -0.845  0.00  0.00     0.099 C 
ATOM      5  C   UNL d   1       0.620   3.043   1.052  0.00  0.00     0.060 A 
ATOM      6  C   UNL d   1      -0.083   3.348  -0.114  0.00  0.00     0.047 A 
ATOM      7  C   UNL d   1      -1.391   1.313   0.166  0.00  0.00     0.022 A 
ATOM      8  C   UNL d   1      -1.084   2.476  -0.557  0.00  0.00     0.024 A 
ENDROOT
BRANCH   1   9
ATOM      9  N   UNL d   1       1.071   1.611   2.968  0.00  0.00    -0.114 N 
ATOM     10  O   UNL d   1       1.748   0.574   2.996  0.00  0.00    -0.532 OA
ATOM     11  O   UNL d   1       1.050   2.485   3.844  0.00  0.00    -0.532 OA
ENDBRANCH   1   9
BRANCH   3  12
ATOM     12  S   UNL d   1      -1.299  -0.410   2.288  0.00  0.00    -0.125 SA
BRANCH  12  13
ATOM     13  C   UNL d   1      -0.385  -1.778   1.489  0.00  0.00     0.106 C 
BRANCH  13  14
ATOM     14  C   UNL d   1      -0.856  -3.123   2.050  0.00  0.00     0.189 C 
BRANCH  14  15
ATOM     15  O   UNL d   1      -0.020  -4.197   1.571  0.00  0.00    -0.317 OA
BRANCH  15  16
ATOM     16  C   UNL d   1      -0.349  -4.705   0.359  0.00  0.00     0.293 C 
ATOM     17  O   UNL d   1      -1.264  -4.316  -0.350  0.00  0.00    -0.259 OA
BRANCH  16  18
ATOM     18  C   UNL d   1       0.594  -5.788  -0.038  0.00  0.00     0.039 A 
ATOM     19  C   UNL d   1       0.461  -6.342  -1.321  0.00  0.00     0.019 A 
ATOM     20  C   UNL d   1       1.352  -7.324  -1.765  0.00  0.00     0.025 A 
ATOM     21  C   UNL d   1       2.376  -7.759  -0.927  0.00  0.00     0.034 A 
ATOM     22  C   UNL d   1       2.506  -7.234   0.358  0.00  0.00     0.025 A 
ATOM     23 CL   UNL d   1       3.491  -8.944  -1.485  0.00  0.00    -0.084 Cl
ATOM     24  C   UNL d   1       1.615  -6.251   0.805  0.00  0.00     0.019 A 
ENDBRANCH  16  18
ENDBRANCH  15  16
ENDBRANCH  14  15
ENDBRANCH  13  14
ENDBRANCH  12  13
ENDBRANCH   3  12
TORSDOF 7
