REMARK  3 active torsions:
REMARK  status: ('A' for Active; 'I' for Inactive)
REMARK    1  A    between atoms: C_3  and  C_1 
REMARK    2  A    between atoms: C_21  and  C_2 
REMARK       I    between atoms: N_15  and  C_3 
REMARK    3  A    between atoms: C_14  and  N_15 
ROOT
ATOM      1  C   UNL d   1      -1.105  -2.345  -0.186  0.00  0.00     0.275 C 
ATOM      2  N   UNL d   1      -2.481  -2.179  -0.204  0.00  0.00    -0.322 N 
ATOM      3  O   UNL d   1      -0.523  -3.405   0.012  0.00  0.00    -0.266 OA
ATOM      4  H   UNL d   1      -2.780  -1.221  -0.366  0.00  0.00     0.169 HD
ENDROOT
BRANCH   1   5
ATOM      5  C   UNL d   1      -0.394  -1.082  -0.378  0.00  0.00     0.137 A 
ATOM      6  C   UNL d   1       0.971  -0.853  -0.323  0.00  0.00     0.119 A 
ATOM      7  O   UNL d   1       1.155   0.504  -0.453  0.00  0.00    -0.303 OA
ATOM      8  C   UNL d   1      -0.097   1.010  -0.591  0.00  0.00     0.234 A 
ATOM      9  N   UNL d   1      -1.067   0.126  -0.562  0.00  0.00    -0.340 N 
ATOM     10  HN  UNL d   1      -2.071   0.285  -0.653  1.00  0.00     0.167 HD
BRANCH   6  11
ATOM     11  C   UNL d   1       2.185  -1.641  -0.134  0.00  0.00     0.000 A 
ATOM     12  C   UNL d   1       2.302  -2.938  -0.650  0.00  0.00     0.014 A 
ATOM     13  C   UNL d   1       3.438  -3.714  -0.400  0.00  0.00     0.001 A 
ATOM     14  C   UNL d   1       4.489  -3.191   0.346  0.00  0.00     0.000 A 
ATOM     15  C   UNL d   1       4.409  -1.890   0.834  0.00  0.00     0.001 A 
ATOM     16  C   UNL d   1       3.265  -1.120   0.597  0.00  0.00     0.014 A 
ENDBRANCH   6  11
ENDBRANCH   1   5
BRANCH   2  17
ATOM     17  C   UNL d   1      -3.451  -3.132   0.178  0.00  0.00     0.037 A 
ATOM     18  C   UNL d   1      -3.119  -4.473   0.459  0.00  0.00     0.061 A 
ATOM     19  C   UNL d   1      -4.148  -5.290   0.985  0.00  0.00     0.069 A 
ATOM     20  N   UNL d   1      -4.021  -6.572   1.361  0.00  0.00    -0.310 N 
ATOM     21  C   UNL d   1      -5.534  -4.750   1.186  0.00  0.00     0.067 A 
ATOM     22  S   UNL d   1      -5.502  -7.037   1.951  0.00  0.00     0.068 SA
ATOM     23  HN  UNL d   1      -3.181  -7.147   1.297  1.00  0.00     0.176 HD
ATOM     24  N   UNL d   1      -6.379  -5.644   1.720  0.00  0.00    -0.310 N 
ATOM     25  HN  UNL d   1      -7.364  -5.498   1.942  1.00  0.00     0.176 HD
ATOM     26  C   UNL d   1      -5.846  -3.418   0.830  0.00  0.00     0.035 A 
ATOM     27  C   UNL d   1      -4.778  -2.645   0.330  0.00  0.00     0.032 A 
ENDBRANCH   2  17
TORSDOF 3
