REMARK  4 active torsions:
REMARK  status: ('A' for Active; 'I' for Inactive)
REMARK    1  A    between atoms: C_7  and  C_1 
REMARK    2  A    between atoms: O_11  and  C_2 
REMARK    3  A    between atoms: O_12  and  C_7 
REMARK    4  A    between atoms: C_17  and  O_12 
ROOT
ATOM      1  C   UNL d   1       2.415   0.774   0.043  0.00  0.00     0.088 A 
ATOM      2  C   UNL d   1       1.188   1.442   0.042  0.00  0.00     0.096 A 
ATOM      3  C   UNL d   1      -0.023   0.719   0.051  0.00  0.00     0.028 A 
ATOM      4  N   UNL d   1       1.242  -1.337   0.113  0.00  0.00    -0.362 N 
ATOM      5  HN  UNL d   1       1.278  -2.355   0.156  1.00  0.00     0.165 HD
ATOM      6  C   UNL d   1       0.056  -0.690   0.079  0.00  0.00     0.084 A 
ATOM      7  C   UNL d   1       2.383  -0.606   0.089  0.00  0.00     0.109 A 
ATOM      8  C   UNL d   1      -1.145  -1.402   0.057  0.00  0.00     0.143 A 
ATOM      9  F   UNL d   1      -1.122  -2.746   0.070  0.00  0.00    -0.204 F 
ATOM     10  C   UNL d   1      -1.287   1.351   0.012  0.00  0.00     0.017 A 
ATOM     11  C   UNL d   1      -2.464   0.607  -0.011  0.00  0.00     0.004 A 
ATOM     12  C   UNL d   1      -2.391  -0.778   0.010  0.00  0.00     0.045 A 
ENDROOT
BRANCH   1  13
ATOM     13  C   UNL d   1       3.680   1.520  -0.095  0.00  0.00     0.297 C 
ATOM     14  O   UNL d   1       3.710   2.740  -0.141  0.00  0.00    -0.259 OA
BRANCH  13  15
ATOM     15  O   UNL d   1       4.720   0.676  -0.284  0.00  0.00    -0.318 OA
BRANCH  15  16
ATOM     16  C   UNL d   1       5.900   1.261  -0.855  0.00  0.00     0.174 C 
ATOM     17  C   UNL d   1       5.797   1.142  -2.365  0.00  0.00     0.034 C 
ENDBRANCH  15  16
ENDBRANCH  13  15
ENDBRANCH   1  13
BRANCH   2  18
ATOM     18  O   UNL d   1       1.110   2.817   0.005  0.00  0.00    -0.359 OA
ATOM     19  H   UNL d   1       2.016   3.197  -0.022  0.00  0.00     0.217 HD
ENDBRANCH   2  18
TORSDOF 4
