REMARK  4 active torsions:
REMARK  status: ('A' for Active; 'I' for Inactive)
REMARK    1  A    between atoms: N_2  and  S_1 
REMARK    2  A    between atoms: C_3  and  S_1 
REMARK    3  A    between atoms: N_4  and  N_2 
REMARK    4  A    between atoms: C_11  and  C_10 
ROOT
ATOM      1  N   UNL d   1       0.345   0.014   1.635  0.00  0.00    -0.223 N 
ATOM      2  H   UNL d   1      -0.351   0.743   1.790  0.00  0.00     0.200 HD
ENDROOT
BRANCH   1   3
ATOM      3  S   UNL d   1       0.936  -0.085   0.051  0.00  0.00     0.276 S 
ATOM      4  O   UNL d   1       2.385  -0.110   0.081  0.00  0.00    -0.199 OA
ATOM      5  O   UNL d   1       0.223   0.920  -0.711  0.00  0.00    -0.199 OA
BRANCH   3   6
ATOM      6  C   UNL d   1       0.362  -1.681  -0.486  0.00  0.00     0.081 A 
ATOM      7  C   UNL d   1      -0.866  -1.790  -1.142  0.00  0.00     0.026 A 
ATOM      8  C   UNL d   1      -1.262  -3.024  -1.662  0.00  0.00     0.008 A 
ATOM      9  C   UNL d   1      -0.433  -4.148  -1.541  0.00  0.00    -0.062 A 
ATOM     10  C   UNL d   1       0.791  -4.028  -0.869  0.00  0.00     0.008 A 
ATOM     11  C   UNL d   1      -0.850  -5.452  -2.159  0.00  0.00     0.048 C 
ATOM     12  C   UNL d   1       1.192  -2.797  -0.345  0.00  0.00     0.026 A 
ENDBRANCH   3   6
ENDBRANCH   1   3
BRANCH   1  13
ATOM     13  N   UNL d   1       0.757  -0.934   2.611  0.00  0.00    -0.302 N 
ATOM     14  C   UNL d   1       0.295  -0.754   3.807  0.00  0.00     0.119 C 
ATOM     15  HN  UNL d   1       1.378  -1.710   2.383  1.00  0.00     0.186 HD
BRANCH  14  16
ATOM     16  C   UNL d   1       0.656  -1.688   4.890  0.00  0.00    -0.019 A 
ATOM     17  C   UNL d   1       1.501  -2.768   4.621  0.00  0.00     0.013 A 
ATOM     18  C   UNL d   1       1.843  -3.656   5.637  0.00  0.00     0.007 A 
ATOM     19  C   UNL d   1       1.344  -3.473   6.932  0.00  0.00    -0.062 A 
ATOM     20  C   UNL d   1       0.499  -2.386   7.196  0.00  0.00     0.007 A 
ATOM     21  C   UNL d   1       1.728  -4.443   8.010  0.00  0.00     0.048 C 
ATOM     22  C   UNL d   1       0.153  -1.491   6.177  0.00  0.00     0.013 A 
ENDBRANCH  14  16
ENDBRANCH   1  13
TORSDOF 4
