REMARK  4 active torsions:
REMARK  status: ('A' for Active; 'I' for Inactive)
REMARK    1  A    between atoms: C_2  and  C_1 
REMARK    2  A    between atoms: N_3  and  C_1 
REMARK    3  A    between atoms: C_6  and  N_3 
REMARK    4  A    between atoms: O_9  and  N_4 
ROOT
ATOM      1  C   UNL d   1       0.883  -2.502  -0.812  0.00  0.00     0.063 C 
ATOM      2  C   UNL d   1       2.398  -2.796  -0.777  0.00  0.00     0.044 C 
ATOM      3  C   UNL d   1       0.567  -1.999  -2.233  0.00  0.00     0.044 C 
ENDROOT
BRANCH   1   4
ATOM      4  C   UNL d   1       0.574  -1.461   0.296  0.00  0.00     0.033 C 
ATOM      5  N   UNL d   1       0.104  -0.290  -0.037  0.00  0.00    -0.275 N 
ATOM      6  HN  UNL d   1      -0.065   0.008  -0.998  1.00  0.00     0.193 HD
ATOM      7  C   UNL d   1       0.842  -1.847   1.739  0.00  0.00     0.068 C 
BRANCH   5   8
ATOM      8  O   UNL d   1      -0.137   0.507   1.087  0.00  0.00    -0.290 OA
ATOM      9  H   UNL d   1      -0.587   1.283   0.703  0.00  0.00     0.244 HD
ENDBRANCH   5   8
ENDBRANCH   1   4
BRANCH   1  10
ATOM     10  N   UNL d   1       0.170  -3.774  -0.563  0.00  0.00    -0.376 N 
ATOM     11  H   UNL d   1       0.710  -4.457  -0.038  0.00  0.00     0.160 HD
BRANCH  10  12
ATOM     12  C   UNL d   1      -1.201  -3.948  -0.419  0.00  0.00     0.030 A 
ATOM     13  C   UNL d   1      -2.158  -2.941  -0.557  0.00  0.00     0.048 A 
ATOM     14  C   UNL d   1      -3.525  -3.221  -0.467  0.00  0.00     0.013 A 
ATOM     15 BR   UNL d   1      -4.780  -1.814  -0.638  0.00  0.00    -0.051 Br
ATOM     16  C   UNL d   1      -3.974  -4.520  -0.262  0.00  0.00     0.019 A 
ATOM     17  C   UNL d   1      -3.043  -5.546  -0.150  0.00  0.00     0.004 A 
ATOM     18  C   UNL d   1      -1.676  -5.260  -0.234  0.00  0.00     0.029 A 
ENDBRANCH  10  12
ENDBRANCH   1  10
TORSDOF 4
