REMARK  6 active torsions:
REMARK  status: ('A' for Active; 'I' for Inactive)
REMARK    1  A    between atoms: C_8  and  C_1 
REMARK    2  A    between atoms: C_11  and  N_5 
REMARK       I    between atoms: N_15  and  C_8 
REMARK    3  A    between atoms: N_12  and  N_15 
REMARK    4  A    between atoms: C_16  and  C_17 
REMARK    5  A    between atoms: C_25  and  C_23 
REMARK    6  A    between atoms: O_31  and  C_26 
ROOT
ATOM      1  C   UNL d   1      -0.483   1.208  -0.085  0.00  0.00     0.125 A 
ATOM      2  C   UNL d   1       1.503  -0.159   0.142  0.00  0.00     0.122 A 
ATOM      3  N   UNL d   1      -1.290   0.189  -0.144  0.00  0.00    -0.285 N 
ATOM      4  HN  UNL d   1      -2.290   0.316  -0.303  1.00  0.00     0.188 HD
ATOM      5  N   UNL d   1      -0.747  -1.075   0.015  0.00  0.00    -0.219 N 
ATOM      6  C   UNL d   1       0.613  -1.341   0.157  0.00  0.00     0.288 A 
ATOM      7  C   UNL d   1       1.008   1.094   0.080  0.00  0.00    -0.002 A 
ATOM      8  C   UNL d   1       2.900  -0.423   0.218  0.00  0.00     0.106 C 
ATOM      9  N   UNL d   1       4.053  -0.578   0.261  0.00  0.00    -0.191 NA
ATOM     10  O   UNL d   1       1.105  -2.463   0.268  0.00  0.00    -0.265 OA
ATOM     11  C   UNL d   1       1.875   2.318   0.160  0.00  0.00     0.052 C 
ENDROOT
BRANCH   1  12
ATOM     12  C   UNL d   1      -1.119   2.620  -0.174  0.00  0.00     0.288 C 
ATOM     13  N   UNL d   1      -2.513   2.674  -0.180  0.00  0.00    -0.265 N 
ATOM     14  H   UNL d   1      -3.072   1.826  -0.150  0.00  0.00     0.190 HD
ATOM     15  O   UNL d   1      -0.402   3.612  -0.218  0.00  0.00    -0.264 OA
BRANCH  13  16
ATOM     16  N   UNL d   1      -3.084   3.914  -0.050  0.00  0.00    -0.308 N 
ATOM     17  C   UNL d   1      -4.371   4.035  -0.102  0.00  0.00     0.118 C 
ATOM     18  HN  UNL d   1      -2.497   4.737   0.089  1.00  0.00     0.186 HD
BRANCH  17  19
ATOM     19  C   UNL d   1      -5.009   5.360   0.141  0.00  0.00    -0.019 A 
ATOM     20  C   UNL d   1      -4.222   6.484   0.426  0.00  0.00     0.015 A 
ATOM     21  C   UNL d   1      -4.818   7.711   0.753  0.00  0.00     0.037 A 
ATOM     22  C   UNL d   1      -6.206   7.827   0.792  0.00  0.00     0.068 A 
ATOM     23  C   UNL d   1      -6.990   6.712   0.471  0.00  0.00     0.037 A 
ATOM     24  C   UNL d   1      -6.400   5.481   0.145  0.00  0.00     0.015 A 
BRANCH  22  25
ATOM     25  O   UNL d   1      -6.910   8.953   1.120  0.00  0.00    -0.356 OA
ATOM     26  C   UNL d   1      -6.165  10.074   1.585  0.00  0.00     0.210 C 
ENDBRANCH  22  25
ENDBRANCH  17  19
ENDBRANCH  13  16
ENDBRANCH   1  12
BRANCH   5  27
ATOM     27  C   UNL d   1      -1.708  -2.116   0.144  0.00  0.00     0.060 A 
ATOM     28  C   UNL d   1      -1.609  -3.068   1.164  0.00  0.00     0.032 A 
ATOM     29  C   UNL d   1      -2.592  -4.052   1.320  0.00  0.00     0.010 A 
ATOM     30  C   UNL d   1      -3.677  -4.149   0.431  0.00  0.00    -0.051 A 
ATOM     31  C   UNL d   1      -3.732  -3.216  -0.619  0.00  0.00     0.010 A 
ATOM     32  C   UNL d   1      -2.779  -2.197  -0.745  0.00  0.00     0.032 A 
BRANCH  30  33
ATOM     33  C   UNL d   1      -4.759  -5.223   0.643  0.00  0.00    -0.024 C 
ATOM     34  C   UNL d   1      -5.833  -5.241  -0.467  0.00  0.00     0.019 C 
ATOM     35  C   UNL d   1      -4.124  -6.630   0.687  0.00  0.00     0.019 C 
ATOM     36  C   UNL d   1      -5.484  -4.956   1.980  0.00  0.00     0.019 C 
ENDBRANCH  30  33
ENDBRANCH   5  27
TORSDOF 6
