REMARK  4 active torsions:
REMARK  status: ('A' for Active; 'I' for Inactive)
REMARK    1  A    between atoms: C_12  and  N_1 
REMARK    2  A    between atoms: C_13  and  C_4 
REMARK    3  A    between atoms: C_15  and  C_6 
REMARK    4  A    between atoms: N_7  and  C_14 
ROOT
ATOM      1  N   UNL d   1       0.912  -0.679   0.029  0.00  0.00    -0.260 N 
ATOM      2  N   UNL d   1       0.888   0.659   0.282  0.00  0.00    -0.297 N 
ATOM      3  HN  UNL d   1       1.667   1.239   0.594  1.00  0.00     0.187 HD
ATOM      4  C   UNL d   1      -0.389  -1.196  -0.079  0.00  0.00     0.044 C 
ATOM      5  C   UNL d   1      -1.194  -0.064  -0.168  0.00  0.00     0.055 C 
ATOM      6  C   UNL d   1      -0.358   1.056   0.038  0.00  0.00     0.036 C 
ENDROOT
BRANCH   1   7
ATOM      7  C   UNL d   1       2.201  -1.278  -0.133  0.00  0.00     0.056 A 
ATOM      8  C   UNL d   1       3.330  -0.693   0.450  0.00  0.00     0.034 A 
ATOM      9  C   UNL d   1       4.601  -1.262   0.271  0.00  0.00     0.032 A 
ATOM     10  C   UNL d   1       4.747  -2.434  -0.480  0.00  0.00     0.039 A 
ATOM     11  C   UNL d   1       3.619  -3.021  -1.039  0.00  0.00     0.032 A 
ATOM     12  C   UNL d   1       2.377  -2.416  -0.912  0.00  0.00     0.034 A 
BRANCH  10  13
ATOM     13  N   UNL d   1       6.023  -3.023  -0.715  0.00  0.00    -0.320 N 
ATOM     14  C   UNL d   1       6.444  -3.622  -1.912  0.00  0.00     0.013 A 
ATOM     15  C   UNL d   1       7.739  -4.072  -1.730  0.00  0.00     0.027 A 
ATOM     16  C   UNL d   1       5.685  -3.700  -3.196  0.00  0.00     0.068 C 
ATOM     17  C   UNL d   1       8.136  -3.749  -0.423  0.00  0.00     0.027 A 
ATOM     18  C   UNL d   1       7.072  -3.128   0.200  0.00  0.00     0.013 A 
ATOM     19  C   UNL d   1       7.018  -2.742   1.641  0.00  0.00     0.068 C 
ENDBRANCH  10  13
ENDBRANCH   1   7
BRANCH   4  20
ATOM     20  C   UNL d   1      -0.862  -2.662  -0.034  0.00  0.00    -0.007 C 
ATOM     21  C   UNL d   1      -0.033  -3.547   0.922  0.00  0.00     0.021 C 
ATOM     22  C   UNL d   1      -2.305  -2.727   0.550  0.00  0.00     0.021 C 
ATOM     23  C   UNL d   1      -1.003  -3.269  -1.449  0.00  0.00     0.021 C 
ENDBRANCH   4  20
BRANCH   6  24
ATOM     24  C   UNL d   1      -0.747   2.527   0.044  0.00  0.00    -0.007 C 
ATOM     25  C   UNL d   1       0.476   3.452   0.236  0.00  0.00     0.021 C 
ATOM     26  C   UNL d   1      -1.408   2.901  -1.300  0.00  0.00     0.021 C 
ATOM     27  C   UNL d   1      -1.742   2.812   1.185  0.00  0.00     0.021 C 
ENDBRANCH   6  24
TORSDOF 4
