REMARK  3 active torsions:
REMARK  status: ('A' for Active; 'I' for Inactive)
REMARK    1  A    between atoms: C_2  and  S_1 
REMARK    2  A    between atoms: N_3  and  S_1 
REMARK    3  A    between atoms: C_11  and  N_3 
ROOT
ATOM      1  S   UNL d   1       1.075   0.112  -0.296  0.00  0.00     0.265 S 
ATOM      2  O   UNL d   1       2.196  -0.216  -1.149  0.00  0.00    -0.200 OA
ATOM      3  O   UNL d   1       0.063   1.054  -0.716  0.00  0.00    -0.200 OA
ENDROOT
BRANCH   1   4
ATOM      4  C   UNL d   1       1.816   0.942   0.997  0.00  0.00     0.134 A 
ATOM      5  C   UNL d   1       1.855   0.683   2.345  0.00  0.00     0.098 A 
ATOM      6  O   UNL d   1       2.576   1.669   2.954  0.00  0.00    -0.241 OA
ATOM      7  C   UNL d   1       1.339  -0.348   3.259  0.00  0.00     0.081 C 
ATOM      8  N   UNL d   1       3.003   2.588   2.017  0.00  0.00    -0.264 N 
ATOM      9  C   UNL d   1       2.539   2.152   0.840  0.00  0.00     0.054 A 
ATOM     10  HN  UNL d   1       3.558   3.427   2.187  1.00  0.00     0.194 HD
ATOM     11  C   UNL d   1       2.804   2.928  -0.397  0.00  0.00     0.072 C 
ENDBRANCH   1   4
BRANCH   1  12
ATOM     12  N   UNL d   1       0.360  -1.347   0.190  0.00  0.00    -0.306 N 
ATOM     13  C   UNL d   1       1.282  -2.472   0.412  0.00  0.00     0.163 C 
BRANCH  12  14
ATOM     14  C   UNL d   1      -1.082  -1.418   0.588  0.00  0.00     0.095 C 
ATOM     15  C   UNL d   1      -1.536  -2.784   1.149  0.00  0.00     0.026 C 
ATOM     16  C   UNL d   1      -1.614  -3.900   0.098  0.00  0.00     0.002 C 
ATOM     17  C   UNL d   1      -2.395  -3.495  -1.148  0.00  0.00     0.000 C 
ATOM     18  C   UNL d   1      -1.979  -2.130  -1.681  0.00  0.00     0.002 C 
ATOM     19  C   UNL d   1      -2.028  -1.080  -0.579  0.00  0.00     0.026 C 
ENDBRANCH  12  14
ENDBRANCH   1  12
TORSDOF 3
