REMARK  5 active torsions:
REMARK  status: ('A' for Active; 'I' for Inactive)
REMARK    1  A    between atoms: S_12  and  C_3 
REMARK    2  A    between atoms: C_9  and  N_8 
REMARK    3  A    between atoms: O_13  and  N_10 
REMARK    4  A    between atoms: C_14  and  S_12 
REMARK    5  A    between atoms: C_15  and  C_14 
ROOT
ATOM      1  S   UNL d   1       1.245  -0.093   0.014  0.00  0.00    -0.026 SA
ATOM      2  C   UNL d   1       0.062   1.166  -0.035  0.00  0.00     0.166 A 
ATOM      3  C   UNL d   1      -0.037  -1.221  -0.050  0.00  0.00     0.130 A 
ATOM      4  N   UNL d   1      -1.171   0.700  -0.082  0.00  0.00    -0.278 N 
ATOM      5  HN  UNL d   1      -1.997   1.299  -0.105  1.00  0.00     0.189 HD
ATOM      6  N   UNL d   1      -1.232  -0.679  -0.098  0.00  0.00    -0.286 N 
ATOM      7  HN  UNL d   1      -2.100  -1.213  -0.141  1.00  0.00     0.188 HD
ATOM      8  N   UNL d   1       0.348   2.488  -0.026  0.00  0.00    -0.330 N 
ATOM      9  H   UNL d   1      -0.453   3.110  -0.043  0.00  0.00     0.168 HD
ENDROOT
BRANCH   8  10
ATOM     10  C   UNL d   1       1.544   3.135  -0.029  0.00  0.00     0.206 C 
ATOM     11  N   UNL d   1       1.669   4.421  -0.042  0.00  0.00    -0.265 N 
ATOM     12  HN  UNL d   1       0.901   5.092  -0.048  1.00  0.00     0.194 HD
BRANCH  11  13
ATOM     13  O   UNL d   1       3.031   4.743  -0.047  0.00  0.00    -0.289 OA
ATOM     14  H   UNL d   1       3.019   5.718  -0.060  0.00  0.00     0.244 HD
ENDBRANCH  11  13
ENDBRANCH   8  10
BRANCH   3  15
ATOM     15  S   UNL d   1       0.231  -2.947  -0.036  0.00  0.00    -0.103 SA
BRANCH  15  16
ATOM     16  C   UNL d   1      -1.273  -3.535  -0.872  0.00  0.00     0.081 C 
BRANCH  16  17
ATOM     17  C   UNL d   1      -1.239  -5.059  -0.964  0.00  0.00     0.006 C 
ATOM     18  C   UNL d   1      -2.461  -5.599  -1.692  0.00  0.00     0.006 C 
ENDBRANCH  16  17
ENDBRANCH  15  16
ENDBRANCH   3  15
TORSDOF 5
