REMARK  6 active torsions:
REMARK  status: ('A' for Active; 'I' for Inactive)
REMARK       I    between atoms: N_2  and  C_1 
REMARK    1  A    between atoms: C_4  and  C_1 
REMARK    2  A    between atoms: C_5  and  N_2 
REMARK    3  A    between atoms: O_8  and  C_3 
REMARK    4  A    between atoms: O_17  and  C_7 
REMARK    5  A    between atoms: C_15  and  O_8 
REMARK    6  A    between atoms: O_23  and  C_11 
ROOT
ATOM      1  C   UNL d   1       0.953   0.064  -3.656  0.00  0.00     0.175 A 
ATOM      2  C   UNL d   1       1.009   0.537  -2.339  0.00  0.00     0.087 A 
ATOM      3  N   UNL d   1       1.511   0.721  -4.710  0.00  0.00    -0.345 N 
ATOM      4  HN  UNL d   1       1.408   0.377  -5.665  1.00  0.00     0.167 HD
ATOM      5  C   UNL d   1       1.731   1.713  -2.110  0.00  0.00     0.035 A 
ATOM      6  C   UNL d   1       2.203   1.845  -4.440  0.00  0.00     0.090 A 
ATOM      7  C   UNL d   1       2.347   2.376  -3.174  0.00  0.00     0.019 A 
ENDROOT
BRANCH   2   8
ATOM      8  N   UNL d   1       0.344  -0.091  -1.256  0.00  0.00    -0.319 N 
ATOM      9  C   UNL d   1       0.998  -0.331  -0.056  0.00  0.00     0.256 C 
ATOM     10  O   UNL d   1       2.205  -0.190   0.120  0.00  0.00    -0.267 OA
ATOM     11  H   UNL d   1      -0.485  -0.636  -1.466  0.00  0.00     0.169 HD
BRANCH   9  12
ATOM     12  C   UNL d   1       0.177  -0.847   1.073  0.00  0.00     0.035 A 
ATOM     13  C   UNL d   1       0.767  -1.743   1.980  0.00  0.00     0.056 A 
ATOM     14  C   UNL d   1       0.084  -2.179   3.127  0.00  0.00     0.102 A 
ATOM     15  C   UNL d   1      -1.219  -1.699   3.359  0.00  0.00     0.101 A 
ATOM     16  C   UNL d   1      -1.793  -0.793   2.449  0.00  0.00     0.040 A 
ATOM     17  C   UNL d   1      -1.107  -0.363   1.313  0.00  0.00     0.020 A 
BRANCH  14  18
ATOM     18  O   UNL d   1       0.631  -3.035   4.043  0.00  0.00    -0.353 OA
ATOM     19  C   UNL d   1       1.950  -3.519   3.827  0.00  0.00     0.210 C 
ENDBRANCH  14  18
BRANCH  15  20
ATOM     20  O   UNL d   1      -2.066  -1.985   4.399  0.00  0.00    -0.353 OA
ATOM     21  C   UNL d   1      -1.643  -2.881   5.417  0.00  0.00     0.210 C 
ENDBRANCH  15  20
ENDBRANCH   9  12
ENDBRANCH   2   8
BRANCH   1  22
ATOM     22  O   UNL d   1       0.366  -1.179  -3.894  0.00  0.00    -0.292 OA
BRANCH  22  23
ATOM     23  C   UNL d   1       0.831  -1.898  -4.984  0.00  0.00     0.078 A 
ATOM     24  C   UNL d   1       2.183  -2.018  -5.319  0.00  0.00     0.039 A 
ATOM     25  C   UNL d   1       2.580  -2.736  -6.452  0.00  0.00     0.026 A 
ATOM     26  C   UNL d   1       1.616  -3.375  -7.229  0.00  0.00     0.034 A 
ATOM     27  C   UNL d   1       0.272  -3.313  -6.875  0.00  0.00     0.026 A 
ATOM     28 CL   UNL d   1       2.094  -4.247  -8.636  0.00  0.00    -0.084 Cl
ATOM     29  C   UNL d   1      -0.123  -2.577  -5.746  0.00  0.00     0.039 A 
ENDBRANCH  22  23
ENDBRANCH   1  22
TORSDOF 6
