REMARK  7 active torsions:
REMARK  status: ('A' for Active; 'I' for Inactive)
REMARK    1  A    between atoms: C1*_3  and  N_1 
REMARK    2  A    between atoms: N_17  and  C_2 
REMARK    3  A    between atoms: C2*_8  and  O2*_19 
REMARK    4  A    between atoms: C3*_10  and  O3*_21 
REMARK    5  A    between atoms: C4*_11  and  C5*_22 
REMARK    6  A    between atoms: N_20  and  C_14 
REMARK    7  A    between atoms: O5*_23  and  C5*_22 
ROOT
ATOM      1  N   UNL d   1       1.586   1.214  -0.079  0.00  0.00    -0.136 N 
ATOM      2  C   UNL d   1       2.425   0.093  -0.057  0.00  0.00     0.686 C 
ATOM      3  C   UNL d   1       0.308   0.772   0.214  0.00  0.00     0.158 A 
ATOM      4  N   UNL d   1       1.704  -1.001   0.118  0.00  0.00    -0.184 N 
ATOM      5  HN  UNL d   1       2.054  -1.957   0.170  1.00  0.00     0.184 HD
ATOM      6  C   UNL d   1       0.400  -0.605   0.216  0.00  0.00     0.137 A 
ATOM      7  N   UNL d   1      -0.818   1.489   0.361  0.00  0.00    -0.336 N 
ATOM      8  HN  UNL d   1      -0.847   2.507   0.407  1.00  0.00     0.168 HD
ATOM      9  C   UNL d   1      -0.801  -1.332   0.280  0.00  0.00     0.131 A 
ATOM     10  N   UNL d   1      -1.960  -0.652   0.410  0.00  0.00    -0.337 N 
ATOM     11  HN  UNL d   1      -2.851  -1.143   0.483  1.00  0.00     0.168 HD
ATOM     12  C   UNL d   1      -1.906   0.695   0.442  0.00  0.00     0.183 A 
ENDROOT
BRANCH   1  13
ATOM     13  C1* UNL d   1       1.906   2.525  -0.617  0.00  0.00     0.279 C 
ATOM     14  C2* UNL d   1       2.526   3.523   0.368  0.00  0.00     0.199 C 
ATOM     15  C3* UNL d   1       1.361   4.401   0.771  0.00  0.00     0.182 C 
ATOM     16  C4* UNL d   1       0.517   4.428  -0.495  0.00  0.00     0.179 C 
ATOM     17  O4* UNL d   1       0.730   3.176  -1.170  0.00  0.00    -0.353 OA
BRANCH  14  18
ATOM     18  O2* UNL d   1       3.520   4.356  -0.272  0.00  0.00    -0.388 OA
ATOM     19  H2* UNL d   1       3.227   4.546  -1.185  0.00  0.00     0.210 HD
ENDBRANCH  14  18
BRANCH  15  20
ATOM     20  O3* UNL d   1       1.775   5.706   1.167  0.00  0.00    -0.390 OA
ATOM     21  H3* UNL d   1       2.688   5.824   0.824  0.00  0.00     0.210 HD
ENDBRANCH  15  20
BRANCH  16  22
ATOM     22  C5* UNL d   1      -0.959   4.681  -0.178  0.00  0.00     0.198 C 
BRANCH  22  23
ATOM     23  O5* UNL d   1      -1.181   6.037   0.210  0.00  0.00    -0.398 OA
ATOM     24  H5* UNL d   1      -0.511   6.270   0.881  0.00  0.00     0.209 HD
ENDBRANCH  22  23
ENDBRANCH  16  22
ENDBRANCH   1  13
BRANCH   2  25
ATOM     25  N   UNL d   1       3.775   0.064  -0.292  0.00  0.00    -0.226 N 
ATOM     26  C   UNL d   1       4.406  -1.261  -0.183  0.00  0.00     0.168 C 
ATOM     27  C   UNL d   1       4.685   1.148   0.043  0.00  0.00     0.168 C 
ENDBRANCH   2  25
BRANCH   9  28
ATOM     28  N   UNL d   1      -0.855  -2.713   0.183  0.00  0.00    -0.383 N 
ATOM     29  H   UNL d   1       0.016  -3.186   0.390  0.00  0.00     0.157 HD
ATOM     30  H   UNL d   1      -1.721  -3.110   0.518  0.00  0.00     0.157 HD
ENDBRANCH   9  28
TORSDOF 7
