REMARK  5 active torsions:
REMARK  status: ('A' for Active; 'I' for Inactive)
REMARK    1  A    between atoms: C_6  and  C_1 
REMARK    2  A    between atoms: C_9  and  C_2 
REMARK    3  A    between atoms: C_5  and  C_10 
REMARK    4  A    between atoms: O_19  and  C_6 
REMARK    5  A    between atoms: C_20  and  O_19 
ROOT
ATOM      1  C   UNL d   1      -0.803  -1.110  -0.002  0.00  0.00     0.144 A 
ATOM      2  C   UNL d   1       0.578  -1.175   0.086  0.00  0.00     0.119 A 
ATOM      3  N   UNL d   1      -1.201   0.221   0.002  0.00  0.00    -0.340 N 
ATOM      4  HN  UNL d   1      -2.147   0.596  -0.076  1.00  0.00     0.167 HD
ATOM      5  C   UNL d   1      -0.075   0.882   0.127  0.00  0.00     0.234 A 
ATOM      6  O   UNL d   1       1.044   0.113   0.191  0.00  0.00    -0.303 OA
ENDROOT
BRANCH   2   7
ATOM      7  C   UNL d   1       1.590  -2.222   0.040  0.00  0.00     0.000 A 
ATOM      8  C   UNL d   1       1.402  -3.369  -0.741  0.00  0.00     0.015 A 
ATOM      9  C   UNL d   1       2.344  -4.402  -0.744  0.00  0.00     0.017 A 
ATOM     10  C   UNL d   1       3.511  -4.303   0.021  0.00  0.00     0.048 A 
ATOM     11  C   UNL d   1       3.723  -3.141   0.776  0.00  0.00     0.017 A 
ATOM     12  C   UNL d   1       2.774  -2.111   0.782  0.00  0.00     0.015 A 
BRANCH  10  13
ATOM     13  C   UNL d   1       4.496  -5.445   0.035  0.00  0.00     0.417 C 
ATOM     14  F   UNL d   1       5.638  -5.173   0.726  0.00  0.00    -0.166 F 
ATOM     15  F   UNL d   1       3.977  -6.571   0.598  0.00  0.00    -0.166 F 
ATOM     16  F   UNL d   1       4.895  -5.804  -1.218  0.00  0.00    -0.166 F 
ENDBRANCH  10  13
ENDBRANCH   2   7
BRANCH   1  17
ATOM     17  C   UNL d   1      -1.713  -2.239  -0.109  0.00  0.00     0.312 C 
ATOM     18  O   UNL d   1      -1.446  -3.369   0.285  0.00  0.00    -0.258 OA
BRANCH  17  19
ATOM     19  O   UNL d   1      -2.856  -1.921  -0.787  0.00  0.00    -0.317 OA
BRANCH  19  20
ATOM     20  C   UNL d   1      -3.646  -3.042  -1.203  0.00  0.00     0.175 C 
ATOM     21  C   UNL d   1      -3.087  -3.596  -2.503  0.00  0.00     0.034 C 
ENDBRANCH  19  20
ENDBRANCH  17  19
ENDBRANCH   1  17
TORSDOF 5
