REMARK  5 active torsions:
REMARK  status: ('A' for Active; 'I' for Inactive)
REMARK    1  A    between atoms: C_14  and  N_2 
REMARK    2  A    between atoms: C_11  and  C_4 
REMARK    3  A    between atoms: C_16  and  N_5 
REMARK    4  A    between atoms: C_12  and  C_11 
REMARK    5  A    between atoms: C_22  and  C_13 
ROOT
ATOM      1  C   UNL d   1       0.025  -0.220  -0.344  0.00  0.00     0.247 C 
ATOM      2  N   UNL d   1       1.157  -1.047  -0.679  0.00  0.00    -0.265 N 
ATOM      3  S   UNL d   1      -0.660  -0.626   1.331  0.00  0.00    -0.039 SA
ATOM      4  C   UNL d   1      -2.199  -0.140   0.704  0.00  0.00     0.141 C 
ATOM      5  N   UNL d   1      -1.166  -0.301  -1.218  0.00  0.00    -0.241 N 
ATOM      6  N   UNL d   1      -2.370  -0.051  -0.574  0.00  0.00    -0.284 N 
ATOM      7  HN  UNL d   1      -3.251   0.170  -1.037  1.00  0.00     0.188 HD
ATOM      8  S   UNL d   1       0.668   1.508  -0.201  0.00  0.00    -0.056 SA
ATOM      9  C   UNL d   1       2.386  -0.527  -0.258  0.00  0.00     0.268 C 
ATOM     10  C   UNL d   1       2.280   0.933   0.051  0.00  0.00     0.074 C 
ATOM     11  C   UNL d   1       3.276   1.743   0.439  0.00  0.00     0.035 C 
ATOM     12  O   UNL d   1       3.431  -1.156  -0.156  0.00  0.00    -0.266 OA
ENDROOT
BRANCH   2  13
ATOM     13  C   UNL d   1       1.097  -2.337  -1.285  0.00  0.00     0.041 A 
ATOM     14  C   UNL d   1       0.053  -3.239  -1.062  0.00  0.00     0.030 A 
ATOM     15  C   UNL d   1       0.065  -4.502  -1.671  0.00  0.00     0.002 A 
ATOM     16  C   UNL d   1       1.097  -4.863  -2.538  0.00  0.00     0.000 A 
ATOM     17  C   UNL d   1       2.127  -3.964  -2.793  0.00  0.00     0.002 A 
ATOM     18  C   UNL d   1       2.126  -2.722  -2.160  0.00  0.00     0.030 A 
ENDBRANCH   2  13
BRANCH   5  19
ATOM     19  C   UNL d   1      -1.211  -0.299  -2.611  0.00  0.00     0.055 A 
ATOM     20  C   UNL d   1      -2.293  -0.932  -3.259  0.00  0.00     0.031 A 
ATOM     21  C   UNL d   1      -2.400  -0.984  -4.651  0.00  0.00     0.002 A 
ATOM     22  C   UNL d   1      -1.434  -0.371  -5.437  0.00  0.00     0.000 A 
ATOM     23  C   UNL d   1      -0.366   0.280  -4.827  0.00  0.00     0.002 A 
ATOM     24  C   UNL d   1      -0.249   0.302  -3.429  0.00  0.00     0.031 A 
ENDBRANCH   5  19
BRANCH   4  25
ATOM     25  C   UNL d   1      -3.177   0.184   1.804  0.00  0.00     0.223 C 
ATOM     26  O   UNL d   1      -2.741   0.600   2.877  0.00  0.00    -0.284 OA
BRANCH  25  27
ATOM     27  C   UNL d   1      -4.597   0.054   1.490  0.00  0.00     0.057 A 
ATOM     28  S   UNL d   1      -5.737   0.436   2.726  0.00  0.00    -0.098 SA
ATOM     29  C   UNL d   1      -7.069   0.126   1.706  0.00  0.00     0.050 A 
ATOM     30  C   UNL d   1      -6.673  -0.272   0.452  0.00  0.00     0.009 A 
ATOM     31  C   UNL d   1      -5.253  -0.325   0.329  0.00  0.00     0.023 A 
ENDBRANCH  25  27
ENDBRANCH   4  25
BRANCH  11  32
ATOM     32  C   UNL d   1       4.671   1.341   0.648  0.00  0.00    -0.035 A 
ATOM     33  C   UNL d   1       5.566   1.313  -0.428  0.00  0.00     0.011 A 
ATOM     34  C   UNL d   1       6.894   0.928  -0.228  0.00  0.00     0.001 A 
ATOM     35  C   UNL d   1       7.333   0.570   1.046  0.00  0.00     0.000 A 
ATOM     36  C   UNL d   1       6.445   0.594   2.120  0.00  0.00     0.001 A 
ATOM     37  C   UNL d   1       5.116   0.977   1.923  0.00  0.00     0.011 A 
ENDBRANCH  11  32
TORSDOF 5
