REMARK  3 active torsions:
REMARK  status: ('A' for Active; 'I' for Inactive)
REMARK    1  A    between atoms: C_2  and  C_1 
REMARK    2  A    between atoms: O_6  and  C_1 
REMARK    3  A    between atoms: C_12  and  O_6 
ROOT
ATOM      1  N   UNL d   1       1.361   5.303  -5.749  0.00  0.00    -0.191 NA
ATOM      2  C   UNL d   1       1.168   4.527  -4.909  0.00  0.00     0.099 C 
ATOM      3  C   UNL d   1       0.447   1.698  -1.844  0.00  0.00     0.079 A 
ATOM      4  C   UNL d   1       0.921   3.569  -3.870  0.00  0.00     0.044 A 
ATOM      5  C   UNL d   1      -0.371   3.075  -3.659  0.00  0.00     0.025 A 
ATOM      6  C   UNL d   1      -0.608   2.144  -2.644  0.00  0.00     0.039 A 
ATOM      7  C   UNL d   1       1.735   2.191  -2.041  0.00  0.00     0.039 A 
ATOM      8  C   UNL d   1       1.971   3.124  -3.059  0.00  0.00     0.025 A 
ENDROOT
BRANCH   3   9
ATOM      9  O   UNL d   1       0.087   0.737  -0.865  0.00  0.00    -0.275 OA
BRANCH   9  10
ATOM     10  C   UNL d   1       0.984  -0.015  -0.120  0.00  0.00     0.298 C 
ATOM     11  O   UNL d   1       2.201   0.066  -0.125  0.00  0.00    -0.259 OA
BRANCH  10  12
ATOM     12  C   UNL d   1       0.258  -1.015   0.714  0.00  0.00     0.041 A 
ATOM     13  C   UNL d   1       1.032  -1.930   1.444  0.00  0.00     0.043 A 
ATOM     14  C   UNL d   1       0.423  -2.897   2.249  0.00  0.00     0.056 A 
ATOM     15 CL   UNL d   1       1.450  -3.990   3.107  0.00  0.00    -0.083 Cl
ATOM     16  C   UNL d   1      -0.971  -2.955   2.334  0.00  0.00     0.055 A 
ATOM     17  C   UNL d   1      -1.748  -2.051   1.602  0.00  0.00     0.026 A 
ATOM     18 CL   UNL d   1      -1.793  -4.107   3.324  0.00  0.00    -0.083 Cl
ATOM     19  C   UNL d   1      -1.139  -1.084   0.792  0.00  0.00     0.019 A 
ENDBRANCH  10  12
ENDBRANCH   9  10
ENDBRANCH   3   9
TORSDOF 3
