REMARK  1 active torsions:
REMARK  status: ('A' for Active; 'I' for Inactive)
REMARK       I    between atoms: N_2  and  C_1 
REMARK       I    between atoms: N_4  and  C_1 
REMARK    1  A    between atoms: C_11  and  N_4 
ROOT
ATOM      1  C   UNL d   1       0.752  -0.295   0.451  0.00  0.00     0.328 C 
ATOM      2  N   UNL d   1      -0.269  -1.266   0.360  0.00  0.00    -0.293 N 
ATOM      3  C   UNL d   1      -1.536  -1.073  -0.358  0.00  0.00     0.099 C 
ATOM      4  N   UNL d   1       0.567   0.829  -0.343  0.00  0.00    -0.307 N 
ATOM      5  N   UNL d   1      -0.907  -3.923  -1.009  0.00  0.00    -0.325 N 
ATOM      6  C   UNL d   1      -0.046  -2.561   0.936  0.00  0.00     0.066 A 
ATOM      7  C   UNL d   1      -1.400  -3.076  -1.940  0.00  0.00     0.224 C 
ATOM      8  C   UNL d   1      -1.434  -1.588  -1.777  0.00  0.00     0.128 C 
ATOM      9  C   UNL d   1      -0.362  -3.766   0.280  0.00  0.00     0.062 A 
ATOM     10  O   UNL d   1       1.773  -0.445   1.121  0.00  0.00    -0.246 OA
ATOM     11  O   UNL d   1      -1.808  -3.574  -2.996  0.00  0.00    -0.273 OA
ATOM     12  C   UNL d   1      -2.777  -1.564   0.407  0.00  0.00     0.033 C 
ATOM     13  C   UNL d   1       0.496  -2.629   2.237  0.00  0.00     0.032 A 
ATOM     14  C   UNL d   1      -0.098  -4.987   0.937  0.00  0.00     0.032 A 
ATOM     15  C   UNL d   1       0.736  -3.844   2.876  0.00  0.00     0.002 A 
ATOM     16  C   UNL d   1       0.442  -5.028   2.223  0.00  0.00     0.002 A 
ATOM     17  H   UNL d   1       0.065   0.678  -1.207  0.00  0.00     0.170 HD
ATOM     18  H   UNL d   1      -0.989  -4.878  -1.342  0.00  0.00     0.169 HD
ENDROOT
BRANCH   4  19
ATOM     19  C   UNL d   1       1.472   1.927  -0.398  0.00  0.00     0.059 A 
ATOM     20  C   UNL d   1       1.614   2.641  -1.604  0.00  0.00     0.082 A 
ATOM     21  C   UNL d   1       2.564   3.670  -1.700  0.00  0.00     0.058 A 
ATOM     22 CL   UNL d   1       0.632   2.195  -2.969  0.00  0.00    -0.080 Cl
ATOM     23 CL   UNL d   1       2.843   4.543  -3.167  0.00  0.00    -0.082 Cl
ATOM     24  C   UNL d   1       3.341   4.013  -0.591  0.00  0.00     0.026 A 
ATOM     25  C   UNL d   1       3.163   3.346   0.618  0.00  0.00     0.004 A 
ATOM     26  C   UNL d   1       2.230   2.313   0.715  0.00  0.00     0.031 A 
ENDBRANCH   4  19
TORSDOF 1
