REMARK  4 active torsions:
REMARK  status: ('A' for Active; 'I' for Inactive)
REMARK    1  A    between atoms: C_6  and  C_1 
REMARK    2  A    between atoms: C_13  and  C_4 
REMARK       I    between atoms: N_8  and  C_6 
REMARK    3  A    between atoms: C_18  and  N_8 
REMARK    4  A    between atoms: C_17  and  C_18 
ROOT
ATOM      1  C   UNL d   1       0.175  -2.658  -0.075  0.00  0.00     0.254 C 
ATOM      2  N   UNL d   1      -0.864  -3.562  -0.086  0.00  0.00    -0.353 N 
ATOM      3  O   UNL d   1       1.349  -3.015  -0.066  0.00  0.00    -0.268 OA
ATOM      4  H   UNL d   1      -1.819  -3.240  -0.100  0.00  0.00     0.163 HD
ENDROOT
BRANCH   1   5
ATOM      5  C   UNL d   1      -0.219  -1.252  -0.056  0.00  0.00     0.064 A 
ATOM      6  C   UNL d   1      -1.523  -0.669  -0.057  0.00  0.00     0.057 A 
ATOM      7  C   UNL d   1      -1.371   0.701   0.032  0.00  0.00     0.087 A 
ATOM      8  O   UNL d   1      -0.044   1.004   0.053  0.00  0.00    -0.314 OA
ATOM      9  C   UNL d   1       0.651  -0.170  -0.005  0.00  0.00     0.065 A 
ATOM     10  C   UNL d   1       2.124  -0.016   0.019  0.00  0.00     0.077 C 
BRANCH   7  11
ATOM     11  C   UNL d   1      -2.306   1.817   0.134  0.00  0.00    -0.002 A 
ATOM     12  C   UNL d   1      -1.922   3.045   0.695  0.00  0.00     0.014 A 
ATOM     13  C   UNL d   1      -2.853   4.074   0.867  0.00  0.00     0.001 A 
ATOM     14  C   UNL d   1      -4.177   3.894   0.471  0.00  0.00     0.000 A 
ATOM     15  C   UNL d   1      -4.567   2.691  -0.113  0.00  0.00     0.001 A 
ATOM     16  C   UNL d   1      -3.638   1.662  -0.281  0.00  0.00     0.014 A 
ENDBRANCH   7  11
ENDBRANCH   1   5
BRANCH   2  17
ATOM     17  C   UNL d   1      -0.642  -4.989   0.004  0.00  0.00     0.161 C 
BRANCH  17  18
ATOM     18  C   UNL d   1      -1.216  -5.723  -1.183  0.00  0.00    -0.038 A 
ATOM     19  C   UNL d   1      -2.186  -6.725  -1.006  0.00  0.00     0.048 A 
ATOM     20  C   UNL d   1      -2.642  -7.396  -2.124  0.00  0.00     0.105 A 
ATOM     21  O   UNL d   1      -3.569  -8.391  -2.129  0.00  0.00    -0.323 OA
ATOM     22  C   UNL d   1      -2.173  -7.111  -3.384  0.00  0.00     0.105 A 
ATOM     23  C   UNL d   1      -3.651  -8.678  -3.542  0.00  0.00     0.352 A 
ATOM     24  O   UNL d   1      -2.746  -7.889  -4.340  0.00  0.00    -0.323 OA
ATOM     25  C   UNL d   1      -1.220  -6.140  -3.599  0.00  0.00     0.040 A 
ATOM     26  C   UNL d   1      -0.739  -5.443  -2.486  0.00  0.00     0.012 A 
ENDBRANCH  17  18
ENDBRANCH   2  17
TORSDOF 4
