REMARK  5 active torsions:
REMARK  status: ('A' for Active; 'I' for Inactive)
REMARK    1  A    between atoms: C_8  and  N_1 
REMARK    2  A    between atoms: S_11  and  C_3 
REMARK    3  A    between atoms: N_9  and  C_7 
REMARK    4  A    between atoms: C_13  and  C_8 
REMARK    5  A    between atoms: C_12  and  N_9 
ROOT
ATOM      1  N   UNL d   1       1.401  -1.076  -0.070  0.00  0.00    -0.288 N 
ATOM      2  C   UNL d   1       0.073   0.711   0.039  0.00  0.00     0.118 A 
ATOM      3  C   UNL d   1       0.078  -1.387  -0.012  0.00  0.00     0.149 A 
ATOM      4  C   UNL d   1       1.494   0.283  -0.052  0.00  0.00     0.278 A 
ATOM      5  N   UNL d   1      -0.751  -0.388   0.060  0.00  0.00    -0.331 N 
ATOM      6  HN  UNL d   1      -1.769  -0.415   0.119  1.00  0.00     0.168 HD
ATOM      7  C   UNL d   1      -0.280   2.000   0.064  0.00  0.00     0.123 C 
ATOM      8  O   UNL d   1       2.477   0.995  -0.134  0.00  0.00    -0.265 OA
ENDROOT
BRANCH   7   9
ATOM      9  N   UNL d   1      -1.542   2.542   0.102  0.00  0.00    -0.362 N 
ATOM     10  H   UNL d   1      -2.316   1.887  -0.010  0.00  0.00     0.165 HD
BRANCH   9  11
ATOM     11  C   UNL d   1      -1.882   3.908   0.184  0.00  0.00     0.053 A 
ATOM     12  C   UNL d   1      -3.125   4.381  -0.289  0.00  0.00     0.060 A 
ATOM     13 CL   UNL d   1      -4.320   3.284  -0.895  0.00  0.00    -0.082 Cl
ATOM     14  C   UNL d   1      -3.424   5.749  -0.298  0.00  0.00     0.026 A 
ATOM     15  C   UNL d   1      -2.492   6.673   0.172  0.00  0.00     0.002 A 
ATOM     16  C   UNL d   1      -1.268   6.228   0.660  0.00  0.00     0.002 A 
ATOM     17  C   UNL d   1      -0.969   4.862   0.659  0.00  0.00     0.031 A 
ENDBRANCH   9  11
ENDBRANCH   7   9
BRANCH   1  18
ATOM     18  C   UNL d   1       2.568  -1.925  -0.240  0.00  0.00     0.173 C 
BRANCH  18  19
ATOM     19  C   UNL d   1       3.205  -2.336   1.069  0.00  0.00    -0.038 A 
ATOM     20  C   UNL d   1       2.811  -3.518   1.713  0.00  0.00     0.032 A 
ATOM     21  C   UNL d   1       3.407  -3.901   2.916  0.00  0.00     0.034 A 
ATOM     22 CL   UNL d   1       2.905  -5.353   3.690  0.00  0.00    -0.084 Cl
ATOM     23  C   UNL d   1       4.407  -3.119   3.489  0.00  0.00     0.024 A 
ATOM     24  C   UNL d   1       4.810  -1.945   2.858  0.00  0.00     0.002 A 
ATOM     25  C   UNL d   1       4.208  -1.550   1.659  0.00  0.00     0.009 A 
ENDBRANCH  18  19
ENDBRANCH   1  18
BRANCH   3  26
ATOM     26  S   UNL d   1      -0.430  -3.041  -0.058  0.00  0.00    -0.098 SA
ATOM     27  C   UNL d   1      -2.222  -2.857   0.063  0.00  0.00     0.099 C 
ENDBRANCH   3  26
TORSDOF 5
