REMARK  2 active torsions:
REMARK  status: ('A' for Active; 'I' for Inactive)
REMARK    1  A    between atoms: C_15  and  N_5 
REMARK    2  A    between atoms: C_16  and  N_6 
ROOT
ATOM      1  C   UNL d   1      -0.333   1.234   0.085  0.00  0.00     0.075 C 
ATOM      2  C   UNL d   1      -0.766   2.455   0.438  0.00  0.00     0.075 C 
ATOM      3  C   UNL d   1      -1.200   0.026  -0.033  0.00  0.00     0.280 C 
ATOM      4  C   UNL d   1       0.105   3.563   0.925  0.00  0.00     0.280 C 
ATOM      5  N   UNL d   1      -0.313  -1.027   0.206  0.00  0.00    -0.220 N 
ATOM      6  N   UNL d   1      -0.766   4.345   1.690  0.00  0.00    -0.220 N 
ATOM      7  N   UNL d   1       1.015  -0.646   0.213  0.00  0.00    -0.294 N 
ATOM      8  HN  UNL d   1       1.825  -1.258   0.315  1.00  0.00     0.187 HD
ATOM      9  N   UNL d   1      -2.093   3.989   1.557  0.00  0.00    -0.294 N 
ATOM     10  HN  UNL d   1      -2.893   4.454   1.986  1.00  0.00     0.187 HD
ATOM     11  C   UNL d   1       1.031   0.652   0.065  0.00  0.00     0.039 C 
ATOM     12  C   UNL d   1      -2.127   2.943   0.776  0.00  0.00     0.039 C 
ATOM     13  O   UNL d   1       1.290   3.703   0.699  0.00  0.00    -0.265 OA
ATOM     14  O   UNL d   1      -2.390   0.010  -0.267  0.00  0.00    -0.265 OA
ATOM     15  C   UNL d   1       2.325   1.370  -0.132  0.00  0.00     0.071 C 
ATOM     16  C   UNL d   1      -3.436   2.403   0.309  0.00  0.00     0.071 C 
ENDROOT
BRANCH   5  17
ATOM     17  C   UNL d   1      -0.621  -2.396   0.403  0.00  0.00     0.060 A 
ATOM     18  C   UNL d   1      -1.914  -2.905   0.219  0.00  0.00     0.031 A 
ATOM     19  C   UNL d   1      -2.189  -4.260   0.435  0.00  0.00     0.002 A 
ATOM     20  C   UNL d   1      -1.182  -5.122   0.857  0.00  0.00     0.000 A 
ATOM     21  C   UNL d   1       0.104  -4.632   1.061  0.00  0.00     0.002 A 
ATOM     22  C   UNL d   1       0.382  -3.283   0.830  0.00  0.00     0.031 A 
ENDBRANCH   5  17
BRANCH   6  23
ATOM     23  C   UNL d   1      -0.451   5.452   2.515  0.00  0.00     0.060 A 
ATOM     24  C   UNL d   1       0.825   6.029   2.540  0.00  0.00     0.031 A 
ATOM     25  C   UNL d   1       1.100   7.126   3.365  0.00  0.00     0.002 A 
ATOM     26  C   UNL d   1       0.109   7.648   4.193  0.00  0.00     0.000 A 
ATOM     27  C   UNL d   1      -1.157   7.074   4.199  0.00  0.00     0.002 A 
ATOM     28  C   UNL d   1      -1.434   5.990   3.364  0.00  0.00     0.031 A 
ENDBRANCH   6  23
TORSDOF 2
