REMARK  4 active torsions:
REMARK  status: ('A' for Active; 'I' for Inactive)
REMARK    1  A    between atoms: S_12  and  C_6 
REMARK    2  A    between atoms: C_17  and  S_12 
REMARK    3  A    between atoms: C_15  and  C_17 
REMARK    4  A    between atoms: C_16  and  C_15 
ROOT
ATOM      1  C   UNL d   1       1.331  -0.736  -0.026  0.00  0.00     0.089 A 
ATOM      2  C   UNL d   1       0.772   0.532  -0.134  0.00  0.00     0.039 A 
ATOM      3  C   UNL d   1      -1.108  -0.875  -0.028  0.00  0.00    -0.008 A 
ATOM      4  C   UNL d   1      -0.680   0.438  -0.135  0.00  0.00    -0.029 A 
ATOM      5  S   UNL d   1       0.175  -1.983   0.040  0.00  0.00    -0.075 SA
ATOM      6  C   UNL d   1       1.710   1.580  -0.195  0.00  0.00     0.084 A 
ATOM      7  N   UNL d   1       2.640  -1.037   0.035  0.00  0.00    -0.346 N 
ATOM      8  HN  UNL d   1       2.998  -1.989   0.109  1.00  0.00     0.167 HD
ATOM      9  N   UNL d   1       3.033   1.321  -0.120  0.00  0.00    -0.346 N 
ATOM     10  HN  UNL d   1       3.718   2.076  -0.144  1.00  0.00     0.167 HD
ATOM     11  C   UNL d   1      -1.665   1.575  -0.165  0.00  0.00     0.041 C 
ATOM     12  C   UNL d   1       3.418   0.043  -0.013  0.00  0.00     0.182 A 
ATOM     13  C   UNL d   1      -2.538  -1.324   0.027  0.00  0.00     0.051 C 
ATOM     14  C   UNL d   1      -3.118   1.108  -0.344  0.00  0.00     0.009 C 
ATOM     15  C   UNL d   1      -3.459  -0.163   0.457  0.00  0.00    -0.014 C 
ATOM     16  C   UNL d   1      -3.391   0.080   1.970  0.00  0.00     0.010 C 
ENDROOT
BRANCH   6  17
ATOM     17  S   UNL d   1       1.170   3.259  -0.354  0.00  0.00    -0.103 SA
BRANCH  17  18
ATOM     18  C   UNL d   1       2.751   4.139  -0.524  0.00  0.00     0.164 C 
BRANCH  18  19
ATOM     19  C   UNL d   1       2.469   5.583  -0.893  0.00  0.00     0.169 C 
ATOM     20  O   UNL d   1       2.559   5.966  -2.061  0.00  0.00    -0.291 OA
BRANCH  19  21
ATOM     21  C   UNL d   1       2.060   6.568   0.160  0.00  0.00     0.011 A 
ATOM     22  C   UNL d   1       1.947   6.235   1.517  0.00  0.00     0.016 A 
ATOM     23  C   UNL d   1       1.543   7.198   2.450  0.00  0.00     0.020 A 
ATOM     24  C   UNL d   1       1.252   8.495   2.031  0.00  0.00     0.011 A 
ATOM     25  C   UNL d   1       1.363   8.842   0.688  0.00  0.00     0.020 A 
ATOM     26 BR   UNL d   1       0.697   9.787   3.294  0.00  0.00    -0.051 Br
ATOM     27  C   UNL d   1       1.766   7.881  -0.243  0.00  0.00     0.016 A 
ENDBRANCH  19  21
ENDBRANCH  18  19
ENDBRANCH  17  18
ENDBRANCH   6  17
TORSDOF 4
