REMARK  2 active torsions:
REMARK  status: ('A' for Active; 'I' for Inactive)
REMARK    1  A    between atoms: N_8  and  C_2 
REMARK    2  A    between atoms: C_9  and  C_3 
ROOT
ATOM      1  S   UNL d   1       0.909  -0.165  -0.486  0.00  0.00    -0.037 SA
ATOM      2  C   UNL d   1      -0.109   1.095   0.037  0.00  0.00     0.171 A 
ATOM      3  C   UNL d   1      -0.291  -1.256   0.086  0.00  0.00     0.074 A 
ATOM      4  N   UNL d   1      -1.250   0.711   0.564  0.00  0.00    -0.279 N 
ATOM      5  HN  UNL d   1      -1.970   1.348   0.904  1.00  0.00     0.189 HD
ATOM      6  N   UNL d   1      -1.350  -0.663   0.599  0.00  0.00    -0.295 N 
ATOM      7  HN  UNL d   1      -2.153  -1.165   0.980  1.00  0.00     0.187 HD
ENDROOT
BRANCH   2   8
ATOM      8  N   UNL d   1       0.251   2.442  -0.086  0.00  0.00    -0.312 N 
ATOM      9  C   UNL d   1       1.423   2.999  -0.576  0.00  0.00     0.098 A 
ATOM     10  C   UNL d   1       1.344   4.374  -0.495  0.00  0.00     0.019 A 
ATOM     11  C   UNL d   1       0.086   4.691   0.057  0.00  0.00     0.019 A 
ATOM     12  C   UNL d   1      -0.559   3.501   0.300  0.00  0.00     0.098 A 
ENDBRANCH   2   8
BRANCH   3  13
ATOM     13  C   UNL d   1      -0.229  -2.782   0.061  0.00  0.00     0.044 A 
ATOM     14  C   UNL d   1       1.100  -3.500   0.174  0.00  0.00     0.012 A 
ATOM     15  C   UNL d   1       0.365  -3.514  -1.123  0.00  0.00     0.012 A 
ENDBRANCH   3  13
TORSDOF 2
