REMARK  4 active torsions:
REMARK  status: ('A' for Active; 'I' for Inactive)
REMARK    1  A    between atoms: C_2  and  S_1 
REMARK    2  A    between atoms: N_3  and  S_1 
REMARK    3  A    between atoms: C_12  and  N_9 
REMARK    4  A    between atoms: O_23  and  C_17 
ROOT
ATOM      1  N   UNL d   1       0.598  -0.612  -0.837  0.00  0.00    -0.304 N 
ATOM      2  N   UNL d   1       0.062  -3.479  -0.911  0.00  0.00    -0.376 N 
ATOM      3  C   UNL d   1      -0.788  -1.176  -0.774  0.00  0.00     0.155 C 
ATOM      4  C   UNL d   1       1.531  -1.574  -1.507  0.00  0.00     0.155 C 
ATOM      5  C   UNL d   1       1.463  -2.990  -0.902  0.00  0.00     0.143 C 
ATOM      6  C   UNL d   1      -0.822  -2.585  -0.130  0.00  0.00     0.143 C 
ENDROOT
BRANCH   1   7
ATOM      7  S   UNL d   1       1.165   0.209   0.537  0.00  0.00     0.262 S 
ATOM      8  O   UNL d   1       0.606  -0.417   1.713  0.00  0.00    -0.200 OA
ATOM      9  O   UNL d   1       2.609   0.305   0.446  0.00  0.00    -0.200 OA
BRANCH   7  10
ATOM     10  C   UNL d   1       0.454   1.887   0.307  0.00  0.00     0.092 C 
ATOM     11  C   UNL d   1      -0.821   2.239   0.837  0.00  0.00    -0.032 C 
ATOM     12  C   UNL d   1      -1.282   3.584   0.686  0.00  0.00    -0.048 C 
ATOM     13  C   UNL d   1      -1.776   1.286   1.517  0.00  0.00     0.050 C 
ATOM     14  C   UNL d   1      -2.689   3.984   1.112  0.00  0.00     0.049 C 
ATOM     15  C   UNL d   1      -0.429   4.596   0.182  0.00  0.00    -0.049 C 
ATOM     16  C   UNL d   1       0.845   4.248  -0.324  0.00  0.00    -0.048 C 
ATOM     17  C   UNL d   1      -0.909   6.033   0.191  0.00  0.00     0.049 C 
ATOM     18  C   UNL d   1       1.247   2.880  -0.356  0.00  0.00    -0.032 C 
ATOM     19  C   UNL d   1       1.756   5.352  -0.821  0.00  0.00     0.049 C 
ATOM     20  C   UNL d   1       2.518   2.534  -1.101  0.00  0.00     0.050 C 
ENDBRANCH   7  10
ENDBRANCH   1   7
BRANCH   2  21
ATOM     21  C   UNL d   1      -0.177  -4.853  -0.749  0.00  0.00     0.064 A 
ATOM     22  C   UNL d   1      -1.372  -5.480  -1.187  0.00  0.00     0.094 A 
ATOM     23  C   UNL d   1      -1.557  -6.868  -1.043  0.00  0.00     0.039 A 
ATOM     24  C   UNL d   1      -0.575  -7.664  -0.470  0.00  0.00     0.003 A 
ATOM     25  C   UNL d   1       0.594  -7.074  -0.012  0.00  0.00     0.002 A 
ATOM     26  C   UNL d   1       0.784  -5.695  -0.151  0.00  0.00     0.032 A 
BRANCH  22  27
ATOM     27  O   UNL d   1      -2.471  -4.853  -1.722  0.00  0.00    -0.354 OA
ATOM     28  C   UNL d   1      -2.212  -3.951  -2.790  0.00  0.00     0.210 C 
ENDBRANCH  22  27
ENDBRANCH   2  21
TORSDOF 4
