REMARK  4 active torsions:
REMARK  status: ('A' for Active; 'I' for Inactive)
REMARK    1  A    between atoms: C_2  and  C_1 
REMARK       I    between atoms: N_4  and  C_2 
REMARK    2  A    between atoms: C_9  and  N_6 
REMARK    3  A    between atoms: C_16  and  C_9 
REMARK    4  A    between atoms: C_17  and  C_9 
ROOT
ATOM      1  C   UNL d   1      -1.297  -3.046   0.131  0.00  0.00     0.256 C 
ATOM      2  N   UNL d   1      -2.587  -3.603   0.145  0.00  0.00    -0.345 N 
ATOM      3  N   UNL d   1      -5.477  -4.332   0.237  0.00  0.00     0.105 N 
ATOM      4  O   UNL d   1      -0.937  -2.248  -0.735  0.00  0.00    -0.267 OA
ATOM      5  C   UNL d   1      -3.458  -3.357  -1.008  0.00  0.00     0.156 C 
ATOM      6  C   UNL d   1      -3.089  -4.596   1.103  0.00  0.00     0.156 C 
ATOM      7  C   UNL d   1      -4.941  -3.233  -0.610  0.00  0.00     0.293 C 
ATOM      8  C   UNL d   1      -4.587  -4.434   1.418  0.00  0.00     0.293 C 
ENDROOT
BRANCH   1   9
ATOM      9  C   UNL d   1      -0.305  -3.454   1.162  0.00  0.00     0.066 A 
ATOM     10  C   UNL d   1       0.475  -2.523   1.842  0.00  0.00     0.092 A 
ATOM     11  O   UNL d   1       0.442  -1.161   1.684  0.00  0.00    -0.339 OA
ATOM     12  C   UNL d   1       1.404  -2.933   2.789  0.00  0.00    -0.021 A 
ATOM     13  C   UNL d   1       1.442  -0.615   2.594  0.00  0.00     0.064 A 
ATOM     14  C   UNL d   1       0.720   0.275   3.610  0.00  0.00     0.046 C 
ATOM     15  C   UNL d   1       2.422   0.228   1.771  0.00  0.00     0.046 C 
ATOM     16  C   UNL d   1       2.172  -1.775   3.300  0.00  0.00     0.079 A 
ATOM     17  C   UNL d   1       1.568  -4.268   3.119  0.00  0.00     0.010 A 
ATOM     18  C   UNL d   1       0.825  -5.216   2.422  0.00  0.00     0.002 A 
ATOM     19  C   UNL d   1      -0.071  -4.812   1.420  0.00  0.00     0.020 A 
ENDBRANCH   1   9
BRANCH   3  20
ATOM     20  C   UNL d   1      -5.621  -5.628  -0.492  0.00  0.00     0.289 C 
BRANCH  20  21
ATOM     21  C   UNL d   1      -6.137  -6.763   0.411  0.00  0.00    -0.021 A 
ATOM     22  C   UNL d   1      -7.343  -6.634   1.123  0.00  0.00     0.010 A 
ATOM     23  C   UNL d   1      -7.828  -7.684   1.904  0.00  0.00     0.001 A 
ATOM     24  C   UNL d   1      -7.112  -8.876   1.991  0.00  0.00     0.000 A 
ATOM     25  C   UNL d   1      -5.910  -9.018   1.302  0.00  0.00     0.001 A 
ATOM     26  C   UNL d   1      -5.426  -7.969   0.516  0.00  0.00     0.010 A 
ENDBRANCH  20  21
BRANCH  20  27
ATOM     27  C   UNL d   1      -6.514  -5.551  -1.741  0.00  0.00    -0.021 A 
ATOM     28  C   UNL d   1      -6.227  -6.364  -2.852  0.00  0.00     0.010 A 
ATOM     29  C   UNL d   1      -7.039  -6.335  -3.987  0.00  0.00     0.001 A 
ATOM     30  C   UNL d   1      -8.152  -5.498  -4.030  0.00  0.00     0.000 A 
ATOM     31  C   UNL d   1      -8.463  -4.700  -2.932  0.00  0.00     0.001 A 
ATOM     32  C   UNL d   1      -7.659  -4.736  -1.793  0.00  0.00     0.010 A 
ENDBRANCH  20  27
ENDBRANCH   3  20
TORSDOF 4
