REMARK  7 active torsions:
REMARK  status: ('A' for Active; 'I' for Inactive)
REMARK    1  A    between atoms: C_6  and  C_2 
REMARK    2  A    between atoms: O_13  and  C_3 
REMARK    3  A    between atoms: C_9  and  C_7 
REMARK    4  A    between atoms: C_22  and  O_13 
REMARK    5  A    between atoms: C_14  and  C_22 
REMARK    6  A    between atoms: O_23  and  C_14 
REMARK    7  A    between atoms: C_24  and  O_23 
ROOT
ATOM      1  C   UNL d   1       0.576   0.066   0.086  0.00  0.00     0.110 A 
ATOM      2  C   UNL d   1      -0.074   1.302   0.035  0.00  0.00     0.075 A 
ATOM      3  C   UNL d   1      -0.221  -1.081   0.101  0.00  0.00     0.165 A 
ATOM      4  N   UNL d   1      -1.574  -1.069   0.023  0.00  0.00    -0.335 N 
ATOM      5  HN  UNL d   1      -2.108  -1.938   0.030  1.00  0.00     0.168 HD
ATOM      6  C   UNL d   1      -2.192   0.128  -0.065  0.00  0.00     0.052 A 
ATOM      7  C   UNL d   1      -1.482   1.322  -0.035  0.00  0.00     0.048 A 
ATOM      8  C   UNL d   1       2.002  -0.071   0.114  0.00  0.00     0.104 C 
ATOM      9  N   UNL d   1       3.158  -0.173   0.118  0.00  0.00    -0.191 NA
ENDROOT
BRANCH   2  10
ATOM     10  C   UNL d   1       0.633   2.632   0.030  0.00  0.00     0.419 C 
ATOM     11  F   UNL d   1       1.986   2.574   0.074  0.00  0.00    -0.166 F 
ATOM     12  F   UNL d   1       0.328   3.355  -1.083  0.00  0.00    -0.166 F 
ATOM     13  F   UNL d   1       0.258   3.406   1.085  0.00  0.00    -0.166 F 
ENDBRANCH   2  10
BRANCH   3  14
ATOM     14  O   UNL d   1       0.406  -2.307   0.120  0.00  0.00    -0.325 OA
BRANCH  14  15
ATOM     15  C   UNL d   1      -0.399  -3.349   0.662  0.00  0.00     0.288 C 
BRANCH  15  16
ATOM     16  C   UNL d   1      -0.602  -3.251   2.169  0.00  0.00     0.283 C 
ATOM     17  O   UNL d   1      -0.165  -2.361   2.889  0.00  0.00    -0.263 OA
BRANCH  16  18
ATOM     18  O   UNL d   1      -1.262  -4.364   2.607  0.00  0.00    -0.320 OA
BRANCH  18  19
ATOM     19  C   UNL d   1      -1.187  -4.608   4.019  0.00  0.00     0.174 C 
ATOM     20  C   UNL d   1       0.075  -5.407   4.298  0.00  0.00     0.034 C 
ENDBRANCH  18  19
ENDBRANCH  16  18
ENDBRANCH  15  16
ENDBRANCH  14  15
ENDBRANCH   3  14
BRANCH   6  21
ATOM     21  C   UNL d   1      -3.648   0.046  -0.243  0.00  0.00     0.031 A 
ATOM     22  S   UNL d   1      -4.519   1.302  -1.034  0.00  0.00    -0.100 SA
ATOM     23  C   UNL d   1      -6.001   0.466  -0.907  0.00  0.00     0.050 A 
ATOM     24  C   UNL d   1      -5.855  -0.746  -0.275  0.00  0.00     0.008 A 
ATOM     25  C   UNL d   1      -4.502  -0.990   0.104  0.00  0.00     0.021 A 
ENDBRANCH   6  21
TORSDOF 7
