REMARK  8 active torsions:
REMARK  status: ('A' for Active; 'I' for Inactive)
REMARK    1  A    between atoms: C_4  and  C_1 
REMARK    2  A    between atoms: O_8  and  C_1 
REMARK    3  A    between atoms: C_12  and  C_1 
REMARK    4  A    between atoms: S_2  and  C_4 
REMARK    5  A    between atoms: C_5  and  S_2 
REMARK    6  A    between atoms: N_3  and  C_12 
REMARK    7  A    between atoms: C_21  and  N_3 
REMARK    8  A    between atoms: C_9  and  C_21 
ROOT
ATOM      1  C   UNL d   1       1.042  -0.010   0.053  0.00  0.00     0.089 C 
ATOM      2  C   UNL d   1       2.576   0.033   0.134  0.00  0.00     0.048 C 
ENDROOT
BRANCH   1   3
ATOM      3  C   UNL d   1       0.544  -1.234  -0.764  0.00  0.00     0.118 C 
BRANCH   3   4
ATOM      4  S   UNL d   1       1.125  -2.849  -0.098  0.00  0.00    -0.127 SA
BRANCH   4   5
ATOM      5  C   UNL d   1       0.304  -3.971  -1.203  0.00  0.00     0.000 A 
ATOM      6  C   UNL d   1       0.630  -4.017  -2.563  0.00  0.00     0.020 A 
ATOM      7  C   UNL d   1      -0.015  -4.922  -3.409  0.00  0.00     0.025 A 
ATOM      8  C   UNL d   1      -0.979  -5.787  -2.893  0.00  0.00     0.034 A 
ATOM      9  C   UNL d   1      -1.294  -5.763  -1.536  0.00  0.00     0.025 A 
ATOM     10 CL   UNL d   1      -1.778  -6.895  -3.938  0.00  0.00    -0.084 Cl
ATOM     11  C   UNL d   1      -0.648  -4.858  -0.691  0.00  0.00     0.020 A 
ENDBRANCH   4   5
ENDBRANCH   3   4
ENDBRANCH   1   3
BRANCH   1  12
ATOM     12  O   UNL d   1       0.541  -0.116   1.397  0.00  0.00    -0.388 OA
ATOM     13  H   UNL d   1      -0.382   0.189   1.399  0.00  0.00     0.210 HD
ENDBRANCH   1  12
BRANCH   1  14
ATOM     14  C   UNL d   1       0.484   1.304  -0.600  0.00  0.00     0.307 C 
BRANCH  14  15
ATOM     15  N   UNL d   1       0.821   2.505   0.173  0.00  0.00     0.090 N 
ATOM     16  H   UNL d   1       1.831   2.576   0.292  0.00  0.00     0.316 HD
BRANCH  15  17
ATOM     17  C   UNL d   1       0.341   3.743  -0.436  0.00  0.00     0.308 C 
BRANCH  17  18
ATOM     18  C   UNL d   1       0.837   4.943   0.346  0.00  0.00    -0.030 A 
ATOM     19  C   UNL d   1       1.642   5.918  -0.264  0.00  0.00     0.010 A 
ATOM     20  C   UNL d   1       2.104   7.016   0.470  0.00  0.00     0.024 A 
ATOM     21  C   UNL d   1       1.766   7.147   1.815  0.00  0.00     0.034 A 
ATOM     22  C   UNL d   1       0.967   6.188   2.436  0.00  0.00     0.024 A 
ATOM     23 CL   UNL d   1       2.339   8.496   2.715  0.00  0.00    -0.084 Cl
ATOM     24  C   UNL d   1       0.505   5.094   1.702  0.00  0.00     0.010 A 
ENDBRANCH  17  18
ENDBRANCH  15  17
ENDBRANCH  14  15
ENDBRANCH   1  14
TORSDOF 8
