REMARK  3 active torsions:
REMARK  status: ('A' for Active; 'I' for Inactive)
REMARK    1  A    between atoms: N_11  and  C_9 
REMARK    2  A    between atoms: N_12  and  N_11 
REMARK    3  A    between atoms: C_19  and  C_16 
ROOT
ATOM      1  C   UNL d   1      -1.949  -2.362  -0.056  0.00  0.00     0.160 A 
ATOM      2  C   UNL d   1      -1.325  -1.151  -0.039  0.00  0.00     0.164 A 
ATOM      3  N   UNL d   1      -3.301  -2.236  -0.091  0.00  0.00    -0.172 N 
ATOM      4  HN  UNL d   1      -3.990  -2.987  -0.132  1.00  0.00     0.186 HD
ATOM      5  N   UNL d   1      -1.243  -3.541  -0.050  0.00  0.00    -0.287 N 
ATOM      6  N   UNL d   1       0.765  -2.244  -0.042  0.00  0.00    -0.269 N 
ATOM      7  C   UNL d   1       0.152  -3.511  -0.040  0.00  0.00     0.332 A 
ATOM      8  C   UNL d   1       0.093  -1.018  -0.043  0.00  0.00     0.282 A 
ATOM      9  C   UNL d   1      -3.536  -0.937  -0.061  0.00  0.00     0.701 A 
ATOM     10  N   UNL d   1      -2.340  -0.231  -0.033  0.00  0.00    -0.177 N 
ATOM     11  O   UNL d   1       0.814  -4.549  -0.032  0.00  0.00    -0.246 OA
ATOM     12  O   UNL d   1       0.675   0.064  -0.047  0.00  0.00    -0.265 OA
ATOM     13  C   UNL d   1      -1.903  -4.830  -0.051  0.00  0.00     0.163 C 
ATOM     14  C   UNL d   1       2.213  -2.179  -0.046  0.00  0.00     0.164 C 
ATOM     15  C   UNL d   1      -2.209   1.204  -0.081  0.00  0.00     0.176 C 
ENDROOT
BRANCH   9  16
ATOM     16  N   UNL d   1      -4.733  -0.291  -0.065  0.00  0.00    -0.132 N 
ATOM     17  H   UNL d   1      -4.777   0.631   0.347  0.00  0.00     0.205 HD
BRANCH  16  18
ATOM     18  N   UNL d   1      -5.857  -0.855  -0.578  0.00  0.00    -0.290 N 
ATOM     19  C   UNL d   1      -7.008  -0.243  -0.524  0.00  0.00     0.032 C 
ATOM     20  C   UNL d   1      -7.257   1.101   0.132  0.00  0.00     0.070 C 
ATOM     21  HN  UNL d   1      -5.801  -1.775  -1.013  1.00  0.00     0.187 HD
BRANCH  19  22
ATOM     22  C   UNL d   1      -8.207  -0.919  -1.143  0.00  0.00    -0.013 A 
ATOM     23  C   UNL d   1      -8.057  -2.182  -1.732  0.00  0.00     0.013 A 
ATOM     24  C   UNL d   1      -9.162  -2.852  -2.264  0.00  0.00     0.001 A 
ATOM     25  C   UNL d   1     -10.425  -2.267  -2.217  0.00  0.00     0.000 A 
ATOM     26  C   UNL d   1     -10.584  -1.002  -1.657  0.00  0.00     0.001 A 
ATOM     27  C   UNL d   1      -9.480  -0.327  -1.129  0.00  0.00     0.013 A 
ENDBRANCH  19  22
ENDBRANCH  16  18
ENDBRANCH   9  16
TORSDOF 3
