REMARK  5 active torsions:
REMARK  status: ('A' for Active; 'I' for Inactive)
REMARK    1  A    between atoms: C_4  and  C_1 
REMARK       I    between atoms: N_5  and  C_1 
REMARK    2  A    between atoms: C_2  and  C_3 
REMARK    3  A    between atoms: C_7  and  N_5 
REMARK    4  A    between atoms: O_13  and  C_9 
REMARK    5  A    between atoms: C_17  and  O_13 
ROOT
ATOM      1  C   UNL d   1       1.140   0.241   0.018  0.00  0.00     0.257 C 
ATOM      2  N   UNL d   1       0.255   0.715  -0.935  0.00  0.00    -0.323 N 
ATOM      3  O   UNL d   1       0.907  -0.088   1.174  0.00  0.00    -0.267 OA
ATOM      4  H   UNL d   1       0.625   0.890  -1.862  0.00  0.00     0.169 HD
ENDROOT
BRANCH   1   5
ATOM      5  C   UNL d   1       2.551   0.182  -0.430  0.00  0.00     0.047 A 
ATOM      6  C   UNL d   1       3.348  -0.962  -0.252  0.00  0.00     0.063 A 
ATOM      7  C   UNL d   1       4.714  -0.880  -0.593  0.00  0.00     0.017 A 
ATOM      8  C   UNL d   1       5.262   0.293  -1.110  0.00  0.00     0.001 A 
ATOM      9  C   UNL d   1       4.461   1.413  -1.295  0.00  0.00     0.001 A 
ATOM     10  C   UNL d   1       3.112   1.364  -0.950  0.00  0.00     0.018 A 
BRANCH   6  11
ATOM     11  C   UNL d   1       2.834  -2.273   0.290  0.00  0.00     0.418 C 
ATOM     12  F   UNL d   1       1.488  -2.445   0.265  0.00  0.00    -0.166 F 
ATOM     13  F   UNL d   1       3.324  -3.324  -0.439  0.00  0.00    -0.166 F 
ATOM     14  F   UNL d   1       3.244  -2.509   1.567  0.00  0.00    -0.166 F 
ENDBRANCH   6  11
ENDBRANCH   1   5
BRANCH   2  15
ATOM     15  C   UNL d   1      -1.123   0.987  -0.765  0.00  0.00     0.037 A 
ATOM     16  C   UNL d   1      -1.795   0.836   0.450  0.00  0.00     0.066 A 
ATOM     17  C   UNL d   1      -3.149   1.167   0.563  0.00  0.00     0.071 A 
ATOM     18  C   UNL d   1      -3.854   1.585  -0.566  0.00  0.00     0.037 A 
ATOM     19  C   UNL d   1      -3.198   1.737  -1.784  0.00  0.00     0.005 A 
ATOM     20  C   UNL d   1      -1.833   1.453  -1.880  0.00  0.00     0.029 A 
BRANCH  17  21
ATOM     21  O   UNL d   1      -3.880   1.119   1.719  0.00  0.00    -0.347 OA
BRANCH  21  22
ATOM     22  C   UNL d   1      -3.179   1.312   2.957  0.00  0.00     0.120 C 
ATOM     23  C   UNL d   1      -2.638   2.739   3.071  0.00  0.00     0.040 C 
ATOM     24  C   UNL d   1      -4.190   1.063   4.075  0.00  0.00     0.040 C 
ENDBRANCH  21  22
ENDBRANCH  17  21
ENDBRANCH   2  15
TORSDOF 5
