REMARK  3 active torsions:
REMARK  status: ('A' for Active; 'I' for Inactive)
REMARK    1  A    between atoms: C_3  and  C_1 
REMARK       I    between atoms: N_10  and  C_3 
REMARK    2  A    between atoms: C_12  and  N_10 
REMARK    3  A    between atoms: C_18  and  C_12 
ROOT
ATOM      1  C   UNL d   1      -1.164  -2.812  -0.397  0.00  0.00     0.256 C 
ATOM      2  N   UNL d   1      -0.242  -3.714   0.139  0.00  0.00    -0.348 N 
ATOM      3  O   UNL d   1      -2.139  -3.166  -1.060  0.00  0.00    -0.267 OA
ATOM      4  C   UNL d   1       1.113  -3.353   0.535  0.00  0.00     0.153 C 
ENDROOT
BRANCH   1   5
ATOM      5  C   UNL d   1      -0.997  -1.359  -0.240  0.00  0.00     0.061 A 
ATOM      6  C   UNL d   1      -0.892  -0.716   1.019  0.00  0.00     0.082 A 
ATOM      7  N   UNL d   1      -0.841  -1.280   2.239  0.00  0.00    -0.310 N 
ATOM      8  C   UNL d   1      -0.844   0.798   1.085  0.00  0.00     0.068 A 
ATOM      9  S   UNL d   1      -0.698  -0.047   3.339  0.00  0.00     0.068 SA
ATOM     10  HN  UNL d   1      -0.883  -2.277   2.448  1.00  0.00     0.176 HD
ATOM     11  N   UNL d   1      -0.717   1.272   2.333  0.00  0.00    -0.310 N 
ATOM     12  HN  UNL d   1      -0.646   2.251   2.610  1.00  0.00     0.176 HD
ATOM     13  C   UNL d   1      -0.935   1.589  -0.086  0.00  0.00     0.032 A 
ATOM     14  C   UNL d   1      -1.079   0.895  -1.298  0.00  0.00     0.003 A 
ATOM     15  C   UNL d   1      -1.113  -0.517  -1.372  0.00  0.00     0.019 A 
ENDBRANCH   1   5
BRANCH   2  16
ATOM     16  C   UNL d   1      -0.492  -5.144  -0.070  0.00  0.00     0.165 C 
BRANCH  16  17
ATOM     17  C   UNL d   1      -0.817  -5.913   1.186  0.00  0.00    -0.025 A 
ATOM     18  C   UNL d   1      -0.440  -7.247   1.296  0.00  0.00     0.096 A 
ATOM     19  N   UNL d   1      -0.737  -8.055   2.340  0.00  0.00    -0.375 N 
ATOM     20  C   UNL d   1      -1.473  -7.508   3.330  0.00  0.00     0.087 A 
ATOM     21  HN  UNL d   1      -0.422  -9.024   2.377  1.00  0.00     0.164 HD
ATOM     22  C   UNL d   1      -1.920  -6.198   3.318  0.00  0.00     0.018 A 
ATOM     23  C   UNL d   1      -1.589  -5.395   2.228  0.00  0.00     0.011 A 
ENDBRANCH  16  17
ENDBRANCH   2  16
TORSDOF 3
