REMARK  4 active torsions:
REMARK  status: ('A' for Active; 'I' for Inactive)
REMARK    1  A    between atoms: C_6  and  N_1 
REMARK    2  A    between atoms: C_7  and  C_12 
REMARK    3  A    between atoms: N_8  and  C_16 
REMARK    4  A    between atoms: O_20  and  C_11 
ROOT
ATOM      1  C   UNL d   1       3.664   2.635   3.994  0.00  0.00     0.072 A 
ATOM      2  C   UNL d   1       4.232   1.748   3.046  0.00  0.00     0.059 A 
ATOM      3  C   UNL d   1       4.473   3.256   4.957  0.00  0.00     0.032 A 
ATOM      4  C   UNL d   1       5.623   1.594   3.031  0.00  0.00     0.032 A 
ATOM      5  C   UNL d   1       5.851   3.048   4.952  0.00  0.00     0.002 A 
ATOM      6  C   UNL d   1       6.428   2.231   3.982  0.00  0.00     0.002 A 
ENDROOT
BRANCH   2   7
ATOM      7  N   UNL d   1       3.409   1.175   2.071  0.00  0.00    -0.363 N 
ATOM      8  C   UNL d   1       3.515   0.003   1.526  0.00  0.00     0.102 C 
ATOM      9  HN  UNL d   1       2.630   1.750   1.749  1.00  0.00     0.165 HD
BRANCH   8  10
ATOM     10  C   UNL d   1       4.355  -1.197   1.758  0.00  0.00     0.016 A 
ATOM     11  C   UNL d   1       4.711  -1.923   0.608  0.00  0.00     0.099 A 
ATOM     12  C   UNL d   1       5.127  -3.260   0.710  0.00  0.00     0.069 A 
ATOM     13 CL   UNL d   1       5.420  -4.209  -0.698  0.00  0.00    -0.081 Cl
ATOM     14  C   UNL d   1       5.252  -3.855   1.964  0.00  0.00     0.050 A 
ATOM     15  C   UNL d   1       4.984  -3.093   3.107  0.00  0.00     0.036 A 
ATOM     16  C   UNL d   1       4.514  -1.776   3.015  0.00  0.00     0.039 A 
ATOM     17 CL   UNL d   1       5.167  -3.832   4.652  0.00  0.00    -0.084 Cl
BRANCH  11  18
ATOM     18  O   UNL d   1       4.680  -1.294  -0.604  0.00  0.00    -0.358 OA
ATOM     19  H   UNL d   1       3.893  -1.597  -1.087  0.00  0.00     0.217 HD
ENDBRANCH  11  18
ENDBRANCH   8  10
ENDBRANCH   2   7
BRANCH   1  20
ATOM     20  N   UNL d   1       2.272   2.859   4.021  0.00  0.00    -0.241 N 
ATOM     21  C   UNL d   1       1.605   3.822   3.290  0.00  0.00     0.266 A 
ATOM     22  C   UNL d   1       0.183   3.707   3.693  0.00  0.00     0.048 A 
ATOM     23  O   UNL d   1       2.006   4.662   2.517  0.00  0.00    -0.267 OA
ATOM     24  C   UNL d   1      -0.943   4.403   3.285  0.00  0.00     0.018 A 
ATOM     25  C   UNL d   1       0.099   2.717   4.650  0.00  0.00     0.048 A 
ATOM     26  C   UNL d   1      -2.177   4.030   3.848  0.00  0.00     0.001 A 
ATOM     27  C   UNL d   1      -2.256   2.983   4.788  0.00  0.00     0.001 A 
ATOM     28  C   UNL d   1      -1.101   2.321   5.210  0.00  0.00     0.018 A 
ATOM     29  C   UNL d   1       1.452   2.236   4.928  0.00  0.00     0.266 A 
ATOM     30  O   UNL d   1       1.712   1.468   5.842  0.00  0.00    -0.267 OA
ENDBRANCH   1  20
TORSDOF 4
