REMARK  6 active torsions:
REMARK  status: ('A' for Active; 'I' for Inactive)
REMARK    1  A    between atoms: C_2  and  C_1 
REMARK    2  A    between atoms: C_5  and  C_1 
REMARK    3  A    between atoms: N_8  and  C_5 
REMARK    4  A    between atoms: C_6  and  O_11 
REMARK    5  A    between atoms: C_7  and  C_6 
REMARK    6  A    between atoms: O_11  and  N_8 
ROOT
ATOM      1  C   UNL d   1      -0.379   1.600  -1.351  0.00  0.00     0.109 C 
ATOM      2  N   UNL d   1      -1.342   1.450  -0.398  0.00  0.00    -0.387 N 
ATOM      3  H   UNL d   1      -1.588   2.247   0.176  0.00  0.00     0.157 HD
ATOM      4  H   UNL d   1      -2.090   0.804  -0.615  0.00  0.00     0.157 HD
ENDROOT
BRANCH   1   5
ATOM      5  C   UNL d   1       0.523   2.790  -1.160  0.00  0.00     0.048 A 
ATOM      6  C   UNL d   1      -0.095   4.186  -1.204  0.00  0.00     0.024 A 
ATOM      7  C   UNL d   1       0.730   3.719  -2.357  0.00  0.00     0.024 A 
BRANCH   5   8
ATOM      8  C   UNL d   1       1.719   2.509  -0.245  0.00  0.00    -0.020 A 
ATOM      9  C   UNL d   1       1.688   2.659   1.158  0.00  0.00     0.043 A 
ATOM     10  C   UNL d   1       2.753   2.243   1.964  0.00  0.00     0.048 A 
ATOM     11 CL   UNL d   1       0.304   3.318   1.966  0.00  0.00    -0.084 Cl
ATOM     12  C   UNL d   1       3.873   1.662   1.381  0.00  0.00     0.035 A 
ATOM     13  C   UNL d   1       3.950   1.516   0.001  0.00  0.00     0.024 A 
ATOM     14 CL   UNL d   1       5.156   1.091   2.374  0.00  0.00    -0.084 Cl
ATOM     15  C   UNL d   1       2.885   1.939  -0.799  0.00  0.00     0.012 A 
ENDBRANCH   5   8
ENDBRANCH   1   5
BRANCH   1  16
ATOM     16  N   UNL d   1      -0.132   0.824  -2.355  0.00  0.00    -0.244 N 
ATOM     17  HN  UNL d   1       0.587   0.984  -3.061  1.00  0.00     0.196 HD
BRANCH  16  18
ATOM     18  O   UNL d   1      -1.010  -0.277  -2.322  0.00  0.00    -0.193 OA
BRANCH  18  19
ATOM     19  C   UNL d   1      -0.660  -1.229  -3.249  0.00  0.00     0.322 C 
ATOM     20  O   UNL d   1       0.231  -1.127  -4.088  0.00  0.00    -0.257 OA
BRANCH  19  21
ATOM     21  C   UNL d   1      -1.509  -2.404  -3.102  0.00  0.00     0.082 A 
ATOM     22  S   UNL d   1      -2.648  -2.566  -1.825  0.00  0.00    -0.096 SA
ATOM     23  C   UNL d   1      -3.146  -4.108  -2.363  0.00  0.00     0.050 A 
ATOM     24  C   UNL d   1      -2.468  -4.504  -3.492  0.00  0.00     0.009 A 
ATOM     25  C   UNL d   1      -1.522  -3.526  -3.914  0.00  0.00     0.026 A 
ENDBRANCH  19  21
ENDBRANCH  18  19
ENDBRANCH  16  18
ENDBRANCH   1  16
TORSDOF 6
