REMARK  6 active torsions:
REMARK  status: ('A' for Active; 'I' for Inactive)
REMARK    1  A    between atoms: C_9  and  C_1 
REMARK    2  A    between atoms: N_18  and  C_3 
REMARK    3  A    between atoms: C_12  and  C_6 
REMARK       I    between atoms: N_17  and  C_9 
REMARK    4  A    between atoms: C_23  and  C_10 
REMARK    5  A    between atoms: N_13  and  N_17 
REMARK    6  A    between atoms: C_16  and  C_25 
ROOT
ATOM      1  C   UNL d   1       2.403   0.062   0.059  0.00  0.00     0.174 A 
ATOM      2  C   UNL d   1       0.278   0.854   0.049  0.00  0.00     0.058 A 
ATOM      3  C   UNL d   1       1.646   1.215   0.106  0.00  0.00     0.081 A 
ATOM      4  C   UNL d   1       0.280  -0.544   0.009  0.00  0.00     0.162 A 
ATOM      5  O   UNL d   1       1.569  -1.023   0.011  0.00  0.00    -0.285 OA
ATOM      6  C   UNL d   1      -0.979   1.494   0.050  0.00  0.00     0.017 A 
ATOM      7  N   UNL d   1      -0.794  -1.358  -0.030  0.00  0.00    -0.335 N 
ATOM      8  HN  UNL d   1      -0.715  -2.375  -0.050  1.00  0.00     0.168 HD
ATOM      9  C   UNL d   1      -1.989  -0.714  -0.041  0.00  0.00     0.045 A 
ATOM     10  C   UNL d   1      -2.113   0.676   0.012  0.00  0.00     0.045 A 
ENDROOT
BRANCH   1  11
ATOM     11  C   UNL d   1       3.846  -0.062   0.044  0.00  0.00     0.296 C 
ATOM     12  N   UNL d   1       4.363  -1.351   0.028  0.00  0.00    -0.264 N 
ATOM     13  H   UNL d   1       3.748  -2.158   0.033  0.00  0.00     0.190 HD
ATOM     14  O   UNL d   1       4.580   0.935   0.037  0.00  0.00    -0.264 OA
BRANCH  12  15
ATOM     15  N   UNL d   1       5.721  -1.486   0.060  0.00  0.00    -0.308 N 
ATOM     16  C   UNL d   1       6.222  -2.677   0.024  0.00  0.00     0.120 C 
ATOM     17  HN  UNL d   1       6.326  -0.666   0.110  1.00  0.00     0.186 HD
BRANCH  16  18
ATOM     18  C   UNL d   1       7.694  -2.863   0.096  0.00  0.00     0.002 A 
ATOM     19  C   UNL d   1       8.287  -4.130   0.057  0.00  0.00     0.045 A 
ATOM     20 CL   UNL d   1       7.377  -5.584  -0.145  0.00  0.00    -0.083 Cl
ATOM     21  C   UNL d   1       9.677  -4.254   0.182  0.00  0.00     0.024 A 
ATOM     22  C   UNL d   1      10.480  -3.123   0.340  0.00  0.00     0.002 A 
ATOM     23  C   UNL d   1       9.899  -1.858   0.360  0.00  0.00     0.001 A 
ATOM     24  C   UNL d   1       8.513  -1.728   0.237  0.00  0.00     0.014 A 
ENDBRANCH  16  18
ENDBRANCH  12  15
ENDBRANCH   1  11
BRANCH   3  25
ATOM     25  N   UNL d   1       2.161   2.459   0.188  0.00  0.00    -0.396 N 
ATOM     26  H   UNL d   1       1.589   3.264  -0.065  0.00  0.00     0.156 HD
ATOM     27  H   UNL d   1       3.163   2.607   0.041  0.00  0.00     0.156 HD
ENDBRANCH   3  25
BRANCH   6  28
ATOM     28  C   UNL d   1      -1.114   2.942   0.125  0.00  0.00     0.086 A 
ATOM     29  O   UNL d   1      -0.138   3.699  -0.459  0.00  0.00    -0.322 OA
ATOM     30  C   UNL d   1      -0.446   5.004  -0.247  0.00  0.00     0.142 A 
ATOM     31  C   UNL d   1      -1.637   5.109   0.426  0.00  0.00     0.027 A 
ATOM     32  C   UNL d   1      -2.080   3.783   0.648  0.00  0.00     0.040 A 
ENDBRANCH   6  28
BRANCH   9  33
ATOM     33  C   UNL d   1      -3.195  -1.574  -0.128  0.00  0.00    -0.009 A 
ATOM     34  C   UNL d   1      -3.261  -2.809   0.541  0.00  0.00     0.013 A 
ATOM     35  C   UNL d   1      -4.395  -3.625   0.453  0.00  0.00     0.001 A 
ATOM     36  C   UNL d   1      -5.490  -3.225  -0.308  0.00  0.00     0.000 A 
ATOM     37  C   UNL d   1      -5.457  -2.004  -0.974  0.00  0.00     0.001 A 
ATOM     38  C   UNL d   1      -4.323  -1.191  -0.884  0.00  0.00     0.013 A 
ENDBRANCH   9  33
TORSDOF 6
