REMARK  5 active torsions:
REMARK  status: ('A' for Active; 'I' for Inactive)
REMARK       I    between atoms: N_2  and  C_1 
REMARK       I    between atoms: N_3  and  C_1 
REMARK    1  A    between atoms: C_11  and  N_2 
REMARK    2  A    between atoms: C_10  and  N_3 
REMARK    3  A    between atoms: C_4  and  C_5 
REMARK    4  A    between atoms: O_7  and  C_12 
REMARK    5  A    between atoms: C_15  and  O_7 
ROOT
ATOM      1  C   UNL d   1       1.113   0.053   0.081  0.00  0.00     0.325 C 
ATOM      2  N   UNL d   1       0.506   1.113  -0.577  0.00  0.00    -0.309 N 
ATOM      3  N   UNL d   1       0.220  -0.671   0.849  0.00  0.00    -0.309 N 
ATOM      4  O   UNL d   1       2.311  -0.204   0.004  0.00  0.00    -0.247 OA
ATOM      5  H   UNL d   1      -0.382   1.416  -0.205  0.00  0.00     0.170 HD
ATOM      6  H   UNL d   1      -0.746  -0.652   0.559  0.00  0.00     0.170 HD
ENDROOT
BRANCH   2   7
ATOM      7  C   UNL d   1       1.198   2.031  -1.407  0.00  0.00     0.036 A 
ATOM      8  C   UNL d   1       2.447   1.746  -1.968  0.00  0.00     0.032 A 
ATOM      9  C   UNL d   1       3.161   2.720  -2.663  0.00  0.00     0.039 A 
ATOM     10  C   UNL d   1       2.647   4.009  -2.779  0.00  0.00     0.076 A 
ATOM     11  C   UNL d   1       1.351   4.272  -2.332  0.00  0.00     0.039 A 
ATOM     12  C   UNL d   1       0.625   3.284  -1.651  0.00  0.00     0.032 A 
BRANCH  10  13
ATOM     13  O   UNL d   1       3.351   5.051  -3.341  0.00  0.00    -0.311 OA
BRANCH  13  14
ATOM     14  C   UNL d   1       4.713   5.119  -3.117  0.00  0.00     0.076 A 
ATOM     15  C   UNL d   1       5.493   5.615  -4.162  0.00  0.00     0.037 A 
ATOM     16  C   UNL d   1       6.882   5.681  -4.029  0.00  0.00     0.003 A 
ATOM     17  C   UNL d   1       7.494   5.254  -2.850  0.00  0.00     0.000 A 
ATOM     18  C   UNL d   1       6.715   4.794  -1.790  0.00  0.00     0.003 A 
ATOM     19  C   UNL d   1       5.325   4.753  -1.911  0.00  0.00     0.037 A 
ENDBRANCH  13  14
ENDBRANCH  10  13
ENDBRANCH   2   7
BRANCH   3  20
ATOM     20  C   UNL d   1       0.600  -1.673   1.773  0.00  0.00     0.036 A 
ATOM     21  C   UNL d   1       1.886  -1.762   2.308  0.00  0.00     0.030 A 
ATOM     22  C   UNL d   1       2.216  -2.758   3.230  0.00  0.00     0.010 A 
ATOM     23  C   UNL d   1       1.267  -3.694   3.668  0.00  0.00    -0.051 A 
ATOM     24  C   UNL d   1      -0.022  -3.600   3.119  0.00  0.00     0.010 A 
ATOM     25  C   UNL d   1      -0.355  -2.597   2.192  0.00  0.00     0.030 A 
BRANCH  23  26
ATOM     26  C   UNL d   1       1.663  -4.735   4.728  0.00  0.00    -0.024 C 
ATOM     27  C   UNL d   1       0.503  -5.667   5.137  0.00  0.00     0.019 C 
ATOM     28  C   UNL d   1       2.811  -5.623   4.199  0.00  0.00     0.019 C 
ATOM     29  C   UNL d   1       2.140  -4.010   6.006  0.00  0.00     0.019 C 
ENDBRANCH  23  26
ENDBRANCH   3  20
TORSDOF 5
