REMARK  4 active torsions:
REMARK  status: ('A' for Active; 'I' for Inactive)
REMARK    1  A    between atoms: C_2  and  C_1 
REMARK    2  A    between atoms: N_20  and  C_4 
REMARK    3  A    between atoms: C_17  and  C_10 
REMARK    4  A    between atoms: C_23  and  C_15 
ROOT
ATOM      1  C   UNL d   1       2.369   0.111  -0.025  0.00  0.00     0.150 A 
ATOM      2  C   UNL d   1       1.611   1.265  -0.025  0.00  0.00     0.079 A 
ATOM      3  C   UNL d   1       0.242   0.893   0.035  0.00  0.00     0.058 A 
ATOM      4  C   UNL d   1       0.248  -0.502   0.015  0.00  0.00     0.162 A 
ATOM      5  O   UNL d   1       1.532  -0.971   0.004  0.00  0.00    -0.287 OA
ATOM      6  C   UNL d   1      -1.017   1.521   0.075  0.00  0.00     0.017 A 
ATOM      7  N   UNL d   1      -0.819  -1.323  -0.006  0.00  0.00    -0.335 N 
ATOM      8  HN  UNL d   1      -0.733  -2.339  -0.008  1.00  0.00     0.168 HD
ATOM      9  C   UNL d   1      -2.017  -0.689  -0.026  0.00  0.00     0.045 A 
ATOM     10  C   UNL d   1      -2.150   0.700   0.032  0.00  0.00     0.045 A 
ENDROOT
BRANCH   1  11
ATOM     11  C   UNL d   1       3.796  -0.043  -0.026  0.00  0.00     0.161 A 
ATOM     12  N   UNL d   1       4.473  -1.096  -0.575  0.00  0.00    -0.310 N 
ATOM     13  C   UNL d   1       5.803  -0.781  -0.416  0.00  0.00     0.194 A 
ATOM     14  C   UNL d   1       3.964  -2.226  -1.328  0.00  0.00     0.160 C 
ATOM     15  S   UNL d   1       7.158  -1.588  -0.926  0.00  0.00    -0.039 SA
ATOM     16  N   UNL d   1       5.840   0.424   0.263  0.00  0.00    -0.274 N 
ATOM     17  N   UNL d   1       4.577   0.882   0.475  0.00  0.00    -0.281 N 
ATOM     18  H   UNL d   1       6.664   0.959   0.513  0.00  0.00     0.189 HD
ATOM     19  HN  UNL d   1       4.298   1.753   0.926  1.00  0.00     0.188 HD
ENDBRANCH   1  11
BRANCH   2  20
ATOM     20  N   UNL d   1       2.114   2.516  -0.102  0.00  0.00    -0.396 N 
ATOM     21  H   UNL d   1       3.094   2.674   0.140  0.00  0.00     0.156 HD
ATOM     22  H   UNL d   1       1.519   3.304   0.149  0.00  0.00     0.156 HD
ENDBRANCH   2  20
BRANCH   6  23
ATOM     23  C   UNL d   1      -1.139   2.967   0.142  0.00  0.00     0.086 A 
ATOM     24  O   UNL d   1      -0.207   3.630   0.891  0.00  0.00    -0.322 OA
ATOM     25  C   UNL d   1      -0.503   4.952   0.838  0.00  0.00     0.142 A 
ATOM     26  C   UNL d   1      -1.630   5.159   0.080  0.00  0.00     0.027 A 
ATOM     27  C   UNL d   1      -2.051   3.879  -0.358  0.00  0.00     0.040 A 
ENDBRANCH   6  23
BRANCH   9  28
ATOM     28  C   UNL d   1      -3.209  -1.566  -0.126  0.00  0.00    -0.009 A 
ATOM     29  C   UNL d   1      -3.249  -2.816   0.515  0.00  0.00     0.013 A 
ATOM     30  C   UNL d   1      -4.371  -3.650   0.420  0.00  0.00     0.001 A 
ATOM     31  C   UNL d   1      -5.477  -3.251  -0.325  0.00  0.00     0.000 A 
ATOM     32  C   UNL d   1      -5.465  -2.020  -0.973  0.00  0.00     0.001 A 
ATOM     33  C   UNL d   1      -4.343  -1.190  -0.876  0.00  0.00     0.013 A 
ENDBRANCH   9  28
TORSDOF 4
