REMARK  3 active torsions:
REMARK  status: ('A' for Active; 'I' for Inactive)
REMARK    1  A    between atoms: C_11  and  C_2 
REMARK    2  A    between atoms: C_14  and  C_3 
REMARK    3  A    between atoms: C_16  and  C_11 
ROOT
ATOM      1  C   UNL d   1      -2.450  -0.793   0.536  0.00  0.00     0.231 C 
ATOM      2  C   UNL d   1      -3.938  -2.280   1.165  0.00  0.00     0.095 C 
ATOM      3  C   UNL d   1      -3.701  -1.427  -0.038  0.00  0.00     0.128 C 
ATOM      4  C   UNL d   1      -1.994   0.553   0.011  0.00  0.00     0.206 C 
ATOM      5  C   UNL d   1      -1.182  -1.647   0.461  0.00  0.00     0.206 C 
ATOM      6  N   UNL d   1      -3.549  -1.736   2.283  0.00  0.00    -0.264 N 
ATOM      7  HN  UNL d   1      -3.761  -2.057   3.228  1.00  0.00     0.194 HD
ATOM      8  O   UNL d   1      -2.776  -0.613   1.921  0.00  0.00    -0.251 OA
ATOM      9  C   UNL d   1      -0.064  -0.763   0.175  0.00  0.00     0.028 A 
ATOM     10  C   UNL d   1      -0.529   0.525  -0.071  0.00  0.00     0.028 A 
ATOM     11  O   UNL d   1      -2.676   1.524  -0.270  0.00  0.00    -0.288 OA
ATOM     12  O   UNL d   1      -1.063  -2.847   0.645  0.00  0.00    -0.288 OA
ATOM     13  C   UNL d   1       1.287  -1.074   0.190  0.00  0.00     0.016 A 
ATOM     14  C   UNL d   1       0.349   1.565  -0.299  0.00  0.00     0.016 A 
ATOM     15  C   UNL d   1       1.721   1.279  -0.267  0.00  0.00     0.001 A 
ATOM     16  C   UNL d   1       2.182  -0.032  -0.030  0.00  0.00     0.001 A 
ENDROOT
BRANCH   3  17
ATOM     17  C   UNL d   1      -3.563  -1.872  -1.470  0.00  0.00    -0.044 A 
ATOM     18  C   UNL d   1      -3.893  -0.920  -2.462  0.00  0.00     0.008 A 
ATOM     19  C   UNL d   1      -3.686  -1.171  -3.817  0.00  0.00     0.001 A 
ATOM     20  C   UNL d   1      -3.141  -2.385  -4.213  0.00  0.00     0.000 A 
ATOM     21  C   UNL d   1      -2.821  -3.344  -3.252  0.00  0.00     0.001 A 
ATOM     22  C   UNL d   1      -3.034  -3.093  -1.888  0.00  0.00     0.008 A 
ENDBRANCH   3  17
BRANCH   2  23
ATOM     23  C   UNL d   1      -4.633  -3.621   1.181  0.00  0.00     0.207 C 
ATOM     24  O   UNL d   1      -5.464  -3.863   0.316  0.00  0.00    -0.285 OA
BRANCH  23  25
ATOM     25  C   UNL d   1      -4.330  -4.574   2.299  0.00  0.00     0.016 A 
ATOM     26  C   UNL d   1      -3.131  -4.520   3.026  0.00  0.00     0.015 A 
ATOM     27  C   UNL d   1      -2.929  -5.349   4.133  0.00  0.00     0.001 A 
ATOM     28  C   UNL d   1      -3.910  -6.261   4.506  0.00  0.00     0.000 A 
ATOM     29  C   UNL d   1      -5.088  -6.356   3.765  0.00  0.00     0.001 A 
ATOM     30  C   UNL d   1      -5.298  -5.516   2.664  0.00  0.00     0.015 A 
ENDBRANCH  23  25
ENDBRANCH   2  23
TORSDOF 3
