REMARK  8 active torsions:
REMARK  status: ('A' for Active; 'I' for Inactive)
REMARK    1  A    between atoms: N_2  and  C_1 
REMARK    2  A    between atoms: C_4  and  C_8 
REMARK    3  A    between atoms: N_6  and  C_15 
REMARK    4  A    between atoms: C_10  and  N_6 
REMARK    5  A    between atoms: N_24  and  C_16 
REMARK    6  A    between atoms: C_27  and  N_24 
REMARK    7  A    between atoms: C_25  and  C_26 
REMARK    8  A    between atoms: C_26  and  C_27 
ROOT
ATOM      1  C   UNL d   1      -0.933  -6.830  -0.856  0.00  0.00     0.050 A 
ATOM      2  C   UNL d   1       0.426  -4.934  -0.094  0.00  0.00     0.054 A 
ATOM      3  C   UNL d   1      -0.638  -5.459  -0.850  0.00  0.00     0.047 A 
ATOM      4  C   UNL d   1       1.212  -5.812   0.699  0.00  0.00     0.035 A 
ATOM      5  C   UNL d   1      -0.184  -7.678  -0.037  0.00  0.00     0.018 A 
ATOM      6  C   UNL d   1       0.869  -7.175   0.727  0.00  0.00     0.026 A 
ENDROOT
BRANCH   2   7
ATOM      7  N   UNL d   1       0.673  -3.541  -0.085  0.00  0.00    -0.363 N 
ATOM      8  HN  UNL d   1       0.773  -3.027   0.790  1.00  0.00     0.165 HD
BRANCH   7   9
ATOM      9  C   UNL d   1       0.767  -2.942  -1.233  0.00  0.00     0.107 C 
ATOM     10  C   UNL d   1       0.940  -1.507  -1.306  0.00  0.00     0.022 A 
ATOM     11  S   UNL d   1       0.787  -0.720  -2.819  0.00  0.00    -0.065 SA
ATOM     12  C   UNL d   1       1.199  -0.611  -0.288  0.00  0.00     0.023 A 
ATOM     13  C   UNL d   1       1.045   0.808  -2.120  0.00  0.00     0.144 A 
ATOM     14  C   UNL d   1       1.265   0.739  -0.760  0.00  0.00     0.045 A 
BRANCH  13  15
ATOM     15  N   UNL d   1       1.022   2.002  -2.927  0.00  0.00    -0.108 N 
ATOM     16  O   UNL d   1       1.248   3.068  -2.344  0.00  0.00    -0.531 OA
ATOM     17  O   UNL d   1       0.782   1.887  -4.136  0.00  0.00    -0.531 OA
ENDBRANCH  13  15
ENDBRANCH   7   9
ENDBRANCH   2   7
BRANCH   4  18
ATOM     18  N   UNL d   1       2.316  -5.306   1.414  0.00  0.00    -0.291 NA
ATOM     19  H   UNL d   1       2.001  -4.572   2.049  0.00  0.00     0.127 HD
BRANCH  18  20
ATOM     20  C   UNL d   1       3.298  -6.234   1.974  0.00  0.00     0.098 C 
BRANCH  20  21
ATOM     21  C   UNL d   1       4.573  -5.499   2.386  0.00  0.00     0.071 C 
BRANCH  21  22
ATOM     22  C   UNL d   1       5.665  -6.491   2.701  0.00  0.00     0.010 A 
ATOM     23  N   UNL d   1       5.759  -6.921   3.982  0.00  0.00    -0.369 N 
ATOM     24  C   UNL d   1       6.707  -7.847   4.257  0.00  0.00     0.088 A 
ATOM     25  HN  UNL d   1       5.141  -6.562   4.709  1.00  0.00     0.165 HD
ATOM     26  C   UNL d   1       7.562  -8.383   3.309  0.00  0.00     0.017 A 
ATOM     27  C   UNL d   1       7.445  -7.940   1.998  0.00  0.00     0.003 A 
ATOM     28  C   UNL d   1       6.486  -6.981   1.686  0.00  0.00     0.025 A 
ENDBRANCH  21  22
ENDBRANCH  20  21
ENDBRANCH  18  20
ENDBRANCH   4  18
BRANCH   1  29
ATOM     29  C   UNL d   1      -2.030  -7.391  -1.722  0.00  0.00     0.417 C 
ATOM     30  F   UNL d   1      -2.629  -6.457  -2.513  0.00  0.00    -0.166 F 
ATOM     31  F   UNL d   1      -1.577  -8.356  -2.569  0.00  0.00    -0.166 F 
ATOM     32  F   UNL d   1      -3.028  -7.966  -0.998  0.00  0.00    -0.166 F 
ENDBRANCH   1  29
TORSDOF 8
