REMARK  4 active torsions:
REMARK  status: ('A' for Active; 'I' for Inactive)
REMARK       I    between atoms: N_3  and  C_1 
REMARK    1  A    between atoms: C_4  and  C_1 
REMARK    2  A    between atoms: C_2  and  C_5 
REMARK    3  A    between atoms: C_6  and  C_11 
REMARK    4  A    between atoms: C_13  and  C_6 
ROOT
ATOM      1  C   UNL d   1       0.809   0.138   0.019  0.00  0.00     0.253 C 
ATOM      2  N   UNL d   1       0.127  -0.714   0.890  0.00  0.00    -0.348 N 
ATOM      3  O   UNL d   1       1.867   0.688   0.313  0.00  0.00    -0.267 OA
ATOM      4  C   UNL d   1       0.569  -0.838   2.275  0.00  0.00     0.127 C 
ATOM      5  C   UNL d   1      -1.002  -1.580   0.559  0.00  0.00     0.127 C 
ATOM      6  C   UNL d   1      -1.881  -1.208   2.918  0.00  0.00     0.064 C 
ATOM      7  C   UNL d   1      -2.206  -1.175   1.413  0.00  0.00     0.032 C 
ATOM      8  C   UNL d   1      -0.573  -0.455   3.221  0.00  0.00     0.032 C 
ENDROOT
BRANCH   1   9
ATOM      9  C   UNL d   1       0.247   0.421  -1.334  0.00  0.00     0.033 A 
ATOM     10  C   UNL d   1       1.110   0.514  -2.430  0.00  0.00     0.033 A 
ATOM     11  C   UNL d   1       0.600   0.750  -3.719  0.00  0.00     0.048 A 
ATOM     12  C   UNL d   1      -0.794   0.850  -3.894  0.00  0.00     0.016 A 
ATOM     13  C   UNL d   1      -1.647   0.814  -2.798  0.00  0.00     0.002 A 
ATOM     14  C   UNL d   1      -1.122   0.658  -1.520  0.00  0.00     0.017 A 
BRANCH  11  15
ATOM     15  C   UNL d   1       1.500   0.923  -4.914  0.00  0.00     0.417 C 
ATOM     16  F   UNL d   1       2.828   0.869  -4.617  0.00  0.00    -0.166 F 
ATOM     17  F   UNL d   1       1.288  -0.026  -5.866  0.00  0.00    -0.166 F 
ATOM     18  F   UNL d   1       1.305   2.120  -5.534  0.00  0.00    -0.166 F 
ENDBRANCH  11  15
ENDBRANCH   1   9
BRANCH   6  19
ATOM     19  C   UNL d   1      -1.845  -2.654   3.418  0.00  0.00     0.163 C 
ATOM     20  O   UNL d   1      -1.620  -3.593   2.658  0.00  0.00    -0.292 OA
BRANCH  19  21
ATOM     21  C   UNL d   1      -2.108  -2.959   4.854  0.00  0.00     0.010 A 
ATOM     22  C   UNL d   1      -2.360  -1.972   5.814  0.00  0.00     0.015 A 
ATOM     23  C   UNL d   1      -2.610  -2.337   7.138  0.00  0.00     0.001 A 
ATOM     24  C   UNL d   1      -2.611  -3.680   7.511  0.00  0.00     0.000 A 
ATOM     25  C   UNL d   1      -2.360  -4.668   6.563  0.00  0.00     0.001 A 
ATOM     26  C   UNL d   1      -2.110  -4.307   5.239  0.00  0.00     0.015 A 
ENDBRANCH  19  21
ENDBRANCH   6  19
TORSDOF 4
