REMARK  5 active torsions:
REMARK  status: ('A' for Active; 'I' for Inactive)
REMARK    1  A    between atoms: N_2  and  C_1 
REMARK    2  A    between atoms: C_11  and  N_7 
REMARK    3  A    between atoms: C_9  and  C_11 
REMARK    4  A    between atoms: C_12  and  C_9 
REMARK    5  A    between atoms: O_24  and  C_20 
ROOT
ATOM      1  N   UNL d   1      -0.402   3.069  -0.269  0.00  0.00    -0.279 NA
ATOM      2  N   UNL d   1      -0.041   6.005   0.037  0.00  0.00     0.098 N 
ATOM      3  C   UNL d   1      -1.081   3.804   0.820  0.00  0.00     0.126 C 
ATOM      4  C   UNL d   1       0.893   3.686  -0.639  0.00  0.00     0.126 C 
ATOM      5  C   UNL d   1      -1.281   5.284   0.421  0.00  0.00     0.287 C 
ATOM      6  C   UNL d   1       0.686   5.191  -0.972  0.00  0.00     0.287 C 
ENDROOT
BRANCH   1   7
ATOM      7  C   UNL d   1      -0.350   1.659  -0.119  0.00  0.00     0.025 A 
ATOM      8  C   UNL d   1      -0.478   0.797  -1.248  0.00  0.00     0.012 A 
ATOM      9  C   UNL d   1      -0.518  -0.599  -1.009  0.00  0.00     0.044 A 
ATOM     10  C   UNL d   1      -0.608   1.246  -2.585  0.00  0.00     0.015 A 
ATOM     11  C   UNL d   1      -0.680  -1.467  -2.079  0.00  0.00     0.030 A 
ATOM     12  N   UNL d   1      -0.424  -1.137   0.213  0.00  0.00    -0.359 N 
ATOM     13  C   UNL d   1      -0.795  -1.011  -3.392  0.00  0.00     0.002 A 
ATOM     14  C   UNL d   1      -0.754   0.353  -3.646  0.00  0.00     0.001 A 
ATOM     15  C   UNL d   1      -0.283  -0.313   1.271  0.00  0.00     0.007 A 
ATOM     16  HN  UNL d   1      -0.459  -2.148   0.342  1.00  0.00     0.166 HD
ATOM     17  C   UNL d   1      -0.227   1.068   1.144  0.00  0.00     0.049 A 
ATOM     18  C   UNL d   1      -0.210  -0.945   2.628  0.00  0.00     0.068 C 
ENDBRANCH   1   7
BRANCH   2  19
ATOM     19  C   UNL d   1       0.767   6.322   1.230  0.00  0.00     0.356 C 
BRANCH  19  20
ATOM     20  C   UNL d   1       2.001   7.158   0.908  0.00  0.00     0.187 C 
ATOM     21  O   UNL d   1       3.130   6.681   1.057  0.00  0.00    -0.290 OA
BRANCH  20  22
ATOM     22  C   UNL d   1       1.868   8.574   0.441  0.00  0.00     0.012 A 
ATOM     23  C   UNL d   1       0.662   9.119  -0.012  0.00  0.00     0.018 A 
ATOM     24  C   UNL d   1       0.620  10.425  -0.519  0.00  0.00     0.037 A 
ATOM     25  C   UNL d   1       1.782  11.194  -0.570  0.00  0.00     0.068 A 
ATOM     26  C   UNL d   1       2.972  10.684  -0.057  0.00  0.00     0.037 A 
ATOM     27  C   UNL d   1       3.020   9.376   0.433  0.00  0.00     0.018 A 
BRANCH  25  28
ATOM     28  O   UNL d   1       1.831  12.469  -1.062  0.00  0.00    -0.356 OA
ATOM     29  C   UNL d   1       1.137  12.630  -2.298  0.00  0.00     0.210 C 
ENDBRANCH  25  28
ENDBRANCH  20  22
ENDBRANCH  19  20
ENDBRANCH   2  19
TORSDOF 5
