REMARK  4 active torsions:
REMARK  status: ('A' for Active; 'I' for Inactive)
REMARK       I    between atoms: C_2  and  N_1 
REMARK    1  A    between atoms: C_6  and  N_1 
REMARK    2  A    between atoms: C_3  and  C_2 
REMARK    3  A    between atoms: C_4  and  C_5 
REMARK    4  A    between atoms: O_10  and  C_4 
ROOT
ATOM      1  N   UNL d   1       1.010   0.189   0.217  0.00  0.00    -0.323 N 
ATOM      2  C   UNL d   1       0.469   1.420   0.520  0.00  0.00     0.245 C 
ATOM      3  O   UNL d   1       1.064   2.478   0.686  0.00  0.00    -0.268 OA
ATOM      4  H   UNL d   1       0.422  -0.615   0.399  0.00  0.00     0.169 HD
ENDROOT
BRANCH   1   5
ATOM      5  C   UNL d   1       2.379  -0.104   0.002  0.00  0.00     0.041 A 
ATOM      6  C   UNL d   1       3.332   0.765  -0.560  0.00  0.00    -0.035 A 
ATOM      7  C   UNL d   1       3.010   2.072  -1.230  0.00  0.00     0.050 C 
ATOM      8  C   UNL d   1       4.687   0.374  -0.569  0.00  0.00     0.009 A 
ATOM      9  C   UNL d   1       5.081  -0.886  -0.124  0.00  0.00     0.001 A 
ATOM     10  C   UNL d   1       4.122  -1.785   0.322  0.00  0.00     0.002 A 
ATOM     11  C   UNL d   1       2.782  -1.397   0.381  0.00  0.00     0.030 A 
ENDBRANCH   1   5
BRANCH   2  12
ATOM     12  C   UNL d   1      -1.000   1.360   0.730  0.00  0.00     0.081 C 
ATOM     13  C   UNL d   1      -1.650   2.497   1.020  0.00  0.00     0.086 C 
BRANCH  13  14
ATOM     14  C   UNL d   1      -3.103   2.458   1.238  0.00  0.00     0.165 C 
ATOM     15  O   UNL d   1      -3.779   1.447   1.162  0.00  0.00    -0.647 OA
BRANCH  14  16
ATOM     16  O   UNL d   1      -3.605   3.671   1.537  0.00  0.00    -0.773 OA
ATOM     17  H   UNL d   1      -2.958   4.399   1.575  0.00  0.00     0.167 HD
ENDBRANCH  14  16
ENDBRANCH  13  14
ENDBRANCH   2  12
TORSDOF 4
