REMARK  4 active torsions:
REMARK  status: ('A' for Active; 'I' for Inactive)
REMARK       I    between atoms: N_3  and  C_1 
REMARK       I    between atoms: N_5  and  C_1 
REMARK    1  A    between atoms: C_2  and  N_3 
REMARK    2  A    between atoms: N_4  and  C_6 
REMARK    3  A    between atoms: C_12  and  N_5 
REMARK    4  A    between atoms: C_20  and  C_9 
ROOT
ATOM      1  C   UNL d   1       0.794  -0.488  -0.421  0.00  0.00     0.325 C 
ATOM      2  N   UNL d   1       2.138  -0.475  -0.785  0.00  0.00    -0.308 N 
ATOM      3  N   UNL d   1       0.047   0.401  -1.179  0.00  0.00    -0.309 N 
ATOM      4  O   UNL d   1       0.351  -1.210   0.468  0.00  0.00    -0.247 OA
ATOM      5  H   UNL d   1       2.473   0.458  -0.968  0.00  0.00     0.170 HD
ATOM      6  H   UNL d   1       0.436   0.672  -2.069  0.00  0.00     0.170 HD
ENDROOT
BRANCH   3   7
ATOM      7  C   UNL d   1      -1.289   0.762  -0.904  0.00  0.00     0.036 A 
ATOM      8  C   UNL d   1      -1.904   0.496   0.313  0.00  0.00     0.032 A 
ATOM      9  C   UNL d   1      -3.189   0.957   0.602  0.00  0.00     0.031 A 
ATOM     10  C   UNL d   1      -3.927   1.712  -0.311  0.00  0.00     0.030 A 
ATOM     11  C   UNL d   1      -3.322   1.924  -1.564  0.00  0.00     0.031 A 
ATOM     12  C   UNL d   1      -2.023   1.470  -1.861  0.00  0.00     0.032 A 
BRANCH  10  13
ATOM     13  N   UNL d   1      -5.177   2.216  -0.001  0.00  0.00    -0.381 N 
ATOM     14  C   UNL d   1      -6.035   1.608   1.023  0.00  0.00     0.123 C 
ATOM     15  C   UNL d   1      -6.223   2.560   2.203  0.00  0.00     0.020 C 
ATOM     16  C   UNL d   1      -6.716   3.927   1.736  0.00  0.00     0.003 C 
ATOM     17  C   UNL d   1      -5.797   4.500   0.660  0.00  0.00     0.020 C 
ATOM     18  C   UNL d   1      -5.607   3.523  -0.503  0.00  0.00     0.123 C 
ENDBRANCH  10  13
ENDBRANCH   3   7
BRANCH   2  19
ATOM     19  C   UNL d   1       3.045  -1.376  -0.161  0.00  0.00     0.048 A 
ATOM     20  C   UNL d   1       2.816  -2.775  -0.241  0.00  0.00    -0.035 A 
ATOM     21  C   UNL d   1       3.693  -3.656   0.414  0.00  0.00     0.009 A 
ATOM     22  C   UNL d   1       1.680  -3.418  -0.999  0.00  0.00     0.050 C 
ATOM     23  C   UNL d   1       4.795  -3.176   1.110  0.00  0.00     0.001 A 
ATOM     24  C   UNL d   1       5.040  -1.808   1.162  0.00  0.00     0.009 A 
ATOM     25  C   UNL d   1       4.178  -0.882   0.535  0.00  0.00    -0.031 A 
BRANCH  25  26
ATOM     26  C   UNL d   1       4.431   0.591   0.812  0.00  0.00     0.036 C 
ATOM     27  C   UNL d   1       5.794   1.123   0.380  0.00  0.00     0.010 C 
ENDBRANCH  25  26
ENDBRANCH   2  19
TORSDOF 4
