REMARK  8 active torsions:
REMARK  status: ('A' for Active; 'I' for Inactive)
REMARK    1  A    between atoms: C_4  and  N_1 
REMARK    2  A    between atoms: N_2  and  C_3 
REMARK    3  A    between atoms: N_8  and  C_5 
REMARK    4  A    between atoms: C_6  and  N_7 
REMARK    5  A    between atoms: C_23  and  C_28 
REMARK    6  A    between atoms: C_29  and  C_24 
REMARK    7  A    between atoms: C_27  and  C_29 
REMARK    8  A    between atoms: C_28  and  C_27 
ROOT
ATOM      1  C   UNL d   1       5.888   4.791   1.060  0.00  0.00     0.001 C 
ENDROOT
BRANCH   1   2
ATOM      2  C   UNL d   1       4.878   4.217   0.073  0.00  0.00     0.005 C 
BRANCH   2   3
ATOM      3  C   UNL d   1       3.478   4.838   0.248  0.00  0.00    -0.012 C 
ATOM      4  C   UNL d   1       2.495   4.232  -0.765  0.00  0.00     0.024 C 
ATOM      5  C   UNL d   1       2.117   2.785  -0.438  0.00  0.00     0.123 C 
ATOM      6  N   UNL d   1       1.682   2.679   0.964  0.00  0.00    -0.379 N 
ATOM      7  C   UNL d   1       2.638   3.187   1.959  0.00  0.00     0.123 C 
ATOM      8  C   UNL d   1       2.902   4.660   1.664  0.00  0.00     0.024 C 
BRANCH   6   9
ATOM      9  C   UNL d   1       0.463   2.147   1.358  0.00  0.00     0.063 A 
ATOM     10  C   UNL d   1      -0.239   1.096   0.733  0.00  0.00     0.129 A 
ATOM     11  C   UNL d   1      -1.486   0.623   1.193  0.00  0.00     0.038 A 
ATOM     12  C   UNL d   1      -2.072   1.192   2.315  0.00  0.00     0.003 A 
ATOM     13  C   UNL d   1      -1.420   2.232   2.963  0.00  0.00     0.002 A 
ATOM     14  C   UNL d   1      -0.188   2.697   2.485  0.00  0.00     0.032 A 
BRANCH  10  15
ATOM     15  N   UNL d   1       0.300   0.378  -0.406  0.00  0.00    -0.113 N 
ATOM     16  O   UNL d   1       1.345  -0.270  -0.242  0.00  0.00    -0.532 OA
ATOM     17  O   UNL d   1      -0.350   0.430  -1.460  0.00  0.00    -0.532 OA
ENDBRANCH  10  15
ENDBRANCH   6   9
ENDBRANCH   2   3
ENDBRANCH   1   2
BRANCH   1  18
ATOM     18  C   UNL d   1       7.258   4.153   0.876  0.00  0.00     0.005 C 
BRANCH  18  19
ATOM     19  C   UNL d   1       8.307   4.741   1.838  0.00  0.00    -0.012 C 
ATOM     20  C   UNL d   1       8.519   6.255   1.660  0.00  0.00     0.024 C 
ATOM     21  C   UNL d   1       9.120   6.565   0.290  0.00  0.00     0.123 C 
ATOM     22  N   UNL d   1      10.396   5.846   0.163  0.00  0.00    -0.379 N 
ATOM     23  C   UNL d   1      10.326   4.388   0.320  0.00  0.00     0.123 C 
ATOM     24  C   UNL d   1       9.657   4.034   1.651  0.00  0.00     0.024 C 
BRANCH  22  25
ATOM     25  C   UNL d   1      11.562   6.523  -0.158  0.00  0.00     0.063 A 
ATOM     26  C   UNL d   1      12.624   6.046  -0.954  0.00  0.00     0.129 A 
ATOM     27  C   UNL d   1      13.800   6.784  -1.189  0.00  0.00     0.038 A 
ATOM     28  C   UNL d   1      13.941   8.050  -0.638  0.00  0.00     0.003 A 
ATOM     29  C   UNL d   1      12.921   8.568   0.144  0.00  0.00     0.002 A 
ATOM     30  C   UNL d   1      11.766   7.813   0.382  0.00  0.00     0.032 A 
BRANCH  26  31
ATOM     31  N   UNL d   1      12.552   4.778  -1.657  0.00  0.00    -0.113 N 
ATOM     32  O   UNL d   1      11.683   4.648  -2.529  0.00  0.00    -0.532 OA
ATOM     33  O   UNL d   1      13.405   3.926  -1.362  0.00  0.00    -0.532 OA
ENDBRANCH  26  31
ENDBRANCH  22  25
ENDBRANCH  18  19
ENDBRANCH   1  18
TORSDOF 8
