REMARK  5 active torsions:
REMARK  status: ('A' for Active; 'I' for Inactive)
REMARK    1  A    between atoms: O_3  and  C_1 
REMARK    2  A    between atoms: N_9  and  C_1 
REMARK    3  A    between atoms: C_2  and  O_3 
REMARK    4  A    between atoms: C_14  and  N_9 
REMARK    5  A    between atoms: C_15  and  N_9 
ROOT
ATOM      1  C   UNL d   1      -0.874   1.137  -0.741  0.00  0.00     0.113 A 
ATOM      2  C   UNL d   1      -1.305   2.162   0.097  0.00  0.00     0.047 A 
ATOM      3  C   UNL d   1      -1.792   0.434  -1.529  0.00  0.00     0.047 A 
ATOM      4  C   UNL d   1      -3.161   0.705  -1.413  0.00  0.00     0.041 A 
ATOM      5  C   UNL d   1      -2.671   2.421   0.226  0.00  0.00     0.041 A 
ATOM      6  C   UNL d   1      -3.589   1.680  -0.515  0.00  0.00     0.013 A 
ATOM      7 BR   UNL d   1      -0.085   3.252   1.056  0.00  0.00    -0.048 Br
ATOM      8 BR   UNL d   1      -1.240  -0.878  -2.784  0.00  0.00    -0.048 Br
ATOM      9 BR   UNL d   1      -5.440   2.008  -0.300  0.00  0.00    -0.051 Br
ENDROOT
BRANCH   1  10
ATOM     10  O   UNL d   1       0.506   0.820  -0.815  0.00  0.00    -0.282 OA
BRANCH  10  11
ATOM     11  C   UNL d   1       1.183   0.016   0.128  0.00  0.00     0.217 C 
ATOM     12  S   UNL d   1       0.347  -0.770   1.355  0.00  0.00    -0.033 SA
BRANCH  11  13
ATOM     13  N   UNL d   1       2.562  -0.048  -0.102  0.00  0.00    -0.353 N 
BRANCH  13  14
ATOM     14  C   UNL d   1       3.434  -1.029   0.563  0.00  0.00     0.121 C 
ATOM     15  C   UNL d   1       4.170  -0.457   1.765  0.00  0.00     0.026 C 
ENDBRANCH  13  14
BRANCH  13  16
ATOM     16  C   UNL d   1       3.200   0.844  -1.075  0.00  0.00     0.121 C 
ATOM     17  C   UNL d   1       3.239   0.238  -2.468  0.00  0.00     0.026 C 
ENDBRANCH  13  16
ENDBRANCH  11  13
ENDBRANCH  10  11
ENDBRANCH   1  10
TORSDOF 5
