REMARK  11 active torsions:
REMARK  status: ('A' for Active; 'I' for Inactive)
REMARK    1  A    between atoms: N_3  and  C_1 
REMARK    2  A    between atoms: N_4  and  C_1 
REMARK       I    between atoms: C_2  and  N_5 
REMARK    3  A    between atoms: C_13  and  C_2 
REMARK    4  A    between atoms: N_5  and  N_3 
REMARK    5  A    between atoms: C_11  and  N_4 
REMARK    6  A    between atoms: C_9  and  C_19 
REMARK    7  A    between atoms: S_10  and  C_13 
REMARK    8  A    between atoms: C_19  and  S_10 
REMARK    9  A    between atoms: C_25  and  C_14 
REMARK   10  A    between atoms: C_26  and  C_25 
REMARK   11  A    between atoms: C_27  and  C_26 
ROOT
ATOM      1  C   UNL d   1       0.441   3.430   1.314  0.00  0.00     0.245 C 
ATOM      2  N   UNL d   1       1.259   2.427   0.822  0.00  0.00    -0.267 N 
ATOM      3  O   UNL d   1      -0.769   3.285   1.485  0.00  0.00    -0.271 OA
ATOM      4  H   UNL d   1       2.173   2.669   0.443  0.00  0.00     0.190 HD
ENDROOT
BRANCH   2   5
ATOM      5  N   UNL d   1       0.611   1.352   0.196  0.00  0.00    -0.274 N 
ATOM      6  H   UNL d   1      -0.410   1.406   0.201  0.00  0.00     0.189 HD
BRANCH   5   7
ATOM      7  C   UNL d   1       1.171   0.100   0.097  0.00  0.00     0.191 C 
ATOM      8  S   UNL d   1       2.634  -0.358   0.762  0.00  0.00    -0.039 SA
BRANCH   7   9
ATOM      9  N   UNL d   1       0.427  -0.831  -0.590  0.00  0.00    -0.332 N 
ATOM     10  H   UNL d   1       0.680  -1.796  -0.405  0.00  0.00     0.168 HD
BRANCH   9  11
ATOM     11  C   UNL d   1      -0.545  -0.612  -1.590  0.00  0.00     0.034 A 
ATOM     12  C   UNL d   1      -0.619   0.579  -2.314  0.00  0.00     0.030 A 
ATOM     13  C   UNL d   1      -1.613   0.770  -3.271  0.00  0.00     0.009 A 
ATOM     14  C   UNL d   1      -2.539  -0.236  -3.545  0.00  0.00    -0.058 A 
ATOM     15  C   UNL d   1      -2.429  -1.455  -2.866  0.00  0.00     0.009 A 
ATOM     16  C   UNL d   1      -1.431  -1.645  -1.900  0.00  0.00     0.030 A 
BRANCH  14  17
ATOM     17  C   UNL d   1      -3.644   0.024  -4.539  0.00  0.00     0.038 C 
BRANCH  17  18
ATOM     18  C   UNL d   1      -5.032   0.107  -3.896  0.00  0.00     0.004 C 
BRANCH  18  19
ATOM     19  C   UNL d   1      -5.153   1.225  -2.853  0.00  0.00    -0.004 C 
ATOM     20  C   UNL d   1      -6.543   1.256  -2.238  0.00  0.00     0.005 C 
ENDBRANCH  18  19
ENDBRANCH  17  18
ENDBRANCH  14  17
ENDBRANCH   9  11
ENDBRANCH   7   9
ENDBRANCH   5   7
ENDBRANCH   2   5
BRANCH   1  21
ATOM     21  C   UNL d   1       1.146   4.749   1.548  0.00  0.00     0.178 C 
BRANCH  21  22
ATOM     22  S   UNL d   1       1.489   5.570  -0.044  0.00  0.00    -0.155 SA
BRANCH  22  23
ATOM     23  C   UNL d   1      -0.227   5.816  -0.622  0.00  0.00     0.113 C 
BRANCH  23  24
ATOM     24  C   UNL d   1      -0.277   6.528  -1.961  0.00  0.00    -0.038 A 
ATOM     25  C   UNL d   1      -0.186   5.839  -3.206  0.00  0.00    -0.019 A 
ATOM     26  C   UNL d   1      -0.295   6.587  -4.407  0.00  0.00    -0.025 A 
ATOM     27  C   UNL d   1       0.015   4.447  -3.328  0.00  0.00     0.013 A 
ATOM     28  C   UNL d   1      -0.239   5.939  -5.653  0.00  0.00     0.012 A 
ATOM     29  C   UNL d   1      -0.450   7.979  -4.355  0.00  0.00     0.012 A 
ATOM     30  C   UNL d   1      -0.045   4.563  -5.738  0.00  0.00     0.001 A 
ATOM     31  C   UNL d   1       0.100   3.821  -4.576  0.00  0.00     0.001 A 
ATOM     32  C   UNL d   1      -0.495   8.646  -3.136  0.00  0.00     0.001 A 
ATOM     33  C   UNL d   1      -0.413   7.928  -1.949  0.00  0.00     0.009 A 
ENDBRANCH  23  24
ENDBRANCH  22  23
ENDBRANCH  21  22
ENDBRANCH   1  21
TORSDOF 11
