REMARK  1 active torsions:
REMARK  status: ('A' for Active; 'I' for Inactive)
REMARK       I    between atoms: N_2  and  C_1 
REMARK       I    between atoms: N_5  and  C_1 
REMARK    1  A    between atoms: C_10  and  N_5 
ROOT
ATOM      1  C   UNL d   1       0.735  -0.103  -0.220  0.00  0.00     0.328 C 
ATOM      2  N   UNL d   1       0.110   0.172  -1.455  0.00  0.00    -0.293 N 
ATOM      3  C   UNL d   1      -0.812   1.311  -1.478  0.00  0.00     0.099 C 
ATOM      4  N   UNL d   1       1.164   1.986  -3.648  0.00  0.00    -0.325 N 
ATOM      5  N   UNL d   1       1.577  -1.193  -0.187  0.00  0.00    -0.306 N 
ATOM      6  C   UNL d   1       0.605  -0.285  -2.706  0.00  0.00     0.066 A 
ATOM      7  C   UNL d   1       0.659   2.928  -2.821  0.00  0.00     0.224 C 
ATOM      8  C   UNL d   1      -0.069   2.629  -1.545  0.00  0.00     0.128 C 
ATOM      9  C   UNL d   1       1.111   0.581  -3.694  0.00  0.00     0.062 A 
ATOM     10  O   UNL d   1       0.509   0.588   0.776  0.00  0.00    -0.246 OA
ATOM     11  O   UNL d   1       0.859   4.109  -3.136  0.00  0.00    -0.273 OA
ATOM     12  C   UNL d   1      -1.952   1.176  -2.497  0.00  0.00     0.033 C 
ATOM     13  C   UNL d   1       0.500  -1.659  -2.995  0.00  0.00     0.032 A 
ATOM     14  C   UNL d   1       1.613   0.024  -4.885  0.00  0.00     0.032 A 
ATOM     15  C   UNL d   1       0.979  -2.188  -4.193  0.00  0.00     0.002 A 
ATOM     16  C   UNL d   1       1.556  -1.348  -5.132  0.00  0.00     0.002 A 
ATOM     17  H   UNL d   1       1.607   2.440  -4.440  0.00  0.00     0.169 HD
ATOM     18  H   UNL d   1       1.341  -1.942  -0.818  0.00  0.00     0.171 HD
ENDROOT
BRANCH   5  19
ATOM     19  C   UNL d   1       2.239  -1.631   0.984  0.00  0.00     0.075 A 
ATOM     20  C   UNL d   1       2.317  -3.011   1.215  0.00  0.00     0.146 A 
ATOM     21  C   UNL d   1       2.893  -3.521   2.372  0.00  0.00     0.086 A 
ATOM     22  F   UNL d   1       1.773  -3.860   0.329  0.00  0.00    -0.204 F 
ATOM     23  C   UNL d   1       3.436  -2.634   3.291  0.00  0.00     0.119 A 
ATOM     24  C   UNL d   1       3.413  -1.260   3.065  0.00  0.00     0.044 A 
ATOM     25  F   UNL d   1       3.991  -3.108   4.414  0.00  0.00    -0.206 F 
ATOM     26  C   UNL d   1       2.807  -0.754   1.911  0.00  0.00     0.036 A 
ENDBRANCH   5  19
TORSDOF 1
