REMARK  4 active torsions:
REMARK  status: ('A' for Active; 'I' for Inactive)
REMARK    1  A    between atoms: N_2  and  C_1 
REMARK    2  A    between atoms: N_3  and  C_8 
REMARK    3  A    between atoms: N_6  and  C_4 
REMARK    4  A    between atoms: C_9  and  N_7 
ROOT
ATOM      1  N   UNL d   1       1.076  -2.589  -0.291  0.00  0.00    -0.376 N 
ATOM      2  N   UNL d   1       2.094  -5.194  -0.938  0.00  0.00    -0.376 N 
ATOM      3  C   UNL d   1       1.855  -3.337   0.723  0.00  0.00     0.143 C 
ATOM      4  C   UNL d   1       0.301  -3.500  -1.171  0.00  0.00     0.143 C 
ATOM      5  C   UNL d   1       2.811  -4.354   0.043  0.00  0.00     0.143 C 
ATOM      6  C   UNL d   1       1.282  -4.434  -1.912  0.00  0.00     0.143 C 
ENDROOT
BRANCH   1   7
ATOM      7  C   UNL d   1       0.545  -1.339  -0.005  0.00  0.00     0.063 A 
ATOM      8  C   UNL d   1       0.322  -0.353  -0.994  0.00  0.00     0.131 A 
ATOM      9  C   UNL d   1      -0.221   0.913  -0.715  0.00  0.00     0.074 A 
ATOM     10  C   UNL d   1      -0.541   1.222   0.605  0.00  0.00     0.105 A 
ATOM     11  C   UNL d   1      -0.317   0.289   1.622  0.00  0.00     0.038 A 
ATOM     12  C   UNL d   1       0.220  -0.970   1.312  0.00  0.00     0.034 A 
BRANCH   8  13
ATOM     13  N   UNL d   1       0.701  -0.589  -2.376  0.00  0.00    -0.113 N 
ATOM     14  O   UNL d   1       1.900  -0.765  -2.627  0.00  0.00    -0.532 OA
ATOM     15  O   UNL d   1      -0.212  -0.558  -3.212  0.00  0.00    -0.532 OA
ENDBRANCH   8  13
BRANCH  10  16
ATOM     16  N   UNL d   1      -1.108   2.536   0.928  0.00  0.00    -0.116 N 
ATOM     17  O   UNL d   1      -1.272   3.334  -0.004  0.00  0.00    -0.532 OA
ATOM     18  O   UNL d   1      -1.392   2.766   2.113  0.00  0.00    -0.532 OA
ENDBRANCH  10  16
ENDBRANCH   1   7
BRANCH   2  19
ATOM     19  C   UNL d   1       2.106  -6.578  -0.908  0.00  0.00     0.052 A 
ATOM     20  C   UNL d   1       3.228  -7.380  -0.589  0.00  0.00     0.060 A 
ATOM     21 CL   UNL d   1       4.818  -6.735  -0.321  0.00  0.00    -0.082 Cl
ATOM     22  C   UNL d   1       3.146  -8.784  -0.561  0.00  0.00     0.026 A 
ATOM     23  C   UNL d   1       1.957  -9.432  -0.877  0.00  0.00     0.002 A 
ATOM     24  C   UNL d   1       0.844  -8.678  -1.214  0.00  0.00     0.002 A 
ATOM     25  C   UNL d   1       0.921  -7.280  -1.219  0.00  0.00     0.031 A 
ENDBRANCH   2  19
TORSDOF 4
