REMARK  0 active torsions:
REMARK  status: ('A' for Active; 'I' for Inactive)
ROOT
ATOM      1  N   UNL d   1      -0.915   0.437   0.001  0.00  0.00    -0.284 N 
ATOM      2  C   UNL d   1      -1.539  -0.769   0.001  0.00  0.00     0.172 A 
ATOM      3  S   UNL d   1      -0.437  -2.103   0.000  0.00  0.00    -0.050 SA
ATOM      4  N   UNL d   1      -2.835  -0.623   0.001  0.00  0.00    -0.278 N 
ATOM      5  HN  UNL d   1      -3.537  -1.363   0.000  1.00  0.00     0.189 HD
ATOM      6  C   UNL d   1       0.469   0.415   0.001  0.00  0.00     0.059 A 
ATOM      7  N   UNL d   1      -3.065   0.755   0.001  0.00  0.00    -0.294 N 
ATOM      8  HN  UNL d   1      -3.979   1.208   0.001  1.00  0.00     0.187 HD
ATOM      9  C   UNL d   1       0.918  -0.917   0.000  0.00  0.00     0.035 A 
ATOM     10  C   UNL d   1      -1.894   1.371   0.001  0.00  0.00     0.207 A 
ATOM     11  C   UNL d   1       1.323   1.501   0.001  0.00  0.00     0.031 A 
ATOM     12  C   UNL d   1       2.274  -1.187  -0.000  0.00  0.00     0.021 A 
ATOM     13  C   UNL d   1       2.692   1.224   0.001  0.00  0.00     0.002 A 
ATOM     14  C   UNL d   1       3.163  -0.104  -0.000  0.00  0.00     0.002 A 
ENDROOT
TORSDOF 0
