REMARK  8 active torsions:
REMARK  status: ('A' for Active; 'I' for Inactive)
REMARK    1  A    between atoms: C_8  and  N_1 
REMARK    2  A    between atoms: S_9  and  C_2 
REMARK    3  A    between atoms: O_20  and  C_3 
REMARK    4  A    between atoms: C_10  and  C_8 
REMARK    5  A    between atoms: C_19  and  S_9 
REMARK    6  A    between atoms: C_11  and  C_19 
REMARK       I    between atoms: N_13  and  C_11 
REMARK    7  A    between atoms: C_23  and  N_13 
REMARK    8  A    between atoms: C_24  and  C_14 
ROOT
ATOM      1  N   UNL d   1      -0.432  -0.775   0.113  0.00  0.00    -0.285 N 
ATOM      2  C   UNL d   1       0.525  -1.609  -0.388  0.00  0.00     0.165 C 
ATOM      3  C   UNL d   1      -1.626  -1.307  -0.313  0.00  0.00     0.240 C 
ATOM      4  N   UNL d   1      -0.045  -2.504  -1.172  0.00  0.00    -0.277 N 
ATOM      5  HN  UNL d   1       0.438  -3.221  -1.713  1.00  0.00     0.189 HD
ATOM      6  N   UNL d   1      -1.403  -2.302  -1.133  0.00  0.00    -0.263 N 
ATOM      7  HN  UNL d   1      -2.107  -2.829  -1.648  1.00  0.00     0.190 HD
ENDROOT
BRANCH   2   8
ATOM      8  S   UNL d   1       2.231  -1.564  -0.031  0.00  0.00    -0.083 SA
BRANCH   8   9
ATOM      9  C   UNL d   1       2.728  -2.927  -1.126  0.00  0.00     0.185 C 
BRANCH   9  10
ATOM     10  C   UNL d   1       4.194  -3.306  -1.169  0.00  0.00     0.231 C 
ATOM     11  N   UNL d   1       4.923  -3.231   0.005  0.00  0.00    -0.327 N 
ATOM     12  H   UNL d   1       4.414  -3.027   0.857  0.00  0.00     0.169 HD
ATOM     13  O   UNL d   1       4.627  -3.788  -2.220  0.00  0.00    -0.272 OA
BRANCH  11  14
ATOM     14  C   UNL d   1       6.288  -3.605   0.133  0.00  0.00     0.034 A 
ATOM     15  C   UNL d   1       7.156  -3.701  -0.959  0.00  0.00     0.030 A 
ATOM     16  C   UNL d   1       8.494  -4.081  -0.795  0.00  0.00     0.010 A 
ATOM     17  C   UNL d   1       9.006  -4.376   0.472  0.00  0.00    -0.055 A 
ATOM     18  C   UNL d   1       8.136  -4.281   1.569  0.00  0.00     0.010 A 
ATOM     19  C   UNL d   1       6.797  -3.885   1.404  0.00  0.00     0.030 A 
BRANCH  17  20
ATOM     20  C   UNL d   1      10.470  -4.734   0.671  0.00  0.00     0.010 C 
ATOM     21  C   UNL d   1      10.899  -5.965  -0.134  0.00  0.00     0.015 C 
ATOM     22  C   UNL d   1      11.371  -3.540   0.337  0.00  0.00     0.015 C 
ENDBRANCH  17  20
ENDBRANCH  11  14
ENDBRANCH   9  10
ENDBRANCH   8   9
ENDBRANCH   2   8
BRANCH   1  23
ATOM     23  C   UNL d   1      -0.296   0.489   0.802  0.00  0.00     0.200 C 
BRANCH  23  24
ATOM     24  C   UNL d   1      -0.443   0.319   2.267  0.00  0.00     0.070 A 
ATOM     25  O   UNL d   1      -1.553  -0.350   2.705  0.00  0.00    -0.325 OA
ATOM     26  C   UNL d   1      -1.473  -0.408   4.057  0.00  0.00     0.142 A 
ATOM     27  C   UNL d   1      -0.346   0.246   4.499  0.00  0.00     0.027 A 
ATOM     28  C   UNL d   1       0.312   0.727   3.343  0.00  0.00     0.036 A 
ENDBRANCH  23  24
ENDBRANCH   1  23
BRANCH   3  29
ATOM     29  O   UNL d   1      -2.827  -0.899   0.056  0.00  0.00    -0.331 OA
ATOM     30  H   UNL d   1      -2.771  -0.655   1.002  0.00  0.00     0.221 HD
ENDBRANCH   3  29
TORSDOF 8
