REMARK  3 active torsions:
REMARK  status: ('A' for Active; 'I' for Inactive)
REMARK    1  A    between atoms: N_7  and  C_1 
REMARK    2  A    between atoms: N_5  and  C_12 
REMARK       I    between atoms: C_9  and  N_7 
REMARK    3  A    between atoms: C_12  and  C_9 
ROOT
ATOM      1  C   UNL d   1      -1.866  -3.685   1.564  0.00  0.00     0.098 C 
ATOM      2  C   UNL d   1      -3.017  -3.214   0.975  0.00  0.00     0.085 C 
ATOM      3  S   UNL d   1      -2.170  -4.766   2.838  0.00  0.00    -0.075 SA
ATOM      4  C   UNL d   1      -4.199  -3.814   1.575  0.00  0.00    -0.026 C 
ATOM      5  C   UNL d   1      -3.845  -4.775   2.517  0.00  0.00    -0.012 C 
ATOM      6  C   UNL d   1      -3.061  -2.185  -0.029  0.00  0.00     0.103 C 
ATOM      7  N   UNL d   1      -3.172  -1.326  -0.806  0.00  0.00    -0.191 NA
ATOM      8  C   UNL d   1      -5.621  -3.472   1.251  0.00  0.00     0.051 C 
ATOM      9  C   UNL d   1      -4.732  -5.715   3.265  0.00  0.00     0.057 C 
ENDROOT
BRANCH   1  10
ATOM     10  N   UNL d   1      -0.514  -3.487   1.388  0.00  0.00    -0.319 N 
ATOM     11  C   UNL d   1       0.064  -3.388   0.134  0.00  0.00     0.240 C 
ATOM     12  O   UNL d   1      -0.555  -3.392  -0.928  0.00  0.00    -0.271 OA
ATOM     13  H   UNL d   1       0.075  -3.803   2.149  0.00  0.00     0.169 HD
BRANCH  11  14
ATOM     14  C   UNL d   1       1.602  -3.335   0.181  0.00  0.00     0.226 C 
BRANCH  14  15
ATOM     15  N   UNL d   1       2.095  -1.984   0.010  0.00  0.00    -0.371 N 
ATOM     16  C   UNL d   1       2.803  -1.200   0.888  0.00  0.00     0.037 A 
ATOM     17  C   UNL d   1       2.986   0.095   0.392  0.00  0.00    -0.030 A 
ATOM     18  C   UNL d   1       3.337  -1.530   2.122  0.00  0.00     0.030 A 
ATOM     19  C   UNL d   1       3.657   1.078   1.104  0.00  0.00     0.009 A 
ATOM     20  C   UNL d   1       2.377   0.214  -0.968  0.00  0.00     0.060 A 
ATOM     21  C   UNL d   1       4.181   0.745   2.350  0.00  0.00     0.001 A 
ATOM     22  C   UNL d   1       4.030  -0.554   2.852  0.00  0.00     0.002 A 
ATOM     23  C   UNL d   1       1.776  -1.189  -1.178  0.00  0.00     0.128 A 
ENDBRANCH  14  15
ENDBRANCH  11  14
ENDBRANCH   1  10
TORSDOF 3
