REMARK  7 active torsions:
REMARK  status: ('A' for Active; 'I' for Inactive)
REMARK    1  A    between atoms: C_10  and  C_1 
REMARK    2  A    between atoms: N_12  and  C_4 
REMARK    3  A    between atoms: S_15  and  C_8 
REMARK    4  A    between atoms: C_14  and  C_10 
REMARK    5  A    between atoms: N_11  and  C_18 
REMARK    6  A    between atoms: C_17  and  S_15 
REMARK    7  A    between atoms: C_18  and  C_17 
ROOT
ATOM      1  C   UNL d   1      -2.145   0.425   0.079  0.00  0.00     0.085 A 
ATOM      2  C   UNL d   1       0.198   0.697   0.038  0.00  0.00     0.051 A 
ATOM      3  C   UNL d   1      -0.020  -0.672   0.031  0.00  0.00     0.095 A 
ATOM      4  C   UNL d   1      -1.074   1.343   0.063  0.00  0.00     0.062 A 
ATOM      5  S   UNL d   1      -1.656  -1.294   0.048  0.00  0.00    -0.065 SA
ATOM      6  N   UNL d   1       0.971  -1.516   0.008  0.00  0.00    -0.319 N 
ATOM      7  HN  UNL d   1       0.925  -2.534  -0.006  1.00  0.00     0.175 HD
ATOM      8  C   UNL d   1       1.520   1.002  -0.013  0.00  0.00     0.073 A 
ATOM      9  S   UNL d   1       2.355  -0.536   0.006  0.00  0.00    -0.006 SA
ENDROOT
BRANCH   8  10
ATOM     10  S   UNL d   1       2.285   2.570  -0.024  0.00  0.00    -0.118 SA
BRANCH  10  11
ATOM     11  C   UNL d   1       3.585   2.380  -1.287  0.00  0.00     0.110 C 
BRANCH  11  12
ATOM     12  C   UNL d   1       3.027   2.340  -2.724  0.00  0.00     0.283 C 
BRANCH  12  13
ATOM     13  N   UNL d   1       4.117   2.473  -3.702  0.00  0.00     0.093 N 
ATOM     14  C   UNL d   1       4.925   1.249  -3.882  0.00  0.00     0.298 C 
ATOM     15  C   UNL d   1       4.374   0.237  -4.902  0.00  0.00     0.198 C 
ATOM     16  O   UNL d   1       4.093   0.859  -6.159  0.00  0.00    -0.388 OA
ATOM     17  C   UNL d   1       3.135   1.908  -5.980  0.00  0.00     0.198 C 
ATOM     18  C   UNL d   1       3.666   2.978  -5.015  0.00  0.00     0.298 C 
ENDBRANCH  12  13
ENDBRANCH  11  12
ENDBRANCH  10  11
ENDBRANCH   8  10
BRANCH   4  19
ATOM     19  N   UNL d   1      -1.194   2.688   0.048  0.00  0.00    -0.397 N 
ATOM     20  H   UNL d   1      -0.378   3.300   0.051  0.00  0.00     0.156 HD
ATOM     21  H   UNL d   1      -2.075   3.193   0.005  0.00  0.00     0.156 HD
ENDBRANCH   4  19
BRANCH   1  22
ATOM     22  C   UNL d   1      -3.590   0.641   0.063  0.00  0.00     0.201 C 
ATOM     23  O   UNL d   1      -4.355  -0.047  -0.611  0.00  0.00    -0.286 OA
BRANCH  22  24
ATOM     24  C   UNL d   1      -4.215   1.731   0.871  0.00  0.00     0.015 A 
ATOM     25  C   UNL d   1      -3.649   2.216   2.056  0.00  0.00     0.015 A 
ATOM     26  C   UNL d   1      -4.293   3.225   2.779  0.00  0.00     0.001 A 
ATOM     27  C   UNL d   1      -5.513   3.738   2.336  0.00  0.00     0.000 A 
ATOM     28  C   UNL d   1      -6.096   3.243   1.172  0.00  0.00     0.001 A 
ATOM     29  C   UNL d   1      -5.451   2.243   0.443  0.00  0.00     0.015 A 
ENDBRANCH  22  24
ENDBRANCH   1  22
TORSDOF 7
