REMARK  6 active torsions:
REMARK  status: ('A' for Active; 'I' for Inactive)
REMARK    1  A    between atoms: N_12  and  C_3 
REMARK    2  A    between atoms: C_10  and  C_4 
REMARK    3  A    between atoms: S_13  and  C_8 
REMARK    4  A    between atoms: N_11  and  C_16 
REMARK    5  A    between atoms: C_15  and  S_13 
REMARK    6  A    between atoms: C_16  and  C_15 
ROOT
ATOM      1  C   UNL d   1       0.339   0.657  -0.084  0.00  0.00     0.051 A 
ATOM      2  C   UNL d   1      -0.033  -0.541   0.531  0.00  0.00     0.095 A 
ATOM      3  C   UNL d   1      -0.794   1.049  -0.874  0.00  0.00     0.061 A 
ATOM      4  C   UNL d   1      -1.871   0.134  -0.823  0.00  0.00     0.079 A 
ATOM      5  S   UNL d   1      -1.617  -1.243   0.247  0.00  0.00    -0.065 SA
ATOM      6  N   UNL d   1       0.764  -1.192   1.322  0.00  0.00    -0.319 N 
ATOM      7  HN  UNL d   1       0.580  -2.065   1.817  1.00  0.00     0.175 HD
ATOM      8  C   UNL d   1       1.613   1.007   0.270  0.00  0.00     0.073 A 
ATOM      9  S   UNL d   1       2.175  -0.264   1.347  0.00  0.00    -0.006 SA
ENDROOT
BRANCH   8  10
ATOM     10  S   UNL d   1       2.704   2.303  -0.169  0.00  0.00    -0.118 SA
BRANCH  10  11
ATOM     11  C   UNL d   1       1.697   3.789   0.058  0.00  0.00     0.110 C 
BRANCH  11  12
ATOM     12  C   UNL d   1       2.532   5.077  -0.094  0.00  0.00     0.283 C 
BRANCH  12  13
ATOM     13  N   UNL d   1       1.699   6.300  -0.184  0.00  0.00     0.089 N 
ATOM     14  C   UNL d   1       0.853   6.307  -1.390  0.00  0.00     0.272 C 
ATOM     15  C   UNL d   1      -0.046   7.541  -1.435  0.00  0.00     0.030 C 
ATOM     16  C   UNL d   1       0.774   8.820  -1.380  0.00  0.00     0.003 C 
ATOM     17  C   UNL d   1       1.725   8.786  -0.190  0.00  0.00     0.030 C 
ATOM     18  C   UNL d   1       2.557   7.500  -0.165  0.00  0.00     0.272 C 
ENDBRANCH  12  13
ENDBRANCH  11  12
ENDBRANCH  10  11
ENDBRANCH   8  10
BRANCH   3  19
ATOM     19  N   UNL d   1      -0.863   2.167  -1.629  0.00  0.00    -0.397 N 
ATOM     20  H   UNL d   1      -0.051   2.669  -1.967  0.00  0.00     0.156 HD
ATOM     21  H   UNL d   1      -1.718   2.383  -2.151  0.00  0.00     0.156 HD
ENDBRANCH   3  19
BRANCH   4  22
ATOM     22  C   UNL d   1      -3.132   0.252  -1.570  0.00  0.00     0.164 C 
ATOM     23  O   UNL d   1      -3.481   1.310  -2.101  0.00  0.00    -0.292 OA
ATOM     24  C   UNL d   1      -4.043  -0.949  -1.740  0.00  0.00     0.097 C 
ENDBRANCH   4  22
TORSDOF 6
