REMARK  2 active torsions:
REMARK  status: ('A' for Active; 'I' for Inactive)
REMARK    1  A    between atoms: C_14  and  N_1 
REMARK       I    between atoms: C_9  and  N_10 
REMARK    2  A    between atoms: N_10  and  C_11 
ROOT
ATOM      1  N   UNL d   1      -1.246   1.390   0.069  0.00  0.00    -0.372 N 
ATOM      2  C   UNL d   1      -0.025   0.692   0.032  0.00  0.00     0.039 A 
ATOM      3  C   UNL d   1      -2.449   0.699  -0.460  0.00  0.00     0.026 C 
ATOM      4  C   UNL d   1       0.015  -0.716  -0.098  0.00  0.00    -0.028 A 
ATOM      5  C   UNL d   1       1.220   1.352   0.126  0.00  0.00     0.059 A 
ATOM      6  C   UNL d   1      -1.248  -1.553  -0.140  0.00  0.00     0.019 C 
ATOM      7  C   UNL d   1      -2.486  -0.712   0.162  0.00  0.00     0.039 C 
ATOM      8  C   UNL d   1       1.249  -1.396  -0.141  0.00  0.00     0.012 A 
ATOM      9  C   UNL d   1       2.448   0.678   0.079  0.00  0.00     0.036 A 
ATOM     10  C   UNL d   1       2.452  -0.704  -0.071  0.00  0.00     0.030 A 
ATOM     11  C   UNL d   1      -2.401   0.701  -2.000  0.00  0.00     0.038 C 
ATOM     12  C   UNL d   1      -3.781   1.366  -0.052  0.00  0.00     0.038 C 
ATOM     13  C   UNL d   1      -1.400  -2.362  -1.434  0.00  0.00     0.015 C 
ENDROOT
BRANCH   9  14
ATOM     14  N   UNL d   1       3.701   1.323   0.160  0.00  0.00    -0.327 N 
ATOM     15  C   UNL d   1       3.941   2.627   0.544  0.00  0.00     0.218 C 
ATOM     16  O   UNL d   1       3.112   3.441   0.951  0.00  0.00    -0.274 OA
ATOM     17  C   UNL d   1       5.393   3.019   0.454  0.00  0.00     0.117 C 
ATOM     18  H   UNL d   1       4.508   0.737  -0.008  0.00  0.00     0.169 HD
ENDBRANCH   9  14
BRANCH   1  19
ATOM     19  C   UNL d   1      -1.294   2.795   0.503  0.00  0.00     0.119 C 
ATOM     20  C   UNL d   1      -1.128   3.779  -0.646  0.00  0.00     0.026 C 
ENDBRANCH   1  19
TORSDOF 2
