REMARK  5 active torsions:
REMARK  status: ('A' for Active; 'I' for Inactive)
REMARK    1  A    between atoms: C_11  and  C_1 
REMARK    2  A    between atoms: N_17  and  C_3 
REMARK    3  A    between atoms: S_20  and  C_6 
REMARK    4  A    between atoms: N_22  and  C_10 
REMARK    5  A    between atoms: C_12  and  C_11 
ROOT
ATOM      1  C   UNL d   1      -2.379  -0.562   0.002  0.00  0.00     0.085 A 
ATOM      2  C   UNL d   1      -0.299   0.607  -0.005  0.00  0.00     0.044 A 
ATOM      3  C   UNL d   1      -1.762   0.682  -0.007  0.00  0.00     0.061 A 
ATOM      4  C   UNL d   1       0.085  -0.727  -0.001  0.00  0.00     0.090 A 
ATOM      5  S   UNL d   1      -1.203  -1.816  -0.059  0.00  0.00    -0.065 SA
ATOM      6  C   UNL d   1       0.782   1.548   0.022  0.00  0.00     0.039 A 
ATOM      7  C   UNL d   1       2.107   1.054   0.057  0.00  0.00     0.100 A 
ATOM      8  N   UNL d   1       1.334  -1.221   0.045  0.00  0.00    -0.339 N 
ATOM      9  HN  UNL d   1       1.518  -2.225   0.052  1.00  0.00     0.167 HD
ATOM     10  C   UNL d   1       2.318  -0.323   0.081  0.00  0.00     0.101 A 
ATOM     11  C   UNL d   1       3.249   1.920   0.043  0.00  0.00     0.104 C 
ATOM     12  N   UNL d   1       4.183   2.606   0.026  0.00  0.00    -0.191 NA
ENDROOT
BRANCH   6  13
ATOM     13  S   UNL d   1       0.383   3.293  -0.081  0.00  0.00    -0.132 SA
ATOM     14  C   UNL d   1       1.043   3.924   1.493  0.00  0.00     0.095 C 
ENDBRANCH   6  13
BRANCH  10  15
ATOM     15  N   UNL d   1       3.584  -0.893   0.216  0.00  0.00    -0.287 NA
ATOM     16  H   UNL d   1       3.477  -1.906   0.168  0.00  0.00     0.125 HD
ATOM     17  H   UNL d   1       4.271  -0.555  -0.449  0.00  0.00     0.125 HD
ENDBRANCH  10  15
BRANCH   3  18
ATOM     18  N   UNL d   1      -2.422   1.861   0.038  0.00  0.00    -0.397 N 
ATOM     19  H   UNL d   1      -1.905   2.743   0.073  0.00  0.00     0.156 HD
ATOM     20  H   UNL d   1      -3.402   1.973   0.277  0.00  0.00     0.156 HD
ENDBRANCH   3  18
BRANCH   1  21
ATOM     21  C   UNL d   1      -3.758  -1.028   0.108  0.00  0.00     0.201 C 
ATOM     22  O   UNL d   1      -4.046  -2.096   0.657  0.00  0.00    -0.286 OA
BRANCH  21  23
ATOM     23  C   UNL d   1      -4.931  -0.281  -0.433  0.00  0.00     0.017 A 
ATOM     24  C   UNL d   1      -4.857   0.588  -1.525  0.00  0.00     0.041 A 
ATOM     25  C   UNL d   1      -6.020   1.214  -2.004  0.00  0.00     0.056 A 
ATOM     26 CL   UNL d   1      -5.849   2.304  -3.335  0.00  0.00    -0.083 Cl
ATOM     27  C   UNL d   1      -7.264   0.953  -1.413  0.00  0.00     0.055 A 
ATOM     28  C   UNL d   1      -7.346   0.060  -0.346  0.00  0.00     0.026 A 
ATOM     29 CL   UNL d   1      -8.728   1.690  -1.956  0.00  0.00    -0.083 Cl
ATOM     30  C   UNL d   1      -6.189  -0.551   0.138  0.00  0.00     0.017 A 
ENDBRANCH  21  23
ENDBRANCH   1  21
TORSDOF 5
