REMARK  4 active torsions:
REMARK  status: ('A' for Active; 'I' for Inactive)
REMARK       I    between atoms: N_3  and  C_1 
REMARK    1  A    between atoms: C_5  and  C_1 
REMARK    2  A    between atoms: C_2  and  N_4 
REMARK    3  A    between atoms: N_10  and  C_2 
REMARK    4  A    between atoms: N_4  and  N_3 
ROOT
ATOM      1  C   UNL d   1       1.131  -0.090   0.102  0.00  0.00     0.286 C 
ATOM      2  N   UNL d   1       0.319   0.551   1.015  0.00  0.00    -0.262 N 
ATOM      3  O   UNL d   1       2.342  -0.231   0.259  0.00  0.00    -0.264 OA
ATOM      4  H   UNL d   1      -0.684   0.652   0.854  0.00  0.00     0.190 HD
ENDROOT
BRANCH   1   5
ATOM      5  C   UNL d   1       0.418  -0.604  -1.109  0.00  0.00     0.102 A 
ATOM      6  N   UNL d   1      -0.920  -0.357  -1.180  0.00  0.00    -0.361 N 
ATOM      7  C   UNL d   1      -1.556  -0.813  -2.282  0.00  0.00     0.088 A 
ATOM      8  HN  UNL d   1      -1.414   0.145  -0.443  1.00  0.00     0.165 HD
ATOM      9  C   UNL d   1      -0.926  -1.502  -3.309  0.00  0.00     0.017 A 
ATOM     10  C   UNL d   1       0.440  -1.744  -3.206  0.00  0.00     0.004 A 
ATOM     11  C   UNL d   1       1.131  -1.289  -2.087  0.00  0.00     0.035 A 
ENDBRANCH   1   5
BRANCH   2  12
ATOM     12  N   UNL d   1       0.882   1.082   2.176  0.00  0.00    -0.274 N 
ATOM     13  H   UNL d   1       1.890   0.971   2.256  0.00  0.00     0.189 HD
BRANCH  12  14
ATOM     14  C   UNL d   1       0.131   1.789   3.100  0.00  0.00     0.186 C 
ATOM     15  S   UNL d   1      -1.516   2.058   2.940  0.00  0.00    -0.040 SA
BRANCH  14  16
ATOM     16  N   UNL d   1       0.911   2.219   4.155  0.00  0.00    -0.370 N 
ATOM     17  C   UNL d   1       0.483   2.960   5.328  0.00  0.00     0.148 C 
ATOM     18  H   UNL d   1       1.892   1.982   4.122  0.00  0.00     0.161 HD
ENDBRANCH  14  16
ENDBRANCH  12  14
ENDBRANCH   2  12
TORSDOF 4
