REMARK  4 active torsions:
REMARK  status: ('A' for Active; 'I' for Inactive)
REMARK    1  A    between atoms: C_9  and  C_3 
REMARK    2  A    between atoms: O_11  and  C_4 
REMARK    3  A    between atoms: S_10  and  C_5 
REMARK    4  A    between atoms: C_12  and  C_9 
ROOT
ATOM      1  N   UNL d   1       0.488   0.761  -0.848  0.00  0.00    -0.317 N 
ATOM      2  HN  UNL d   1       0.825   1.280  -1.659  1.00  0.00     0.170 HD
ATOM      3  C   UNL d   1      -0.692  -1.122   0.092  0.00  0.00     0.019 A 
ATOM      4  C   UNL d   1      -0.230  -0.361  -0.968  0.00  0.00     0.150 A 
ATOM      5  C   UNL d   1       0.736   1.160   0.401  0.00  0.00     0.143 A 
ATOM      6  N   UNL d   1       0.310   0.537   1.510  0.00  0.00    -0.340 N 
ATOM      7  HN  UNL d   1       0.516   0.907   2.438  1.00  0.00     0.167 HD
ATOM      8  C   UNL d   1      -0.400  -0.600   1.347  0.00  0.00     0.018 A 
ATOM      9  C   UNL d   1      -0.865  -1.253   2.618  0.00  0.00     0.069 C 
ENDROOT
BRANCH   3  10
ATOM     10  C   UNL d   1      -1.446  -2.409  -0.099  0.00  0.00     0.083 C 
BRANCH  10  11
ATOM     11  C   UNL d   1      -2.958  -2.336  -0.023  0.00  0.00    -0.054 A 
ATOM     12  C   UNL d   1      -3.679  -1.133   0.011  0.00  0.00     0.007 A 
ATOM     13  C   UNL d   1      -5.072  -1.140   0.113  0.00  0.00     0.001 A 
ATOM     14  C   UNL d   1      -5.765  -2.346   0.168  0.00  0.00     0.000 A 
ATOM     15  C   UNL d   1      -5.068  -3.549   0.110  0.00  0.00     0.001 A 
ATOM     16  C   UNL d   1      -3.675  -3.544   0.012  0.00  0.00     0.007 A 
ENDBRANCH  10  11
ENDBRANCH   3  10
BRANCH   4  17
ATOM     17  O   UNL d   1      -0.486  -0.697  -2.265  0.00  0.00    -0.346 OA
ATOM     18  H   UNL d   1      -1.363  -1.110  -2.304  0.00  0.00     0.219 HD
ENDBRANCH   4  17
BRANCH   5  19
ATOM     19  S   UNL d   1       1.688   2.635   0.597  0.00  0.00    -0.107 SA
ATOM     20  H   UNL d   1       1.859   2.794  -0.721  0.00  0.00     0.110 HD
ENDBRANCH   5  19
TORSDOF 4
