REMARK  4 active torsions:
REMARK  status: ('A' for Active; 'I' for Inactive)
REMARK    1  A    between atoms: C_14  and  N_2 
REMARK    2  A    between atoms: C_9  and  C_3 
REMARK    3  A    between atoms: C_22  and  C_8 
REMARK    4  A    between atoms: N_10  and  C_15 
ROOT
ATOM      1  C   UNL d   1      -1.266   0.049   0.008  0.00  0.00     0.161 A 
ATOM      2  N   UNL d   1      -3.413  -0.573  -0.622  0.00  0.00    -0.281 N 
ATOM      3  C   UNL d   1      -2.320   0.134   1.087  0.00  0.00     0.064 C 
ATOM      4  N   UNL d   1      -3.497  -0.278   0.713  0.00  0.00    -0.299 N 
ATOM      5  HN  UNL d   1      -4.324  -0.364   1.303  1.00  0.00     0.187 HD
ATOM      6  C   UNL d   1      -0.325   1.220  -0.131  0.00  0.00     0.185 A 
ATOM      7  C   UNL d   1      -0.337  -1.133   0.191  0.00  0.00     0.185 A 
ATOM      8  C   UNL d   1      -2.175  -0.063  -1.226  0.00  0.00     0.171 C 
ATOM      9  C   UNL d   1       1.038  -0.667   0.049  0.00  0.00     0.025 A 
ATOM     10  C   UNL d   1       1.051   0.709  -0.118  0.00  0.00     0.025 A 
ATOM     11  O   UNL d   1      -0.608  -2.269   0.535  0.00  0.00    -0.290 OA
ATOM     12  O   UNL d   1      -0.605   2.396  -0.238  0.00  0.00    -0.290 OA
ATOM     13  C   UNL d   1       2.239   1.411  -0.191  0.00  0.00     0.016 A 
ATOM     14  C   UNL d   1       2.197  -1.409   0.160  0.00  0.00     0.016 A 
ATOM     15  C   UNL d   1       3.407  -0.719   0.088  0.00  0.00     0.001 A 
ATOM     16  C   UNL d   1       3.428   0.679  -0.087  0.00  0.00     0.001 A 
ENDROOT
BRANCH   3  17
ATOM     17  C   UNL d   1      -2.025   0.542   2.490  0.00  0.00     0.011 A 
ATOM     18  C   UNL d   1      -2.908   1.335   3.241  0.00  0.00     0.048 A 
ATOM     19  C   UNL d   1      -2.641   1.606   4.592  0.00  0.00     0.048 A 
ATOM     20 CL   UNL d   1      -4.323   2.067   2.572  0.00  0.00    -0.083 Cl
ATOM     21  C   UNL d   1      -1.494   1.098   5.194  0.00  0.00     0.035 A 
ATOM     22  C   UNL d   1      -0.598   0.336   4.457  0.00  0.00     0.025 A 
ATOM     23 CL   UNL d   1      -1.184   1.397   6.859  0.00  0.00    -0.084 Cl
ATOM     24  C   UNL d   1      -0.866   0.053   3.116  0.00  0.00     0.017 A 
ENDBRANCH   3  17
BRANCH   8  25
ATOM     25  C   UNL d   1      -1.606  -0.922  -2.351  0.00  0.00    -0.032 A 
ATOM     26  C   UNL d   1      -0.842  -0.321  -3.365  0.00  0.00     0.009 A 
ATOM     27  C   UNL d   1      -0.293  -1.091  -4.394  0.00  0.00     0.001 A 
ATOM     28  C   UNL d   1      -0.496  -2.469  -4.425  0.00  0.00     0.000 A 
ATOM     29  C   UNL d   1      -1.237  -3.083  -3.421  0.00  0.00     0.001 A 
ATOM     30  C   UNL d   1      -1.781  -2.317  -2.390  0.00  0.00     0.009 A 
ENDBRANCH   8  25
BRANCH   2  31
ATOM     31  C   UNL d   1      -4.559  -0.976  -1.300  0.00  0.00     0.051 A 
ATOM     32  C   UNL d   1      -5.396  -1.942  -0.714  0.00  0.00     0.033 A 
ATOM     33  C   UNL d   1      -6.478  -2.495  -1.405  0.00  0.00     0.038 A 
ATOM     34  C   UNL d   1      -6.761  -2.048  -2.697  0.00  0.00     0.103 A 
ATOM     35  C   UNL d   1      -5.981  -1.049  -3.287  0.00  0.00     0.038 A 
ATOM     36  C   UNL d   1      -4.883  -0.527  -2.588  0.00  0.00     0.033 A 
BRANCH  34  37
ATOM     37  N   UNL d   1      -7.873  -2.645  -3.445  0.00  0.00    -0.116 N 
ATOM     38  O   UNL d   1      -8.114  -2.196  -4.577  0.00  0.00    -0.532 OA
ATOM     39  O   UNL d   1      -8.503  -3.568  -2.910  0.00  0.00    -0.532 OA
ENDBRANCH  34  37
ENDBRANCH   2  31
TORSDOF 4
