REMARK  3 active torsions:
REMARK  status: ('A' for Active; 'I' for Inactive)
REMARK    1  A    between atoms: N_2  and  S_1 
REMARK    2  A    between atoms: C_4  and  S_1 
REMARK    3  A    between atoms: C_7  and  C_3 
ROOT
ATOM      1  N   UNL d   1       0.618  -1.060   1.098  0.00  0.00    -0.298 N 
ATOM      2  C   UNL d   1       1.519  -1.071   2.283  0.00  0.00     0.130 C 
ATOM      3  C   UNL d   1       0.272  -2.473   0.790  0.00  0.00     0.136 C 
ATOM      4  C   UNL d   1       2.315  -2.366   2.083  0.00  0.00     0.033 C 
ATOM      5  C   UNL d   1       1.284  -3.336   1.534  0.00  0.00     0.023 C 
ENDROOT
BRANCH   1   6
ATOM      6  S   UNL d   1       0.790   0.001  -0.214  0.00  0.00     0.261 S 
ATOM      7  O   UNL d   1       0.709   1.359   0.277  0.00  0.00    -0.200 OA
ATOM      8  O   UNL d   1      -0.095  -0.443  -1.269  0.00  0.00    -0.200 OA
BRANCH   6   9
ATOM      9  C   UNL d   1       2.454  -0.276  -0.787  0.00  0.00     0.079 A 
ATOM     10  C   UNL d   1       2.804  -1.507  -1.355  0.00  0.00     0.028 A 
ATOM     11  C   UNL d   1       4.134  -1.752  -1.700  0.00  0.00     0.044 A 
ATOM     12  C   UNL d   1       5.086  -0.753  -1.521  0.00  0.00     0.116 A 
ATOM     13  C   UNL d   1       4.731   0.495  -1.020  0.00  0.00     0.044 A 
ATOM     14  F   UNL d   1       6.364  -1.001  -1.834  0.00  0.00    -0.206 F 
ATOM     15  C   UNL d   1       3.408   0.741  -0.654  0.00  0.00     0.028 A 
ENDBRANCH   6   9
ENDBRANCH   1   6
BRANCH   2  16
ATOM     16  C   UNL d   1       2.306   0.153   2.669  0.00  0.00    -0.019 A 
ATOM     17  C   UNL d   1       3.699   0.200   2.698  0.00  0.00     0.096 A 
ATOM     18  N   UNL d   1       4.427   1.263   3.115  0.00  0.00    -0.375 N 
ATOM     19  C   UNL d   1       3.740   2.342   3.540  0.00  0.00     0.087 A 
ATOM     20  HN  UNL d   1       5.447   1.247   3.108  1.00  0.00     0.164 HD
ATOM     21  C   UNL d   1       2.360   2.408   3.562  0.00  0.00     0.018 A 
ATOM     22  C   UNL d   1       1.641   1.299   3.124  0.00  0.00     0.012 A 
ENDBRANCH   2  16
TORSDOF 3
