REMARK  1 active torsions:
REMARK  status: ('A' for Active; 'I' for Inactive)
REMARK    1  A    between atoms: N_16  and  C_5 
ROOT
ATOM      1  C   UNL d   1      -0.632   0.041   0.082  0.00  0.00     0.037 C 
ATOM      2  C   UNL d   1       1.843  -0.373  -0.045  0.00  0.00     0.173 A 
ATOM      3  C   UNL d   1       0.809   0.525   0.017  0.00  0.00     0.032 A 
ATOM      4  C   UNL d   1      -0.597  -1.519   0.324  0.00  0.00     0.081 C 
ATOM      5  C   UNL d   1       0.543  -2.265   0.225  0.00  0.00     0.140 C 
ATOM      6  O   UNL d   1       1.795  -1.696  -0.021  0.00  0.00    -0.279 OA
ATOM      7  N   UNL d   1       2.996   0.335  -0.137  0.00  0.00    -0.279 N 
ATOM      8  N   UNL d   1       2.792   1.663  -0.117  0.00  0.00    -0.303 N 
ATOM      9  HN  UNL d   1       3.492   2.403  -0.156  1.00  0.00     0.186 HD
ATOM     10  C   UNL d   1       1.457   1.794  -0.033  0.00  0.00     0.033 A 
ATOM     11  C   UNL d   1      -1.798  -2.220   0.659  0.00  0.00     0.100 C 
ATOM     12  C   UNL d   1      -1.397   0.813   1.184  0.00  0.00     0.050 C 
ATOM     13  C   UNL d   1      -1.305   0.350  -1.279  0.00  0.00     0.050 C 
ATOM     14  N   UNL d   1      -2.748  -2.822   0.954  0.00  0.00    -0.191 NA
ATOM     15  N   UNL d   1      -3.499   0.837  -0.203  0.00  0.00     0.084 N 
ATOM     16  C   UNL d   1      -2.812   0.117  -1.278  0.00  0.00     0.273 C 
ATOM     17  C   UNL d   1      -2.919   0.669   1.133  0.00  0.00     0.273 C 
ATOM     18  C   UNL d   1      -4.910   0.425  -0.172  0.00  0.00     0.309 C 
ATOM     19  C   UNL d   1       0.875   3.160  -0.000  0.00  0.00     0.070 C 
ATOM     20  H   UNL d   1       3.944  -0.016  -0.205  0.00  0.00     0.189 HD
ENDROOT
BRANCH   5  21
ATOM     21  N   UNL d   1       0.611  -3.634   0.357  0.00  0.00    -0.282 NA
ATOM     22  H   UNL d   1      -0.138  -4.074   0.885  0.00  0.00     0.126 HD
ATOM     23  H   UNL d   1       1.538  -3.950   0.628  0.00  0.00     0.126 HD
ENDBRANCH   5  21
TORSDOF 1
