REMARK  6 active torsions:
REMARK  status: ('A' for Active; 'I' for Inactive)
REMARK    1  A    between atoms: C_19  and  N_5 
REMARK    2  A    between atoms: N_18  and  C_7 
REMARK    3  A    between atoms: C_13  and  C_21 
REMARK    4  A    between atoms: C_22  and  C_19 
REMARK    5  A    between atoms: N_20  and  C_22 
REMARK    6  A    between atoms: C_21  and  N_20 
ROOT
ATOM      1  C   UNL d   1       0.733  -0.881   0.496  0.00  0.00     0.116 A 
ATOM      2  N   UNL d   1       0.769  -0.822  -0.884  0.00  0.00    -0.346 N 
ATOM      3  HN  UNL d   1       0.494  -1.548  -1.545  1.00  0.00     0.167 HD
ATOM      4  C   UNL d   1       1.199   0.301   1.051  0.00  0.00     0.140 A 
ATOM      5  N   UNL d   1       1.498   1.097  -0.020  0.00  0.00    -0.326 N 
ATOM      6  C   UNL d   1       1.237   0.378  -1.157  0.00  0.00     0.185 A 
ATOM      7  C   UNL d   1       0.329  -1.884   1.394  0.00  0.00     0.109 A 
ATOM      8  N   UNL d   1       1.317   0.594   2.357  0.00  0.00    -0.336 N 
ATOM      9  HN  UNL d   1       1.657   1.483   2.723  1.00  0.00     0.168 HD
ATOM     10  N   UNL d   1       0.452  -1.651   2.720  0.00  0.00    -0.341 N 
ATOM     11  HN  UNL d   1       0.195  -2.364   3.403  1.00  0.00     0.167 HD
ATOM     12  C   UNL d   1       0.925  -0.449   3.118  0.00  0.00     0.183 A 
ENDROOT
BRANCH   5  13
ATOM     13  C   UNL d   1       1.989   2.461   0.029  0.00  0.00     0.161 C 
BRANCH  13  14
ATOM     14  C   UNL d   1       0.834   3.473   0.007  0.00  0.00     0.290 C 
BRANCH  14  15
ATOM     15  N   UNL d   1       1.307   4.863   0.010  0.00  0.00     0.091 N 
ATOM     16  H   UNL d   1       1.870   5.054  -0.821  0.00  0.00     0.316 HD
BRANCH  15  17
ATOM     17  C   UNL d   1       0.163   5.785  -0.009  0.00  0.00     0.334 C 
BRANCH  17  18
ATOM     18  C   UNL d   1       0.608   7.205   0.014  0.00  0.00     0.080 A 
ATOM     19  O   UNL d   1       0.794   7.812  -1.196  0.00  0.00    -0.325 OA
ATOM     20  C   UNL d   1       1.134   9.103  -0.943  0.00  0.00     0.142 A 
ATOM     21  C   UNL d   1       1.177   9.334   0.412  0.00  0.00     0.027 A 
ATOM     22  C   UNL d   1       0.846   8.105   1.032  0.00  0.00     0.036 A 
ENDBRANCH  17  18
ENDBRANCH  15  17
ENDBRANCH  14  15
ENDBRANCH  13  14
ENDBRANCH   5  13
BRANCH   7  23
ATOM     23  N   UNL d   1      -0.181  -3.111   0.987  0.00  0.00    -0.287 NA
ATOM     24  H   UNL d   1       0.065  -3.356   0.034  0.00  0.00     0.125 HD
ATOM     25  H   UNL d   1      -0.082  -3.822   1.699  0.00  0.00     0.125 HD
ENDBRANCH   7  23
TORSDOF 6
