REMARK  5 active torsions:
REMARK  status: ('A' for Active; 'I' for Inactive)
REMARK    1  A    between atoms: C_8  and  C_1 
REMARK    2  A    between atoms: C_6  and  C_13 
REMARK    3  A    between atoms: O_12  and  N_9 
REMARK    4  A    between atoms: C_11  and  O_12 
REMARK    5  A    between atoms: C_14  and  C_11 
ROOT
ATOM      1  O   UNL d   1      -2.886  -2.323  -0.073  0.00  0.00    -0.195 OA
ENDROOT
BRANCH   1   2
ATOM      2  C   UNL d   1      -3.858  -2.907   0.702  0.00  0.00     0.315 C 
ATOM      3  O   UNL d   1      -3.667  -3.721   1.599  0.00  0.00    -0.257 OA
BRANCH   2   4
ATOM      4  C   UNL d   1      -5.234  -2.463   0.346  0.00  0.00     0.041 A 
ATOM      5  C   UNL d   1      -6.292  -3.024   1.080  0.00  0.00     0.018 A 
ATOM      6  C   UNL d   1      -7.620  -2.709   0.785  0.00  0.00     0.017 A 
ATOM      7  C   UNL d   1      -7.922  -1.823  -0.256  0.00  0.00     0.048 A 
ATOM      8  C   UNL d   1      -6.863  -1.253  -0.986  0.00  0.00     0.017 A 
ATOM      9  C   UNL d   1      -5.528  -1.570  -0.692  0.00  0.00     0.018 A 
BRANCH   7  10
ATOM     10  C   UNL d   1      -9.357  -1.491  -0.595  0.00  0.00     0.417 C 
ATOM     11  F   UNL d   1     -10.265  -2.135   0.192  0.00  0.00    -0.166 F 
ATOM     12  F   UNL d   1      -9.630  -0.163  -0.468  0.00  0.00    -0.166 F 
ATOM     13  F   UNL d   1      -9.678  -1.819  -1.877  0.00  0.00    -0.166 F 
ENDBRANCH   7  10
ENDBRANCH   2   4
ENDBRANCH   1   2
BRANCH   1  14
ATOM     14  N   UNL d   1      -1.762  -3.163  -0.037  0.00  0.00    -0.259 N 
ATOM     15  C   UNL d   1      -0.595  -2.592  -0.051  0.00  0.00     0.064 C 
ATOM     16  C   UNL d   1       0.570  -3.567  -0.074  0.00  0.00     0.073 C 
ATOM     17  HN  UNL d   1      -1.858  -4.178  -0.001  1.00  0.00     0.194 HD
BRANCH  15  18
ATOM     18  C   UNL d   1      -0.271  -1.186  -0.030  0.00  0.00     0.123 A 
ATOM     19  C   UNL d   1      -0.826  -0.036   0.508  0.00  0.00     0.043 A 
ATOM     20  N   UNL d   1      -0.008   1.046   0.257  0.00  0.00    -0.342 N 
ATOM     21  C   UNL d   1      -2.041   0.163   1.328  0.00  0.00     0.071 C 
ATOM     22  C   UNL d   1       1.015   0.539  -0.386  0.00  0.00     0.120 A 
ATOM     23  HN  UNL d   1      -0.164   2.021   0.514  1.00  0.00     0.167 HD
ATOM     24  O   UNL d   1       0.925  -0.806  -0.606  0.00  0.00    -0.294 OA
ATOM     25  C   UNL d   1       2.239   1.215  -0.863  0.00  0.00     0.098 C 
ENDBRANCH  15  18
ENDBRANCH   1  14
TORSDOF 5
