REMARK  4 active torsions:
REMARK  status: ('A' for Active; 'I' for Inactive)
REMARK    1  A    between atoms: N_13  and  C_7 
REMARK    2  A    between atoms: N_17  and  C_8 
REMARK    3  A    between atoms: C_9  and  C_16 
REMARK    4  A    between atoms: N_11  and  N_13 
ROOT
ATOM      1  N   UNL d   1      -1.121   1.141  -0.003  0.00  0.00    -0.165 N 
ATOM      2  HN  UNL d   1      -1.974   1.698  -0.050  1.00  0.00     0.187 HD
ATOM      3  N   UNL d   1      -0.056  -0.953   0.035  0.00  0.00    -0.179 N 
ATOM      4  HN  UNL d   1      -0.099  -1.972   0.034  1.00  0.00     0.185 HD
ATOM      5  N   UNL d   1       1.216   1.040   0.101  0.00  0.00    -0.322 N 
ATOM      6  HN  UNL d   1       2.120   1.511   0.127  1.00  0.00     0.169 HD
ATOM      7  C   UNL d   1      -1.149  -0.191  -0.017  0.00  0.00     0.700 A 
ATOM      8  C   UNL d   1       0.071   1.698   0.074  0.00  0.00     0.171 A 
ATOM      9  C   UNL d   1       1.098  -0.286   0.090  0.00  0.00     0.095 A 
ATOM     10  C   UNL d   1       2.358  -1.093   0.154  0.00  0.00     0.089 C 
ENDROOT
BRANCH   7  11
ATOM     11  N   UNL d   1      -2.375  -0.861  -0.095  0.00  0.00    -0.132 N 
ATOM     12  H   UNL d   1      -2.297  -1.867  -0.028  0.00  0.00     0.205 HD
BRANCH  11  13
ATOM     13  N   UNL d   1      -3.529  -0.160  -0.138  0.00  0.00    -0.297 N 
ATOM     14  C   UNL d   1      -4.625  -0.841  -0.083  0.00  0.00     0.124 C 
ATOM     15  HN  UNL d   1      -3.534   0.858  -0.212  1.00  0.00     0.186 HD
BRANCH  14  16
ATOM     16  C   UNL d   1      -5.935  -0.161  -0.103  0.00  0.00     0.041 A 
ATOM     17  C   UNL d   1      -7.065  -0.746   0.480  0.00  0.00     0.048 A 
ATOM     18 CL   UNL d   1      -7.029  -2.300   1.236  0.00  0.00    -0.083 Cl
ATOM     19  C   UNL d   1      -8.286  -0.057   0.491  0.00  0.00     0.025 A 
ATOM     20  C   UNL d   1      -8.388   1.211  -0.083  0.00  0.00     0.005 A 
ATOM     21  C   UNL d   1      -7.272   1.788  -0.680  0.00  0.00     0.043 A 
ATOM     22  C   UNL d   1      -6.058   1.103  -0.689  0.00  0.00     0.129 A 
ATOM     23  F   UNL d   1      -5.027   1.692  -1.311  0.00  0.00    -0.205 F 
ENDBRANCH  14  16
ENDBRANCH  11  13
ENDBRANCH   7  11
BRANCH   8  24
ATOM     24  N   UNL d   1       0.121   3.079   0.077  0.00  0.00    -0.273 NA
ATOM     25  H   UNL d   1       0.991   3.394  -0.327  0.00  0.00     0.127 HD
ATOM     26  H   UNL d   1      -0.736   3.436  -0.326  0.00  0.00     0.127 HD
ENDBRANCH   8  24
TORSDOF 4
