REMARK  4 active torsions:
REMARK  status: ('A' for Active; 'I' for Inactive)
REMARK    1  A    between atoms: O_13  and  C_3 
REMARK    2  A    between atoms: O_14  and  C_6 
REMARK    3  A    between atoms: N_12  and  C_7 
REMARK    4  A    between atoms: O_15  and  C_9 
ROOT
ATOM      1  C   UNL d   1       1.879   0.338   0.093  0.00  0.00     0.012 A 
ATOM      2  C   UNL d   1      -0.430   0.969   0.523  0.00  0.00     0.058 A 
ATOM      3  C   UNL d   1      -1.681   1.555   0.764  0.00  0.00     0.119 A 
ATOM      4  C   UNL d   1       0.935   1.502   0.224  0.00  0.00     0.193 A 
ATOM      5  C   UNL d   1      -0.291  -0.426   0.554  0.00  0.00    -0.034 A 
ATOM      6  C   UNL d   1      -2.785   0.682   1.063  0.00  0.00     0.136 A 
ATOM      7  C   UNL d   1       3.194   0.494  -0.104  0.00  0.00     0.096 C 
ATOM      8  C   UNL d   1       1.089  -0.908   0.257  0.00  0.00     0.084 A 
ATOM      9  C   UNL d   1      -2.601  -0.727   1.099  0.00  0.00     0.104 A 
ATOM     10  C   UNL d   1      -1.349  -1.269   0.833  0.00  0.00     0.048 A 
ATOM     11  O   UNL d   1       1.293   2.660   0.106  0.00  0.00    -0.287 OA
ENDROOT
BRANCH   7  12
ATOM     12  N   UNL d   1       4.236  -0.418  -0.246  0.00  0.00    -0.398 N 
ATOM     13  C   UNL d   1       4.120  -1.873  -0.170  0.00  0.00     0.148 C 
ATOM     14  C   UNL d   1       5.630   0.037  -0.306  0.00  0.00     0.148 C 
ENDBRANCH   7  12
BRANCH   3  15
ATOM     15  O   UNL d   1      -1.996   2.881   0.750  0.00  0.00    -0.352 OA
ATOM     16  C   UNL d   1      -1.055   3.893   0.462  0.00  0.00     0.210 C 
ENDBRANCH   3  15
BRANCH   6  17
ATOM     17  O   UNL d   1      -4.073   1.078   1.331  0.00  0.00    -0.351 OA
ATOM     18  C   UNL d   1      -4.462   2.439   1.354  0.00  0.00     0.210 C 
ENDBRANCH   6  17
BRANCH   9  19
ATOM     19  O   UNL d   1      -3.505  -1.723   1.367  0.00  0.00    -0.353 OA
ATOM     20  C   UNL d   1      -4.844  -1.402   1.699  0.00  0.00     0.210 C 
ENDBRANCH   9  19
TORSDOF 4
