REMARK  6 active torsions:
REMARK  status: ('A' for Active; 'I' for Inactive)
REMARK    1  A    between atoms: C_3  and  C_1 
REMARK    2  A    between atoms: O_4  and  C_2 
REMARK       I    between atoms: N_10  and  C_3 
REMARK    3  A    between atoms: C_6  and  O_4 
REMARK    4  A    between atoms: N_13  and  N_10 
REMARK    5  A    between atoms: O_15  and  C_11 
REMARK    6  A    between atoms: O_16  and  C_12 
ROOT
ATOM      1  C   UNL d   1       1.393  -0.136   0.006  0.00  0.00     0.069 A 
ATOM      2  C   UNL d   1       0.557  -1.259  -0.114  0.00  0.00     0.092 A 
ATOM      3  C   UNL d   1       0.798   1.138   0.083  0.00  0.00     0.056 A 
ATOM      4  C   UNL d   1      -0.829  -1.076  -0.256  0.00  0.00     0.041 A 
ATOM      5  C   UNL d   1      -0.587   1.309   0.025  0.00  0.00     0.069 A 
ATOM      6  C   UNL d   1      -1.400   0.196  -0.165  0.00  0.00     0.039 A 
ENDROOT
BRANCH   2   7
ATOM      7  O   UNL d   1       1.108  -2.525  -0.144  0.00  0.00    -0.310 OA
BRANCH   7   8
ATOM      8  C   UNL d   1       0.410  -3.560   0.448  0.00  0.00     0.078 A 
ATOM      9  C   UNL d   1      -0.237  -3.438   1.686  0.00  0.00     0.074 A 
ATOM     10  C   UNL d   1      -0.963  -4.513   2.201  0.00  0.00     0.070 A 
ATOM     11  C   UNL d   1      -0.992  -5.720   1.497  0.00  0.00     0.037 A 
ATOM     12  C   UNL d   1      -0.304  -5.858   0.290  0.00  0.00     0.005 A 
ATOM     13  C   UNL d   1       0.401  -4.776  -0.235  0.00  0.00     0.037 A 
BRANCH  10  14
ATOM     14  O   UNL d   1      -1.678  -4.513   3.367  0.00  0.00    -0.356 OA
ATOM     15  C   UNL d   1      -1.788  -3.275   4.058  0.00  0.00     0.210 C 
ENDBRANCH  10  14
ENDBRANCH   7   8
ENDBRANCH   2   7
BRANCH   1  16
ATOM     16  C   UNL d   1       2.889  -0.169   0.051  0.00  0.00     0.268 C 
ATOM     17  O   UNL d   1       3.531   0.875   0.172  0.00  0.00    -0.266 OA
ATOM     18  N   UNL d   1       3.525  -1.396  -0.071  0.00  0.00    -0.290 N 
ATOM     19  H   UNL d   1       2.994  -2.247  -0.249  0.00  0.00     0.183 HD
BRANCH  18  20
ATOM     20  N   UNL d   1       4.935  -1.436  -0.158  0.00  0.00    -0.247 NA
ATOM     21  H   UNL d   1       5.231  -0.495  -0.464  0.00  0.00     0.143 HD
ATOM     22  H   UNL d   1       5.300  -1.489   0.797  0.00  0.00     0.143 HD
ENDBRANCH  18  20
ENDBRANCH   1  16
BRANCH   5  23
ATOM     23  O   UNL d   1      -1.015   2.600   0.149  0.00  0.00    -0.356 OA
ATOM     24  C   UNL d   1      -2.419   2.809   0.231  0.00  0.00     0.210 C 
ENDBRANCH   5  23
TORSDOF 6
