REMARK  8 active torsions:
REMARK  status: ('A' for Active; 'I' for Inactive)
REMARK    1  A    between atoms: C_2  and  C_1 
REMARK    2  A    between atoms: O_7  and  C_1 
REMARK    3  A    between atoms: C_3  and  O_10 
REMARK    4  A    between atoms: C_9  and  C_3 
REMARK    5  A    between atoms: C_16  and  C_4 
REMARK    6  A    between atoms: N_17  and  C_4 
REMARK    7  A    between atoms: N_5  and  O_7 
REMARK    8  A    between atoms: O_10  and  C_16 
ROOT
ATOM      1  C   UNL d   1      -1.561  -1.973   0.839  0.00  0.00     0.100 C 
ATOM      2  N   UNL d   1      -2.710  -1.649   1.352  0.00  0.00    -0.248 N 
ATOM      3  HN  UNL d   1      -3.169  -2.167   2.102  1.00  0.00     0.196 HD
ENDROOT
BRANCH   1   4
ATOM      4  C   UNL d   1      -0.868  -3.234   1.409  0.00  0.00     0.250 C 
BRANCH   4   5
ATOM      5  O   UNL d   1       0.556  -3.174   1.522  0.00  0.00    -0.314 OA
BRANCH   5   6
ATOM      6  C   UNL d   1       1.271  -3.387   0.386  0.00  0.00     0.266 C 
ATOM      7  O   UNL d   1       0.761  -3.545  -0.719  0.00  0.00    -0.264 OA
BRANCH   6   8
ATOM      8  C   UNL d   1       2.788  -3.399   0.635  0.00  0.00     0.037 C 
ATOM      9  C   UNL d   1       3.155  -2.945   2.056  0.00  0.00     0.025 C 
ATOM     10  C   UNL d   1       3.312  -4.824   0.406  0.00  0.00     0.025 C 
ATOM     11  C   UNL d   1       3.458  -2.449  -0.369  0.00  0.00     0.025 C 
ENDBRANCH   6   8
ENDBRANCH   5   6
ENDBRANCH   4   5
ENDBRANCH   1   4
BRANCH   1  12
ATOM     12  N   UNL d   1      -0.955  -1.310  -0.203  0.00  0.00    -0.289 NA
ATOM     13  H   UNL d   1      -1.586  -0.715  -0.726  0.00  0.00     0.125 HD
ATOM     14  H   UNL d   1      -0.379  -1.901  -0.805  0.00  0.00     0.125 HD
ENDBRANCH   1  12
BRANCH   2  15
ATOM     15  O   UNL d   1      -3.248  -0.489   0.743  0.00  0.00    -0.193 OA
BRANCH  15  16
ATOM     16  C   UNL d   1      -4.503  -0.216   1.253  0.00  0.00     0.322 C 
ATOM     17  O   UNL d   1      -5.112  -0.921   2.055  0.00  0.00    -0.257 OA
BRANCH  16  18
ATOM     18  C   UNL d   1      -5.043   1.029   0.714  0.00  0.00     0.082 A 
ATOM     19  S   UNL d   1      -4.172   2.043  -0.359  0.00  0.00    -0.096 SA
ATOM     20  C   UNL d   1      -5.447   3.183  -0.439  0.00  0.00     0.050 A 
ATOM     21  C   UNL d   1      -6.525   2.803   0.326  0.00  0.00     0.009 A 
ATOM     22  C   UNL d   1      -6.291   1.563   0.988  0.00  0.00     0.026 A 
ENDBRANCH  16  18
ENDBRANCH  15  16
ENDBRANCH   2  15
TORSDOF 8
