REMARK  4 active torsions:
REMARK  status: ('A' for Active; 'I' for Inactive)
REMARK    1  A    between atoms: C_3  and  C_1 
REMARK    2  A    between atoms: C_2  and  C_3 
REMARK    3  A    between atoms: C_5  and  C_12 
REMARK    4  A    between atoms: C_17  and  C_8 
ROOT
ATOM      1  C   UNL d   1       2.293  -3.858   0.034  0.00  0.00     0.096 C 
ATOM      2  C   UNL d   1       2.353  -5.205  -0.011  0.00  0.00     0.038 C 
ATOM      3  C   UNL d   1       1.057  -3.159   0.083  0.00  0.00     0.103 C 
ATOM      4  N   UNL d   1       0.046  -2.588   0.098  0.00  0.00    -0.191 NA
ENDROOT
BRANCH   1   5
ATOM      5  C   UNL d   1       3.604  -3.132   0.100  0.00  0.00     0.204 C 
ATOM      6  O   UNL d   1       4.610  -3.711   0.506  0.00  0.00    -0.286 OA
BRANCH   5   7
ATOM      7  C   UNL d   1       3.644  -1.724  -0.321  0.00  0.00     0.034 A 
ATOM      8  C   UNL d   1       2.869  -1.167  -1.324  0.00  0.00     0.067 A 
ATOM      9  S   UNL d   1       3.160   0.494  -1.562  0.00  0.00    -0.100 SA
ATOM     10  C   UNL d   1       4.406   0.520  -0.382  0.00  0.00     0.016 A 
ATOM     11  C   UNL d   1       4.580  -0.737   0.207  0.00  0.00    -0.004 A 
ATOM     12  C   UNL d   1       5.191   1.632  -0.016  0.00  0.00     0.019 A 
ATOM     13  C   UNL d   1       5.596  -0.854   1.196  0.00  0.00     0.014 A 
ATOM     14  C   UNL d   1       6.385   0.244   1.555  0.00  0.00     0.001 A 
ATOM     15  C   UNL d   1       6.181   1.476   0.955  0.00  0.00     0.001 A 
ENDBRANCH   5   7
ENDBRANCH   1   5
BRANCH   2  16
ATOM     16  C   UNL d   1       1.185  -6.090  -0.068  0.00  0.00    -0.035 A 
ATOM     17  C   UNL d   1       0.670  -6.484  -1.307  0.00  0.00     0.012 A 
ATOM     18  C   UNL d   1      -0.448  -7.319  -1.371  0.00  0.00     0.017 A 
ATOM     19  C   UNL d   1      -1.068  -7.772  -0.198  0.00  0.00     0.048 A 
ATOM     20  C   UNL d   1      -0.545  -7.372   1.042  0.00  0.00     0.017 A 
ATOM     21  C   UNL d   1       0.574  -6.537   1.107  0.00  0.00     0.012 A 
BRANCH  19  22
ATOM     22  C   UNL d   1      -2.274  -8.681  -0.252  0.00  0.00     0.417 C 
ATOM     23  F   UNL d   1      -2.687  -8.963  -1.519  0.00  0.00    -0.166 F 
ATOM     24  F   UNL d   1      -2.043  -9.885   0.341  0.00  0.00    -0.166 F 
ATOM     25  F   UNL d   1      -3.356  -8.152   0.384  0.00  0.00    -0.166 F 
ENDBRANCH  19  22
ENDBRANCH   2  16
TORSDOF 4
