REMARK  1 active torsions:
REMARK  status: ('A' for Active; 'I' for Inactive)
REMARK       I    between atoms: C_2  and  N_1 
REMARK    1  A    between atoms: C_3  and  C_2 
ROOT
ATOM      1  N   UNL d   1      -1.089   1.433  -0.106  0.00  0.00    -0.310 N 
ATOM      2  C   UNL d   1      -1.255   2.715  -0.648  0.00  0.00     0.332 C 
ATOM      3  C   UNL d   1       0.124   0.696   0.055  0.00  0.00     0.043 C 
ATOM      4  O   UNL d   1      -2.358   3.286  -0.534  0.00  0.00    -0.263 OA
ATOM      5  C   UNL d   1       0.082  -0.716   0.028  0.00  0.00    -0.031 C 
ATOM      6  C   UNL d   1      -2.308   0.725   0.320  0.00  0.00     0.133 C 
ATOM      7  C   UNL d   1       1.356   1.316   0.288  0.00  0.00     0.030 C 
ATOM      8  C   UNL d   1      -2.409  -0.625  -0.371  0.00  0.00     0.025 C 
ATOM      9  C   UNL d   1      -1.217  -1.484   0.003  0.00  0.00     0.042 C 
ATOM     10  C   UNL d   1       1.276  -1.455   0.078  0.00  0.00     0.009 C 
ATOM     11  C   UNL d   1       2.540   0.571   0.331  0.00  0.00     0.002 C 
ATOM     12  C   UNL d   1       2.503  -0.812   0.195  0.00  0.00     0.001 C 
ENDROOT
BRANCH   2  13
ATOM     13  C   UNL d   1      -0.148   3.447  -1.453  0.00  0.00     0.472 C 
ATOM     14  F   UNL d   1       0.958   2.726  -1.778  0.00  0.00    -0.162 F 
ATOM     15  F   UNL d   1      -0.626   3.900  -2.650  0.00  0.00    -0.162 F 
ATOM     16  F   UNL d   1       0.298   4.552  -0.788  0.00  0.00    -0.162 F 
ENDBRANCH   2  13
TORSDOF 1
