REMARK  7 active torsions:
REMARK  status: ('A' for Active; 'I' for Inactive)
REMARK    1  A    between atoms: N_14  and  C_6 
REMARK    2  A    between atoms: S_16  and  C_9 
REMARK    3  A    between atoms: S_17  and  C_10 
REMARK    4  A    between atoms: C_22  and  S_16 
REMARK    5  A    between atoms: C_23  and  S_17 
REMARK    6  A    between atoms: C_20  and  C_22 
REMARK    7  A    between atoms: C_21  and  C_23 
ROOT
ATOM      1  N   UNL d   1       1.108  -1.517   0.077  0.00  0.00    -0.176 N 
ATOM      2  HN  UNL d   1       1.012  -2.532   0.072  1.00  0.00     0.186 HD
ATOM      3  C   UNL d   1       0.032  -0.749   0.077  0.00  0.00     0.137 A 
ATOM      4  N   UNL d   1      -1.123  -1.391   0.044  0.00  0.00    -0.322 N 
ATOM      5  HN  UNL d   1      -1.155  -2.410   0.019  1.00  0.00     0.169 HD
ATOM      6  C   UNL d   1       2.325  -0.958   0.083  0.00  0.00     0.681 A 
ATOM      7  N   UNL d   1      -2.301   0.661   0.057  0.00  0.00    -0.330 N 
ATOM      8  HN  UNL d   1      -3.188   1.164   0.031  1.00  0.00     0.168 HD
ATOM      9  C   UNL d   1      -1.121   1.303   0.104  0.00  0.00     0.087 A 
ATOM     10  C   UNL d   1      -2.246  -0.671   0.045  0.00  0.00     0.147 A 
ATOM     11  C   UNL d   1       0.103   0.624   0.102  0.00  0.00     0.058 A 
ATOM     12  N   UNL d   1       2.503   0.368   0.101  0.00  0.00    -0.201 N 
ATOM     13  HN  UNL d   1       3.436   0.779   0.102  1.00  0.00     0.183 HD
ATOM     14  C   UNL d   1       1.397   1.138   0.117  0.00  0.00     0.124 A 
ENDROOT
BRANCH   6  15
ATOM     15  N   UNL d   1       3.416  -1.795   0.086  0.00  0.00    -0.218 N 
ATOM     16  C   UNL d   1       4.724  -1.315  -0.331  0.00  0.00     0.141 C 
ATOM     17  C   UNL d   1       5.246  -2.430  -1.238  0.00  0.00     0.022 C 
ATOM     18  C   UNL d   1       4.602  -3.682  -0.662  0.00  0.00     0.022 C 
ATOM     19  C   UNL d   1       3.214  -3.198  -0.254  0.00  0.00     0.141 C 
ENDBRANCH   6  15
BRANCH  10  20
ATOM     20  S   UNL d   1      -3.785  -1.550  -0.014  0.00  0.00    -0.086 SA
BRANCH  20  21
ATOM     21  C   UNL d   1      -3.273  -3.079   0.832  0.00  0.00     0.160 C 
BRANCH  21  22
ATOM     22  C   UNL d   1      -2.784  -2.813   2.247  0.00  0.00     0.132 C 
ATOM     23  O   UNL d   1      -3.197  -1.881   2.940  0.00  0.00    -0.298 OA
ATOM     24  C   UNL d   1      -1.801  -3.808   2.809  0.00  0.00     0.091 C 
ENDBRANCH  21  22
ENDBRANCH  20  21
ENDBRANCH  10  20
BRANCH   9  25
ATOM     25  S   UNL d   1      -1.212   3.091   0.102  0.00  0.00    -0.104 SA
BRANCH  25  26
ATOM     26  C   UNL d   1      -2.867   3.340   0.833  0.00  0.00     0.158 C 
BRANCH  26  27
ATOM     27  C   UNL d   1      -2.950   2.834   2.263  0.00  0.00     0.132 C 
ATOM     28  O   UNL d   1      -1.979   2.795   3.022  0.00  0.00    -0.298 OA
ATOM     29  C   UNL d   1      -4.325   2.454   2.752  0.00  0.00     0.091 C 
ENDBRANCH  26  27
ENDBRANCH  25  26
ENDBRANCH   9  25
TORSDOF 7
