REMARK  5 active torsions:
REMARK  status: ('A' for Active; 'I' for Inactive)
REMARK    1  A    between atoms: C_3  and  C_1 
REMARK    2  A    between atoms: O_11  and  C_2 
REMARK       I    between atoms: N_6  and  C_3 
REMARK    3  A    between atoms: C_19  and  N_6 
REMARK    4  A    between atoms: C_8  and  O_11 
REMARK    5  A    between atoms: O_24  and  C_12 
ROOT
ATOM      1  C   UNL d   1      -0.058   1.152  -0.077  0.00  0.00     0.146 A 
ATOM      2  C   UNL d   1      -0.127  -1.040  -0.054  0.00  0.00     0.191 A 
ATOM      3  O   UNL d   1      -0.913   0.081  -0.051  0.00  0.00    -0.282 OA
ATOM      4  C   UNL d   1       1.251   0.710  -0.121  0.00  0.00     0.048 A 
ATOM      5  C   UNL d   1       1.206  -0.694  -0.148  0.00  0.00     0.067 A 
ENDROOT
BRANCH   1   6
ATOM      6  C   UNL d   1      -0.530   2.521  -0.068  0.00  0.00     0.280 C 
ATOM      7  N   UNL d   1      -1.900   2.701  -0.090  0.00  0.00    -0.320 N 
ATOM      8  H   UNL d   1      -2.473   1.875   0.048  0.00  0.00     0.169 HD
ATOM      9  O   UNL d   1       0.279   3.445  -0.040  0.00  0.00    -0.265 OA
BRANCH   7  10
ATOM     10  C   UNL d   1      -2.548   3.951  -0.264  0.00  0.00     0.050 A 
ATOM     11  C   UNL d   1      -1.889   5.114  -0.667  0.00  0.00     0.119 A 
ATOM     12  N   UNL d   1      -2.490   6.308  -0.888  0.00  0.00    -0.345 N 
ATOM     13  C   UNL d   1      -3.817   6.362  -0.694  0.00  0.00     0.141 A 
ATOM     14  HN  UNL d   1      -1.959   7.126  -1.187  1.00  0.00     0.167 HD
ATOM     15  C   UNL d   1      -4.570   5.274  -0.281  0.00  0.00     0.058 A 
ATOM     16  C   UNL d   1      -3.926   4.048  -0.073  0.00  0.00     0.035 A 
BRANCH  13  17
ATOM     17  O   UNL d   1      -4.484   7.546  -0.929  0.00  0.00    -0.341 OA
ATOM     18  C   UNL d   1      -3.622   8.567  -1.431  0.00  0.00     0.211 C 
ENDBRANCH  13  17
ENDBRANCH   7  10
ENDBRANCH   1   6
BRANCH   2  19
ATOM     19  O   UNL d   1      -0.790  -2.191   0.058  0.00  0.00    -0.288 OA
BRANCH  19  20
ATOM     20  C   UNL d   1      -0.146  -3.288   0.593  0.00  0.00     0.081 A 
ATOM     21  C   UNL d   1       0.665  -3.188   1.729  0.00  0.00     0.061 A 
ATOM     22  C   UNL d   1       1.310  -4.319   2.223  0.00  0.00     0.038 A 
ATOM     23 CL   UNL d   1       2.355  -4.171   3.582  0.00  0.00    -0.084 Cl
ATOM     24  C   UNL d   1       1.122  -5.559   1.623  0.00  0.00     0.048 A 
ATOM     25  C   UNL d   1       0.276  -5.660   0.519  0.00  0.00     0.038 A 
ATOM     26  C   UNL d   1      -0.361  -4.531  -0.002  0.00  0.00     0.061 A 
ATOM     27 CL   UNL d   1       0.019  -7.198  -0.209  0.00  0.00    -0.084 Cl
ENDBRANCH  19  20
ENDBRANCH   2  19
TORSDOF 5
