REMARK  5 active torsions:
REMARK  status: ('A' for Active; 'I' for Inactive)
REMARK    1  A    between atoms: N_8  and  C_1 
REMARK    2  A    between atoms: N_6  and  C_16 
REMARK       I    between atoms: C_9  and  N_7 
REMARK       I    between atoms: C_12  and  N_8 
REMARK    3  A    between atoms: O_23  and  C_9 
REMARK    4  A    between atoms: C_16  and  C_12 
REMARK    5  A    between atoms: C_26  and  O_23 
ROOT
ATOM      1  C   UNL d   1       1.341   1.022   1.293  0.00  0.00     0.098 C 
ATOM      2  C   UNL d   1       1.192  -0.346   1.404  0.00  0.00     0.086 C 
ATOM      3  C   UNL d   1      -0.999   0.379   1.044  0.00  0.00     0.011 C 
ATOM      4  C   UNL d   1      -0.177  -0.728   1.190  0.00  0.00    -0.018 C 
ATOM      5  S   UNL d   1      -0.150   1.843   1.260  0.00  0.00    -0.073 SA
ATOM      6  N   UNL d   1      -2.786  -0.983   0.187  0.00  0.00    -0.323 N 
ATOM      7  C   UNL d   1      -3.626  -1.184  -0.891  0.00  0.00     0.363 C 
ATOM      8  C   UNL d   1      -2.465   0.346   0.718  0.00  0.00     0.174 C 
ATOM      9  C   UNL d   1       2.265  -1.254   1.706  0.00  0.00     0.103 C 
ATOM     10  N   UNL d   1       3.092  -1.997   2.031  0.00  0.00    -0.191 NA
ATOM     11  C   UNL d   1      -0.719  -2.121   1.023  0.00  0.00     0.061 C 
ATOM     12  C   UNL d   1      -2.256  -2.134   0.926  0.00  0.00     0.133 C 
ATOM     13  O   UNL d   1      -3.871  -2.287  -1.367  0.00  0.00    -0.238 OA
ENDROOT
BRANCH   1  14
ATOM     14  N   UNL d   1       2.441   1.854   1.198  0.00  0.00    -0.319 N 
ATOM     15  C   UNL d   1       3.441   1.550   0.271  0.00  0.00     0.240 C 
ATOM     16  O   UNL d   1       3.408   0.582  -0.488  0.00  0.00    -0.271 OA
ATOM     17  H   UNL d   1       2.259   2.840   1.331  0.00  0.00     0.169 HD
BRANCH  15  18
ATOM     18  C   UNL d   1       4.617   2.545   0.284  0.00  0.00     0.226 C 
BRANCH  18  19
ATOM     19  N   UNL d   1       4.737   3.392  -0.906  0.00  0.00    -0.371 N 
ATOM     20  C   UNL d   1       3.749   4.296  -1.289  0.00  0.00     0.037 A 
ATOM     21  C   UNL d   1       3.760   4.545  -2.667  0.00  0.00    -0.030 A 
ATOM     22  C   UNL d   1       2.853   4.977  -0.484  0.00  0.00     0.030 A 
ATOM     23  C   UNL d   1       2.861   5.409  -3.272  0.00  0.00     0.009 A 
ATOM     24  C   UNL d   1       4.894   3.806  -3.295  0.00  0.00     0.060 C 
ATOM     25  C   UNL d   1       1.923   6.047  -2.465  0.00  0.00     0.001 A 
ATOM     26  C   UNL d   1       1.926   5.843  -1.077  0.00  0.00     0.002 A 
ATOM     27  C   UNL d   1       5.249   2.818  -2.167  0.00  0.00     0.128 C 
ENDBRANCH  18  19
ENDBRANCH  15  18
ENDBRANCH   1  14
BRANCH   7  28
ATOM     28  O   UNL d   1      -4.165  -0.026  -1.363  0.00  0.00    -0.304 OA
BRANCH  28  29
ATOM     29  C   UNL d   1      -5.000  -0.141  -2.527  0.00  0.00     0.176 C 
ATOM     30  C   UNL d   1      -6.410  -0.564  -2.156  0.00  0.00     0.034 C 
ENDBRANCH  28  29
ENDBRANCH   7  28
TORSDOF 5
