REMARK  6 active torsions:
REMARK  status: ('A' for Active; 'I' for Inactive)
REMARK    1  A    between atoms: C_4  and  C_1 
REMARK    2  A    between atoms: C_7  and  C_1 
REMARK    3  A    between atoms: C_3  and  C_2 
REMARK    4  A    between atoms: C_6  and  C_3 
REMARK    5  A    between atoms: C_5  and  C_4 
REMARK    6  A    between atoms: C_10  and  C_5 
ROOT
ATOM      1  C   UNL d   1       2.304  -0.046   0.442  0.00  0.00    -0.037 C 
ATOM      2  C   UNL d   1       2.860  -1.280   0.389  0.00  0.00     0.064 C 
ENDROOT
BRANCH   1   3
ATOM      3  C   UNL d   1       0.828   0.244   0.276  0.00  0.00     0.123 C 
BRANCH   3   4
ATOM      4  C   UNL d   1      -0.051   0.654   1.456  0.00  0.00     0.163 C 
ATOM      5  O   UNL d   1       0.367   0.815   2.604  0.00  0.00    -0.292 OA
BRANCH   4   6
ATOM      6  C   UNL d   1      -1.514   0.832   1.151  0.00  0.00     0.010 A 
ATOM      7  C   UNL d   1      -2.003   0.816  -0.169  0.00  0.00     0.015 A 
ATOM      8  C   UNL d   1      -3.366   0.941  -0.430  0.00  0.00     0.001 A 
ATOM      9  C   UNL d   1      -4.262   1.084   0.624  0.00  0.00     0.000 A 
ATOM     10  C   UNL d   1      -3.792   1.111   1.938  0.00  0.00     0.001 A 
ATOM     11  C   UNL d   1      -2.423   0.988   2.202  0.00  0.00     0.015 A 
ENDBRANCH   4   6
ENDBRANCH   3   4
ENDBRANCH   1   3
BRANCH   1  12
ATOM     12  C   UNL d   1       3.207   1.158   0.439  0.00  0.00    -0.029 A 
ATOM     13  C   UNL d   1       4.457   1.115  -0.212  0.00  0.00     0.012 A 
ATOM     14  C   UNL d   1       5.216   2.272  -0.428  0.00  0.00     0.001 A 
ATOM     15  C   UNL d   1       4.739   3.505  -0.003  0.00  0.00     0.000 A 
ATOM     16  C   UNL d   1       3.529   3.573   0.677  0.00  0.00     0.001 A 
ATOM     17  C   UNL d   1       2.779   2.412   0.905  0.00  0.00     0.012 A 
ENDBRANCH   1  12
BRANCH   2  18
ATOM     18  C   UNL d   1       2.305  -2.642   0.100  0.00  0.00     0.182 C 
ATOM     19  O   UNL d   1       2.765  -3.595   0.729  0.00  0.00    -0.288 OA
BRANCH  18  20
ATOM     20  C   UNL d   1       1.290  -2.898  -0.970  0.00  0.00     0.014 C 
ATOM     21  C   UNL d   1       0.955  -1.969  -1.961  0.00  0.00     0.016 C 
ATOM     22  C   UNL d   1      -0.175  -2.169  -2.763  0.00  0.00     0.007 C 
ATOM     23  C   UNL d   1      -0.920  -3.349  -2.662  0.00  0.00    -0.062 C 
ATOM     24  C   UNL d   1      -0.473  -4.357  -1.802  0.00  0.00     0.007 C 
ATOM     25  C   UNL d   1      -2.207  -3.494  -3.418  0.00  0.00     0.048 C 
ATOM     26  C   UNL d   1       0.618  -4.129  -0.955  0.00  0.00     0.016 C 
ENDBRANCH  18  20
ENDBRANCH   2  18
TORSDOF 6
