REMARK  5 active torsions:
REMARK  status: ('A' for Active; 'I' for Inactive)
REMARK    1  A    between atoms: C_3  and  N_1 
REMARK    2  A    between atoms: N_2  and  C_4 
REMARK    3  A    between atoms: O_26  and  C_5 
REMARK    4  A    between atoms: O_32  and  C_14 
REMARK    5  A    between atoms: C_21  and  C_15 
ROOT
ATOM      1  C   UNL d   1       3.709   0.032   0.073  0.00  0.00     0.144 A 
ATOM      2  C   UNL d   1       5.845   0.749   1.014  0.00  0.00     0.111 A 
ATOM      3  C   UNL d   1       4.441   0.676   1.091  0.00  0.00     0.129 A 
ATOM      4  C   UNL d   1       4.395  -0.617  -0.980  0.00  0.00     0.113 A 
ATOM      5  C   UNL d   1       5.791  -0.515  -1.079  0.00  0.00     0.047 A 
ATOM      6  C   UNL d   1       6.505   0.175  -0.084  0.00  0.00     0.054 A 
ENDROOT
BRANCH   1   7
ATOM      7  N   UNL d   1       2.285   0.044   0.088  0.00  0.00    -0.190 N 
ATOM      8  N   UNL d   1       1.559   1.036   0.650  0.00  0.00    -0.277 N 
ATOM      9  C   UNL d   1       0.295   0.684   0.398  0.00  0.00     0.078 A 
ATOM     10  HN  UNL d   1       1.897   1.859   1.150  1.00  0.00     0.189 HD
ATOM     11  C   UNL d   1      -0.897   1.331   0.766  0.00  0.00     0.033 A 
ATOM     12  C   UNL d   1       0.308  -0.557  -0.370  0.00  0.00     0.078 A 
ATOM     13  C   UNL d   1      -2.068   0.665   0.358  0.00  0.00     0.002 A 
ATOM     14  C   UNL d   1      -2.056  -0.559  -0.366  0.00  0.00     0.002 A 
ATOM     15  C   UNL d   1      -0.872  -1.211  -0.762  0.00  0.00     0.033 A 
ATOM     16  N   UNL d   1       1.583  -0.892  -0.616  0.00  0.00    -0.277 N 
ATOM     17  HN  UNL d   1       1.940  -1.658  -1.188  1.00  0.00     0.189 HD
ENDBRANCH   1   7
BRANCH   3  18
ATOM     18  O   UNL d   1       3.761   1.141   2.187  0.00  0.00    -0.356 OA
ATOM     19  H   UNL d   1       4.386   1.527   2.840  0.00  0.00     0.218 HD
ENDBRANCH   3  18
BRANCH   4  20
ATOM     20  O   UNL d   1       3.742  -1.364  -1.928  0.00  0.00    -0.357 OA
ATOM     21  H   UNL d   1       2.790  -1.439  -1.687  0.00  0.00     0.217 HD
ENDBRANCH   4  20
BRANCH   2  22
ATOM     22  N   UNL d   1       6.618   1.373   2.034  0.00  0.00    -0.193 N 
ATOM     23  N   UNL d   1       6.030   1.821   3.176  0.00  0.00    -0.277 N 
ATOM     24  C   UNL d   1       7.068   2.280   3.889  0.00  0.00     0.078 A 
ATOM     25  HN  UNL d   1       5.042   1.810   3.427  1.00  0.00     0.189 HD
ATOM     26  C   UNL d   1       7.078   2.837   5.179  0.00  0.00     0.033 A 
ATOM     27  C   UNL d   1       8.282   2.121   3.093  0.00  0.00     0.078 A 
ATOM     28  C   UNL d   1       8.351   3.233   5.631  0.00  0.00     0.002 A 
ATOM     29  C   UNL d   1       9.531   3.092   4.853  0.00  0.00     0.002 A 
ATOM     30  C   UNL d   1       9.543   2.533   3.559  0.00  0.00     0.033 A 
ATOM     31  N   UNL d   1       7.954   1.541   1.930  0.00  0.00    -0.277 N 
ATOM     32  HN  UNL d   1       8.565   1.289   1.153  1.00  0.00     0.189 HD
ENDBRANCH   2  22
BRANCH   5  33
ATOM     33  C   UNL d   1       6.595  -1.128  -2.178  0.00  0.00     0.158 C 
ATOM     34  O   UNL d   1       7.761  -1.459  -1.942  0.00  0.00    -0.293 OA
ATOM     35  C   UNL d   1       6.022  -1.307  -3.560  0.00  0.00     0.097 C 
ENDBRANCH   5  33
TORSDOF 5
