REMARK  5 active torsions:
REMARK  status: ('A' for Active; 'I' for Inactive)
REMARK    1  A    between atoms: C_5  and  C_1 
REMARK    2  A    between atoms: C_2  and  C_4 
REMARK       I    between atoms: N_6  and  C_2 
REMARK    3  A    between atoms: C_4  and  C_5 
REMARK    4  A    between atoms: C_11  and  N_6 
REMARK    5  A    between atoms: O_17  and  C_12 
ROOT
ATOM      1  C   UNL d   1       0.454   4.982  -0.071  0.00  0.00     0.245 C 
ATOM      2  N   UNL d   1      -0.842   5.458  -0.082  0.00  0.00    -0.324 N 
ATOM      3  O   UNL d   1       0.808   3.820   0.098  0.00  0.00    -0.268 OA
ATOM      4  H   UNL d   1      -0.985   6.439  -0.274  0.00  0.00     0.169 HD
ENDROOT
BRANCH   2   5
ATOM      5  C   UNL d   1      -2.017   4.683   0.064  0.00  0.00     0.035 A 
ATOM      6  C   UNL d   1      -2.012   3.318   0.355  0.00  0.00     0.032 A 
ATOM      7  C   UNL d   1      -3.205   2.589   0.405  0.00  0.00     0.039 A 
ATOM      8  C   UNL d   1      -4.421   3.219   0.163  0.00  0.00     0.068 A 
ATOM      9  C   UNL d   1      -4.444   4.596  -0.054  0.00  0.00     0.039 A 
ATOM     10  C   UNL d   1      -3.249   5.325  -0.109  0.00  0.00     0.032 A 
BRANCH   8  11
ATOM     11  O   UNL d   1      -5.632   2.585   0.149  0.00  0.00    -0.356 OA
ATOM     12  C   UNL d   1      -5.591   1.250  -0.353  0.00  0.00     0.210 C 
ENDBRANCH   8  11
ENDBRANCH   2   5
BRANCH   1  13
ATOM     13  C   UNL d   1       1.466   6.050  -0.311  0.00  0.00     0.075 C 
BRANCH  13  14
ATOM     14  C   UNL d   1       2.760   5.694  -0.346  0.00  0.00     0.024 C 
BRANCH  14  15
ATOM     15  C   UNL d   1       3.827   6.619  -0.533  0.00  0.00     0.004 A 
ATOM     16  S   UNL d   1       5.439   5.997  -0.612  0.00  0.00    -0.102 SA
ATOM     17  C   UNL d   1       6.119   7.551  -0.786  0.00  0.00     0.050 A 
ATOM     18  C   UNL d   1       5.159   8.534  -0.800  0.00  0.00     0.008 A 
ATOM     19  C   UNL d   1       3.843   7.998  -0.661  0.00  0.00     0.019 A 
ENDBRANCH  14  15
ENDBRANCH  13  14
ENDBRANCH   1  13
TORSDOF 5
