REMARK  10 active torsions:
REMARK  status: ('A' for Active; 'I' for Inactive)
REMARK    1  A    between atoms: C_2  and  C_1 
REMARK       I    between atoms: N_17  and  C_2 
REMARK    2  A    between atoms: C_3  and  C_14 
REMARK    3  A    between atoms: C_4  and  C_13 
REMARK    4  A    between atoms: O_16  and  C_7 
REMARK    5  A    between atoms: O_15  and  C_8 
REMARK    6  A    between atoms: C_13  and  O_15 
REMARK    7  A    between atoms: C_14  and  O_16 
REMARK    8  A    between atoms: C_24  and  N_17 
REMARK    9  A    between atoms: C_25  and  C_24 
REMARK   10  A    between atoms: C_26  and  C_25 
ROOT
ATOM      1  C   UNL d   1       1.390  -0.180   0.041  0.00  0.00     0.037 A 
ATOM      2  C   UNL d   1       0.515  -1.273   0.032  0.00  0.00     0.054 A 
ATOM      3  C   UNL d   1       0.875   1.125   0.006  0.00  0.00     0.054 A 
ATOM      4  C   UNL d   1      -0.861  -1.061   0.038  0.00  0.00     0.072 A 
ATOM      5  C   UNL d   1      -0.504   1.340  -0.043  0.00  0.00     0.072 A 
ATOM      6  C   UNL d   1      -1.361   0.243  -0.029  0.00  0.00     0.073 A 
ENDROOT
BRANCH   4   7
ATOM      7  O   UNL d   1      -1.647  -2.183   0.135  0.00  0.00    -0.346 OA
BRANCH   7   8
ATOM      8  C   UNL d   1      -2.967  -1.941   0.645  0.00  0.00     0.216 C 
BRANCH   8   9
ATOM      9  C   UNL d   1      -3.652  -3.189   1.149  0.00  0.00    -0.012 A 
ATOM     10  C   UNL d   1      -4.895  -3.094   1.803  0.00  0.00     0.042 A 
ATOM     11 CL   UNL d   1      -5.691  -1.576   2.033  0.00  0.00    -0.084 Cl
ATOM     12  C   UNL d   1      -5.534  -4.235   2.291  0.00  0.00     0.024 A 
ATOM     13  C   UNL d   1      -4.947  -5.487   2.123  0.00  0.00     0.002 A 
ATOM     14  C   UNL d   1      -3.725  -5.599   1.465  0.00  0.00     0.001 A 
ATOM     15  C   UNL d   1      -3.080  -4.460   0.980  0.00  0.00     0.011 A 
ENDBRANCH   8   9
ENDBRANCH   7   8
ENDBRANCH   4   7
BRANCH   1  16
ATOM     16  C   UNL d   1       2.853  -0.452   0.095  0.00  0.00     0.251 C 
ATOM     17  O   UNL d   1       3.304  -1.477  -0.402  0.00  0.00    -0.268 OA
ATOM     18  N   UNL d   1       3.625   0.482   0.752  0.00  0.00    -0.357 N 
ATOM     19  H   UNL d   1       3.187   1.265   1.216  0.00  0.00     0.162 HD
BRANCH  18  20
ATOM     20  C   UNL d   1       5.062   0.342   0.872  0.00  0.00     0.123 C 
BRANCH  20  21
ATOM     21  C   UNL d   1       5.808   0.909  -0.336  0.00  0.00     0.019 C 
BRANCH  21  22
ATOM     22  C   UNL d   1       5.586   2.414  -0.506  0.00  0.00    -0.003 C 
ATOM     23  C   UNL d   1       6.362   2.961  -1.694  0.00  0.00     0.005 C 
ENDBRANCH  21  22
ENDBRANCH  20  21
ENDBRANCH  18  20
ENDBRANCH   1  16
BRANCH   5  24
ATOM     24  O   UNL d   1      -0.895   2.649  -0.026  0.00  0.00    -0.346 OA
BRANCH  24  25
ATOM     25  C   UNL d   1      -2.200   2.998  -0.492  0.00  0.00     0.216 C 
BRANCH  25  26
ATOM     26  C   UNL d   1      -2.810   4.006   0.450  0.00  0.00    -0.012 A 
ATOM     27  C   UNL d   1      -3.638   3.650   1.527  0.00  0.00     0.042 A 
ATOM     28 CL   UNL d   1      -4.047   2.008   1.870  0.00  0.00    -0.084 Cl
ATOM     29  C   UNL d   1      -4.173   4.631   2.368  0.00  0.00     0.024 A 
ATOM     30  C   UNL d   1      -3.885   5.977   2.151  0.00  0.00     0.002 A 
ATOM     31  C   UNL d   1      -3.055   6.344   1.095  0.00  0.00     0.001 A 
ATOM     32  C   UNL d   1      -2.518   5.370   0.255  0.00  0.00     0.011 A 
ENDBRANCH  25  26
ENDBRANCH  24  25
ENDBRANCH   5  24
TORSDOF 10
