REMARK  2 active torsions:
REMARK  status: ('A' for Active; 'I' for Inactive)
REMARK    1  A    between atoms: C_10  and  CA_8 
REMARK    2  A    between atoms: OXT_12  and  C_10 
ROOT
ATOM      1  C   UNL d   1      -1.147   0.787   0.128  0.00  0.00     0.055 A 
ATOM      2  C   UNL d   1      -0.698  -0.520   0.052  0.00  0.00    -0.018 A 
ATOM      3  N   UNL d   1      -0.046   1.602   0.161  0.00  0.00    -0.356 N 
ATOM      4  C   UNL d   1      -2.582   1.226   0.177  0.00  0.00     0.194 C 
ATOM      5  N   UNL d   1      -3.422   0.138  -0.407  0.00  0.00     0.113 N 
ATOM      6  C   UNL d   1       0.722  -0.493   0.034  0.00  0.00    -0.001 A 
ATOM      7  C   UNL d   1      -1.632  -1.675  -0.035  0.00  0.00     0.088 C 
ATOM      8  CA  UNL d   1      -3.089  -1.215   0.192  0.00  0.00     0.322 C 
ATOM      9  C   UNL d   1       1.105   0.848   0.083  0.00  0.00     0.043 A 
ATOM     10  C   UNL d   1      -2.815   2.479  -0.686  0.00  0.00     0.056 C 
ATOM     11  C   UNL d   1      -3.008   1.533   1.622  0.00  0.00     0.056 C 
ATOM     12  C   UNL d   1       1.723  -1.482  -0.038  0.00  0.00     0.014 A 
ATOM     13  C   UNL d   1       2.447   1.250   0.054  0.00  0.00     0.030 A 
ATOM     14  C   UNL d   1       3.067  -1.098  -0.061  0.00  0.00     0.001 A 
ATOM     15  C   UNL d   1       3.421   0.248  -0.025  0.00  0.00     0.002 A 
ATOM     16  H   UNL d   1      -0.058   2.612   0.215  0.00  0.00     0.166 HD
ATOM     17  H   UNL d   1      -3.136   0.080  -1.393  0.00  0.00     0.318 HD
ENDROOT
BRANCH   8  18
ATOM     18  C   UNL d   1      -4.050  -2.244  -0.416  0.00  0.00     0.174 C 
ATOM     19  O   UNL d   1      -3.861  -3.449  -0.473  0.00  0.00    -0.648 OA
BRANCH  18  20
ATOM     20  OXT UNL d   1      -5.187  -1.651  -0.868  0.00  0.00    -0.775 OA
ATOM     21  HXT UNL d   1      -5.077  -0.680  -0.718  0.00  0.00     0.167 HD
ENDBRANCH  18  20
ENDBRANCH   8  18
TORSDOF 2
