REMARK  9 active torsions:
REMARK  status: ('A' for Active; 'I' for Inactive)
REMARK    1  A    between atoms: C_4  and  S_1 
REMARK    2  A    between atoms: C_6  and  S_1 
REMARK    3  A    between atoms: S_2  and  C_3 
REMARK    4  A    between atoms: C_7  and  S_2 
REMARK    5  A    between atoms: C_3  and  C_5 
REMARK    6  A    between atoms: C_5  and  C_4 
REMARK    7  A    between atoms: O_16  and  C_5 
REMARK    8  A    between atoms: O_24  and  C_17 
REMARK    9  A    between atoms: O_25  and  C_18 
ROOT
ATOM      1  C   UNL d   1       1.044  -1.160  -2.329  0.00  0.00     0.081 C 
ATOM      2  C   UNL d   1       1.030  -2.547  -3.004  0.00  0.00     0.047 C 
ENDROOT
BRANCH   1   3
ATOM      3  C   UNL d   1       0.126  -0.272  -3.192  0.00  0.00     0.184 C 
BRANCH   3   4
ATOM      4  S   UNL d   1       0.022   1.453  -2.794  0.00  0.00     0.178 S 
ATOM      5  O   UNL d   1      -0.781   2.084  -3.826  0.00  0.00    -0.223 OA
ATOM      6  O   UNL d   1      -0.385   1.554  -1.407  0.00  0.00    -0.223 OA
BRANCH   4   7
ATOM      7  C   UNL d   1       1.649   2.153  -2.948  0.00  0.00     0.059 A 
ATOM      8  C   UNL d   1       2.378   1.980  -4.128  0.00  0.00     0.026 A 
ATOM      9  C   UNL d   1       3.695   2.452  -4.208  0.00  0.00     0.038 A 
ATOM     10  C   UNL d   1       4.271   3.115  -3.122  0.00  0.00     0.068 A 
ATOM     11  C   UNL d   1       3.506   3.344  -1.974  0.00  0.00     0.038 A 
ATOM     12  C   UNL d   1       2.197   2.864  -1.879  0.00  0.00     0.026 A 
BRANCH  10  13
ATOM     13  O   UNL d   1       5.552   3.590  -3.060  0.00  0.00    -0.356 OA
ATOM     14  C   UNL d   1       6.433   3.197  -4.106  0.00  0.00     0.210 C 
ENDBRANCH  10  13
ENDBRANCH   4   7
ENDBRANCH   3   4
ENDBRANCH   1   3
BRANCH   1  15
ATOM     15  C   UNL d   1       0.612  -1.246  -0.846  0.00  0.00     0.184 C 
BRANCH  15  16
ATOM     16  S   UNL d   1       1.615  -2.389   0.091  0.00  0.00     0.178 S 
ATOM     17  O   UNL d   1       2.982  -1.903   0.029  0.00  0.00    -0.223 OA
ATOM     18  O   UNL d   1       1.291  -3.737  -0.340  0.00  0.00    -0.223 OA
BRANCH  16  19
ATOM     19  C   UNL d   1       1.091  -2.264   1.782  0.00  0.00     0.059 A 
ATOM     20  C   UNL d   1       0.652  -3.414   2.448  0.00  0.00     0.026 A 
ATOM     21  C   UNL d   1       0.294  -3.347   3.798  0.00  0.00     0.038 A 
ATOM     22  C   UNL d   1       0.373  -2.135   4.482  0.00  0.00     0.068 A 
ATOM     23  C   UNL d   1       0.817  -0.991   3.805  0.00  0.00     0.038 A 
ATOM     24  C   UNL d   1       1.186  -1.050   2.458  0.00  0.00     0.026 A 
BRANCH  22  25
ATOM     25  O   UNL d   1       0.058  -1.935   5.798  0.00  0.00    -0.356 OA
ATOM     26  C   UNL d   1      -0.358  -3.074   6.543  0.00  0.00     0.210 C 
ENDBRANCH  22  25
ENDBRANCH  16  19
ENDBRANCH  15  16
ENDBRANCH   1  15
BRANCH   1  27
ATOM     27  O   UNL d   1       2.369  -0.640  -2.463  0.00  0.00    -0.388 OA
ATOM     28  H   UNL d   1       2.946  -0.962  -1.736  0.00  0.00     0.210 HD
ENDBRANCH   1  27
TORSDOF 9
