REMARK  4 active torsions:
REMARK  status: ('A' for Active; 'I' for Inactive)
REMARK    1  A    between atoms: C_4  and  C_1 
REMARK       I    between atoms: N_8  and  C_4 
REMARK    2  A    between atoms: C_6  and  N_8 
REMARK    3  A    between atoms: C_7  and  C_12 
REMARK    4  A    between atoms: N_11  and  C_10 
ROOT
ATOM      1  C   UNL d   1       4.064  -2.467  -0.213  0.00  0.00     0.062 A 
ATOM      2  C   UNL d   1       4.420  -3.425   0.771  0.00  0.00     0.057 A 
ATOM      3  C   UNL d   1       2.498  -4.022  -1.292  0.00  0.00     0.050 A 
ATOM      4  C   UNL d   1       3.137  -2.779  -1.232  0.00  0.00     0.048 A 
ATOM      5  C   UNL d   1       3.758  -4.671   0.673  0.00  0.00     0.032 A 
ATOM      6  C   UNL d   1       2.824  -4.971  -0.325  0.00  0.00     0.018 A 
ENDROOT
BRANCH   1   7
ATOM      7  N   UNL d   1       4.567  -1.153  -0.194  0.00  0.00    -0.320 N 
ATOM      8  C   UNL d   1       5.228  -0.557  -1.252  0.00  0.00     0.264 C 
ATOM      9  O   UNL d   1       5.429  -1.138  -2.319  0.00  0.00    -0.267 OA
ATOM     10  H   UNL d   1       4.699  -0.725   0.704  0.00  0.00     0.169 HD
BRANCH   8  11
ATOM     11  C   UNL d   1       5.721   0.789  -0.979  0.00  0.00     0.096 A 
ATOM     12  S   UNL d   1       7.166   1.290  -1.749  0.00  0.00    -0.082 SA
ATOM     13  C   UNL d   1       7.060   2.887  -1.125  0.00  0.00     0.017 A 
ATOM     14  C   UNL d   1       7.946   3.948  -1.377  0.00  0.00     0.020 A 
ATOM     15  C   UNL d   1       5.935   3.043  -0.312  0.00  0.00     0.004 A 
ATOM     16  C   UNL d   1       7.659   5.210  -0.845  0.00  0.00     0.001 A 
ATOM     17  C   UNL d   1       6.534   5.406  -0.063  0.00  0.00     0.001 A 
ATOM     18  C   UNL d   1       5.682   4.336   0.218  0.00  0.00     0.014 A 
ATOM     19  C   UNL d   1       5.217   1.797  -0.180  0.00  0.00     0.068 A 
ATOM     20 CL   UNL d   1       3.829   1.676   0.833  0.00  0.00    -0.082 Cl
ENDBRANCH   8  11
ENDBRANCH   1   7
BRANCH   2  21
ATOM     21  N   UNL d   1       5.395  -3.279   1.750  0.00  0.00    -0.379 N 
ATOM     22  C   UNL d   1       5.726  -2.062   2.488  0.00  0.00     0.123 C 
ATOM     23  C   UNL d   1       7.116  -1.567   2.079  0.00  0.00     0.020 C 
ATOM     24  C   UNL d   1       8.162  -2.656   2.324  0.00  0.00     0.003 C 
ATOM     25  C   UNL d   1       7.765  -3.954   1.625  0.00  0.00     0.020 C 
ATOM     26  C   UNL d   1       6.341  -4.386   1.987  0.00  0.00     0.123 C 
ENDBRANCH   2  21
BRANCH   3  27
ATOM     27  C   UNL d   1       1.458  -4.337  -2.338  0.00  0.00     0.417 C 
ATOM     28  F   UNL d   1       1.177  -3.297  -3.170  0.00  0.00    -0.166 F 
ATOM     29  F   UNL d   1       1.819  -5.376  -3.141  0.00  0.00    -0.166 F 
ATOM     30  F   UNL d   1       0.264  -4.698  -1.785  0.00  0.00    -0.166 F 
ENDBRANCH   3  27
TORSDOF 4
