REMARK  6 active torsions:
REMARK  status: ('A' for Active; 'I' for Inactive)
REMARK    1  A    between atoms: C_2  and  C_1 
REMARK    2  A    between atoms: C_6  and  S_21 
REMARK    3  A    between atoms: C_23  and  C_10 
REMARK    4  A    between atoms: C_25  and  C_20 
REMARK    5  A    between atoms: S_21  and  C_23 
REMARK    6  A    between atoms: C_26  and  C_25 
ROOT
ATOM      1  C   UNL d   1       3.671   3.316  -4.367  0.00  0.00     0.192 A 
ATOM      2  N   UNL d   1       4.290   3.111  -3.223  0.00  0.00    -0.322 N 
ATOM      3  HN  UNL d   1       5.251   3.343  -2.973  1.00  0.00     0.169 HD
ATOM      4  C   UNL d   1       3.330   2.509  -2.449  0.00  0.00     0.114 A 
ATOM      5  N   UNL d   1       2.168   2.292  -3.080  0.00  0.00    -0.246 N 
ATOM      6  HN  UNL d   1       1.328   1.837  -2.721  1.00  0.00     0.196 HD
ATOM      7  O   UNL d   1       2.383   2.839  -4.344  0.00  0.00    -0.217 OA
ENDROOT
BRANCH   4   8
ATOM      8  C   UNL d   1       3.590   2.090  -1.045  0.00  0.00     0.160 C 
BRANCH   8   9
ATOM      9  S   UNL d   1       2.426   2.804   0.154  0.00  0.00    -0.086 SA
BRANCH   9  10
ATOM     10  C   UNL d   1       2.839   4.482   0.027  0.00  0.00     0.147 A 
ATOM     11  N   UNL d   1       1.774   5.290   0.258  0.00  0.00    -0.304 N 
ATOM     12  C   UNL d   1       1.887   6.644   0.230  0.00  0.00     0.249 A 
ATOM     13  H   UNL d   1       0.872   4.888   0.468  0.00  0.00     0.171 HD
ATOM     14  O   UNL d   1       0.950   7.404   0.444  0.00  0.00    -0.268 OA
ATOM     15  C   UNL d   1       3.231   7.150  -0.077  0.00  0.00     0.099 A 
ATOM     16  C   UNL d   1       4.214   6.262  -0.293  0.00  0.00     0.016 A 
ATOM     17  N   UNL d   1       4.032   4.897  -0.233  0.00  0.00    -0.340 N 
ATOM     18  HN  UNL d   1       4.803   4.247  -0.387  1.00  0.00     0.167 HD
BRANCH  16  19
ATOM     19  C   UNL d   1       5.618   6.728  -0.606  0.00  0.00     0.057 C 
BRANCH  19  20
ATOM     20  C   UNL d   1       6.095   6.335  -2.007  0.00  0.00     0.002 C 
ATOM     21  C   UNL d   1       5.266   6.974  -3.113  0.00  0.00     0.005 C 
ENDBRANCH  19  20
ENDBRANCH  16  19
ENDBRANCH   9  10
ENDBRANCH   8   9
ENDBRANCH   4   8
BRANCH   1  22
ATOM     22  C   UNL d   1       4.261   3.968  -5.492  0.00  0.00     0.096 A 
ATOM     23  C   UNL d   1       5.570   4.367  -5.733  0.00  0.00     0.041 A 
ATOM     24  N   UNL d   1       5.756   5.021  -6.950  0.00  0.00    -0.296 N 
ATOM     25  C   UNL d   1       6.775   4.197  -4.880  0.00  0.00     0.071 C 
ATOM     26  N   UNL d   1       4.636   5.113  -7.644  0.00  0.00    -0.061 NA
ATOM     27  HN  UNL d   1       6.653   5.386  -7.268  1.00  0.00     0.183 HD
ATOM     28  S   UNL d   1       3.334   4.420  -6.865  0.00  0.00     0.006 SA
ENDBRANCH   1  22
TORSDOF 6
