REMARK  3 active torsions:
REMARK  status: ('A' for Active; 'I' for Inactive)
REMARK    1  A    between atoms: C_4  and  C_1 
REMARK    2  A    between atoms: C_2  and  C_3 
REMARK       I    between atoms: N_5  and  C_4 
REMARK    3  A    between atoms: C_6  and  N_5 
ROOT
ATOM      1  C   UNL d   1       3.343  -1.278  -1.048  0.00  0.00     0.074 A 
ATOM      2  C   UNL d   1       4.033  -0.464  -0.133  0.00  0.00     0.050 A 
ATOM      3  C   UNL d   1       3.566  -2.672  -1.027  0.00  0.00     0.018 A 
ATOM      4  C   UNL d   1       4.951  -1.051   0.752  0.00  0.00     0.030 A 
ATOM      5  C   UNL d   1       4.462  -3.244  -0.127  0.00  0.00     0.001 A 
ATOM      6  C   UNL d   1       5.162  -2.431   0.756  0.00  0.00     0.002 A 
ENDROOT
BRANCH   2   7
ATOM      7  N   UNL d   1       3.766   0.923  -0.050  0.00  0.00    -0.322 N 
ATOM      8  C   UNL d   1       4.720   1.887   0.216  0.00  0.00     0.256 C 
ATOM      9  O   UNL d   1       5.932   1.672   0.244  0.00  0.00    -0.267 OA
ATOM     10  H   UNL d   1       2.905   1.266  -0.465  0.00  0.00     0.169 HD
BRANCH   8  11
ATOM     11  C   UNL d   1       4.186   3.240   0.398  0.00  0.00     0.039 A 
ATOM     12  C   UNL d   1       4.988   4.362   0.252  0.00  0.00     0.066 A 
ATOM     13  S   UNL d   1       4.159   5.826   0.548  0.00  0.00    -0.113 SA
ATOM     14  C   UNL d   1       2.710   4.995   0.902  0.00  0.00     0.050 A 
ATOM     15  C   UNL d   1       2.855   3.629   0.779  0.00  0.00     0.024 A 
ENDBRANCH   8  11
ENDBRANCH   2   7
BRANCH   1  16
ATOM     16  C   UNL d   1       2.456  -0.731  -2.136  0.00  0.00     0.419 C 
ATOM     17  F   UNL d   1       2.272   0.621  -2.082  0.00  0.00    -0.166 F 
ATOM     18  F   UNL d   1       2.943  -0.987  -3.382  0.00  0.00    -0.166 F 
ATOM     19  F   UNL d   1       1.203  -1.265  -2.109  0.00  0.00    -0.166 F 
ENDBRANCH   1  16
TORSDOF 3
