REMARK  1 active torsions:
REMARK  status: ('A' for Active; 'I' for Inactive)
REMARK       I    between atoms: C_2  and  N_1 
REMARK    1  A    between atoms: C_3  and  C_2 
ROOT
ATOM      1  N   UNL d   1       0.783   1.511   0.581  0.00  0.00    -0.307 N 
ATOM      2  C   UNL d   1       0.871   2.272   1.770  0.00  0.00     0.261 C 
ATOM      3  C   UNL d   1       1.871   1.392  -0.398  0.00  0.00     0.098 C 
ATOM      4  N   UNL d   1       0.938  -1.428  -0.284  0.00  0.00    -0.325 N 
ATOM      5  C   UNL d   1      -0.345   0.641   0.409  0.00  0.00     0.064 A 
ATOM      6  C   UNL d   1       2.251  -1.121  -0.347  0.00  0.00     0.224 C 
ATOM      7  C   UNL d   1       2.793   0.244  -0.067  0.00  0.00     0.128 C 
ATOM      8  C   UNL d   1      -0.239  -0.703  -0.006  0.00  0.00     0.061 A 
ATOM      9  O   UNL d   1      -0.044   2.470   2.569  0.00  0.00    -0.267 OA
ATOM     10  O   UNL d   1       3.037  -2.036  -0.619  0.00  0.00    -0.273 OA
ATOM     11  C   UNL d   1       1.403   1.440  -1.864  0.00  0.00     0.033 C 
ATOM     12  C   UNL d   1      -1.631   1.165   0.655  0.00  0.00     0.032 A 
ATOM     13  C   UNL d   1      -1.417  -1.468  -0.142  0.00  0.00     0.032 A 
ATOM     14  C   UNL d   1      -2.784   0.394   0.504  0.00  0.00     0.002 A 
ATOM     15  C   UNL d   1      -2.677  -0.928   0.107  0.00  0.00     0.002 A 
ATOM     16  H   UNL d   1       0.809  -2.411  -0.504  0.00  0.00     0.169 HD
ENDROOT
BRANCH   2  17
ATOM     17  C   UNL d   1       2.171   2.832   2.181  0.00  0.00     0.071 A 
ATOM     18  C   UNL d   1       2.804   2.265   3.292  0.00  0.00     0.135 A 
ATOM     19  C   UNL d   1       4.013   2.770   3.756  0.00  0.00     0.085 A 
ATOM     20  F   UNL d   1       2.270   1.208   3.919  0.00  0.00    -0.205 F 
ATOM     21  C   UNL d   1       4.585   3.850   3.097  0.00  0.00     0.119 A 
ATOM     22  C   UNL d   1       3.959   4.441   2.000  0.00  0.00     0.043 A 
ATOM     23  F   UNL d   1       5.758   4.334   3.522  0.00  0.00    -0.206 F 
ATOM     24  C   UNL d   1       2.731   3.948   1.550  0.00  0.00     0.023 A 
ENDBRANCH   2  17
TORSDOF 1
