REMARK  1 active torsions:
REMARK  status: ('A' for Active; 'I' for Inactive)
REMARK       I    between atoms: C_8  and  N_1 
REMARK    1  A    between atoms: C_9  and  C_6 
ROOT
ATOM      1  N   UNL d   1      -3.037   1.064  -0.154  0.00  0.00    -0.251 N 
ATOM      2  N   UNL d   1      -1.728   1.475  -0.278  0.00  0.00    -0.298 N 
ATOM      3  HN  UNL d   1      -1.395   2.392  -0.575  1.00  0.00     0.187 HD
ATOM      4  C   UNL d   1      -1.009   0.453   0.064  0.00  0.00     0.043 C 
ATOM      5  C   UNL d   1      -1.763  -0.723   0.630  0.00  0.00     0.068 C 
ATOM      6  C   UNL d   1      -3.165  -0.373   0.134  0.00  0.00     0.161 C 
ATOM      7  C   UNL d   1       0.450   0.387   0.011  0.00  0.00    -0.005 A 
ATOM      8  C   UNL d   1      -4.114   1.921  -0.252  0.00  0.00     0.234 C 
ATOM      9  C   UNL d   1      -1.127  -2.086   0.372  0.00  0.00     0.018 C 
ATOM     10  C   UNL d   1       1.022  -0.874  -0.196  0.00  0.00    -0.046 A 
ATOM     11  O   UNL d   1      -5.277   1.555  -0.069  0.00  0.00    -0.272 OA
ATOM     12  C   UNL d   1       0.130  -2.049  -0.504  0.00  0.00     0.040 C 
ATOM     13  C   UNL d   1       1.229   1.532   0.174  0.00  0.00     0.014 A 
ATOM     14  C   UNL d   1      -3.814   3.368  -0.558  0.00  0.00     0.119 C 
ATOM     15  C   UNL d   1       2.416  -0.977  -0.218  0.00  0.00     0.008 A 
ATOM     16  C   UNL d   1       2.617   1.411   0.161  0.00  0.00     0.001 A 
ATOM     17  C   UNL d   1       3.208   0.161  -0.026  0.00  0.00     0.001 A 
ENDROOT
BRANCH   6  18
ATOM     18  C   UNL d   1      -3.629  -1.091  -1.112  0.00  0.00     0.008 A 
ATOM     19  S   UNL d   1      -4.989  -2.140  -1.009  0.00  0.00    -0.104 SA
ATOM     20  C   UNL d   1      -4.979  -2.432  -2.691  0.00  0.00     0.050 A 
ATOM     21  C   UNL d   1      -3.939  -1.788  -3.321  0.00  0.00     0.008 A 
ATOM     22  C   UNL d   1      -3.155  -1.020  -2.410  0.00  0.00     0.017 A 
ENDBRANCH   6  18
TORSDOF 1
