REMARK  7 active torsions:
REMARK  status: ('A' for Active; 'I' for Inactive)
REMARK    1  A    between atoms: C_4  and  C_1 
REMARK    2  A    between atoms: N_5  and  C_2 
REMARK    3  A    between atoms: C_10  and  C_4 
REMARK       I    between atoms: C_8  and  N_5 
REMARK    4  A    between atoms: C_20  and  C_7 
REMARK    5  A    between atoms: C_12  and  C_8 
REMARK    6  A    between atoms: N_9  and  C_12 
REMARK    7  A    between atoms: O_19  and  C_16 
ROOT
ATOM      1  C   UNL d   1       1.593   0.507   1.427  0.00  0.00     0.050 C 
ATOM      2  C   UNL d   1       0.362   1.113   1.215  0.00  0.00     0.091 C 
ATOM      3  S   UNL d   1      -0.873  -0.007   0.873  0.00  0.00    -0.076 SA
ATOM      4  C   UNL d   1       1.483  -0.916   1.219  0.00  0.00     0.033 C 
ATOM      5  C   UNL d   1       0.223  -1.307   0.816  0.00  0.00    -0.015 C 
ENDROOT
BRANCH   1   6
ATOM      6  C   UNL d   1       2.816   1.240   1.762  0.00  0.00     0.195 C 
ATOM      7  O   UNL d   1       2.999   2.397   1.386  0.00  0.00    -0.287 OA
BRANCH   6   8
ATOM      8  C   UNL d   1       3.880   0.576   2.576  0.00  0.00     0.015 A 
ATOM      9  C   UNL d   1       3.579  -0.204   3.702  0.00  0.00     0.018 A 
ATOM     10  C   UNL d   1       4.610  -0.743   4.490  0.00  0.00     0.037 A 
ATOM     11  C   UNL d   1       5.944  -0.499   4.162  0.00  0.00     0.068 A 
ATOM     12  C   UNL d   1       6.243   0.254   3.024  0.00  0.00     0.037 A 
ATOM     13  C   UNL d   1       5.221   0.807   2.245  0.00  0.00     0.018 A 
BRANCH  11  14
ATOM     14  O   UNL d   1       7.029  -0.972   4.849  0.00  0.00    -0.356 OA
ATOM     15  C   UNL d   1       6.853  -1.126   6.253  0.00  0.00     0.210 C 
ENDBRANCH  11  14
ENDBRANCH   6   8
ENDBRANCH   1   6
BRANCH   2  16
ATOM     16  N   UNL d   1       0.056   2.466   1.122  0.00  0.00    -0.319 N 
ATOM     17  C   UNL d   1      -1.196   3.001   1.381  0.00  0.00     0.251 C 
ATOM     18  O   UNL d   1      -2.045   2.485   2.114  0.00  0.00    -0.271 OA
ATOM     19  H   UNL d   1       0.811   3.100   0.860  0.00  0.00     0.169 HD
BRANCH  17  20
ATOM     20  C   UNL d   1      -1.454   4.368   0.742  0.00  0.00     0.374 C 
BRANCH  20  21
ATOM     21  N   UNL d   1      -1.036   4.384  -0.669  0.00  0.00     0.097 N 
ATOM     22  C   UNL d   1      -1.868   3.521  -1.519  0.00  0.00     0.273 C 
ATOM     23  C   UNL d   1      -1.357   3.920  -2.890  0.00  0.00     0.032 C 
ATOM     24  C   UNL d   1      -1.199   5.431  -2.780  0.00  0.00     0.032 C 
ATOM     25  C   UNL d   1      -1.139   5.713  -1.278  0.00  0.00     0.273 C 
ENDBRANCH  20  21
ENDBRANCH  17  20
ENDBRANCH   2  16
BRANCH   5  26
ATOM     26  C   UNL d   1      -0.233  -2.652   0.338  0.00  0.00     0.042 C 
ATOM     27  C   UNL d   1      -0.027  -2.788  -1.167  0.00  0.00     0.010 C 
ENDBRANCH   5  26
TORSDOF 7
