REMARK  5 active torsions:
REMARK  status: ('A' for Active; 'I' for Inactive)
REMARK    1  A    between atoms: C_2  and  S_1 
REMARK    2  A    between atoms: N_3  and  S_1 
REMARK    3  A    between atoms: C_15  and  N_3 
REMARK    4  A    between atoms: N_4  and  C_8 
REMARK    5  A    between atoms: C_16  and  C_15 
ROOT
ATOM      1  C   UNL d   1      -0.094  -0.899  -6.568  0.00  0.00     0.030 A 
ATOM      2  C   UNL d   1       0.179  -1.783  -5.516  0.00  0.00     0.030 A 
ATOM      3  C   UNL d   1      -0.091   0.468  -6.257  0.00  0.00     0.030 A 
ATOM      4  C   UNL d   1       0.534   0.035  -3.945  0.00  0.00    -0.044 A 
ATOM      5  C   UNL d   1       0.481  -1.333  -4.227  0.00  0.00     0.010 A 
ATOM      6  C   UNL d   1       0.228   0.934  -4.972  0.00  0.00     0.010 A 
ENDROOT
BRANCH   4   7
ATOM      7  C   UNL d   1       0.934   0.517  -2.571  0.00  0.00     0.143 C 
BRANCH   7   8
ATOM      8  N   UNL d   1       2.320   0.155  -2.259  0.00  0.00    -0.211 NA
ATOM      9  H   UNL d   1       2.588  -0.802  -2.478  0.00  0.00     0.140 HD
BRANCH   8  10
ATOM     10  S   UNL d   1       2.907   0.634  -0.759  0.00  0.00     0.248 S 
ATOM     11  O   UNL d   1       4.278   0.197  -0.669  0.00  0.00    -0.205 OA
ATOM     12  O   UNL d   1       2.517   2.008  -0.535  0.00  0.00    -0.205 OA
BRANCH  10  13
ATOM     13  C   UNL d   1       2.035  -0.288   0.490  0.00  0.00     0.115 A 
ATOM     14  S   UNL d   1       2.183  -1.992   0.421  0.00  0.00    -0.089 SA
ATOM     15  C   UNL d   1       1.214  -2.195   1.819  0.00  0.00     0.051 A 
ATOM     16  C   UNL d   1       0.756  -0.992   2.310  0.00  0.00     0.009 A 
ATOM     17  C   UNL d   1       1.226   0.110   1.540  0.00  0.00     0.033 A 
ENDBRANCH  10  13
ENDBRANCH   8  10
ENDBRANCH   7   8
ENDBRANCH   4   7
BRANCH   1  18
ATOM     18  N   UNL d   1      -0.284  -1.328  -7.869  0.00  0.00    -0.377 N 
ATOM     19  C   UNL d   1       0.290  -2.594  -8.352  0.00  0.00     0.149 C 
ATOM     20  C   UNL d   1      -0.804  -3.657  -8.501  0.00  0.00     0.187 C 
ATOM     21  O   UNL d   1      -1.844  -3.200  -9.380  0.00  0.00    -0.388 OA
ATOM     22  C   UNL d   1      -2.457  -2.011  -8.849  0.00  0.00     0.187 C 
ATOM     23  C   UNL d   1      -1.444  -0.865  -8.653  0.00  0.00     0.149 C 
ENDBRANCH   1  18
TORSDOF 5
