REMARK  4 active torsions:
REMARK  status: ('A' for Active; 'I' for Inactive)
REMARK    1  A    between atoms: C_2  and  N_1 
REMARK    2  A    between atoms: N_10  and  C_4 
REMARK    3  A    between atoms: N_5  and  N_10 
REMARK    4  A    between atoms: O_18  and  C_16 
ROOT
ATOM      1  C   UNL d   1       3.547   4.113   0.800  0.00  0.00     0.209 C 
ATOM      2  N   UNL d   1       2.459   3.578   1.261  0.00  0.00    -0.281 N 
ATOM      3  HN  UNL d   1       2.047   3.939   2.122  1.00  0.00     0.188 HD
ATOM      4  N   UNL d   1       4.588   3.371  -1.459  0.00  0.00    -0.189 NA
ATOM      5  N   UNL d   1       4.564   5.984   2.289  0.00  0.00    -0.189 NA
ATOM      6  C   UNL d   1       4.133   3.699  -0.439  0.00  0.00     0.130 C 
ATOM      7  C   UNL d   1       4.100   5.149   1.630  0.00  0.00     0.130 C 
ENDROOT
BRANCH   2   8
ATOM      8  N   UNL d   1       1.858   2.541   0.612  0.00  0.00    -0.297 N 
ATOM      9  H   UNL d   1       2.055   2.280  -0.365  0.00  0.00     0.187 HD
BRANCH   8  10
ATOM     10  C   UNL d   1       0.602   2.096   1.083  0.00  0.00     0.081 A 
ATOM     11  C   UNL d   1       0.113   0.802   0.827  0.00  0.00     0.133 A 
ATOM     12  C   UNL d   1      -1.111   0.346   1.335  0.00  0.00     0.075 A 
ATOM     13  C   UNL d   1      -1.893   1.198   2.114  0.00  0.00     0.070 A 
ATOM     14  C   UNL d   1      -1.417   2.473   2.416  0.00  0.00     0.039 A 
ATOM     15  C   UNL d   1      -0.177   2.905   1.923  0.00  0.00     0.036 A 
BRANCH  11  16
ATOM     16  N   UNL d   1       0.891  -0.118   0.019  0.00  0.00    -0.113 N 
ATOM     17  O   UNL d   1       1.310   0.308  -1.069  0.00  0.00    -0.532 OA
ATOM     18  O   UNL d   1       1.080  -1.257   0.467  0.00  0.00    -0.532 OA
ENDBRANCH  11  16
BRANCH  13  19
ATOM     19  O   UNL d   1      -3.091   0.675   2.510  0.00  0.00    -0.356 OA
ATOM     20  C   UNL d   1      -3.963   1.536   3.234  0.00  0.00     0.210 C 
ENDBRANCH  13  19
ENDBRANCH   8  10
ENDBRANCH   2   8
TORSDOF 4
