REMARK  7 active torsions:
REMARK  status: ('A' for Active; 'I' for Inactive)
REMARK    1  A    between atoms: C_3  and  S_1 
REMARK    2  A    between atoms: C_5  and  S_1 
REMARK    3  A    between atoms: C_2  and  C_3 
REMARK    4  A    between atoms: C_4  and  C_2 
REMARK    5  A    between atoms: C_6  and  C_3 
REMARK    6  A    between atoms: C_9  and  C_4 
REMARK    7  A    between atoms: N_12  and  C_7 
ROOT
ATOM      1  C   UNL d   1       0.497   1.623  -0.138  0.00  0.00     0.092 C 
ENDROOT
BRANCH   1   2
ATOM      2  C   UNL d   1       0.990   2.251  -1.458  0.00  0.00     0.104 C 
BRANCH   2   3
ATOM      3  C   UNL d   1       0.756   1.447  -2.726  0.00  0.00     0.161 C 
ATOM      4  O   UNL d   1       0.634   0.221  -2.728  0.00  0.00    -0.292 OA
BRANCH   3   5
ATOM      5  C   UNL d   1       0.726   2.156  -4.050  0.00  0.00     0.010 A 
ATOM      6  C   UNL d   1       1.065   3.507  -4.199  0.00  0.00     0.015 A 
ATOM      7  C   UNL d   1       1.007   4.112  -5.461  0.00  0.00     0.001 A 
ATOM      8  C   UNL d   1       0.623   3.372  -6.579  0.00  0.00     0.000 A 
ATOM      9  C   UNL d   1       0.299   2.026  -6.442  0.00  0.00     0.001 A 
ATOM     10  C   UNL d   1       0.350   1.420  -5.185  0.00  0.00     0.015 A 
ENDBRANCH   3   5
ENDBRANCH   2   3
ENDBRANCH   1   2
BRANCH   1  11
ATOM     11  S   UNL d   1       1.195  -0.025   0.320  0.00  0.00    -0.118 SA
BRANCH  11  12
ATOM     12  C   UNL d   1       2.906   0.359   0.684  0.00  0.00     0.022 A 
ATOM     13  C   UNL d   1       3.923   0.097  -0.257  0.00  0.00     0.022 A 
ATOM     14  C   UNL d   1       5.260   0.281   0.121  0.00  0.00     0.024 A 
ATOM     15  C   UNL d   1       5.590   0.638   1.430  0.00  0.00     0.002 A 
ATOM     16  C   UNL d   1       4.583   0.864   2.365  0.00  0.00     0.001 A 
ATOM     17  C   UNL d   1       3.244   0.727   1.993  0.00  0.00     0.020 A 
BRANCH  13  18
ATOM     18  N   UNL d   1       3.625  -0.148  -1.613  0.00  0.00    -0.302 NA
ATOM     19  H   UNL d   1       2.669  -0.496  -1.738  0.00  0.00     0.124 HD
ATOM     20  H   UNL d   1       4.304  -0.745  -2.074  0.00  0.00     0.124 HD
ENDBRANCH  13  18
ENDBRANCH  11  12
ENDBRANCH   1  11
BRANCH   1  21
ATOM     21  C   UNL d   1      -1.035   1.627  -0.055  0.00  0.00    -0.043 A 
ATOM     22  C   UNL d   1      -1.820   0.575  -0.560  0.00  0.00     0.010 A 
ATOM     23  C   UNL d   1      -3.215   0.606  -0.467  0.00  0.00     0.024 A 
ATOM     24  C   UNL d   1      -3.845   1.703   0.112  0.00  0.00     0.034 A 
ATOM     25  C   UNL d   1      -3.092   2.767   0.599  0.00  0.00     0.024 A 
ATOM     26 CL   UNL d   1      -5.562   1.747   0.221  0.00  0.00    -0.084 Cl
ATOM     27  C   UNL d   1      -1.696   2.729   0.517  0.00  0.00     0.010 A 
ENDBRANCH   1  21
TORSDOF 7
