REMARK  0 active torsions:
REMARK  status: ('A' for Active; 'I' for Inactive)
ROOT
ATOM      1  N   UNL d   1       0.719   0.358  -0.003  0.00  0.00    -0.251 N 
ATOM      2  C   UNL d   1       1.278  -0.897  -0.002  0.00  0.00     0.174 A 
ATOM      3  C   UNL d   1       1.519   1.481  -0.004  0.00  0.00     0.324 A 
ATOM      4  C   UNL d   1       3.033   1.211  -0.003  0.00  0.00     0.330 A 
ATOM      5  N   UNL d   1       2.534  -1.175  -0.002  0.00  0.00    -0.274 N 
ATOM      6  HN  UNL d   1       2.861  -2.142  -0.001  1.00  0.00     0.189 HD
ATOM      7  N   UNL d   1       3.417  -0.129  -0.002  0.00  0.00    -0.255 N 
ATOM      8  S   UNL d   1       0.061  -2.160  -0.001  0.00  0.00    -0.050 SA
ATOM      9  C   UNL d   1      -0.700   0.349  -0.002  0.00  0.00     0.062 A 
ATOM     10  C   UNL d   1      -1.226  -0.948  -0.002  0.00  0.00     0.035 A 
ATOM     11  O   UNL d   1       1.127   2.645  -0.005  0.00  0.00    -0.261 OA
ATOM     12  O   UNL d   1       3.815   2.155  -0.002  0.00  0.00    -0.260 OA
ATOM     13  C   UNL d   1       4.820  -0.501   0.001  0.00  0.00     0.181 C 
ATOM     14  C   UNL d   1      -1.565   1.437  -0.002  0.00  0.00     0.031 A 
ATOM     15  C   UNL d   1      -2.590  -1.192  -0.000  0.00  0.00     0.021 A 
ATOM     16  C   UNL d   1      -2.947   1.205  -0.001  0.00  0.00     0.002 A 
ATOM     17  C   UNL d   1      -3.456  -0.101  -0.000  0.00  0.00     0.002 A 
ENDROOT
TORSDOF 0
