REMARK  3 active torsions:
REMARK  status: ('A' for Active; 'I' for Inactive)
REMARK    1  A    between atoms: N_19  and  C_4 
REMARK    2  A    between atoms: C_17  and  N_18 
REMARK    3  A    between atoms: N_18  and  N_19 
ROOT
ATOM      1  C   UNL d   1       4.314   5.125  -1.351  0.00  0.00     0.141 C 
ATOM      2  C   UNL d   1       5.503   4.389  -1.583  0.00  0.00     0.112 C 
ATOM      3  C   UNL d   1       4.268   6.503  -1.708  0.00  0.00     0.112 C 
ATOM      4  N   UNL d   1       6.472   3.776  -1.771  0.00  0.00    -0.191 NA
ATOM      5  N   UNL d   1       4.192   7.625  -1.992  0.00  0.00    -0.191 NA
ATOM      6  C   UNL d   1       3.221   4.550  -0.819  0.00  0.00     0.141 C 
ENDROOT
BRANCH   6   7
ATOM      7  N   UNL d   1       2.992   3.258  -0.411  0.00  0.00    -0.308 N 
ATOM      8  H   UNL d   1       3.768   2.583  -0.444  0.00  0.00     0.186 HD
BRANCH   7   9
ATOM      9  N   UNL d   1       1.827   2.777   0.106  0.00  0.00    -0.285 N 
ATOM     10  H   UNL d   1       1.000   3.356  -0.008  0.00  0.00     0.188 HD
BRANCH   9  11
ATOM     11  C   UNL d   1       1.517   1.402   0.053  0.00  0.00     0.134 A 
ATOM     12  C   UNL d   1       0.185   0.945   0.055  0.00  0.00     0.044 A 
ATOM     13  C   UNL d   1       0.010  -0.429  -0.009  0.00  0.00     0.088 A 
ATOM     14  C   UNL d   1      -1.086   1.618   0.089  0.00  0.00     0.025 A 
ATOM     15  N   UNL d   1       0.980  -1.354  -0.059  0.00  0.00    -0.346 N 
ATOM     16  S   UNL d   1      -1.634  -0.883  -0.027  0.00  0.00    -0.083 SA
ATOM     17  C   UNL d   1       2.201  -0.811  -0.058  0.00  0.00     0.182 A 
ATOM     18  HN  UNL d   1       0.806  -2.359  -0.095  1.00  0.00     0.167 HD
ATOM     19  N   UNL d   1       2.520   0.492  -0.017  0.00  0.00    -0.337 N 
ATOM     20  HN  UNL d   1       3.495   0.792  -0.039  1.00  0.00     0.168 HD
ATOM     21  C   UNL d   1      -2.151   0.746   0.040  0.00  0.00     0.053 A 
ENDBRANCH   9  11
ENDBRANCH   7   9
ENDBRANCH   6   7
TORSDOF 3
