REMARK  3 active torsions:
REMARK  status: ('A' for Active; 'I' for Inactive)
REMARK    1  A    between atoms: N_6  and  N_2 
REMARK    2  A    between atoms: O_8  and  C_4 
REMARK    3  A    between atoms: C_7  and  N_6 
ROOT
ATOM      1  C   UNL d   1       1.396   0.578  -0.115  0.00  0.00     0.058 C 
ATOM      2  N   UNL d   1       2.065  -1.811   0.013  0.00  0.00    -0.304 N 
ATOM      3  HN  UNL d   1       1.805  -2.796   0.064  1.00  0.00     0.186 HD
ATOM      4  C   UNL d   1       0.387   1.456  -0.026  0.00  0.00     0.045 C 
ATOM      5  C   UNL d   1       1.151  -0.884  -0.015  0.00  0.00     0.028 C 
ATOM      6  C   UNL d   1      -1.054   1.085   0.131  0.00  0.00     0.065 C 
ATOM      7  C   UNL d   1      -1.385  -0.372  -0.162  0.00  0.00     0.012 C 
ATOM      8  C   UNL d   1      -0.281  -1.381   0.109  0.00  0.00     0.059 C 
ENDROOT
BRANCH   2   9
ATOM      9  N   UNL d   1       3.376  -1.443  -0.026  0.00  0.00    -0.301 N 
ATOM     10  H   UNL d   1       3.659  -0.654   0.555  0.00  0.00     0.187 HD
BRANCH   9  11
ATOM     11  C   UNL d   1       4.348  -2.472   0.036  0.00  0.00     0.048 A 
ATOM     12  C   UNL d   1       4.027  -3.826  -0.120  0.00  0.00     0.031 A 
ATOM     13  C   UNL d   1       5.024  -4.807  -0.120  0.00  0.00     0.002 A 
ATOM     14  C   UNL d   1       6.358  -4.448   0.007  0.00  0.00     0.000 A 
ATOM     15  C   UNL d   1       6.701  -3.097   0.127  0.00  0.00     0.002 A 
ATOM     16  C   UNL d   1       5.706  -2.123   0.133  0.00  0.00     0.031 A 
ENDBRANCH   9  11
ENDBRANCH   2   9
BRANCH   4  17
ATOM     17  O   UNL d   1       0.610   2.817  -0.068  0.00  0.00    -0.365 OA
ATOM     18  H   UNL d   1       1.565   2.993  -0.141  0.00  0.00     0.217 HD
ENDBRANCH   4  17
TORSDOF 3
