REMARK  3 active torsions:
REMARK  status: ('A' for Active; 'I' for Inactive)
REMARK    1  A    between atoms: N_7  and  N_1 
REMARK    2  A    between atoms: C_6  and  C_9 
REMARK    3  A    between atoms: C_8  and  N_7 
ROOT
ATOM      1  C   UNL d   1      -3.194   1.240  -0.730  0.00  0.00     0.100 A 
ATOM      2  C   UNL d   1      -5.110   2.259  -1.779  0.00  0.00     0.052 A 
ATOM      3  N   UNL d   1      -2.501   2.400  -0.800  0.00  0.00    -0.350 N 
ATOM      4  HN  UNL d   1      -1.552   2.460  -0.431  1.00  0.00     0.167 HD
ATOM      5  C   UNL d   1      -4.516   1.156  -1.159  0.00  0.00     0.060 A 
ATOM      6  C   UNL d   1      -4.375   3.442  -1.884  0.00  0.00     0.041 A 
ATOM      7  C   UNL d   1      -3.087   3.478  -1.369  0.00  0.00     0.007 A 
ATOM      8  C   UNL d   1      -2.268   4.730  -1.468  0.00  0.00     0.068 C 
ENDROOT
BRANCH   1   9
ATOM      9  N   UNL d   1      -2.579   0.066  -0.209  0.00  0.00    -0.177 NA
ATOM     10  H   UNL d   1      -2.945  -0.744  -0.705  0.00  0.00     0.155 HD
BRANCH   9  11
ATOM     11  N   UNL d   1      -1.178   0.110  -0.396  0.00  0.00    -0.200 N 
ATOM     12  C   UNL d   1      -0.310  -0.380   0.538  0.00  0.00     0.272 C 
ATOM     13  C   UNL d   1       1.004  -0.447  -0.140  0.00  0.00     0.019 C 
ATOM     14  O   UNL d   1      -0.520  -0.805   1.660  0.00  0.00    -0.266 OA
ATOM     15  C   UNL d   1       2.259  -0.814   0.556  0.00  0.00     0.055 C 
ATOM     16  C   UNL d   1       0.815  -0.181  -1.441  0.00  0.00     0.019 C 
ATOM     17  C   UNL d   1      -0.628   0.037  -1.646  0.00  0.00     0.272 C 
ATOM     18  C   UNL d   1       1.792  -0.170  -2.554  0.00  0.00     0.055 C 
ATOM     19  O   UNL d   1      -1.181   0.006  -2.733  0.00  0.00    -0.266 OA
ENDBRANCH   9  11
ENDBRANCH   1   9
BRANCH   2  20
ATOM     20  C   UNL d   1      -6.492   2.172  -2.367  0.00  0.00     0.417 C 
ATOM     21  F   UNL d   1      -7.079   0.955  -2.200  0.00  0.00    -0.166 F 
ATOM     22  F   UNL d   1      -7.348   3.079  -1.823  0.00  0.00    -0.166 F 
ATOM     23  F   UNL d   1      -6.499   2.408  -3.708  0.00  0.00    -0.166 F 
ENDBRANCH   2  20
TORSDOF 3
