REMARK  2 active torsions:
REMARK  status: ('A' for Active; 'I' for Inactive)
REMARK    1  A    between atoms: S_8  and  C_2 
REMARK    2  A    between atoms: S_9  and  C_3 
ROOT
ATOM      1  S   UNL d   1       0.799  -1.196  -0.007  0.00  0.00    -0.038 SA
ATOM      2  C   UNL d   1      -0.224   0.176  -0.006  0.00  0.00     0.126 A 
ATOM      3  C   UNL d   1       2.123  -0.106  -0.007  0.00  0.00     0.128 A 
ATOM      4  N   UNL d   1       0.405   1.329  -0.006  0.00  0.00    -0.287 N 
ATOM      5  HN  UNL d   1      -0.062   2.236  -0.005  1.00  0.00     0.188 HD
ATOM      6  N   UNL d   1       1.780   1.165  -0.006  0.00  0.00    -0.287 N 
ATOM      7  HN  UNL d   1       2.448   1.937  -0.006  1.00  0.00     0.188 HD
ENDROOT
BRANCH   2   8
ATOM      8  S   UNL d   1      -1.965   0.070  -0.005  0.00  0.00    -0.117 SA
ATOM      9  H   UNL d   1      -2.050  -1.266  -0.002  0.00  0.00     0.109 HD
ENDBRANCH   2   8
BRANCH   3  10
ATOM     10  S   UNL d   1       3.784  -0.651  -0.009  0.00  0.00    -0.108 SA
ATOM     11  C   UNL d   1       4.665   0.926  -0.005  0.00  0.00     0.097 C 
ENDBRANCH   3  10
TORSDOF 2
