REMARK  6 active torsions:
REMARK  status: ('A' for Active; 'I' for Inactive)
REMARK    1  A    between atoms: C_5  and  C_1 
REMARK    2  A    between atoms: C_8  and  C_1 
REMARK    3  A    between atoms: C_3  and  C_2 
REMARK    4  A    between atoms: C_6  and  C_3 
REMARK    5  A    between atoms: C_4  and  C_5 
REMARK    6  A    between atoms: C_7  and  C_4 
ROOT
ATOM      1  C   UNL d   1       2.642  -0.245   0.462  0.00  0.00    -0.037 C 
ATOM      2  C   UNL d   1       3.425  -1.313   0.717  0.00  0.00     0.064 C 
ENDROOT
BRANCH   1   3
ATOM      3  C   UNL d   1       1.164  -0.260   0.130  0.00  0.00     0.123 C 
BRANCH   3   4
ATOM      4  C   UNL d   1       0.245   0.052   1.316  0.00  0.00     0.163 C 
ATOM      5  O   UNL d   1       0.639   0.090   2.481  0.00  0.00    -0.292 OA
BRANCH   4   6
ATOM      6  C   UNL d   1      -1.201   0.350   1.040  0.00  0.00     0.010 A 
ATOM      7  C   UNL d   1      -1.739   0.349  -0.254  0.00  0.00     0.017 A 
ATOM      8  C   UNL d   1      -3.089   0.659  -0.460  0.00  0.00     0.025 A 
ATOM      9  C   UNL d   1      -3.909   0.963   0.624  0.00  0.00     0.034 A 
ATOM     10  C   UNL d   1      -3.391   0.964   1.916  0.00  0.00     0.025 A 
ATOM     11 CL   UNL d   1      -5.567   1.339   0.363  0.00  0.00    -0.084 Cl
ATOM     12  C   UNL d   1      -2.041   0.660   2.123  0.00  0.00     0.017 A 
ENDBRANCH   4   6
ENDBRANCH   3   4
ENDBRANCH   1   3
BRANCH   1  13
ATOM     13  C   UNL d   1       3.330   1.075   0.363  0.00  0.00    -0.029 A 
ATOM     14  C   UNL d   1       4.500   1.198  -0.411  0.00  0.00     0.012 A 
ATOM     15  C   UNL d   1       5.160   2.421  -0.539  0.00  0.00     0.001 A 
ATOM     16  C   UNL d   1       4.646   3.552   0.087  0.00  0.00     0.000 A 
ATOM     17  C   UNL d   1       3.480   3.455   0.843  0.00  0.00     0.001 A 
ATOM     18  C   UNL d   1       2.828   2.225   0.984  0.00  0.00     0.012 A 
ENDBRANCH   1  13
BRANCH   2  19
ATOM     19  C   UNL d   1       3.044  -2.756   0.658  0.00  0.00     0.182 C 
ATOM     20  O   UNL d   1       1.878  -3.139   0.628  0.00  0.00    -0.288 OA
BRANCH  19  21
ATOM     21  C   UNL d   1       4.167  -3.728   0.485  0.00  0.00     0.014 A 
ATOM     22  C   UNL d   1       5.427  -3.543   1.070  0.00  0.00     0.016 A 
ATOM     23  C   UNL d   1       6.482  -4.405   0.761  0.00  0.00     0.007 A 
ATOM     24  C   UNL d   1       6.293  -5.478  -0.117  0.00  0.00    -0.062 A 
ATOM     25  C   UNL d   1       5.020  -5.696  -0.658  0.00  0.00     0.007 A 
ATOM     26  C   UNL d   1       7.452  -6.362  -0.477  0.00  0.00     0.048 C 
ATOM     27  C   UNL d   1       3.963  -4.830  -0.356  0.00  0.00     0.016 A 
ENDBRANCH  19  21
ENDBRANCH   2  19
TORSDOF 6
