REMARK  10 active torsions:
REMARK  status: ('A' for Active; 'I' for Inactive)
REMARK    1  A    between atoms: C_7  and  N_1 
REMARK    2  A    between atoms: C_2  and  C_8 
REMARK    3  A    between atoms: C_10  and  C_3 
REMARK    4  A    between atoms: C_4  and  N_14 
REMARK    5  A    between atoms: N_22  and  C_4 
REMARK    6  A    between atoms: N_14  and  N_5 
REMARK    7  A    between atoms: C_25  and  N_22 
REMARK    8  A    between atoms: C_23  and  C_25 
REMARK    9  A    between atoms: C_26  and  C_23 
REMARK   10  A    between atoms: O_24  and  C_26 
ROOT
ATOM      1  N   UNL d   1       1.002   0.553  -0.300  0.00  0.00    -0.321 N 
ATOM      2  C   UNL d   1       1.048  -0.792   0.053  0.00  0.00     0.056 A 
ATOM      3  C   UNL d   1      -0.238   1.041   0.086  0.00  0.00     0.097 A 
ATOM      4  C   UNL d   1      -1.008   0.011   0.566  0.00  0.00     0.020 A 
ATOM      5  C   UNL d   1      -0.209  -1.145   0.528  0.00  0.00     0.033 A 
ENDROOT
BRANCH   2   6
ATOM      6  C   UNL d   1       2.198  -1.659   0.028  0.00  0.00     0.137 C 
ATOM      7  N   UNL d   1       2.039  -2.930  -0.150  0.00  0.00    -0.307 N 
ATOM      8  HN  UNL d   1       1.129  -3.336  -0.367  1.00  0.00     0.186 HD
BRANCH   7   9
ATOM      9  N   UNL d   1       3.161  -3.695  -0.029  0.00  0.00    -0.277 N 
ATOM     10  H   UNL d   1       4.001  -3.287   0.381  0.00  0.00     0.189 HD
BRANCH   9  11
ATOM     11  C   UNL d   1       3.138  -5.047  -0.278  0.00  0.00     0.186 C 
ATOM     12  S   UNL d   1       2.047  -5.855  -1.252  0.00  0.00    -0.040 SA
BRANCH  11  13
ATOM     13  N   UNL d   1       4.112  -5.783   0.348  0.00  0.00    -0.366 N 
ATOM     14  H   UNL d   1       4.051  -6.773   0.135  0.00  0.00     0.161 HD
BRANCH  13  15
ATOM     15  C   UNL d   1       4.734  -5.427   1.614  0.00  0.00     0.124 C 
BRANCH  15  16
ATOM     16  C   UNL d   1       6.237  -5.214   1.499  0.00  0.00     0.046 C 
BRANCH  16  17
ATOM     17  C   UNL d   1       6.627  -4.148   0.482  0.00  0.00     0.168 C 
BRANCH  17  18
ATOM     18  O   UNL d   1       5.935  -2.927   0.763  0.00  0.00    -0.396 OA
ATOM     19  C   UNL d   1       6.312  -1.906  -0.157  0.00  0.00     0.201 C 
ENDBRANCH  17  18
ENDBRANCH  16  17
ENDBRANCH  15  16
ENDBRANCH  13  15
ENDBRANCH  11  13
ENDBRANCH   9  11
ENDBRANCH   7   9
ENDBRANCH   2   6
BRANCH   1  20
ATOM     20  C   UNL d   1       1.981   1.325  -0.998  0.00  0.00     0.039 A 
ATOM     21  C   UNL d   1       2.872   0.717  -1.891  0.00  0.00     0.031 A 
ATOM     22  C   UNL d   1       3.758   1.500  -2.641  0.00  0.00     0.018 A 
ATOM     23  C   UNL d   1       3.768   2.897  -2.515  0.00  0.00     0.048 A 
ATOM     24  C   UNL d   1       2.891   3.497  -1.603  0.00  0.00     0.018 A 
ATOM     25  C   UNL d   1       2.000   2.721  -0.854  0.00  0.00     0.031 A 
BRANCH  23  26
ATOM     26  C   UNL d   1       4.691   3.728  -3.373  0.00  0.00     0.417 C 
ATOM     27  F   UNL d   1       4.565   5.069  -3.171  0.00  0.00    -0.166 F 
ATOM     28  F   UNL d   1       6.004   3.439  -3.153  0.00  0.00    -0.166 F 
ATOM     29  F   UNL d   1       4.482   3.530  -4.704  0.00  0.00    -0.166 F 
ENDBRANCH  23  26
ENDBRANCH   1  20
TORSDOF 10
