REMARK  1 active torsions:
REMARK  status: ('A' for Active; 'I' for Inactive)
REMARK    1  A    between atoms: C_6  and  C_4 
ROOT
ATOM      1  C   UNL d   1      -2.053   0.330   0.098  0.00  0.00     0.018 C 
ATOM      2  C   UNL d   1      -1.121  -0.830   0.062  0.00  0.00     0.193 C 
ATOM      3  C   UNL d   1       0.316  -0.485   0.055  0.00  0.00     0.048 A 
ATOM      4  C   UNL d   1      -3.341   0.116  -0.225  0.00  0.00     0.032 C 
ATOM      5  O   UNL d   1      -0.200   1.876  -0.189  0.00  0.00    -0.346 OA
ATOM      6  C   UNL d   1       0.699   0.850  -0.081  0.00  0.00     0.083 A 
ATOM      7  C   UNL d   1      -1.416   1.617   0.520  0.00  0.00     0.218 C 
ATOM      8  O   UNL d   1      -1.503  -1.993   0.044  0.00  0.00    -0.287 OA
ATOM      9  C   UNL d   1       1.287  -1.488   0.136  0.00  0.00     0.018 A 
ATOM     10  C   UNL d   1       2.049   1.188  -0.157  0.00  0.00     0.038 A 
ATOM     11  C   UNL d   1       2.640  -1.146   0.085  0.00  0.00     0.001 A 
ATOM     12  C   UNL d   1       3.020   0.190  -0.063  0.00  0.00     0.003 A 
ENDROOT
BRANCH   4  13
ATOM     13  C   UNL d   1      -4.285   1.177  -0.244  0.00  0.00     0.005 A 
ATOM     14  S   UNL d   1      -5.155   1.603   1.175  0.00  0.00    -0.102 SA
ATOM     15  C   UNL d   1      -5.946   2.896   0.384  0.00  0.00     0.050 A 
ATOM     16  C   UNL d   1      -5.588   2.988  -0.941  0.00  0.00     0.008 A 
ATOM     17  C   UNL d   1      -4.642   1.987  -1.306  0.00  0.00     0.019 A 
ENDBRANCH   4  13
TORSDOF 1
