REMARK  5 active torsions:
REMARK  status: ('A' for Active; 'I' for Inactive)
REMARK    1  A    between atoms: C_3  and  C_1 
REMARK    2  A    between atoms: N_7  and  C_2 
REMARK    3  A    between atoms: O_13  and  C_3 
REMARK    4  A    between atoms: C_6  and  N_7 
REMARK    5  A    between atoms: C_17  and  O_13 
ROOT
ATOM      1  C   UNL d   1       1.065  -0.043   0.267  0.00  0.00     0.135 C 
ATOM      2  C   UNL d   1       0.378  -1.018  -0.378  0.00  0.00     0.117 C 
ATOM      3  C   UNL d   1       2.488  -0.118   0.493  0.00  0.00     0.107 C 
ATOM      4  N   UNL d   1       3.632  -0.253   0.638  0.00  0.00    -0.191 NA
ENDROOT
BRANCH   1   5
ATOM      5  C   UNL d   1       0.284   1.149   0.738  0.00  0.00     0.305 C 
ATOM      6  O   UNL d   1      -0.912   1.345   0.576  0.00  0.00    -0.258 OA
BRANCH   5   7
ATOM      7  O   UNL d   1       1.154   2.027   1.301  0.00  0.00    -0.317 OA
BRANCH   7   8
ATOM      8  C   UNL d   1       0.713   3.388   1.382  0.00  0.00     0.174 C 
ATOM      9  C   UNL d   1       1.046   4.053   0.059  0.00  0.00     0.034 C 
ENDBRANCH   7   8
ENDBRANCH   5   7
ENDBRANCH   1   5
BRANCH   2  10
ATOM     10  N   UNL d   1       0.900  -2.194  -0.882  0.00  0.00    -0.364 N 
ATOM     11  H   UNL d   1       1.907  -2.310  -0.802  0.00  0.00     0.165 HD
BRANCH  10  12
ATOM     12  C   UNL d   1       0.276  -3.163  -1.692  0.00  0.00     0.040 A 
ATOM     13  C   UNL d   1      -0.888  -2.862  -2.414  0.00  0.00     0.072 A 
ATOM     14  C   UNL d   1      -1.528  -3.833  -3.175  0.00  0.00     0.118 A 
ATOM     15  F   UNL d   1      -2.632  -3.507  -3.860  0.00  0.00    -0.206 F 
ATOM     16  C   UNL d   1      -1.044  -5.128  -3.235  0.00  0.00     0.043 A 
ATOM     17  C   UNL d   1       0.099  -5.458  -2.514  0.00  0.00     0.012 A 
ATOM     18  C   UNL d   1       0.759  -4.495  -1.724  0.00  0.00    -0.035 A 
ATOM     19  C   UNL d   1       1.958  -4.971  -0.942  0.00  0.00     0.050 C 
ENDBRANCH  10  12
ENDBRANCH   2  10
TORSDOF 5
