REMARK  4 active torsions:
REMARK  status: ('A' for Active; 'I' for Inactive)
REMARK    1  A    between atoms: N_2  and  C_1 
REMARK       I    between atoms: C_3  and  N_2 
REMARK    2  A    between atoms: C_5  and  C_3 
REMARK    3  A    between atoms: C_6  and  C_7 
REMARK    4  A    between atoms: O_14  and  C_6 
ROOT
ATOM      1  N   UNL d   1      -1.572  -2.237   0.157  0.00  0.00    -0.321 N 
ATOM      2  C   UNL d   1      -2.945  -2.227   0.213  0.00  0.00     0.246 C 
ATOM      3  O   UNL d   1      -3.674  -1.246   0.112  0.00  0.00    -0.268 OA
ATOM      4  H   UNL d   1      -1.078  -3.089   0.412  0.00  0.00     0.169 HD
ENDROOT
BRANCH   1   5
ATOM      5  C   UNL d   1      -0.740  -1.171  -0.263  0.00  0.00     0.076 A 
ATOM      6  C   UNL d   1      -1.222   0.012  -0.827  0.00  0.00     0.074 A 
ATOM      7  C   UNL d   1      -0.326   0.965  -1.309  0.00  0.00     0.118 A 
ATOM      8  F   UNL d   1      -0.800   2.080  -1.879  0.00  0.00    -0.206 F 
ATOM      9  C   UNL d   1       1.049   0.774  -1.231  0.00  0.00     0.045 A 
ATOM     10  C   UNL d   1       1.543  -0.388  -0.643  0.00  0.00     0.047 A 
ATOM     11  C   UNL d   1       0.649  -1.347  -0.169  0.00  0.00     0.143 A 
ATOM     12  F   UNL d   1       1.137  -2.469   0.384  0.00  0.00    -0.204 F 
ENDBRANCH   1   5
BRANCH   2  13
ATOM     13  C   UNL d   1      -3.530  -3.577   0.402  0.00  0.00     0.081 C 
ATOM     14  C   UNL d   1      -4.864  -3.686   0.507  0.00  0.00     0.086 C 
BRANCH  14  15
ATOM     15  C   UNL d   1      -5.473  -5.021   0.590  0.00  0.00     0.165 C 
ATOM     16  O   UNL d   1      -4.843  -6.063   0.543  0.00  0.00    -0.647 OA
BRANCH  15  17
ATOM     17  O   UNL d   1      -6.812  -4.965   0.711  0.00  0.00    -0.773 OA
ATOM     18  H   UNL d   1      -7.199  -4.071   0.735  0.00  0.00     0.167 HD
ENDBRANCH  15  17
ENDBRANCH  14  15
ENDBRANCH   2  13
TORSDOF 4
