REMARK  3 active torsions:
REMARK  status: ('A' for Active; 'I' for Inactive)
REMARK    1  A    between atoms: C_7  and  C_2 
REMARK    2  A    between atoms: C_11  and  C_6 
REMARK    3  A    between atoms: O_21  and  C_18 
ROOT
ATOM      1  C   UNL d   1      -0.474  -0.412   0.031  0.00  0.00     0.124 A 
ATOM      2  C   UNL d   1       0.274  -1.542  -0.006  0.00  0.00     0.009 A 
ATOM      3  C   UNL d   1       0.214   0.912   0.071  0.00  0.00     0.267 A 
ATOM      4  N   UNL d   1       1.584   0.893   0.099  0.00  0.00    -0.322 N 
ATOM      5  C   UNL d   1       1.734  -1.442   0.026  0.00  0.00     0.045 A 
ATOM      6  C   UNL d   1       2.339  -0.247   0.078  0.00  0.00     0.046 A 
ATOM      7  C   UNL d   1      -1.898  -0.399   0.017  0.00  0.00     0.106 C 
ATOM      8  N   UNL d   1      -3.057  -0.420   0.007  0.00  0.00    -0.191 NA
ATOM      9  O   UNL d   1      -0.399   1.975   0.064  0.00  0.00    -0.266 OA
ATOM     10  H   UNL d   1       2.041   1.798   0.124  0.00  0.00     0.169 HD
ENDROOT
BRANCH   2  11
ATOM     11  C   UNL d   1      -0.386  -2.812  -0.115  0.00  0.00     0.016 A 
ATOM     12  S   UNL d   1      -0.852  -3.686   1.293  0.00  0.00    -0.101 SA
ATOM     13  C   UNL d   1      -1.560  -4.939   0.369  0.00  0.00     0.050 A 
ATOM     14  C   UNL d   1      -1.422  -4.725  -0.983  0.00  0.00     0.008 A 
ATOM     15  C   UNL d   1      -0.736  -3.507  -1.261  0.00  0.00     0.020 A 
ENDBRANCH   2  11
BRANCH   6  16
ATOM     16  C   UNL d   1       3.796  -0.092   0.088  0.00  0.00    -0.009 A 
ATOM     17  C   UNL d   1       4.494   0.033  -1.120  0.00  0.00     0.016 A 
ATOM     18  C   UNL d   1       5.880   0.229  -1.125  0.00  0.00     0.037 A 
ATOM     19  C   UNL d   1       6.578   0.300   0.080  0.00  0.00     0.068 A 
ATOM     20  C   UNL d   1       5.882   0.197   1.286  0.00  0.00     0.037 A 
ATOM     21  C   UNL d   1       4.499  -0.011   1.294  0.00  0.00     0.016 A 
BRANCH  19  22
ATOM     22  O   UNL d   1       7.923   0.520   0.198  0.00  0.00    -0.356 OA
ATOM     23  C   UNL d   1       8.724   0.014  -0.865  0.00  0.00     0.210 C 
ENDBRANCH  19  22
ENDBRANCH   6  16
TORSDOF 3
