REMARK  4 active torsions:
REMARK  status: ('A' for Active; 'I' for Inactive)
REMARK       I    between atoms: N_6  and  C_1 
REMARK       I    between atoms: N_7  and  C_1 
REMARK    1  A    between atoms: C_4  and  C_15 
REMARK    2  A    between atoms: C_5  and  C_16 
REMARK    3  A    between atoms: C_16  and  N_6 
REMARK    4  A    between atoms: C_15  and  N_7 
ROOT
ATOM      1  C   UNL d   1       1.041   0.063  -0.096  0.00  0.00     0.316 C 
ATOM      2  N   UNL d   1       0.305   1.207  -0.255  0.00  0.00    -0.338 N 
ATOM      3  N   UNL d   1       0.247  -1.006   0.219  0.00  0.00    -0.338 N 
ATOM      4  O   UNL d   1       2.257  -0.000  -0.227  0.00  0.00    -0.247 OA
ATOM      5  H   UNL d   1      -0.541   1.250   0.292  0.00  0.00     0.164 HD
ATOM      6  H   UNL d   1      -0.730  -0.938  -0.022  0.00  0.00     0.164 HD
ENDROOT
BRANCH   2   7
ATOM      7  C   UNL d   1       0.994   2.462  -0.465  0.00  0.00     0.170 C 
BRANCH   7   8
ATOM      8  C   UNL d   1      -0.018   3.552  -0.627  0.00  0.00     0.000 A 
ATOM      9  S   UNL d   1      -0.592   4.405   0.747  0.00  0.00    -0.105 SA
ATOM     10  C   UNL d   1      -1.599   5.402  -0.210  0.00  0.00     0.050 A 
ATOM     11  C   UNL d   1      -1.511   5.092  -1.548  0.00  0.00     0.008 A 
ATOM     12  C   UNL d   1      -0.599   4.022  -1.790  0.00  0.00     0.017 A 
ENDBRANCH   7   8
ENDBRANCH   2   7
BRANCH   3  13
ATOM     13  C   UNL d   1       0.821  -2.326   0.353  0.00  0.00     0.170 C 
BRANCH  13  14
ATOM     14  C   UNL d   1      -0.282  -3.317   0.553  0.00  0.00     0.000 A 
ATOM     15  S   UNL d   1      -0.884  -3.637   2.126  0.00  0.00    -0.105 SA
ATOM     16  C   UNL d   1      -2.013  -4.776   1.535  0.00  0.00     0.050 A 
ATOM     17  C   UNL d   1      -1.939  -4.915   0.167  0.00  0.00     0.008 A 
ATOM     18  C   UNL d   1      -0.939  -4.073  -0.400  0.00  0.00     0.017 A 
ENDBRANCH  13  14
ENDBRANCH   3  13
TORSDOF 4
