REMARK  5 active torsions:
REMARK  status: ('A' for Active; 'I' for Inactive)
REMARK    1  A    between atoms: C_3  and  S_1 
REMARK    2  A    between atoms: N_8  and  S_1 
REMARK       I    between atoms: C_2  and  N_7 
REMARK    3  A    between atoms: C_9  and  C_2 
REMARK    4  A    between atoms: N_4  and  C_9 
REMARK    5  A    between atoms: N_7  and  C_13 
ROOT
ATOM      1  C   UNL d   1       2.061   6.971  -1.396  0.00  0.00     0.074 A 
ATOM      2  C   UNL d   1       1.948   5.584  -1.290  0.00  0.00     0.027 A 
ATOM      3  C   UNL d   1       1.247   7.801  -0.625  0.00  0.00     0.027 A 
ATOM      4  C   UNL d   1       0.176   5.843   0.364  0.00  0.00     0.034 A 
ATOM      5  C   UNL d   1       1.002   5.026  -0.419  0.00  0.00     0.031 A 
ATOM      6  C   UNL d   1       0.307   7.234   0.249  0.00  0.00     0.031 A 
ENDROOT
BRANCH   4   7
ATOM      7  N   UNL d   1      -0.757   5.205   1.213  0.00  0.00    -0.326 N 
ATOM      8  C   UNL d   1      -1.590   5.792   2.144  0.00  0.00     0.250 C 
ATOM      9  O   UNL d   1      -1.613   6.987   2.441  0.00  0.00    -0.271 OA
ATOM     10  H   UNL d   1      -0.823   4.191   1.185  0.00  0.00     0.169 HD
BRANCH   8  11
ATOM     11  C   UNL d   1      -2.623   4.837   2.759  0.00  0.00     0.374 C 
BRANCH  11  12
ATOM     12  N   UNL d   1      -2.213   3.412   2.742  0.00  0.00     0.097 N 
ATOM     13  C   UNL d   1      -1.292   3.082   3.841  0.00  0.00     0.273 C 
ATOM     14  C   UNL d   1      -1.386   1.566   3.886  0.00  0.00     0.032 C 
ATOM     15  C   UNL d   1      -2.862   1.292   3.653  0.00  0.00     0.032 C 
ATOM     16  C   UNL d   1      -3.393   2.554   2.982  0.00  0.00     0.273 C 
ENDBRANCH  11  12
ENDBRANCH   8  11
ENDBRANCH   4   7
BRANCH   1  17
ATOM     17  S   UNL d   1       3.309   7.663  -2.444  0.00  0.00     0.239 S 
ATOM     18  O   UNL d   1       4.383   6.707  -2.592  0.00  0.00    -0.206 OA
ATOM     19  O   UNL d   1       3.546   9.038  -2.071  0.00  0.00    -0.206 OA
BRANCH  17  20
ATOM     20  N   UNL d   1       2.542   7.719  -3.938  0.00  0.00    -0.225 NA
ATOM     21  H   UNL d   1       2.989   7.066  -4.582  0.00  0.00     0.136 HD
ATOM     22  H   UNL d   1       2.533   8.682  -4.277  0.00  0.00     0.136 HD
ENDBRANCH  17  20
ENDBRANCH   1  17
TORSDOF 5
