REMARK  4 active torsions:
REMARK  status: ('A' for Active; 'I' for Inactive)
REMARK    1  A    between atoms: C_2  and  S_1 
REMARK    2  A    between atoms: C_9  and  S_1 
REMARK    3  A    between atoms: C_6  and  C_3 
REMARK    4  A    between atoms: C_4  and  C_5 
ROOT
ATOM      1  C   UNL d   1       0.796   1.786   0.471  0.00  0.00     0.141 C 
ATOM      2  C   UNL d   1      -0.205   2.267  -0.291  0.00  0.00     0.054 C 
ATOM      3  C   UNL d   1       1.712   0.792   0.050  0.00  0.00     0.111 C 
ATOM      4  N   UNL d   1       2.436  -0.047  -0.298  0.00  0.00    -0.191 NA
ENDROOT
BRANCH   1   5
ATOM      5  S   UNL d   1       1.009   2.429   2.077  0.00  0.00     0.193 S 
ATOM      6  O   UNL d   1       0.314   3.703   2.176  0.00  0.00    -0.221 OA
ATOM      7  O   UNL d   1       2.421   2.381   2.417  0.00  0.00    -0.221 OA
BRANCH   5   8
ATOM      8  C   UNL d   1       0.136   1.255   3.183  0.00  0.00     0.058 C 
ATOM      9  C   UNL d   1       0.697  -0.167   3.055  0.00  0.00     0.031 C 
ATOM     10  C   UNL d   1       0.346   1.731   4.635  0.00  0.00     0.031 C 
ATOM     11  C   UNL d   1      -1.371   1.240   2.883  0.00  0.00     0.031 C 
ENDBRANCH   5   8
ENDBRANCH   1   5
BRANCH   2  12
ATOM     12  C   UNL d   1      -0.504   1.712  -1.569  0.00  0.00     0.018 A 
ATOM     13  C   UNL d   1      -0.019   2.027  -2.838  0.00  0.00     0.014 A 
ATOM     14  C   UNL d   1      -0.638   1.192  -3.838  0.00  0.00     0.020 A 
ATOM     15  C   UNL d   1      -1.524   0.282  -3.314  0.00  0.00     0.051 A 
ATOM     16  S   UNL d   1      -1.664   0.437  -1.627  0.00  0.00    -0.101 SA
BRANCH  13  17
ATOM     17  C   UNL d   1       0.986   3.107  -3.176  0.00  0.00     0.295 C 
ATOM     18  O   UNL d   1       1.726   2.803  -4.374  0.00  0.00    -0.355 OA
ATOM     19  C   UNL d   1       3.074   2.621  -3.946  0.00  0.00     0.197 C 
ATOM     20  C   UNL d   1       3.180   3.471  -2.712  0.00  0.00     0.197 C 
ATOM     21  O   UNL d   1       1.902   3.347  -2.096  0.00  0.00    -0.355 OA
ENDBRANCH  13  17
ENDBRANCH   2  12
TORSDOF 4
