REMARK  3 active torsions:
REMARK  status: ('A' for Active; 'I' for Inactive)
REMARK    1  A    between atoms: N_8  and  S_1 
REMARK    2  A    between atoms: C_12  and  S_1 
REMARK    3  A    between atoms: C_11  and  N_8 
ROOT
ATOM      1  S   UNL d   1       0.934  -0.079  -0.019  0.00  0.00     0.263 S 
ATOM      2  O   UNL d   1       1.444  -1.432   0.024  0.00  0.00    -0.200 OA
ATOM      3  O   UNL d   1       1.748   1.047   0.391  0.00  0.00    -0.200 OA
ENDROOT
BRANCH   1   4
ATOM      4  N   UNL d   1      -0.486   0.013   0.899  0.00  0.00    -0.281 N 
ATOM      5  H   UNL d   1      -0.758   0.978   1.084  0.00  0.00     0.179 HD
BRANCH   4   6
ATOM      6  C   UNL d   1      -1.519  -0.938   0.662  0.00  0.00     0.044 A 
ATOM      7  C   UNL d   1      -2.593  -0.575  -0.166  0.00  0.00     0.062 A 
ATOM      8  C   UNL d   1      -3.558  -1.583  -0.397  0.00  0.00     0.069 A 
ATOM      9  N   UNL d   1      -4.651  -1.461  -1.164  0.00  0.00    -0.310 N 
ATOM     10  C   UNL d   1      -3.424  -2.948   0.231  0.00  0.00     0.067 A 
ATOM     11  S   UNL d   1      -5.435  -2.926  -1.101  0.00  0.00     0.068 SA
ATOM     12  HN  UNL d   1      -4.944  -0.633  -1.683  1.00  0.00     0.176 HD
ATOM     13  N   UNL d   1      -4.427  -3.777  -0.091  0.00  0.00    -0.310 N 
ATOM     14  HN  UNL d   1      -4.548  -4.740   0.222  1.00  0.00     0.176 HD
ATOM     15  C   UNL d   1      -2.324  -3.256   1.063  0.00  0.00     0.035 A 
ATOM     16  C   UNL d   1      -1.385  -2.224   1.243  0.00  0.00     0.032 A 
ENDBRANCH   4   6
ENDBRANCH   1   4
BRANCH   1  17
ATOM     17  C   UNL d   1       0.367   0.251  -1.673  0.00  0.00     0.080 A 
ATOM     18  C   UNL d   1       0.016  -0.811  -2.512  0.00  0.00     0.037 A 
ATOM     19  C   UNL d   1      -0.405  -0.558  -3.827  0.00  0.00    -0.025 A 
ATOM     20  C   UNL d   1      -0.777  -1.602  -4.688  0.00  0.00     0.012 A 
ATOM     21  C   UNL d   1      -0.450   0.776  -4.300  0.00  0.00    -0.026 A 
ATOM     22  C   UNL d   1      -1.179  -1.339  -5.998  0.00  0.00     0.001 A 
ATOM     23  C   UNL d   1      -1.216  -0.029  -6.466  0.00  0.00     0.001 A 
ATOM     24  C   UNL d   1      -0.855   1.024  -5.622  0.00  0.00     0.012 A 
ATOM     25  C   UNL d   1      -0.079   1.826  -3.444  0.00  0.00     0.014 A 
ATOM     26  C   UNL d   1       0.332   1.568  -2.135  0.00  0.00     0.026 A 
ENDBRANCH   1  17
TORSDOF 3
