REMARK  7 active torsions:
REMARK  status: ('A' for Active; 'I' for Inactive)
REMARK    1  A    between atoms: C_3  and  C_1 
REMARK    2  A    between atoms: C_2  and  C_4 
REMARK    3  A    between atoms: C_5  and  S_9 
REMARK    4  A    between atoms: C_6  and  C_5 
REMARK    5  A    between atoms: N_11  and  C_8 
REMARK    6  A    between atoms: S_9  and  C_26 
REMARK       I    between atoms: C_10  and  N_11 
REMARK    7  A    between atoms: C_26  and  C_10 
ROOT
ATOM      1  C   UNL d   1       0.901  -2.688  -2.477  0.00  0.00     0.050 A 
ATOM      2  C   UNL d   1       0.658  -0.535  -1.369  0.00  0.00     0.050 A 
ATOM      3  C   UNL d   1       1.287  -1.784  -1.483  0.00  0.00     0.032 A 
ATOM      4  C   UNL d   1      -0.782  -1.086  -3.275  0.00  0.00     0.036 A 
ATOM      5  C   UNL d   1      -0.382  -0.200  -2.266  0.00  0.00     0.045 A 
ATOM      6  C   UNL d   1      -0.126  -2.322  -3.365  0.00  0.00     0.045 A 
ENDROOT
BRANCH   4   7
ATOM      7  N   UNL d   1      -1.809  -0.682  -4.175  0.00  0.00    -0.326 N 
ATOM      8  C   UNL d   1      -2.469  -1.529  -5.061  0.00  0.00     0.231 C 
ATOM      9  O   UNL d   1      -2.295  -2.744  -5.090  0.00  0.00    -0.272 OA
ATOM     10  H   UNL d   1      -2.124   0.279  -4.109  0.00  0.00     0.169 HD
BRANCH   8  11
ATOM     11  C   UNL d   1      -3.469  -0.839  -6.012  0.00  0.00     0.185 C 
BRANCH  11  12
ATOM     12  S   UNL d   1      -4.268  -2.117  -7.052  0.00  0.00    -0.076 SA
BRANCH  12  13
ATOM     13  C   UNL d   1      -5.394  -1.177  -8.011  0.00  0.00     0.242 C 
ATOM     14  O   UNL d   1      -5.485   0.034  -7.855  0.00  0.00    -0.278 OA
BRANCH  13  15
ATOM     15  C   UNL d   1      -6.155  -1.980  -8.957  0.00  0.00     0.131 A 
ATOM     16  O   UNL d   1      -7.071  -1.337  -9.757  0.00  0.00    -0.318 OA
ATOM     17  C   UNL d   1      -7.649  -2.267 -10.560  0.00  0.00     0.142 A 
ATOM     18  C   UNL d   1      -7.129  -3.513 -10.311  0.00  0.00     0.027 A 
ATOM     19  C   UNL d   1      -6.181  -3.334  -9.272  0.00  0.00     0.044 A 
ENDBRANCH  13  15
ENDBRANCH  12  13
ENDBRANCH  11  12
ENDBRANCH   8  11
ENDBRANCH   4   7
BRANCH   1  20
ATOM     20  C   UNL d   1       1.572  -4.034  -2.620  0.00  0.00     0.417 C 
ATOM     21  F   UNL d   1       2.579  -4.229  -1.722  0.00  0.00    -0.166 F 
ATOM     22  F   UNL d   1       2.133  -4.211  -3.847  0.00  0.00    -0.166 F 
ATOM     23  F   UNL d   1       0.712  -5.073  -2.441  0.00  0.00    -0.166 F 
ENDBRANCH   1  20
BRANCH   2  24
ATOM     24  C   UNL d   1       1.101   0.444  -0.306  0.00  0.00     0.417 C 
ATOM     25  F   UNL d   1       2.163   0.006   0.426  0.00  0.00    -0.166 F 
ATOM     26  F   UNL d   1       1.481   1.640  -0.834  0.00  0.00    -0.166 F 
ATOM     27  F   UNL d   1       0.117   0.723   0.592  0.00  0.00    -0.166 F 
ENDBRANCH   2  24
TORSDOF 7
