REMARK  4 active torsions:
REMARK  status: ('A' for Active; 'I' for Inactive)
REMARK    1  A    between atoms: C_12  and  N_2 
REMARK    2  A    between atoms: C_13  and  N_4 
REMARK    3  A    between atoms: C_15  and  C_10 
REMARK    4  A    between atoms: C_16  and  C_11 
ROOT
ATOM      1  C   UNL d   1       0.037  -0.220  -0.355  0.00  0.00     0.247 C 
ATOM      2  N   UNL d   1       1.169  -1.043  -0.705  0.00  0.00    -0.265 N 
ATOM      3  S   UNL d   1      -0.565  -0.607   1.341  0.00  0.00    -0.042 SA
ATOM      4  N   UNL d   1      -1.177  -0.334  -1.177  0.00  0.00    -0.241 N 
ATOM      5  N   UNL d   1      -2.374  -0.163  -0.484  0.00  0.00    -0.287 N 
ATOM      6  HN  UNL d   1      -3.284  -0.034  -0.926  1.00  0.00     0.188 HD
ATOM      7  S   UNL d   1       0.679   1.512  -0.243  0.00  0.00    -0.056 SA
ATOM      8  C   UNL d   1       2.390  -0.533  -0.252  0.00  0.00     0.268 C 
ATOM      9  C   UNL d   1       2.286   0.935   0.037  0.00  0.00     0.074 C 
ATOM     10  C   UNL d   1      -2.178  -0.191   0.801  0.00  0.00     0.100 C 
ATOM     11  C   UNL d   1       3.280   1.742   0.429  0.00  0.00     0.035 C 
ATOM     12  O   UNL d   1       3.421  -1.172  -0.103  0.00  0.00    -0.266 OA
ENDROOT
BRANCH   2  13
ATOM     13  C   UNL d   1       1.112  -2.340  -1.284  0.00  0.00     0.041 A 
ATOM     14  C   UNL d   1       0.083  -3.253  -1.035  0.00  0.00     0.030 A 
ATOM     15  C   UNL d   1       0.100  -4.519  -1.634  0.00  0.00     0.002 A 
ATOM     16  C   UNL d   1       1.117  -4.873  -2.520  0.00  0.00     0.000 A 
ATOM     17  C   UNL d   1       2.135  -3.970  -2.793  0.00  0.00     0.002 A 
ATOM     18  C   UNL d   1       2.138  -2.724  -2.168  0.00  0.00     0.030 A 
ENDBRANCH   2  13
BRANCH   4  19
ATOM     19  C   UNL d   1      -1.257  -0.321  -2.574  0.00  0.00     0.055 A 
ATOM     20  C   UNL d   1      -2.311  -1.006  -3.208  0.00  0.00     0.031 A 
ATOM     21  C   UNL d   1      -2.421  -1.077  -4.602  0.00  0.00     0.002 A 
ATOM     22  C   UNL d   1      -1.493  -0.425  -5.401  0.00  0.00     0.000 A 
ATOM     23  C   UNL d   1      -0.465   0.297  -4.805  0.00  0.00     0.002 A 
ATOM     24  C   UNL d   1      -0.341   0.335  -3.406  0.00  0.00     0.031 A 
ENDBRANCH   4  19
BRANCH  10  25
ATOM     25  C   UNL d   1      -3.225   0.111   1.803  0.00  0.00    -0.001 A 
ATOM     26  C   UNL d   1      -2.900   0.573   3.085  0.00  0.00     0.014 A 
ATOM     27  C   UNL d   1      -3.905   0.865   4.012  0.00  0.00     0.001 A 
ATOM     28  C   UNL d   1      -5.241   0.701   3.655  0.00  0.00     0.000 A 
ATOM     29  C   UNL d   1      -5.577   0.265   2.377  0.00  0.00     0.001 A 
ATOM     30  C   UNL d   1      -4.573  -0.024   1.443  0.00  0.00     0.014 A 
ENDBRANCH  10  25
BRANCH  11  31
ATOM     31  C   UNL d   1       4.673   1.338   0.647  0.00  0.00    -0.035 A 
ATOM     32  C   UNL d   1       5.566   1.294  -0.429  0.00  0.00     0.011 A 
ATOM     33  C   UNL d   1       6.895   0.915  -0.226  0.00  0.00     0.001 A 
ATOM     34  C   UNL d   1       7.337   0.580   1.053  0.00  0.00     0.000 A 
ATOM     35  C   UNL d   1       6.450   0.615   2.128  0.00  0.00     0.001 A 
ATOM     36  C   UNL d   1       5.120   0.992   1.927  0.00  0.00     0.011 A 
ENDBRANCH  11  31
TORSDOF 4
