REMARK  3 active torsions:
REMARK  status: ('A' for Active; 'I' for Inactive)
REMARK    1  A    between atoms: N_9  and  C_1 
REMARK    2  A    between atoms: C_12  and  C_4 
REMARK    3  A    between atoms: N_5  and  N_9 
REMARK       I    between atoms: C_10  and  N_5 
REMARK       I    between atoms: C_11  and  N_5 
ROOT
ATOM      1  C   UNL d   1       0.236  -1.260  -0.251  0.00  0.00     0.184 A 
ATOM      2  N   UNL d   1       1.210  -0.561  -0.796  0.00  0.00    -0.319 N 
ATOM      3  HN  UNL d   1       2.022  -0.966  -1.262  1.00  0.00     0.169 HD
ATOM      4  C   UNL d   1       0.981   0.806  -0.653  0.00  0.00     0.123 A 
ATOM      5  N   UNL d   1      -0.089   1.187   0.057  0.00  0.00    -0.309 N 
ATOM      6  HN  UNL d   1      -0.372   2.146   0.258  1.00  0.00     0.176 HD
ATOM      7  S   UNL d   1      -0.871  -0.205   0.550  0.00  0.00     0.026 SA
ENDROOT
BRANCH   1   8
ATOM      8  N   UNL d   1       0.144  -2.620  -0.382  0.00  0.00    -0.262 N 
ATOM      9  C   UNL d   1       1.430  -3.324  -0.468  0.00  0.00     0.181 C 
BRANCH   8  10
ATOM     10  N   UNL d   1      -1.030  -3.423  -0.117  0.00  0.00    -0.188 N 
ATOM     11  C   UNL d   1      -2.245  -3.130  -0.733  0.00  0.00     0.241 C 
ATOM     12  O   UNL d   1      -3.327  -3.493  -0.264  0.00  0.00    -0.272 OA
ATOM     13  C   UNL d   1      -2.237  -2.310  -2.000  0.00  0.00     0.119 C 
ATOM     14  C   UNL d   1      -0.849  -4.591   0.635  0.00  0.00     0.241 C 
ATOM     15  O   UNL d   1      -0.005  -4.718   1.526  0.00  0.00    -0.272 OA
ATOM     16  C   UNL d   1      -1.710  -5.771   0.236  0.00  0.00     0.119 C 
ENDBRANCH   8  10
ENDBRANCH   1   8
BRANCH   4  17
ATOM     17  C   UNL d   1       1.890   1.749  -1.317  0.00  0.00     0.009 A 
ATOM     18  C   UNL d   1       3.004   1.265  -2.026  0.00  0.00     0.015 A 
ATOM     19  C   UNL d   1       3.868   2.137  -2.694  0.00  0.00     0.001 A 
ATOM     20  C   UNL d   1       3.628   3.508  -2.664  0.00  0.00     0.000 A 
ATOM     21  C   UNL d   1       2.528   4.006  -1.965  0.00  0.00     0.001 A 
ATOM     22  C   UNL d   1       1.664   3.131  -1.295  0.00  0.00     0.015 A 
ENDBRANCH   4  17
TORSDOF 3
