REMARK  5 active torsions:
REMARK  status: ('A' for Active; 'I' for Inactive)
REMARK    1  A    between atoms: C_13  and  N_1 
REMARK    2  A    between atoms: S_20  and  C_2 
REMARK    3  A    between atoms: C_10  and  C_3 
REMARK    4  A    between atoms: N_8  and  C_7 
REMARK    5  A    between atoms: C_15  and  C_13 
ROOT
ATOM      1  N   UNL d   1       1.435  -1.038  -0.168  0.00  0.00    -0.286 N 
ATOM      2  C   UNL d   1       0.125  -1.377  -0.074  0.00  0.00     0.150 A 
ATOM      3  C   UNL d   1       0.074   0.733  -0.076  0.00  0.00     0.104 A 
ATOM      4  C   UNL d   1       1.504   0.325  -0.187  0.00  0.00     0.276 A 
ATOM      5  N   UNL d   1      -0.715  -0.393  -0.008  0.00  0.00    -0.332 N 
ATOM      6  HN  UNL d   1      -1.731  -0.442   0.076  1.00  0.00     0.168 HD
ATOM      7  O   UNL d   1       2.477   1.052  -0.248  0.00  0.00    -0.265 OA
ENDROOT
BRANCH   3   8
ATOM      8  C   UNL d   1      -0.317   2.013  -0.058  0.00  0.00     0.054 C 
ATOM      9  C   UNL d   1      -1.686   2.389   0.079  0.00  0.00     0.009 A 
ATOM     10  S   UNL d   1      -2.242   3.855  -0.645  0.00  0.00    -0.066 SA
ATOM     11  C   UNL d   1      -2.729   1.759   0.742  0.00  0.00     0.022 A 
ATOM     12  C   UNL d   1      -3.841   3.581  -0.143  0.00  0.00     0.144 A 
ATOM     13  C   UNL d   1      -3.976   2.435   0.606  0.00  0.00     0.045 A 
BRANCH  12  14
ATOM     14  N   UNL d   1      -4.894   4.494  -0.498  0.00  0.00    -0.108 N 
ATOM     15  O   UNL d   1      -6.030   4.202  -0.098  0.00  0.00    -0.531 OA
ATOM     16  O   UNL d   1      -4.607   5.493  -1.170  0.00  0.00    -0.531 OA
ENDBRANCH  12  14
ENDBRANCH   3   8
BRANCH   1  17
ATOM     17  C   UNL d   1       2.611  -1.883  -0.224  0.00  0.00     0.199 C 
BRANCH  17  18
ATOM     18  C   UNL d   1       2.977  -2.140  -1.640  0.00  0.00     0.070 A 
ATOM     19  O   UNL d   1       2.422  -3.238  -2.229  0.00  0.00    -0.325 OA
ATOM     20  C   UNL d   1       2.897  -3.290  -3.500  0.00  0.00     0.142 A 
ATOM     21  C   UNL d   1       3.755  -2.241  -3.736  0.00  0.00     0.027 A 
ATOM     22  C   UNL d   1       3.806  -1.495  -2.534  0.00  0.00     0.036 A 
ENDBRANCH  17  18
ENDBRANCH   1  17
BRANCH   2  23
ATOM     23  S   UNL d   1      -0.365  -3.036  -0.019  0.00  0.00    -0.098 SA
ATOM     24  C   UNL d   1      -2.160  -2.850   0.068  0.00  0.00     0.099 C 
ENDBRANCH   2  23
TORSDOF 5
