REMARK  7 active torsions:
REMARK  status: ('A' for Active; 'I' for Inactive)
REMARK    1  A    between atoms: C_4  and  C_1 
REMARK    2  A    between atoms: C_3  and  C_2 
REMARK       I    between atoms: N_8  and  C_4 
REMARK    3  A    between atoms: C_20  and  N_8 
REMARK    4  A    between atoms: O_23  and  C_9 
REMARK    5  A    between atoms: O_22  and  C_11 
REMARK    6  A    between atoms: O_24  and  C_12 
REMARK    7  A    between atoms: C_19  and  C_20 
ROOT
ATOM      1  C   UNL d   1       1.299   3.150  -0.924  0.00  0.00     0.254 C 
ATOM      2  N   UNL d   1       0.518   3.632   0.107  0.00  0.00    -0.353 N 
ATOM      3  O   UNL d   1       0.877   2.835  -2.024  0.00  0.00    -0.268 OA
ATOM      4  H   UNL d   1       0.920   3.830   1.012  0.00  0.00     0.163 HD
ENDROOT
BRANCH   1   5
ATOM      5  C   UNL d   1       2.755   3.053  -0.654  0.00  0.00     0.062 A 
ATOM      6  C   UNL d   1       3.572   2.007  -1.105  0.00  0.00     0.069 A 
ATOM      7  C   UNL d   1       4.960   2.108  -0.874  0.00  0.00     0.073 A 
ATOM      8  C   UNL d   1       5.464   3.206  -0.198  0.00  0.00     0.142 A 
ATOM      9  N   UNL d   1       4.689   4.203   0.268  0.00  0.00    -0.346 N 
ATOM     10  C   UNL d   1       3.364   4.112   0.014  0.00  0.00     0.108 A 
ATOM     11  HN  UNL d   1       5.082   4.988   0.787  1.00  0.00     0.167 HD
BRANCH   6  12
ATOM     12  C   UNL d   1       3.088   0.777  -1.825  0.00  0.00     0.418 C 
ATOM     13  F   UNL d   1       1.763   0.510  -1.741  0.00  0.00    -0.166 F 
ATOM     14  F   UNL d   1       3.412   0.790  -3.147  0.00  0.00    -0.166 F 
ATOM     15  F   UNL d   1       3.692  -0.345  -1.324  0.00  0.00    -0.166 F 
ENDBRANCH   6  12
BRANCH   8  16
ATOM     16  O   UNL d   1       6.829   3.252  -0.018  0.00  0.00    -0.341 OA
ATOM     17  C   UNL d   1       7.262   4.445   0.631  0.00  0.00     0.211 C 
ENDBRANCH   8  16
ENDBRANCH   1   5
BRANCH   2  18
ATOM     18  C   UNL d   1      -0.921   3.772  -0.012  0.00  0.00     0.161 C 
BRANCH  18  19
ATOM     19  C   UNL d   1      -1.375   5.212   0.042  0.00  0.00    -0.038 A 
ATOM     20  C   UNL d   1      -2.126   5.756  -1.015  0.00  0.00     0.048 A 
ATOM     21  C   UNL d   1      -2.603   7.080  -0.981  0.00  0.00     0.102 A 
ATOM     22  C   UNL d   1      -2.355   7.867   0.154  0.00  0.00     0.101 A 
ATOM     23  C   UNL d   1      -1.590   7.336   1.200  0.00  0.00     0.040 A 
ATOM     24  C   UNL d   1      -1.111   6.022   1.153  0.00  0.00     0.012 A 
BRANCH  21  25
ATOM     25  O   UNL d   1      -3.334   7.622  -2.006  0.00  0.00    -0.353 OA
ATOM     26  C   UNL d   1      -3.030   7.145  -3.314  0.00  0.00     0.210 C 
ENDBRANCH  21  25
BRANCH  22  27
ATOM     27  O   UNL d   1      -2.727   9.171   0.361  0.00  0.00    -0.353 OA
ATOM     28  C   UNL d   1      -3.962   9.585  -0.208  0.00  0.00     0.210 C 
ENDBRANCH  22  27
ENDBRANCH  18  19
ENDBRANCH   2  18
TORSDOF 7
