REMARK  6 active torsions:
REMARK  status: ('A' for Active; 'I' for Inactive)
REMARK    1  A    between atoms: C_3  and  S_1 
REMARK    2  A    between atoms: N_6  and  S_1 
REMARK    3  A    between atoms: C_2  and  C_14 
REMARK    4  A    between atoms: C_16  and  N_6 
REMARK    5  A    between atoms: O_21  and  C_13 
REMARK    6  A    between atoms: O_22  and  C_17 
ROOT
ATOM      1  N   UNL d   1       0.376  -1.566  -0.338  0.00  0.00    -0.281 N 
ATOM      2  H   UNL d   1      -0.324  -1.979   0.275  0.00  0.00     0.179 HD
ENDROOT
BRANCH   1   3
ATOM      3  S   UNL d   1       0.969  -0.064   0.083  0.00  0.00     0.263 S 
ATOM      4  O   UNL d   1       0.306   0.297   1.317  0.00  0.00    -0.200 OA
ATOM      5  O   UNL d   1       2.412  -0.074  -0.019  0.00  0.00    -0.200 OA
BRANCH   3   6
ATOM      6  C   UNL d   1       0.329   0.999  -1.193  0.00  0.00     0.082 A 
ATOM      7  C   UNL d   1       1.127   1.311  -2.302  0.00  0.00     0.065 A 
ATOM      8  C   UNL d   1       0.651   2.177  -3.299  0.00  0.00     0.102 A 
ATOM      9  C   UNL d   1      -0.631   2.743  -3.154  0.00  0.00     0.101 A 
ATOM     10  C   UNL d   1      -1.415   2.420  -2.036  0.00  0.00     0.041 A 
ATOM     11  C   UNL d   1      -0.938   1.560  -1.048  0.00  0.00     0.028 A 
BRANCH   8  12
ATOM     12  O   UNL d   1       1.361   2.486  -4.427  0.00  0.00    -0.353 OA
ATOM     13  C   UNL d   1       2.646   1.901  -4.598  0.00  0.00     0.210 C 
ENDBRANCH   8  12
BRANCH   9  14
ATOM     14  O   UNL d   1      -1.280   3.569  -4.037  0.00  0.00    -0.353 OA
ATOM     15  C   UNL d   1      -0.483   4.474  -4.790  0.00  0.00     0.210 C 
ENDBRANCH   9  14
ENDBRANCH   3   6
ENDBRANCH   1   3
BRANCH   1  16
ATOM     16  C   UNL d   1       0.820  -2.255  -1.486  0.00  0.00     0.043 A 
ATOM     17  C   UNL d   1       0.027  -2.235  -2.631  0.00  0.00     0.046 A 
ATOM     18  C   UNL d   1       0.376  -2.998  -3.754  0.00  0.00     0.019 A 
ATOM     19  C   UNL d   1       1.547  -3.771  -3.705  0.00  0.00     0.016 A 
ATOM     20  C   UNL d   1       2.341  -3.789  -2.554  0.00  0.00     0.003 A 
ATOM     21  C   UNL d   1       1.974  -3.036  -1.440  0.00  0.00     0.030 A 
BRANCH  18  22
ATOM     22  C   UNL d   1      -0.472  -3.032  -4.938  0.00  0.00     0.173 A 
ATOM     23  N   UNL d   1      -0.319  -3.673  -6.081  0.00  0.00    -0.278 N 
ATOM     24  N   UNL d   1      -1.445  -3.405  -6.835  0.00  0.00    -0.288 N 
ATOM     25  HN  UNL d   1       0.475  -4.252  -6.354  1.00  0.00     0.189 HD
ATOM     26  C   UNL d   1      -2.197  -2.624  -6.097  0.00  0.00     0.251 A 
ATOM     27  HN  UNL d   1      -1.650  -3.745  -7.774  1.00  0.00     0.188 HD
ATOM     28  O   UNL d   1      -1.655  -2.337  -4.883  0.00  0.00    -0.286 OA
ENDBRANCH  18  22
ENDBRANCH   1  16
TORSDOF 6
