REMARK  8 active torsions:
REMARK  status: ('A' for Active; 'I' for Inactive)
REMARK    1  A    between atoms: C_4  and  S_1 
REMARK    2  A    between atoms: O_7  and  S_1 
REMARK    3  A    between atoms: C_2  and  O_7 
REMARK    4  A    between atoms: C_3  and  C_2 
REMARK    5  A    between atoms: C_15  and  C_2 
REMARK    6  A    between atoms: C_5  and  C_9 
REMARK    7  A    between atoms: C_6  and  C_8 
REMARK    8  A    between atoms: C_25  and  C_15 
ROOT
ATOM      1  S   UNL d   1       0.984   0.107  -0.135  0.00  0.00     0.298 S 
ATOM      2  O   UNL d   1       2.368   0.146  -0.542  0.00  0.00    -0.193 OA
ATOM      3  O   UNL d   1       0.175  -1.081  -0.345  0.00  0.00    -0.193 OA
ENDROOT
BRANCH   1   4
ATOM      4  C   UNL d   1       0.137   1.451  -0.956  0.00  0.00     0.088 A 
ATOM      5  C   UNL d   1       0.850   2.356  -1.753  0.00  0.00     0.042 A 
ATOM      6  C   UNL d   1       0.170   3.374  -2.440  0.00  0.00     0.050 A 
ATOM      7  C   UNL d   1      -1.229   3.464  -2.311  0.00  0.00     0.032 A 
ATOM      8  C   UNL d   1      -1.952   2.555  -1.514  0.00  0.00     0.050 A 
ATOM      9  C   UNL d   1      -1.254   1.545  -0.834  0.00  0.00     0.042 A 
BRANCH   6  10
ATOM     10  C   UNL d   1       0.903   4.358  -3.327  0.00  0.00     0.417 C 
ATOM     11  F   UNL d   1       2.248   4.158  -3.366  0.00  0.00    -0.166 F 
ATOM     12  F   UNL d   1       0.475   4.304  -4.617  0.00  0.00    -0.166 F 
ATOM     13  F   UNL d   1       0.724   5.646  -2.925  0.00  0.00    -0.166 F 
ENDBRANCH   6  10
BRANCH   8  14
ATOM     14  C   UNL d   1      -3.457   2.673  -1.419  0.00  0.00     0.417 C 
ATOM     15  F   UNL d   1      -4.027   1.722  -0.630  0.00  0.00    -0.166 F 
ATOM     16  F   UNL d   1      -3.847   3.871  -0.904  0.00  0.00    -0.166 F 
ATOM     17  F   UNL d   1      -4.062   2.570  -2.633  0.00  0.00    -0.166 F 
ENDBRANCH   8  14
ENDBRANCH   1   4
BRANCH   1  18
ATOM     18  O   UNL d   1       0.897   0.507   1.436  0.00  0.00    -0.257 OA
BRANCH  18  19
ATOM     19  C   UNL d   1       1.271  -0.487   2.409  0.00  0.00     0.254 C 
BRANCH  19  20
ATOM     20  C   UNL d   1       2.795  -0.670   2.479  0.00  0.00     0.414 C 
ATOM     21  F   UNL d   1       3.458   0.394   1.977  0.00  0.00    -0.168 F 
ATOM     22  F   UNL d   1       3.231  -0.834   3.750  0.00  0.00    -0.168 F 
ATOM     23  F   UNL d   1       3.176  -1.767   1.788  0.00  0.00    -0.168 F 
ENDBRANCH  19  20
BRANCH  19  24
ATOM     24  C   UNL d   1       0.723  -0.035   3.771  0.00  0.00     0.081 C 
BRANCH  24  25
ATOM     25  C   UNL d   1      -0.788  -0.078   3.840  0.00  0.00    -0.055 A 
ATOM     26  C   UNL d   1      -1.450  -1.238   4.269  0.00  0.00     0.007 A 
ATOM     27  C   UNL d   1      -2.843  -1.268   4.349  0.00  0.00     0.001 A 
ATOM     28  C   UNL d   1      -3.588  -0.145   3.994  0.00  0.00     0.000 A 
ATOM     29  C   UNL d   1      -2.940   1.008   3.555  0.00  0.00     0.001 A 
ATOM     30  C   UNL d   1      -1.547   1.042   3.477  0.00  0.00     0.007 A 
ENDBRANCH  24  25
ENDBRANCH  19  24
ENDBRANCH  18  19
ENDBRANCH   1  18
TORSDOF 8
