REMARK  6 active torsions:
REMARK  status: ('A' for Active; 'I' for Inactive)
REMARK    1  A    between atoms: C_14  and  N_1 
REMARK    2  A    between atoms: C_12  and  C_2 
REMARK    3  A    between atoms: S_10  and  C_5 
REMARK       I    between atoms: N_8  and  C_11 
REMARK       I    between atoms: C_9  and  N_8 
REMARK       I    between atoms: N_18  and  C_9 
REMARK    4  A    between atoms: C_19  and  S_10 
REMARK    5  A    between atoms: C_11  and  C_19 
REMARK    6  A    between atoms: C_20  and  C_14 
ROOT
ATOM      1  N   UNL d   1      -0.132  -1.337  -0.147  0.00  0.00    -0.307 N 
ATOM      2  C   UNL d   1       1.091  -0.712   0.052  0.00  0.00     0.135 C 
ATOM      3  N   UNL d   1       0.844   0.572   0.268  0.00  0.00    -0.283 N 
ATOM      4  HN  UNL d   1       1.537   1.269   0.538  1.00  0.00     0.188 HD
ATOM      5  C   UNL d   1      -1.051  -0.323  -0.248  0.00  0.00     0.163 C 
ATOM      6  N   UNL d   1      -0.487   0.813   0.070  0.00  0.00    -0.278 N 
ATOM      7  HN  UNL d   1      -0.955   1.715   0.155  1.00  0.00     0.189 HD
ENDROOT
BRANCH   5   8
ATOM      8  S   UNL d   1      -2.650  -0.485  -0.880  0.00  0.00    -0.083 SA
BRANCH   8   9
ATOM      9  C   UNL d   1      -3.669   0.482   0.254  0.00  0.00     0.185 C 
BRANCH   9  10
ATOM     10  C   UNL d   1      -3.693   1.986   0.036  0.00  0.00     0.235 C 
ATOM     11  N   UNL d   1      -2.477   2.634   0.071  0.00  0.00    -0.279 N 
ATOM     12  C   UNL d   1      -2.192   3.979   0.073  0.00  0.00     0.322 C 
ATOM     13  H   UNL d   1      -1.623   2.085   0.082  0.00  0.00     0.173 HD
ATOM     14  O   UNL d   1      -1.029   4.367   0.076  0.00  0.00    -0.247 OA
ATOM     15  N   UNL d   1      -3.263   4.819   0.097  0.00  0.00    -0.347 N 
ATOM     16  C   UNL d   1      -3.128   6.250   0.172  0.00  0.00     0.151 C 
ATOM     17  H   UNL d   1      -4.188   4.396   0.155  0.00  0.00     0.163 HD
ATOM     18  O   UNL d   1      -4.771   2.589  -0.038  0.00  0.00    -0.272 OA
ENDBRANCH   9  10
ENDBRANCH   8   9
ENDBRANCH   5   8
BRANCH   1  19
ATOM     19  C   UNL d   1      -0.433  -2.751  -0.001  0.00  0.00     0.159 C 
BRANCH  19  20
ATOM     20  C   UNL d   1      -0.578  -3.535  -1.276  0.00  0.00    -0.017 C 
ATOM     21  C   UNL d   1      -0.454  -3.093  -2.535  0.00  0.00     0.008 C 
ENDBRANCH  19  20
ENDBRANCH   1  19
BRANCH   2  22
ATOM     22  C   UNL d   1       2.438  -1.303   0.060  0.00  0.00     0.012 A 
ATOM     23  C   UNL d   1       2.774  -2.468  -0.634  0.00  0.00     0.032 A 
ATOM     24  C   UNL d   1       4.080  -2.934  -0.581  0.00  0.00     0.088 A 
ATOM     25  N   UNL d   1       5.069  -2.317   0.091  0.00  0.00    -0.375 N 
ATOM     26  C   UNL d   1       4.745  -1.170   0.721  0.00  0.00     0.088 A 
ATOM     27  HN  UNL d   1       6.015  -2.697   0.122  1.00  0.00     0.164 HD
ATOM     28  C   UNL d   1       3.467  -0.633   0.732  0.00  0.00     0.032 A 
ENDBRANCH   2  22
TORSDOF 6
