REMARK  9 active torsions:
REMARK  status: ('A' for Active; 'I' for Inactive)
REMARK    1  A    between atoms: N_14  and  C_1 
REMARK    2  A    between atoms: C_27  and  N_2 
REMARK    3  A    between atoms: C_16  and  C_4 
REMARK    4  A    between atoms: C_20  and  N_5 
REMARK    5  A    between atoms: C_8  and  S_17 
REMARK       I    between atoms: C_18  and  N_14 
REMARK    6  A    between atoms: O_28  and  C_16 
REMARK    7  A    between atoms: S_17  and  C_26 
REMARK    8  A    between atoms: C_26  and  C_18 
REMARK    9  A    between atoms: C_31  and  O_28 
ROOT
ATOM      1  N   UNL d   1       1.949  -1.641   0.019  0.00  0.00    -0.310 N 
ATOM      2  C   UNL d   1       1.861  -3.047  -0.290  0.00  0.00     0.233 C 
ATOM      3  O   UNL d   1       0.781  -3.514  -0.625  0.00  0.00    -0.272 OA
ATOM      4  H   UNL d   1       2.869  -1.218   0.055  0.00  0.00     0.170 HD
ENDROOT
BRANCH   1   5
ATOM      5  C   UNL d   1       0.829  -0.806   0.073  0.00  0.00     0.147 A 
ATOM      6  C   UNL d   1      -0.351  -1.003   0.773  0.00  0.00     0.102 A 
ATOM      7  C   UNL d   1      -1.076   0.191   0.564  0.00  0.00     0.129 A 
ATOM      8  N   UNL d   1      -0.391   1.107  -0.119  0.00  0.00    -0.302 N 
ATOM      9  N   UNL d   1       0.753   0.475  -0.479  0.00  0.00    -0.239 N 
ATOM     10  HN  UNL d   1      -0.665   2.067  -0.324  1.00  0.00     0.186 HD
BRANCH   6  11
ATOM     11  C   UNL d   1      -0.735  -2.115   1.619  0.00  0.00     0.298 C 
ATOM     12  O   UNL d   1       0.064  -2.947   2.034  0.00  0.00    -0.259 OA
BRANCH  11  13
ATOM     13  O   UNL d   1      -2.066  -2.102   1.911  0.00  0.00    -0.318 OA
BRANCH  13  14
ATOM     14  C   UNL d   1      -2.599  -3.274   2.550  0.00  0.00     0.174 C 
ATOM     15  C   UNL d   1      -2.765  -3.059   4.042  0.00  0.00     0.034 C 
ENDBRANCH  13  14
ENDBRANCH  11  13
ENDBRANCH   6  11
BRANCH   9  16
ATOM     16  C   UNL d   1       1.694   1.119  -1.331  0.00  0.00     0.058 A 
ATOM     17  C   UNL d   1       2.582   0.382  -2.126  0.00  0.00     0.031 A 
ATOM     18  C   UNL d   1       3.520   1.041  -2.924  0.00  0.00     0.002 A 
ATOM     19  C   UNL d   1       3.574   2.433  -2.935  0.00  0.00     0.000 A 
ATOM     20  C   UNL d   1       2.672   3.172  -2.172  0.00  0.00     0.002 A 
ATOM     21  C   UNL d   1       1.722   2.520  -1.383  0.00  0.00     0.031 A 
ENDBRANCH   9  16
ENDBRANCH   1   5
BRANCH   2  22
ATOM     22  C   UNL d   1       3.180  -3.790  -0.419  0.00  0.00     0.185 C 
BRANCH  22  23
ATOM     23  S   UNL d   1       4.496  -3.028   0.589  0.00  0.00    -0.083 SA
BRANCH  23  24
ATOM     24  C   UNL d   1       5.882  -3.931   0.068  0.00  0.00     0.163 A 
ATOM     25  N   UNL d   1       7.163  -3.838   0.557  0.00  0.00    -0.311 N 
ATOM     26  C   UNL d   1       7.903  -4.729  -0.213  0.00  0.00     0.141 A 
ATOM     27  C   UNL d   1       9.323  -4.997  -0.147  0.00  0.00     0.050 A 
ATOM     28  N   UNL d   1       7.098  -5.294  -1.095  0.00  0.00    -0.282 N 
ATOM     29  S   UNL d   1      10.190  -5.401  -1.580  0.00  0.00    -0.098 SA
ATOM     30  C   UNL d   1      10.176  -4.996   0.945  0.00  0.00     0.023 A 
ATOM     31  C   UNL d   1      11.680  -5.500  -0.751  0.00  0.00     0.050 A 
ATOM     32  C   UNL d   1      11.535  -5.257   0.594  0.00  0.00     0.009 A 
ATOM     33  N   UNL d   1       5.836  -4.802  -0.910  0.00  0.00    -0.278 N 
ATOM     34  HN  UNL d   1       7.372  -5.982  -1.797  1.00  0.00     0.188 HD
ATOM     35  HN  UNL d   1       5.005  -5.066  -1.439  1.00  0.00     0.189 HD
BRANCH  25  36
ATOM     36  C   UNL d   1       7.742  -3.027   1.608  0.00  0.00     0.128 C 
ATOM     37  C   UNL d   1       6.944  -1.929   2.288  0.00  0.00     0.027 C 
ENDBRANCH  25  36
ENDBRANCH  23  24
ENDBRANCH  22  23
ENDBRANCH   2  22
TORSDOF 9
