REMARK  4 active torsions:
REMARK  status: ('A' for Active; 'I' for Inactive)
REMARK    1  A    between atoms: C_5  and  C_1 
REMARK       I    between atoms: N_15  and  C_5 
REMARK    2  A    between atoms: C_6  and  C_19 
REMARK    3  A    between atoms: C_21  and  N_15 
REMARK    4  A    between atoms: C_25  and  C_21 
ROOT
ATOM      1  C   UNL d   1      -0.028  -2.792   1.165  0.00  0.00     0.256 C 
ATOM      2  N   UNL d   1      -0.189  -3.717   0.131  0.00  0.00    -0.348 N 
ATOM      3  O   UNL d   1       0.174  -1.594   0.941  0.00  0.00    -0.267 OA
ATOM      4  C   UNL d   1      -0.157  -3.195  -1.232  0.00  0.00     0.153 C 
ENDROOT
BRANCH   2   5
ATOM      5  C   UNL d   1      -0.341  -5.169   0.253  0.00  0.00     0.164 C 
BRANCH   5   6
ATOM      6  C   UNL d   1      -1.707  -5.705  -0.097  0.00  0.00    -0.039 A 
ATOM      7  C   UNL d   1      -2.044  -6.006  -1.427  0.00  0.00     0.024 A 
ATOM      8  C   UNL d   1      -3.289  -6.567  -1.756  0.00  0.00     0.010 A 
ATOM      9  C   UNL d   1      -4.194  -6.846  -0.723  0.00  0.00     0.015 A 
ATOM     10  C   UNL d   1      -3.871  -6.550   0.603  0.00  0.00     0.002 A 
ATOM     11  C   UNL d   1      -2.640  -5.974   0.913  0.00  0.00     0.009 A 
BRANCH   8  12
ATOM     12  C   UNL d   1      -3.619  -6.847  -3.147  0.00  0.00     0.137 A 
ATOM     13  N   UNL d   1      -2.784  -6.475  -4.185  0.00  0.00    -0.323 N 
ATOM     14  C   UNL d   1      -3.449  -6.877  -5.243  0.00  0.00     0.144 A 
ATOM     15  HN  UNL d   1      -1.879  -6.007  -4.139  1.00  0.00     0.169 HD
ATOM     16  C   UNL d   1      -3.105  -6.762  -6.668  0.00  0.00     0.100 C 
ATOM     17  O   UNL d   1      -4.630  -7.483  -4.938  0.00  0.00    -0.223 OA
ATOM     18  N   UNL d   1      -4.743  -7.463  -3.552  0.00  0.00    -0.242 N 
ATOM     19  HN  UNL d   1      -5.501  -7.831  -2.977  1.00  0.00     0.196 HD
ENDBRANCH   8  12
ENDBRANCH   5   6
ENDBRANCH   2   5
BRANCH   1  20
ATOM     20  C   UNL d   1      -0.200  -3.115   2.591  0.00  0.00     0.061 A 
ATOM     21  C   UNL d   1       0.501  -4.107   3.321  0.00  0.00     0.082 A 
ATOM     22  N   UNL d   1       1.426  -4.979   2.880  0.00  0.00    -0.310 N 
ATOM     23  C   UNL d   1       0.263  -4.251   4.816  0.00  0.00     0.068 A 
ATOM     24  S   UNL d   1       1.842  -5.948   4.160  0.00  0.00     0.068 SA
ATOM     25  HN  UNL d   1       1.802  -5.034   1.933  1.00  0.00     0.176 HD
ATOM     26  N   UNL d   1       0.935  -5.271   5.369  0.00  0.00    -0.310 N 
ATOM     27  HN  UNL d   1       0.896  -5.571   6.343  1.00  0.00     0.176 HD
ATOM     28  C   UNL d   1      -0.593  -3.368   5.518  0.00  0.00     0.032 A 
ATOM     29  C   UNL d   1      -1.199  -2.359   4.759  0.00  0.00     0.003 A 
ATOM     30  C   UNL d   1      -1.016  -2.244   3.363  0.00  0.00     0.019 A 
ENDBRANCH   1  20
TORSDOF 4
