REMARK  5 active torsions:
REMARK  status: ('A' for Active; 'I' for Inactive)
REMARK    1  A    between atoms: C_3  and  C_1 
REMARK    2  A    between atoms: N_4  and  C_1 
REMARK    3  A    between atoms: C_5  and  N_4 
REMARK    4  A    between atoms: C_7  and  C_5 
REMARK    5  A    between atoms: C_6  and  C_7 
ROOT
ATOM      1  N   UNL d   1       2.332  -0.052  -0.055  0.00  0.00    -0.380 N 
ATOM      2  H   UNL d   1       2.781  -0.580   0.685  0.00  0.00     0.160 HD
ENDROOT
BRANCH   1   3
ATOM      3  C   UNL d   1       0.944  -0.128  -0.147  0.00  0.00     0.106 C 
ATOM      4  S   UNL d   1       0.022   0.837  -1.176  0.00  0.00    -0.060 SA
BRANCH   3   5
ATOM      5  C   UNL d   1       0.316  -1.152   0.751  0.00  0.00     0.002 A 
ATOM      6  C   UNL d   1       0.913  -2.411   0.903  0.00  0.00     0.014 A 
ATOM      7  C   UNL d   1       0.327  -3.373   1.733  0.00  0.00     0.001 A 
ATOM      8  C   UNL d   1      -0.860  -3.088   2.406  0.00  0.00     0.000 A 
ATOM      9  C   UNL d   1      -1.463  -1.841   2.256  0.00  0.00     0.001 A 
ATOM     10  C   UNL d   1      -0.877  -0.874   1.435  0.00  0.00     0.014 A 
ENDBRANCH   3   5
ENDBRANCH   1   3
BRANCH   1  11
ATOM     11  C   UNL d   1       3.159   0.939  -0.745  0.00  0.00     0.125 C 
BRANCH  11  12
ATOM     12  C   UNL d   1       4.657   0.721  -0.532  0.00  0.00     0.058 C 
BRANCH  12  13
ATOM     13  C   UNL d   1       5.463   1.775  -1.251  0.00  0.00    -0.057 A 
ATOM     14  C   UNL d   1       5.753   2.997  -0.627  0.00  0.00     0.007 A 
ATOM     15  C   UNL d   1       6.444   3.996  -1.315  0.00  0.00     0.001 A 
ATOM     16  C   UNL d   1       6.848   3.787  -2.633  0.00  0.00     0.000 A 
ATOM     17  C   UNL d   1       6.565   2.575  -3.262  0.00  0.00     0.001 A 
ATOM     18  C   UNL d   1       5.875   1.574  -2.576  0.00  0.00     0.007 A 
ENDBRANCH  12  13
ENDBRANCH  11  12
ENDBRANCH   1  11
TORSDOF 5
