REMARK  2 active torsions:
REMARK  status: ('A' for Active; 'I' for Inactive)
REMARK    1  A    between atoms: C_10  and  C_4 
REMARK    2  A    between atoms: C_11  and  C_8 
ROOT
ATOM      1  N   UNL d   1       0.492   1.274   0.147  0.00  0.00    -0.341 N 
ATOM      2  HN  UNL d   1       0.845   2.219   0.296  1.00  0.00     0.167 HD
ATOM      3  C   UNL d   1      -0.858   1.010   0.092  0.00  0.00     0.104 C 
ATOM      4  C   UNL d   1       1.295   0.263   0.002  0.00  0.00     0.109 C 
ATOM      5  C   UNL d   1      -1.384  -0.403   0.098  0.00  0.00     0.282 C 
ATOM      6  N   UNL d   1      -0.412  -1.377   0.115  0.00  0.00    -0.280 N 
ATOM      7  N   UNL d   1       0.911  -1.057  -0.207  0.00  0.00    -0.187 NA
ATOM      8  C   UNL d   1      -1.781   1.988   0.037  0.00  0.00     0.046 C 
ATOM      9  O   UNL d   1      -2.576  -0.698   0.095  0.00  0.00    -0.265 OA
ATOM     10  H   UNL d   1      -0.725  -2.325  -0.056  0.00  0.00     0.184 HD
ATOM     11  H   UNL d   1       1.583  -1.750   0.121  0.00  0.00     0.154 HD
ENDROOT
BRANCH   8  12
ATOM     12  C   UNL d   1      -1.454   3.415  -0.007  0.00  0.00    -0.034 A 
ATOM     13  C   UNL d   1      -1.259   4.048  -1.240  0.00  0.00     0.011 A 
ATOM     14  C   UNL d   1      -0.957   5.410  -1.292  0.00  0.00     0.001 A 
ATOM     15  C   UNL d   1      -0.847   6.145  -0.112  0.00  0.00     0.000 A 
ATOM     16  C   UNL d   1      -1.033   5.518   1.120  0.00  0.00     0.001 A 
ATOM     17  C   UNL d   1      -1.335   4.155   1.173  0.00  0.00     0.011 A 
ENDBRANCH   8  12
BRANCH   4  18
ATOM     18  C   UNL d   1       2.766   0.552   0.071  0.00  0.00     0.004 A 
ATOM     19  C   UNL d   1       3.223   1.636   0.831  0.00  0.00     0.015 A 
ATOM     20  C   UNL d   1       4.592   1.891   0.933  0.00  0.00     0.001 A 
ATOM     21  C   UNL d   1       5.505   1.072   0.269  0.00  0.00     0.000 A 
ATOM     22  C   UNL d   1       5.053   0.004  -0.506  0.00  0.00     0.001 A 
ATOM     23  C   UNL d   1       3.685  -0.256  -0.609  0.00  0.00     0.015 A 
ENDBRANCH   4  18
TORSDOF 2
