REMARK  5 active torsions:
REMARK  status: ('A' for Active; 'I' for Inactive)
REMARK    1  A    between atoms: C_13  and  C_2 
REMARK    2  A    between atoms: S_14  and  C_10 
REMARK    3  A    between atoms: C_18  and  S_14 
REMARK    4  A    between atoms: O_15  and  C_19 
REMARK    5  A    between atoms: C_19  and  C_18 
ROOT
ATOM      1  N   UNL d   1       0.113   0.675  -0.006  0.00  0.00    -0.219 N 
ATOM      2  C   UNL d   1       1.415   1.146  -0.020  0.00  0.00     0.154 A 
ATOM      3  N   UNL d   1       2.229   0.105  -0.130  0.00  0.00    -0.282 N 
ATOM      4  HN  UNL d   1       3.246   0.153  -0.197  1.00  0.00     0.188 HD
ATOM      5  C   UNL d   1       0.217  -0.703  -0.056  0.00  0.00     0.143 A 
ATOM      6  N   UNL d   1      -1.046   1.407   0.018  0.00  0.00    -0.284 N 
ATOM      7  HN  UNL d   1      -1.069   2.426   0.037  1.00  0.00     0.188 HD
ATOM      8  N   UNL d   1       1.481  -1.049  -0.137  0.00  0.00    -0.282 N 
ATOM      9  HN  UNL d   1       1.842  -2.001  -0.195  1.00  0.00     0.188 HD
ATOM     10  C   UNL d   1      -2.107   0.668   0.015  0.00  0.00     0.085 A 
ATOM     11  C   UNL d   1      -0.976  -1.454  -0.029  0.00  0.00     0.054 A 
ATOM     12  C   UNL d   1      -2.152  -0.815   0.010  0.00  0.00     0.042 A 
ENDROOT
BRANCH   2  13
ATOM     13  C   UNL d   1       1.826   2.553   0.042  0.00  0.00     0.011 A 
ATOM     14  C   UNL d   1       1.060   3.532   0.692  0.00  0.00     0.015 A 
ATOM     15  C   UNL d   1       1.487   4.862   0.743  0.00  0.00     0.001 A 
ATOM     16  C   UNL d   1       2.692   5.230   0.152  0.00  0.00     0.000 A 
ATOM     17  C   UNL d   1       3.471   4.270  -0.489  0.00  0.00     0.001 A 
ATOM     18  C   UNL d   1       3.042   2.941  -0.541  0.00  0.00     0.015 A 
ENDBRANCH   2  13
BRANCH  10  19
ATOM     19  S   UNL d   1      -3.684   1.416   0.039  0.00  0.00    -0.109 SA
BRANCH  19  20
ATOM     20  C   UNL d   1      -3.339   2.972  -0.854  0.00  0.00     0.107 C 
BRANCH  20  21
ATOM     21  C   UNL d   1      -2.897   2.766  -2.304  0.00  0.00     0.174 C 
BRANCH  21  22
ATOM     22  O   UNL d   1      -3.909   2.104  -3.056  0.00  0.00    -0.400 OA
ATOM     23  H   UNL d   1      -3.561   1.978  -3.955  0.00  0.00     0.209 HD
ENDBRANCH  21  22
ENDBRANCH  20  21
ENDBRANCH  19  20
ENDBRANCH  10  19
TORSDOF 5
