REMARK  5 active torsions:
REMARK  status: ('A' for Active; 'I' for Inactive)
REMARK    1  A    between atoms: C_5  and  S_1 
REMARK    2  A    between atoms: N_9  and  S_1 
REMARK    3  A    between atoms: C_8  and  C_2 
REMARK    4  A    between atoms: C_7  and  C_15 
REMARK    5  A    between atoms: C_15  and  N_9 
ROOT
ATOM      1  C   UNL d   1       0.571   6.018  -0.991  0.00  0.00     0.091 A 
ATOM      2  N   UNL d   1       1.279   4.955  -0.650  0.00  0.00    -0.351 N 
ATOM      3  HN  UNL d   1       2.290   4.874  -0.758  1.00  0.00     0.166 HD
ATOM      4  S   UNL d   1      -1.125   5.863  -0.718  0.00  0.00    -0.081 SA
ATOM      5  C   UNL d   1       0.457   3.962  -0.124  0.00  0.00     0.030 A 
ATOM      6  C   UNL d   1      -0.883   4.302  -0.076  0.00  0.00     0.078 A 
ENDROOT
BRANCH   5   7
ATOM      7  C   UNL d   1       1.053   2.675   0.377  0.00  0.00     0.162 C 
BRANCH   7   8
ATOM      8  N   UNL d   1       0.443   1.550  -0.347  0.00  0.00    -0.210 NA
ATOM      9  H   UNL d   1      -0.571   1.590  -0.437  0.00  0.00     0.140 HD
BRANCH   8  10
ATOM     10  S   UNL d   1       0.885   0.014   0.166  0.00  0.00     0.248 S 
ATOM     11  O   UNL d   1       1.358   0.102   1.531  0.00  0.00    -0.205 OA
ATOM     12  O   UNL d   1      -0.216  -0.850  -0.195  0.00  0.00    -0.205 OA
BRANCH  10  13
ATOM     13  C   UNL d   1       2.259  -0.615  -0.762  0.00  0.00     0.115 A 
ATOM     14  S   UNL d   1       2.890   0.371  -2.005  0.00  0.00    -0.089 SA
ATOM     15  C   UNL d   1       4.048  -0.810  -2.445  0.00  0.00     0.051 A 
ATOM     16  C   UNL d   1       3.961  -1.937  -1.659  0.00  0.00     0.009 A 
ATOM     17  C   UNL d   1       2.929  -1.822  -0.683  0.00  0.00     0.033 A 
ENDBRANCH  10  13
ENDBRANCH   8  10
ENDBRANCH   7   8
ENDBRANCH   5   7
BRANCH   1  18
ATOM     18  C   UNL d   1       1.184   7.213  -1.537  0.00  0.00     0.038 A 
ATOM     19  S   UNL d   1       0.296   8.640  -1.917  0.00  0.00    -0.099 SA
ATOM     20  C   UNL d   1       1.692   9.470  -2.440  0.00  0.00     0.050 A 
ATOM     21  C   UNL d   1       2.821   8.693  -2.336  0.00  0.00     0.008 A 
ATOM     22  C   UNL d   1       2.528   7.395  -1.815  0.00  0.00     0.022 A 
ENDBRANCH   1  18
TORSDOF 5
