REMARK  4 active torsions:
REMARK  status: ('A' for Active; 'I' for Inactive)
REMARK    1  A    between atoms: N_7  and  N_1 
REMARK    2  A    between atoms: C_12  and  C_4 
REMARK    3  A    between atoms: C_10  and  C_9 
REMARK    4  A    between atoms: C_18  and  C_13 
ROOT
ATOM      1  N   UNL d   1       1.530  -1.003  -0.168  0.00  0.00    -0.201 N 
ATOM      2  N   UNL d   1      -0.623  -0.384   0.108  0.00  0.00    -0.336 N 
ATOM      3  HN  UNL d   1      -1.631  -0.436   0.255  1.00  0.00     0.168 HD
ATOM      4  C   UNL d   1       0.215  -1.375  -0.017  0.00  0.00     0.141 A 
ATOM      5  C   UNL d   1       1.592   0.374  -0.164  0.00  0.00     0.295 A 
ATOM      6  C   UNL d   1       0.153   0.748  -0.001  0.00  0.00     0.107 A 
ATOM      7  C   UNL d   1      -0.251   2.023  -0.023  0.00  0.00     0.072 C 
ATOM      8  O   UNL d   1       2.526   1.151  -0.262  0.00  0.00    -0.264 OA
ENDROOT
BRANCH   1   9
ATOM      9  N   UNL d   1       2.553  -1.905  -0.284  0.00  0.00    -0.300 N 
ATOM     10  C   UNL d   1       3.779  -1.503  -0.314  0.00  0.00     0.119 C 
ATOM     11  HN  UNL d   1       2.344  -2.901  -0.348  1.00  0.00     0.186 HD
BRANCH  10  12
ATOM     12  C   UNL d   1       4.885  -2.467  -0.515  0.00  0.00    -0.019 A 
ATOM     13  C   UNL d   1       4.631  -3.836  -0.682  0.00  0.00     0.016 A 
ATOM     14  C   UNL d   1       5.691  -4.714  -0.915  0.00  0.00     0.043 A 
ATOM     15  C   UNL d   1       6.989  -4.221  -0.974  0.00  0.00     0.116 A 
ATOM     16  C   UNL d   1       7.252  -2.866  -0.798  0.00  0.00     0.043 A 
ATOM     17  F   UNL d   1       8.004  -5.063  -1.205  0.00  0.00    -0.206 F 
ATOM     18  C   UNL d   1       6.197  -1.981  -0.568  0.00  0.00     0.016 A 
ENDBRANCH  10  12
ENDBRANCH   1   9
BRANCH   4  19
ATOM     19  C   UNL d   1      -0.233  -2.787   0.047  0.00  0.00     0.010 A 
ATOM     20  C   UNL d   1       0.392  -3.816  -0.664  0.00  0.00     0.015 A 
ATOM     21  C   UNL d   1      -0.045  -5.135  -0.524  0.00  0.00     0.001 A 
ATOM     22  C   UNL d   1      -1.131  -5.428   0.300  0.00  0.00     0.000 A 
ATOM     23  C   UNL d   1      -1.794  -4.402   0.970  0.00  0.00     0.001 A 
ATOM     24  C   UNL d   1      -1.350  -3.084   0.840  0.00  0.00     0.015 A 
ENDBRANCH   4  19
BRANCH   7  25
ATOM     25  C   UNL d   1      -1.616   2.408   0.079  0.00  0.00     0.077 A 
ATOM     26  O   UNL d   1      -2.082   3.591  -0.459  0.00  0.00    -0.323 OA
ATOM     27  C   UNL d   1      -3.417   3.666  -0.245  0.00  0.00     0.142 A 
ATOM     28  C   UNL d   1      -3.852   2.574   0.460  0.00  0.00     0.027 A 
ATOM     29  C   UNL d   1      -2.704   1.779   0.678  0.00  0.00     0.039 A 
ENDBRANCH   7  25
TORSDOF 4
