REMARK  8 active torsions:
REMARK  status: ('A' for Active; 'I' for Inactive)
REMARK    1  A    between atoms: N_4  and  C_1 
REMARK    2  A    between atoms: S_5  and  C_1 
REMARK    3  A    between atoms: C_2  and  N_3 
REMARK    4  A    between atoms: S_6  and  C_2 
REMARK    5  A    between atoms: C_13  and  S_5 
REMARK    6  A    between atoms: C_14  and  S_6 
REMARK    7  A    between atoms: C_17  and  C_13 
REMARK    8  A    between atoms: C_18  and  C_14 
ROOT
ATOM      1  N   UNL d   1      -0.555  -3.977  -0.639  0.00  0.00    -0.363 N 
ATOM      2  N   UNL d   1       0.030  -1.307   0.233  0.00  0.00    -0.363 N 
ATOM      3  C   UNL d   1       0.530  -3.739   0.332  0.00  0.00     0.144 C 
ATOM      4  C   UNL d   1      -0.751  -2.845  -1.563  0.00  0.00     0.144 C 
ATOM      5  C   UNL d   1      -1.020  -1.540  -0.779  0.00  0.00     0.144 C 
ATOM      6  C   UNL d   1       0.308  -2.448   1.122  0.00  0.00     0.144 C 
ENDROOT
BRANCH   1   7
ATOM      7  C   UNL d   1      -1.583  -4.882  -0.372  0.00  0.00     0.137 C 
ATOM      8  S   UNL d   1      -2.110  -5.313   1.165  0.00  0.00    -0.053 SA
BRANCH   7   9
ATOM      9  S   UNL d   1      -2.380  -5.600  -1.764  0.00  0.00    -0.096 SA
BRANCH   9  10
ATOM     10  C   UNL d   1      -1.003  -6.147  -2.797  0.00  0.00     0.120 C 
BRANCH  10  11
ATOM     11  C   UNL d   1       0.147  -6.851  -2.117  0.00  0.00    -0.048 A 
ATOM     12  C   UNL d   1      -0.007  -8.105  -1.506  0.00  0.00     0.011 A 
ATOM     13  C   UNL d   1       1.094  -8.765  -0.953  0.00  0.00     0.043 A 
ATOM     14  C   UNL d   1       2.352  -8.176  -1.008  0.00  0.00     0.116 A 
ATOM     15  C   UNL d   1       2.528  -6.939  -1.601  0.00  0.00     0.043 A 
ATOM     16  F   UNL d   1       3.408  -8.816  -0.490  0.00  0.00    -0.206 F 
ATOM     17  C   UNL d   1       1.429  -6.277  -2.159  0.00  0.00     0.011 A 
ENDBRANCH  10  11
ENDBRANCH   9  10
ENDBRANCH   7   9
ENDBRANCH   1   7
BRANCH   2  18
ATOM     18  C   UNL d   1       0.754  -0.127   0.297  0.00  0.00     0.137 C 
ATOM     19  S   UNL d   1       2.422  -0.058   0.432  0.00  0.00    -0.053 SA
BRANCH  18  20
ATOM     20  S   UNL d   1      -0.218   1.340   0.270  0.00  0.00    -0.096 SA
BRANCH  20  21
ATOM     21  C   UNL d   1      -1.266   0.993   1.715  0.00  0.00     0.120 C 
BRANCH  21  22
ATOM     22  C   UNL d   1      -2.054   2.197   2.171  0.00  0.00    -0.048 A 
ATOM     23  C   UNL d   1      -3.176   2.630   1.445  0.00  0.00     0.011 A 
ATOM     24  C   UNL d   1      -3.926   3.722   1.887  0.00  0.00     0.043 A 
ATOM     25  C   UNL d   1      -3.555   4.384   3.050  0.00  0.00     0.116 A 
ATOM     26  C   UNL d   1      -2.443   3.978   3.779  0.00  0.00     0.043 A 
ATOM     27  F   UNL d   1      -4.280   5.425   3.477  0.00  0.00    -0.206 F 
ATOM     28  C   UNL d   1      -1.690   2.887   3.337  0.00  0.00     0.011 A 
ENDBRANCH  21  22
ENDBRANCH  20  21
ENDBRANCH  18  20
ENDBRANCH   2  18
TORSDOF 8
