REMARK  1 active torsions:
REMARK  status: ('A' for Active; 'I' for Inactive)
REMARK    1  A    between atoms: C_8  and  N_1 
ROOT
ATOM      1  N   UNL d   1       2.441  -0.690  -0.000  0.00  0.00    -0.268 N 
ATOM      2  C   UNL d   1       1.268  -1.453  -0.060  0.00  0.00     0.266 A 
ATOM      3  C   UNL d   1      -0.005  -0.711  -0.016  0.00  0.00     0.062 A 
ATOM      4  N   UNL d   1       1.271   1.361   0.071  0.00  0.00    -0.344 N 
ATOM      5  HN  UNL d   1       1.288   2.380   0.113  1.00  0.00     0.167 HD
ATOM      6  C   UNL d   1       2.380   0.694   0.045  0.00  0.00     0.087 A 
ATOM      7  C   UNL d   1       0.046   0.681   0.040  0.00  0.00     0.067 A 
ATOM      8  C   UNL d   1      -1.171   1.384   0.049  0.00  0.00     0.040 A 
ATOM      9  C   UNL d   1      -1.226  -1.399  -0.033  0.00  0.00     0.038 A 
ATOM     10  C   UNL d   1      -2.397   0.711   0.024  0.00  0.00     0.040 A 
ATOM     11  O   UNL d   1       1.222  -2.680  -0.121  0.00  0.00    -0.267 OA
ATOM     12  C   UNL d   1      -2.416  -0.680  -0.010  0.00  0.00     0.013 A 
ATOM     13 BR   UNL d   1      -1.207   3.285   0.080  0.00  0.00    -0.049 Br
ATOM     14  C   UNL d   1       3.656   1.508  -0.008  0.00  0.00     0.089 C 
ATOM     15 BR   UNL d   1      -4.067  -1.597  -0.030  0.00  0.00    -0.051 Br
ENDROOT
BRANCH   1  16
ATOM     16  C   UNL d   1       3.682  -1.397  -0.008  0.00  0.00     0.045 A 
ATOM     17  C   UNL d   1       4.598  -1.257   1.042  0.00  0.00     0.055 A 
ATOM     18  C   UNL d   1       5.805  -1.966   1.029  0.00  0.00     0.058 A 
ATOM     19 CL   UNL d   1       6.876  -1.747   2.368  0.00  0.00    -0.082 Cl
ATOM     20  C   UNL d   1       6.106  -2.820  -0.037  0.00  0.00     0.055 A 
ATOM     21  C   UNL d   1       5.189  -2.975  -1.079  0.00  0.00     0.028 A 
ATOM     22 CL   UNL d   1       7.583  -3.711  -0.127  0.00  0.00    -0.083 Cl
ATOM     23  C   UNL d   1       3.979  -2.277  -1.058  0.00  0.00     0.032 A 
ENDBRANCH   1  16
TORSDOF 1
