REMARK  4 active torsions:
REMARK  status: ('A' for Active; 'I' for Inactive)
REMARK    1  A    between atoms: C_6  and  C_1 
REMARK    2  A    between atoms: N_7  and  C_2 
REMARK    3  A    between atoms: O_9  and  C_6 
REMARK    4  A    between atoms: C_13  and  O_9 
ROOT
ATOM      1  C   UNL d   1       1.389  -1.153   0.005  0.00  0.00     0.080 A 
ATOM      2  C   UNL d   1       2.269  -0.069  -0.017  0.00  0.00     0.085 A 
ATOM      3  S   UNL d   1       1.453   1.453   0.024  0.00  0.00    -0.076 SA
ATOM      4  C   UNL d   1       0.046  -0.673   0.079  0.00  0.00    -0.026 A 
ATOM      5  C   UNL d   1      -0.026   0.690   0.086  0.00  0.00    -0.008 A 
ATOM      6  C   UNL d   1      -1.316  -1.270   0.133  0.00  0.00     0.041 C 
ATOM      7  C   UNL d   1      -1.403   1.231   0.134  0.00  0.00     0.047 C 
ATOM      8  C   UNL d   1      -2.231  -0.047  -0.192  0.00  0.00     0.010 C 
ENDROOT
BRANCH   1   9
ATOM      9  C   UNL d   1       1.840  -2.540  -0.095  0.00  0.00     0.296 C 
ATOM     10  O   UNL d   1       3.015  -2.868  -0.217  0.00  0.00    -0.259 OA
BRANCH   9  11
ATOM     11  O   UNL d   1       0.797  -3.422  -0.143  0.00  0.00    -0.318 OA
BRANCH  11  12
ATOM     12  C   UNL d   1       1.112  -4.703  -0.704  0.00  0.00     0.174 C 
ATOM     13  C   UNL d   1       0.931  -4.609  -2.210  0.00  0.00     0.034 C 
ENDBRANCH  11  12
ENDBRANCH   9  11
ENDBRANCH   1   9
BRANCH   2  14
ATOM     14  N   UNL d   1       3.615  -0.103  -0.076  0.00  0.00    -0.393 N 
ATOM     15  H   UNL d   1       4.111  -0.987  -0.195  0.00  0.00     0.156 HD
ATOM     16  H   UNL d   1       4.164   0.739  -0.204  0.00  0.00     0.156 HD
ENDBRANCH   2  14
TORSDOF 4
