REMARK  6 active torsions:
REMARK  status: ('A' for Active; 'I' for Inactive)
REMARK    1  A    between atoms: C_11  and  C_1 
REMARK    2  A    between atoms: O_15  and  C_3 
REMARK    3  A    between atoms: N_13  and  N_7 
REMARK    4  A    between atoms: C_18  and  N_13 
REMARK    5  A    between atoms: C_14  and  C_17 
REMARK    6  A    between atoms: C_17  and  C_18 
ROOT
ATOM      1  N   UNL d   1       0.825   4.300  -0.044  0.00  0.00    -0.315 N 
ATOM      2  HN  UNL d   1       1.755   3.936   0.164  1.00  0.00     0.185 HD
ATOM      3  C   UNL d   1      -0.131   3.540  -0.482  0.00  0.00     0.121 C 
ENDROOT
BRANCH   1   4
ATOM      4  N   UNL d   1       0.512   5.603   0.119  0.00  0.00    -0.336 N 
ATOM      5  H   UNL d   1      -0.301   5.940  -0.398  0.00  0.00     0.180 HD
BRANCH   4   6
ATOM      6  C   UNL d   1       1.616   6.566   0.070  0.00  0.00     0.145 C 
BRANCH   6   7
ATOM      7  C   UNL d   1       1.982   6.942  -1.367  0.00  0.00     0.078 C 
BRANCH   7   8
ATOM      8  C   UNL d   1       3.141   7.907  -1.406  0.00  0.00     0.010 A 
ATOM      9  N   UNL d   1       2.848   9.230  -1.351  0.00  0.00    -0.369 N 
ATOM     10  C   UNL d   1       3.885  10.097  -1.383  0.00  0.00     0.088 A 
ATOM     11  HN  UNL d   1       1.884   9.557  -1.287  1.00  0.00     0.165 HD
ATOM     12  C   UNL d   1       5.213   9.713  -1.465  0.00  0.00     0.017 A 
ATOM     13  C   UNL d   1       5.497   8.354  -1.514  0.00  0.00     0.003 A 
ATOM     14  C   UNL d   1       4.450   7.436  -1.481  0.00  0.00     0.025 A 
ENDBRANCH   7   8
ENDBRANCH   6   7
ENDBRANCH   4   6
ENDBRANCH   1   4
BRANCH   3  15
ATOM     15  C   UNL d   1       0.057   2.075  -0.587  0.00  0.00     0.017 A 
ATOM     16  C   UNL d   1      -0.916   1.263  -1.175  0.00  0.00     0.099 A 
ATOM     17  C   UNL d   1      -0.729  -0.123  -1.218  0.00  0.00     0.069 A 
ATOM     18 CL   UNL d   1      -1.921  -1.143  -1.939  0.00  0.00    -0.081 Cl
ATOM     19  C   UNL d   1       0.416  -0.705  -0.674  0.00  0.00     0.050 A 
ATOM     20  C   UNL d   1       1.381   0.111  -0.088  0.00  0.00     0.036 A 
ATOM     21  C   UNL d   1       1.212   1.493  -0.044  0.00  0.00     0.039 A 
ATOM     22 CL   UNL d   1       2.790  -0.598   0.598  0.00  0.00    -0.084 Cl
BRANCH  16  23
ATOM     23  O   UNL d   1      -2.048   1.828  -1.706  0.00  0.00    -0.358 OA
ATOM     24  H   UNL d   1      -2.599   1.108  -2.066  0.00  0.00     0.217 HD
ENDBRANCH  16  23
ENDBRANCH   3  15
TORSDOF 6
