REMARK  6 active torsions:
REMARK  status: ('A' for Active; 'I' for Inactive)
REMARK    1  A    between atoms: C_2  and  S_1 
REMARK    2  A    between atoms: N_11  and  S_1 
REMARK    3  A    between atoms: S_4  and  C_12 
REMARK    4  A    between atoms: N_20  and  S_4 
REMARK    5  A    between atoms: C_23  and  N_11 
REMARK    6  A    between atoms: C_24  and  C_23 
ROOT
ATOM      1  N   UNL d   1       0.461  -1.441  -0.766  0.00  0.00    -0.311 N 
ATOM      2  H   UNL d   1      -0.493  -1.728  -0.543  0.00  0.00     0.172 HD
ENDROOT
BRANCH   1   3
ATOM      3  S   UNL d   1       0.870   0.085  -0.229  0.00  0.00     0.261 S 
ATOM      4  O   UNL d   1       0.110   0.355   0.967  0.00  0.00    -0.200 OA
ATOM      5  O   UNL d   1       2.316   0.156  -0.233  0.00  0.00    -0.200 OA
BRANCH   3   6
ATOM      6  C   UNL d   1       0.293   1.170  -1.483  0.00  0.00     0.108 A 
ATOM      7  C   UNL d   1      -1.070   1.250  -1.848  0.00  0.00     0.090 A 
ATOM      8  N   UNL d   1      -2.090   0.499  -1.399  0.00  0.00    -0.309 N 
ATOM      9  C   UNL d   1      -1.514   2.268  -2.876  0.00  0.00     0.068 A 
ATOM     10  S   UNL d   1      -3.468   1.066  -2.132  0.00  0.00     0.068 SA
ATOM     11  HN  UNL d   1      -2.029  -0.272  -0.734  1.00  0.00     0.176 HD
ATOM     12  N   UNL d   1      -2.833   2.245  -3.112  0.00  0.00    -0.310 N 
ATOM     13  HN  UNL d   1      -3.347   2.836  -3.766  1.00  0.00     0.176 HD
ATOM     14  C   UNL d   1      -0.582   3.134  -3.499  0.00  0.00     0.032 A 
ATOM     15  C   UNL d   1       0.760   2.987  -3.112  0.00  0.00     0.004 A 
ATOM     16  C   UNL d   1       1.183   2.048  -2.143  0.00  0.00     0.028 A 
ENDBRANCH   3   6
ENDBRANCH   1   3
BRANCH   1  17
ATOM     17  C   UNL d   1       1.095  -1.971  -1.963  0.00  0.00     0.170 C 
BRANCH  17  18
ATOM     18  C   UNL d   1       0.531  -3.329  -2.303  0.00  0.00    -0.040 A 
ATOM     19  C   UNL d   1      -0.539  -3.448  -3.203  0.00  0.00     0.010 A 
ATOM     20  C   UNL d   1      -1.097  -4.698  -3.477  0.00  0.00     0.025 A 
ATOM     21  C   UNL d   1      -0.583  -5.835  -2.848  0.00  0.00     0.074 A 
ATOM     22  C   UNL d   1       0.469  -5.731  -1.935  0.00  0.00     0.025 A 
ATOM     23  C   UNL d   1       1.024  -4.479  -1.665  0.00  0.00     0.010 A 
BRANCH  21  24
ATOM     24  S   UNL d   1      -1.315  -7.412  -3.167  0.00  0.00     0.239 S 
ATOM     25  O   UNL d   1      -1.015  -8.308  -2.075  0.00  0.00    -0.206 OA
ATOM     26  O   UNL d   1      -2.656  -7.221  -3.668  0.00  0.00    -0.206 OA
BRANCH  24  27
ATOM     27  N   UNL d   1      -0.407  -7.953  -4.471  0.00  0.00    -0.225 NA
ATOM     28  H   UNL d   1       0.096  -8.802  -4.212  0.00  0.00     0.136 HD
ATOM     29  H   UNL d   1      -1.007  -8.060  -5.289  0.00  0.00     0.136 HD
ENDBRANCH  24  27
ENDBRANCH  21  24
ENDBRANCH  17  18
ENDBRANCH   1  17
TORSDOF 6
