REMARK  3 active torsions:
REMARK  status: ('A' for Active; 'I' for Inactive)
REMARK    1  A    between atoms: C_3  and  C_1 
REMARK    2  A    between atoms: O_6  and  C_1 
REMARK    3  A    between atoms: C_4  and  C_3 
ROOT
ATOM      1  C   UNL d   1      -1.167  -0.678  -0.803  0.00  0.00    -0.048 A 
ATOM      2  C   UNL d   1      -3.926  -0.404  -0.443  0.00  0.00     0.011 A 
ATOM      3 BR   UNL d   1      -5.787  -0.218  -0.172  0.00  0.00    -0.051 Br
ATOM      4  C   UNL d   1      -3.357  -1.675  -0.487  0.00  0.00     0.019 A 
ATOM      5  C   UNL d   1      -3.131   0.732  -0.585  0.00  0.00     0.019 A 
ATOM      6  C   UNL d   1      -1.754   0.596  -0.766  0.00  0.00     0.009 A 
ATOM      7  C   UNL d   1      -1.980  -1.812  -0.667  0.00  0.00     0.009 A 
ENDROOT
BRANCH   1   8
ATOM      8  C   UNL d   1       0.334  -0.823  -0.908  0.00  0.00     0.148 C 
BRANCH   8   9
ATOM      9  C   UNL d   1       1.097  -0.818   0.401  0.00  0.00     0.143 C 
ATOM     10  O   UNL d   1       2.319  -0.916   0.439  0.00  0.00    -0.650 OA
BRANCH   9  11
ATOM     11  O   UNL d   1       0.375  -0.702   1.536  0.00  0.00    -0.776 OA
ATOM     12  H   UNL d   1      -0.592  -0.630   1.411  0.00  0.00     0.167 HD
ENDBRANCH   9  11
ENDBRANCH   8   9
ENDBRANCH   1   8
TORSDOF 3
