REMARK  4 active torsions:
REMARK  status: ('A' for Active; 'I' for Inactive)
REMARK    1  A    between atoms: C_7  and  C_1 
REMARK       I    between atoms: N_15  and  C_7 
REMARK    2  A    between atoms: N_13  and  C_10 
REMARK    3  A    between atoms: C_20  and  N_15 
REMARK    4  A    between atoms: C_19  and  C_20 
ROOT
ATOM      1  C   UNL d   1      -1.113  -4.056   0.990  0.00  0.00     0.254 C 
ATOM      2  N   UNL d   1       0.073  -3.419   1.261  0.00  0.00    -0.351 N 
ATOM      3  O   UNL d   1      -1.312  -4.669  -0.054  0.00  0.00    -0.268 OA
ATOM      4  H   UNL d   1       0.197  -2.934   2.146  0.00  0.00     0.163 HD
ENDROOT
BRANCH   2   5
ATOM      5  C   UNL d   1       1.115  -3.282   0.257  0.00  0.00     0.179 C 
BRANCH   5   6
ATOM      6  C   UNL d   1       2.235  -4.293   0.359  0.00  0.00     0.028 A 
ATOM      7  N   UNL d   1       3.505  -3.800   0.387  0.00  0.00    -0.345 N 
ATOM      8  C   UNL d   1       4.559  -4.648   0.349  0.00  0.00     0.103 A 
ATOM      9  HN  UNL d   1       3.661  -2.793   0.437  1.00  0.00     0.167 HD
ATOM     10  C   UNL d   1       4.341  -6.025   0.306  0.00  0.00     0.048 A 
ATOM     11  C   UNL d   1       3.044  -6.533   0.287  0.00  0.00     0.006 A 
ATOM     12  C   UNL d   1       1.973  -5.655   0.304  0.00  0.00     0.027 A 
BRANCH   8  13
ATOM     13  N   UNL d   1       5.838  -4.128   0.225  0.00  0.00    -0.367 N 
ATOM     14  C   UNL d   1       6.980  -4.745   0.896  0.00  0.00     0.124 C 
ATOM     15  C   UNL d   1       8.196  -4.618  -0.024  0.00  0.00     0.020 C 
ATOM     16  C   UNL d   1       8.447  -3.161  -0.417  0.00  0.00     0.003 C 
ATOM     17  C   UNL d   1       7.181  -2.498  -0.963  0.00  0.00     0.020 C 
ATOM     18  C   UNL d   1       5.981  -2.696  -0.032  0.00  0.00     0.124 C 
ENDBRANCH   8  13
ENDBRANCH   5   6
ENDBRANCH   2   5
BRANCH   1  19
ATOM     19  C   UNL d   1      -2.196  -3.987   1.997  0.00  0.00     0.061 A 
ATOM     20  C   UNL d   1      -2.144  -3.221   3.188  0.00  0.00     0.082 A 
ATOM     21  N   UNL d   1      -1.130  -2.455   3.639  0.00  0.00    -0.310 N 
ATOM     22  C   UNL d   1      -3.339  -3.195   4.125  0.00  0.00     0.068 A 
ATOM     23  S   UNL d   1      -1.630  -1.782   5.072  0.00  0.00     0.068 SA
ATOM     24  HN  UNL d   1      -0.227  -2.316   3.186  1.00  0.00     0.176 HD
ATOM     25  N   UNL d   1      -3.152  -2.424   5.205  0.00  0.00    -0.310 N 
ATOM     26  HN  UNL d   1      -3.818  -2.264   5.962  1.00  0.00     0.176 HD
ATOM     27  C   UNL d   1      -4.515  -3.929   3.837  0.00  0.00     0.032 A 
ATOM     28  C   UNL d   1      -4.509  -4.670   2.647  0.00  0.00     0.003 A 
ATOM     29  C   UNL d   1      -3.403  -4.696   1.768  0.00  0.00     0.019 A 
ENDBRANCH   1  19
TORSDOF 4
