REMARK  17 active torsions:
REMARK  status: ('A' for Active; 'I' for Inactive)
REMARK       I    between atoms: C_8  and  N_1 
REMARK    1  A    between atoms: C_3  and  C_2 
REMARK    2  A    between atoms: C_3  and  O_12 
REMARK    3  A    between atoms: C_4  and  C_3 
REMARK    4  A    between atoms: C_4  and  O_13 
REMARK    5  A    between atoms: C_4  and  C_7 
REMARK    6  A    between atoms: C_5  and  C_11 
REMARK    7  A    between atoms: C_7  and  O_14 
REMARK    8  A    between atoms: C_7  and  C_9 
REMARK    9  A    between atoms: C_9  and  C_21 
REMARK   10  A    between atoms: C_9  and  O_15 
REMARK   11  A    between atoms: O_30  and  C_11 
REMARK   12  A    between atoms: C_16  and  O_12 
REMARK   13  A    between atoms: C_17  and  O_13 
REMARK   14  A    between atoms: C_18  and  O_14 
REMARK   15  A    between atoms: C_19  and  O_15 
REMARK   16  A    between atoms: C_20  and  O_24 
REMARK   17  A    between atoms: O_24  and  C_21 
ROOT
ATOM      1  C   UNL d   1       1.500  -2.776  -0.324  0.00  0.00     0.196 C 
ENDROOT
BRANCH   1   2
ATOM      2  O   UNL d   1       1.281  -2.887  -1.755  0.00  0.00    -0.311 OA
BRANCH   2   3
ATOM      3  C   UNL d   1       1.968  -2.039  -2.566  0.00  0.00     0.255 C 
ATOM      4  O   UNL d   1       2.738  -1.165  -2.191  0.00  0.00    -0.266 OA
ATOM      5  C   UNL d   1       1.759  -2.369  -4.014  0.00  0.00     0.126 C 
ENDBRANCH   2   3
ENDBRANCH   1   2
BRANCH   1   6
ATOM      6  C   UNL d   1       0.188  -2.397   0.430  0.00  0.00     0.195 C 
BRANCH   6   7
ATOM      7  O   UNL d   1      -0.872  -3.377   0.305  0.00  0.00    -0.311 OA
BRANCH   7   8
ATOM      8  C   UNL d   1      -1.585  -3.518  -0.839  0.00  0.00     0.255 C 
ATOM      9  O   UNL d   1      -1.436  -2.878  -1.865  0.00  0.00    -0.266 OA
ATOM     10  C   UNL d   1      -2.582  -4.636  -0.672  0.00  0.00     0.126 C 
ENDBRANCH   7   8
ENDBRANCH   6   7
BRANCH   6  11
ATOM     11  C   UNL d   1      -0.257  -0.917   0.452  0.00  0.00     0.188 C 
BRANCH  11  12
ATOM     12  C   UNL d   1      -1.476  -0.734   1.386  0.00  0.00     0.213 C 
BRANCH  12  13
ATOM     13  O   UNL d   1      -1.715   0.659   1.666  0.00  0.00    -0.319 OA
BRANCH  13  14
ATOM     14  C   UNL d   1      -1.073   1.159   2.754  0.00  0.00     0.254 C 
ATOM     15  O   UNL d   1      -0.284   0.539   3.454  0.00  0.00    -0.266 OA
ATOM     16  C   UNL d   1      -1.445   2.594   2.973  0.00  0.00     0.126 C 
ENDBRANCH  13  14
ENDBRANCH  12  13
ENDBRANCH  11  12
BRANCH  11  17
ATOM     17  O   UNL d   1      -0.300  -0.279  -0.841  0.00  0.00    -0.311 OA
BRANCH  17  18
ATOM     18  C   UNL d   1      -1.460   0.138  -1.407  0.00  0.00     0.255 C 
ATOM     19  O   UNL d   1      -2.591  -0.170  -1.073  0.00  0.00    -0.266 OA
ATOM     20  C   UNL d   1      -1.157   1.118  -2.503  0.00  0.00     0.126 C 
ENDBRANCH  17  18
ENDBRANCH  11  17
ENDBRANCH   6  11
ENDBRANCH   1   6
BRANCH   1  21
ATOM     21  C   UNL d   1       2.054  -4.166   0.188  0.00  0.00     0.197 C 
BRANCH  21  22
ATOM     22  C   UNL d   1       2.269  -4.235   1.754  0.00  0.00     0.182 C 
ATOM     23  N   UNL d   1       2.774  -5.433   2.425  0.00  0.00    -0.322 N 
ATOM     24  C   UNL d   1       3.438  -5.155   3.719  0.00  0.00     0.197 C 
ATOM     25  C   UNL d   1       2.182  -6.655   2.149  0.00  0.00     0.217 C 
ATOM     26  C   UNL d   1       4.105  -3.786   3.669  0.00  0.00     0.111 C 
ATOM     27  S   UNL d   1       3.167  -2.813   2.481  0.00  0.00    -0.138 SA
ATOM     28  O   UNL d   1       1.401  -6.804   1.207  0.00  0.00    -0.274 OA
ATOM     29  C   UNL d   1       2.449  -7.838   3.055  0.00  0.00     0.117 C 
BRANCH  24  30
ATOM     30  C   UNL d   1       2.553  -5.162   4.984  0.00  0.00     0.282 C 
ATOM     31  O   UNL d   1       3.026  -5.161   6.117  0.00  0.00    -0.263 OA
BRANCH  30  32
ATOM     32  O   UNL d   1       1.223  -5.119   4.707  0.00  0.00    -0.325 OA
ATOM     33  C   UNL d   1       0.387  -5.029   5.867  0.00  0.00     0.213 C 
ENDBRANCH  30  32
ENDBRANCH  24  30
ENDBRANCH  21  22
BRANCH  21  34
ATOM     34  O   UNL d   1       3.130  -4.669  -0.662  0.00  0.00    -0.311 OA
BRANCH  34  35
ATOM     35  C   UNL d   1       4.235  -3.928  -0.919  0.00  0.00     0.255 C 
ATOM     36  O   UNL d   1       4.633  -2.998  -0.238  0.00  0.00    -0.266 OA
ATOM     37  C   UNL d   1       4.831  -4.297  -2.252  0.00  0.00     0.126 C 
ENDBRANCH  34  35
ENDBRANCH  21  34
ENDBRANCH   1  21
TORSDOF 17
