REMARK  6 active torsions:
REMARK  status: ('A' for Active; 'I' for Inactive)
REMARK    1  A    between atoms: C_5  and  C_1 
REMARK    2  A    between atoms: N_20  and  C_5 
REMARK    3  A    between atoms: C_8  and  C_9 
REMARK    4  A    between atoms: O_14  and  N_10 
REMARK    5  A    between atoms: C_12  and  C_13 
REMARK    6  A    between atoms: C_13  and  O_14 
ROOT
ATOM      1  C   UNL d   1      -0.457   2.612  -0.505  0.00  0.00     0.129 C 
ATOM      2  N   UNL d   1       0.124   3.729  -0.222  0.00  0.00    -0.244 N 
ATOM      3  HN  UNL d   1      -0.364   4.618  -0.110  1.00  0.00     0.196 HD
ENDROOT
BRANCH   2   4
ATOM      4  O   UNL d   1       1.520   3.567  -0.087  0.00  0.00    -0.193 OA
BRANCH   4   5
ATOM      5  C   UNL d   1       2.128   4.775  -0.254  0.00  0.00     0.316 C 
ATOM      6  O   UNL d   1       1.614   5.861  -0.486  0.00  0.00    -0.257 OA
BRANCH   5   7
ATOM      7  C   UNL d   1       3.586   4.654  -0.015  0.00  0.00     0.056 A 
ATOM      8  C   UNL d   1       4.429   3.714  -0.633  0.00  0.00     0.064 A 
ATOM      9  C   UNL d   1       5.808   3.750  -0.325  0.00  0.00     0.017 A 
ATOM     10  C   UNL d   1       6.338   4.709   0.541  0.00  0.00     0.001 A 
ATOM     11  C   UNL d   1       5.499   5.650   1.124  0.00  0.00     0.001 A 
ATOM     12  C   UNL d   1       4.133   5.623   0.849  0.00  0.00     0.018 A 
BRANCH   8  13
ATOM     13  C   UNL d   1       3.977   2.679  -1.627  0.00  0.00     0.418 C 
ATOM     14  F   UNL d   1       2.714   2.821  -2.105  0.00  0.00    -0.166 F 
ATOM     15  F   UNL d   1       4.774   2.651  -2.735  0.00  0.00    -0.166 F 
ATOM     16  F   UNL d   1       4.032   1.419  -1.110  0.00  0.00    -0.166 F 
ENDBRANCH   8  13
ENDBRANCH   5   7
ENDBRANCH   4   5
ENDBRANCH   2   4
BRANCH   1  17
ATOM     17  C   UNL d   1      -1.918   2.578  -0.693  0.00  0.00     0.111 A 
ATOM     18  C   UNL d   1      -2.881   3.617  -0.557  0.00  0.00     0.082 A 
ATOM     19  C   UNL d   1      -4.092   3.045  -0.864  0.00  0.00     0.136 A 
ATOM     20 CL   UNL d   1      -2.639   5.237  -0.113  0.00  0.00    -0.080 Cl
ATOM     21  N   UNL d   1      -3.828   1.745  -1.158  0.00  0.00    -0.305 N 
ATOM     22  N   UNL d   1      -2.520   1.429  -1.088  0.00  0.00    -0.294 N 
ATOM     23  C   UNL d   1      -4.802   0.741  -1.510  0.00  0.00     0.177 C 
ATOM     24  HN  UNL d   1      -2.082   0.529  -1.287  1.00  0.00     0.187 HD
ENDBRANCH   1  17
BRANCH   1  25
ATOM     25  N   UNL d   1       0.130   1.389  -0.716  0.00  0.00    -0.285 NA
ATOM     26  H   UNL d   1      -0.500   0.744  -1.194  0.00  0.00     0.125 HD
ATOM     27  H   UNL d   1       1.039   1.460  -1.151  0.00  0.00     0.125 HD
ENDBRANCH   1  25
TORSDOF 6
