REMARK  5 active torsions:
REMARK  status: ('A' for Active; 'I' for Inactive)
REMARK       I    between atoms: N_6  and  C_1 
REMARK    1  A    between atoms: O_12  and  C_1 
REMARK    2  A    between atoms: C_10  and  N_6 
REMARK    3  A    between atoms: O_9  and  C_7 
REMARK    4  A    between atoms: C_16  and  O_9 
REMARK    5  A    between atoms: C_15  and  O_12 
ROOT
ATOM      1  C   UNL d   1      -2.019   3.896   2.367  0.00  0.00    -0.091 C 
ATOM      2  C   UNL d   1      -1.804   4.780   3.147  0.00  0.00     0.014 C 
ATOM      3  C   UNL d   1      -2.336   2.784   1.455  0.00  0.00     0.273 C 
ENDROOT
BRANCH   3   4
ATOM      4  O   UNL d   1      -1.297   2.632   0.477  0.00  0.00    -0.292 OA
BRANCH   4   5
ATOM      5  C   UNL d   1      -0.908   1.358   0.245  0.00  0.00     0.366 C 
ATOM      6  N   UNL d   1      -0.047   1.172  -0.801  0.00  0.00    -0.301 N 
ATOM      7  H   UNL d   1       0.156   0.189  -0.927  0.00  0.00     0.171 HD
ATOM      8  O   UNL d   1      -1.301   0.380   0.875  0.00  0.00    -0.238 OA
BRANCH   6   9
ATOM      9  C   UNL d   1       0.627   2.070  -1.645  0.00  0.00     0.052 A 
ATOM     10  C   UNL d   1       0.583   3.458  -1.574  0.00  0.00     0.119 A 
ATOM     11  N   UNL d   1       1.351   4.284  -2.331  0.00  0.00    -0.345 N 
ATOM     12  C   UNL d   1       2.203   3.699  -3.197  0.00  0.00     0.142 A 
ATOM     13  HN  UNL d   1       1.286   5.298  -2.248  1.00  0.00     0.167 HD
ATOM     14  C   UNL d   1       2.258   2.335  -3.413  0.00  0.00     0.058 A 
ATOM     15  C   UNL d   1       1.462   1.513  -2.619  0.00  0.00     0.035 A 
BRANCH  12  16
ATOM     16  O   UNL d   1       3.129   4.461  -3.878  0.00  0.00    -0.331 OA
BRANCH  16  17
ATOM     17  C   UNL d   1       3.416   5.732  -3.276  0.00  0.00     0.122 C 
ATOM     18  C   UNL d   1       4.134   5.577  -1.931  0.00  0.00     0.040 C 
ATOM     19  C   UNL d   1       4.340   6.468  -4.246  0.00  0.00     0.040 C 
ENDBRANCH  16  17
ENDBRANCH  12  16
ENDBRANCH   6   9
ENDBRANCH   4   5
ENDBRANCH   3   4
TORSDOF 5
