REMARK  5 active torsions:
REMARK  status: ('A' for Active; 'I' for Inactive)
REMARK    1  A    between atoms: N_4  and  C_1 
REMARK    2  A    between atoms: C_7  and  N_4 
REMARK    3  A    between atoms: C_16  and  N_10 
REMARK    4  A    between atoms: O_13  and  C_17 
REMARK    5  A    between atoms: C_17  and  C_16 
ROOT
ATOM      1  C   UNL d   1       2.423  -3.521   2.428  0.00  0.00     0.104 A 
ATOM      2  C   UNL d   1       1.819  -2.320   2.073  0.00  0.00     0.069 A 
ATOM      3  C   UNL d   1       2.017  -4.717   1.835  0.00  0.00     0.102 A 
ATOM      4  C   UNL d   1       0.849  -2.292   1.070  0.00  0.00     0.037 A 
ATOM      5  O   UNL d   1       3.432  -3.446   3.353  0.00  0.00    -0.346 OA
ATOM      6  O   UNL d   1       2.596  -5.928   2.116  0.00  0.00    -0.346 OA
ATOM      7  C   UNL d   1       0.996  -4.705   0.885  0.00  0.00     0.042 A 
ATOM      8  C   UNL d   1       0.401  -3.493   0.511  0.00  0.00     0.032 A 
ATOM      9  C   UNL d   1       4.308  -4.566   3.209  0.00  0.00     0.202 C 
ATOM     10  C   UNL d   1       3.502  -5.856   3.226  0.00  0.00     0.202 C 
ENDROOT
BRANCH   4  11
ATOM     11  N   UNL d   1       0.307  -1.066   0.623  0.00  0.00    -0.333 N 
ATOM     12  H   UNL d   1      -0.535  -1.125   0.063  0.00  0.00     0.168 HD
BRANCH  11  13
ATOM     13  C   UNL d   1       1.024   0.086   0.382  0.00  0.00     0.172 C 
ATOM     14  S   UNL d   1       2.665   0.225   0.077  0.00  0.00    -0.041 SA
ATOM     15  N   UNL d   1       0.288   1.231   0.317  0.00  0.00    -0.365 N 
ATOM     16  H   UNL d   1       0.871   2.057   0.188  0.00  0.00     0.161 HD
BRANCH  15  17
ATOM     17  C   UNL d   1      -0.947   1.512   1.046  0.00  0.00     0.148 C 
BRANCH  17  18
ATOM     18  C   UNL d   1      -0.644   2.003   2.465  0.00  0.00     0.183 C 
BRANCH  18  19
ATOM     19  O   UNL d   1       0.126   3.204   2.401  0.00  0.00    -0.399 OA
ATOM     20  H   UNL d   1       0.428   3.397   3.305  0.00  0.00     0.209 HD
ENDBRANCH  18  19
ENDBRANCH  17  18
ENDBRANCH  15  17
ENDBRANCH  11  13
ENDBRANCH   4  11
TORSDOF 5
