REMARK  4 active torsions:
REMARK  status: ('A' for Active; 'I' for Inactive)
REMARK    1  A    between atoms: C_6  and  N_2 
REMARK    2  A    between atoms: C_9  and  C_6 
REMARK    3  A    between atoms: C_11  and  C_9 
REMARK    4  A    between atoms: O_20  and  C_16 
ROOT
ATOM      1  S   UNL d   1      -0.288  -1.587  -0.568  0.00  0.00     0.269 S 
ATOM      2  N   UNL d   1       1.179  -1.208   0.175  0.00  0.00    -0.230 N 
ATOM      3  C   UNL d   1       1.216   0.095   0.712  0.00  0.00     0.269 C 
ATOM      4  C   UNL d   1      -0.140   0.667   0.689  0.00  0.00     0.056 A 
ATOM      5  C   UNL d   1      -1.057  -0.138   0.028  0.00  0.00     0.095 A 
ATOM      6  O   UNL d   1      -0.158  -1.462  -1.998  0.00  0.00    -0.200 OA
ATOM      7  O   UNL d   1      -0.888  -2.705   0.114  0.00  0.00    -0.200 OA
ATOM      8  O   UNL d   1       2.204   0.642   1.162  0.00  0.00    -0.266 OA
ATOM      9  C   UNL d   1      -0.549   1.831   1.320  0.00  0.00     0.018 A 
ATOM     10  C   UNL d   1      -2.404   0.165  -0.036  0.00  0.00     0.026 A 
ATOM     11  C   UNL d   1      -1.908   2.159   1.277  0.00  0.00     0.001 A 
ATOM     12  C   UNL d   1      -2.828   1.334   0.601  0.00  0.00     0.002 A 
ENDROOT
BRANCH   2  13
ATOM     13  C   UNL d   1       2.341  -2.074  -0.003  0.00  0.00     0.229 C 
BRANCH  13  14
ATOM     14  C   UNL d   1       2.033  -3.553  -0.059  0.00  0.00     0.178 C 
ATOM     15  O   UNL d   1       1.737  -4.090  -1.127  0.00  0.00    -0.290 OA
BRANCH  14  16
ATOM     16  C   UNL d   1       2.115  -4.389   1.180  0.00  0.00     0.012 A 
ATOM     17  C   UNL d   1       2.239  -3.846   2.465  0.00  0.00     0.018 A 
ATOM     18  C   UNL d   1       2.397  -4.689   3.576  0.00  0.00     0.037 A 
ATOM     19  C   UNL d   1       2.425  -6.075   3.411  0.00  0.00     0.068 A 
ATOM     20  C   UNL d   1       2.232  -6.619   2.143  0.00  0.00     0.037 A 
ATOM     21  C   UNL d   1       2.085  -5.783   1.033  0.00  0.00     0.018 A 
BRANCH  19  22
ATOM     22  O   UNL d   1       2.582  -6.977   4.427  0.00  0.00    -0.356 OA
ATOM     23  C   UNL d   1       3.483  -6.570   5.454  0.00  0.00     0.210 C 
ENDBRANCH  19  22
ENDBRANCH  14  16
ENDBRANCH  13  14
ENDBRANCH   2  13
TORSDOF 4
