REMARK  4 active torsions:
REMARK  status: ('A' for Active; 'I' for Inactive)
REMARK    1  A    between atoms: C_12  and  N_4 
REMARK    2  A    between atoms: C_11  and  C_12 
REMARK       I    between atoms: N_19  and  C_11 
REMARK    3  A    between atoms: C_13  and  C_18 
REMARK    4  A    between atoms: N_14  and  N_19 
ROOT
ATOM      1  C   UNL d   1       0.549   0.651   0.242  0.00  0.00     0.073 C 
ATOM      2  C   UNL d   1       1.037  -0.571   0.662  0.00  0.00     0.091 C 
ATOM      3  C   UNL d   1       1.514   1.733   0.081  0.00  0.00     0.262 C 
ATOM      4  N   UNL d   1       2.828   1.370   0.386  0.00  0.00    -0.301 N 
ATOM      5  N   UNL d   1       2.302  -0.850   1.065  0.00  0.00    -0.346 N 
ATOM      6  HN  UNL d   1       2.575  -1.755   1.448  1.00  0.00     0.167 HD
ATOM      7  S   UNL d   1      -0.154  -1.792   0.620  0.00  0.00    -0.075 SA
ATOM      8  C   UNL d   1      -0.878   0.621   0.071  0.00  0.00    -0.026 C 
ATOM      9  C   UNL d   1      -1.360  -0.672   0.202  0.00  0.00    -0.008 C 
ATOM     10  C   UNL d   1       3.131   0.131   0.922  0.00  0.00     0.187 C 
ATOM     11  O   UNL d   1       1.220   2.856  -0.321  0.00  0.00    -0.267 OA
ATOM     12  C   UNL d   1      -1.805   1.784  -0.144  0.00  0.00     0.041 C 
ATOM     13  C   UNL d   1      -2.789  -1.083   0.035  0.00  0.00     0.047 C 
ATOM     14  C   UNL d   1      -3.246   1.349  -0.479  0.00  0.00     0.005 C 
ATOM     15  C   UNL d   1      -3.698   0.117   0.320  0.00  0.00     0.005 C 
ENDROOT
BRANCH   4  16
ATOM     16  C   UNL d   1       3.920   2.221  -0.053  0.00  0.00     0.237 C 
BRANCH  16  17
ATOM     17  C   UNL d   1       4.213   3.400   0.862  0.00  0.00     0.254 C 
ATOM     18  N   UNL d   1       3.324   4.454   0.714  0.00  0.00    -0.269 N 
ATOM     19  H   UNL d   1       2.477   4.341   0.152  0.00  0.00     0.190 HD
ATOM     20  O   UNL d   1       5.183   3.386   1.618  0.00  0.00    -0.270 OA
BRANCH  18  21
ATOM     21  N   UNL d   1       3.566   5.623   1.376  0.00  0.00    -0.308 N 
ATOM     22  C   UNL d   1       2.714   6.581   1.189  0.00  0.00     0.126 C 
ATOM     23  HN  UNL d   1       4.375   5.736   1.986  1.00  0.00     0.186 HD
BRANCH  22  24
ATOM     24  C   UNL d   1       2.901   7.856   1.839  0.00  0.00     0.021 A 
ATOM     25  S   UNL d   1       1.777   9.114   1.564  0.00  0.00    -0.101 SA
ATOM     26  C   UNL d   1       2.633  10.190   2.583  0.00  0.00     0.050 A 
ATOM     27  C   UNL d   1       3.753   9.602   3.128  0.00  0.00     0.008 A 
ATOM     28  C   UNL d   1       3.908   8.252   2.699  0.00  0.00     0.021 A 
ENDBRANCH  22  24
ENDBRANCH  18  21
ENDBRANCH  16  17
ENDBRANCH   4  16
TORSDOF 4
