REMARK  1 active torsions:
REMARK  status: ('A' for Active; 'I' for Inactive)
REMARK       I    between atoms: C_3  and  N_5 
REMARK    1  A    between atoms: N_5  and  C_6 
ROOT
ATOM      1  C   UNL d   1       0.048   0.726   0.044  0.00  0.00     0.104 A 
ATOM      2  C   UNL d   1      -1.107   1.506   0.095  0.00  0.00     0.069 A 
ATOM      3  C   UNL d   1      -0.042  -0.665  -0.014  0.00  0.00     0.102 A 
ATOM      4  C   UNL d   1      -2.368   0.909   0.057  0.00  0.00     0.037 A 
ATOM      5  O   UNL d   1       1.240   1.403   0.064  0.00  0.00    -0.346 OA
ATOM      6  O   UNL d   1       1.055  -1.488  -0.038  0.00  0.00    -0.346 OA
ATOM      7  C   UNL d   1      -1.292  -1.274  -0.062  0.00  0.00     0.042 A 
ATOM      8  C   UNL d   1      -2.452  -0.490  -0.025  0.00  0.00     0.032 A 
ATOM      9  C   UNL d   1       2.321   0.565  -0.354  0.00  0.00     0.202 C 
ATOM     10  C   UNL d   1       2.245  -0.784   0.341  0.00  0.00     0.202 C 
ENDROOT
BRANCH   4  11
ATOM     11  N   UNL d   1      -3.580   1.637   0.089  0.00  0.00    -0.327 N 
ATOM     12  C   UNL d   1      -3.722   3.012   0.156  0.00  0.00     0.218 C 
ATOM     13  O   UNL d   1      -2.823   3.845   0.207  0.00  0.00    -0.274 OA
ATOM     14  C   UNL d   1      -5.159   3.467   0.164  0.00  0.00     0.117 C 
ATOM     15  H   UNL d   1      -4.427   1.085   0.053  0.00  0.00     0.169 HD
ENDBRANCH   4  11
TORSDOF 1
