REMARK  2 active torsions:
REMARK  status: ('A' for Active; 'I' for Inactive)
REMARK    1  A    between atoms: N_5  and  C_1 
REMARK       I    between atoms: C_2  and  N_5 
REMARK       I    between atoms: N_8  and  C_2 
REMARK    2  A    between atoms: C_10  and  N_8 
ROOT
ATOM      1  C   UNL d   1       0.006  -3.874  -0.402  0.00  0.00     0.325 C 
ATOM      2  N   UNL d   1       0.916  -2.913  -0.088  0.00  0.00    -0.307 N 
ATOM      3  N   UNL d   1      -1.244  -3.745   0.140  0.00  0.00    -0.309 N 
ATOM      4  O   UNL d   1       0.416  -4.868  -1.005  0.00  0.00    -0.247 OA
ATOM      5  H   UNL d   1       1.862  -3.267  -0.179  0.00  0.00     0.170 HD
ATOM      6  H   UNL d   1      -1.288  -3.138   0.947  0.00  0.00     0.170 HD
ENDROOT
BRANCH   2   7
ATOM      7  C   UNL d   1       0.819  -1.529   0.023  0.00  0.00     0.054 A 
ATOM      8  C   UNL d   1      -0.218  -0.606  -0.402  0.00  0.00     0.008 A 
ATOM      9  C   UNL d   1       0.193   0.725  -0.212  0.00  0.00     0.017 A 
ATOM     10  C   UNL d   1      -1.478  -0.789  -1.034  0.00  0.00     0.015 A 
ATOM     11  C   UNL d   1      -0.591   1.826  -0.614  0.00  0.00     0.020 A 
ATOM     12  S   UNL d   1       1.742   0.826   0.526  0.00  0.00    -0.099 SA
ATOM     13  C   UNL d   1      -1.823   1.598  -1.220  0.00  0.00     0.001 A 
ATOM     14  C   UNL d   1      -2.267   0.302  -1.423  0.00  0.00     0.001 A 
ATOM     15  C   UNL d   1       1.920  -0.859   0.520  0.00  0.00     0.081 A 
ENDBRANCH   2   7
BRANCH   3  16
ATOM     16  C   UNL d   1      -2.258  -4.721  -0.004  0.00  0.00     0.036 A 
ATOM     17  C   UNL d   1      -3.163  -4.911   1.047  0.00  0.00     0.032 A 
ATOM     18  C   UNL d   1      -4.134  -5.916   0.964  0.00  0.00     0.044 A 
ATOM     19  C   UNL d   1      -4.221  -6.699  -0.182  0.00  0.00     0.116 A 
ATOM     20  C   UNL d   1      -3.360  -6.496  -1.249  0.00  0.00     0.044 A 
ATOM     21  F   UNL d   1      -5.149  -7.664  -0.255  0.00  0.00    -0.206 F 
ATOM     22  C   UNL d   1      -2.376  -5.508  -1.158  0.00  0.00     0.032 A 
ENDBRANCH   3  16
TORSDOF 2
