REMARK  3 active torsions:
REMARK  status: ('A' for Active; 'I' for Inactive)
REMARK    1  A    between atoms: N_8  and  C_1 
REMARK    2  A    between atoms: C_10  and  C_7 
REMARK    3  A    between atoms: C_11  and  C_9 
ROOT
ATOM      1  C   UNL d   1      -3.859   0.394  -0.439  0.00  0.00     0.294 C 
ATOM      2  O   UNL d   1      -3.206  -0.550   0.469  0.00  0.00    -0.310 OA
ATOM      3  C   UNL d   1      -5.261   0.804   0.234  0.00  0.00    -0.013 C 
ATOM      4  C   UNL d   1      -2.991   1.742  -0.579  0.00  0.00     0.070 C 
ATOM      5  C   UNL d   1      -1.817  -0.551   0.537  0.00  0.00     0.053 C 
ATOM      6  C   UNL d   1      -1.083   0.573   0.440  0.00  0.00    -0.042 C 
ATOM      7  C   UNL d   1      -1.785   1.900   0.391  0.00  0.00     0.059 C 
ATOM      8  C   UNL d   1      -6.565   0.407   0.201  0.00  0.00     0.019 C 
ATOM      9  C   UNL d   1      -5.176   2.121   1.007  0.00  0.00     0.039 C 
ATOM     10  C   UNL d   1      -3.773   3.031  -0.869  0.00  0.00     0.011 C 
ATOM     11  C   UNL d   1       0.423   0.606   0.423  0.00  0.00     0.037 C 
ATOM     12  C   UNL d   1      -1.161  -1.889   0.749  0.00  0.00     0.065 C 
ATOM     13  C   UNL d   1      -4.992   3.247   0.006  0.00  0.00     0.005 C 
ATOM     14  C   UNL d   1       1.075  -0.708   0.842  0.00  0.00     0.005 C 
ATOM     15  C   UNL d   1       0.308  -1.911   0.306  0.00  0.00     0.007 C 
ENDROOT
BRANCH   1  16
ATOM     16  N   UNL d   1      -3.999  -0.210  -1.808  0.00  0.00     0.129 N 
ATOM     17  C   UNL d   1      -2.730  -0.554  -2.495  0.00  0.00     0.277 C 
ATOM     18  C   UNL d   1      -3.190  -1.282  -3.753  0.00  0.00     0.032 C 
ATOM     19  C   UNL d   1      -4.582  -1.769  -3.395  0.00  0.00     0.032 C 
ATOM     20  C   UNL d   1      -4.681  -1.505  -1.895  0.00  0.00     0.277 C 
ENDBRANCH   1  16
BRANCH   8  21
ATOM     21  C   UNL d   1      -7.514  -0.486  -0.466  0.00  0.00    -0.036 A 
ATOM     22  C   UNL d   1      -8.336  -1.308   0.323  0.00  0.00     0.011 A 
ATOM     23  C   UNL d   1      -9.480  -1.898  -0.222  0.00  0.00     0.001 A 
ATOM     24  C   UNL d   1      -9.808  -1.681  -1.559  0.00  0.00     0.000 A 
ATOM     25  C   UNL d   1      -8.988  -0.877  -2.352  0.00  0.00     0.001 A 
ATOM     26  C   UNL d   1      -7.859  -0.269  -1.802  0.00  0.00     0.011 A 
ENDBRANCH   8  21
BRANCH   7  27
ATOM     27  C   UNL d   1      -1.894   2.470   1.807  0.00  0.00    -0.049 A 
ATOM     28  C   UNL d   1      -1.355   3.735   2.094  0.00  0.00     0.008 A 
ATOM     29  C   UNL d   1      -1.324   4.224   3.404  0.00  0.00     0.001 A 
ATOM     30  C   UNL d   1      -1.848   3.473   4.449  0.00  0.00     0.000 A 
ATOM     31  C   UNL d   1      -2.387   2.217   4.194  0.00  0.00     0.001 A 
ATOM     32  C   UNL d   1      -2.388   1.715   2.892  0.00  0.00     0.008 A 
ENDBRANCH   7  27
TORSDOF 3
