REMARK  0 active torsions:
REMARK  status: ('A' for Active; 'I' for Inactive)
ROOT
ATOM      1  C   UNL d   1       1.665  -1.609   0.001  0.00  0.00     0.169 A 
ATOM      2  N   UNL d   1       0.414  -1.928  -0.069  0.00  0.00    -0.335 N 
ATOM      3  HN  UNL d   1       0.118  -2.902  -0.133  1.00  0.00     0.168 HD
ATOM      4  O   UNL d   1       2.168  -0.353   0.065  0.00  0.00    -0.256 OA
ATOM      5  C   UNL d   1       1.329   0.707   0.029  0.00  0.00     0.302 A 
ATOM      6  C   UNL d   1      -0.113   0.432  -0.012  0.00  0.00     0.066 A 
ATOM      7  C   UNL d   1      -0.511  -0.894  -0.053  0.00  0.00     0.050 A 
ATOM      8  C   UNL d   1       2.720  -2.597   0.029  0.00  0.00     0.056 A 
ATOM      9  S   UNL d   1       2.335  -4.268  -0.068  0.00  0.00    -0.098 SA
ATOM     10  O   UNL d   1       1.745   1.858   0.048  0.00  0.00    -0.259 OA
ATOM     11  C   UNL d   1       4.088  -2.410   0.142  0.00  0.00     0.024 A 
ATOM     12  C   UNL d   1       3.974  -4.727   0.061  0.00  0.00     0.050 A 
ATOM     13  C   UNL d   1       4.807  -3.639   0.174  0.00  0.00     0.009 A 
ATOM     14  C   UNL d   1      -1.055   1.465   0.006  0.00  0.00     0.020 A 
ATOM     15  C   UNL d   1      -1.871  -1.200  -0.058  0.00  0.00     0.030 A 
ATOM     16  C   UNL d   1      -2.414   1.154  -0.001  0.00  0.00     0.001 A 
ATOM     17  C   UNL d   1      -2.823  -0.179  -0.028  0.00  0.00     0.002 A 
ENDROOT
TORSDOF 0
