REMARK  1 active torsions:
REMARK  status: ('A' for Active; 'I' for Inactive)
REMARK    1  A    between atoms: N_6  and  C_1 
ROOT
ATOM      1  C   UNL d   1       1.164  -1.234  -0.013  0.00  0.00     0.115 A 
ATOM      2  N   UNL d   1       0.053   0.699   1.066  0.00  0.00    -0.274 N 
ATOM      3  C   UNL d   1       1.154  -0.117   1.035  0.00  0.00     0.277 A 
ATOM      4  C   UNL d   1      -1.024   0.617   0.236  0.00  0.00     0.327 A 
ATOM      5  C   UNL d   1       0.046  -1.291  -0.763  0.00  0.00     0.128 A 
ATOM      6  N   UNL d   1      -0.994  -0.414  -0.652  0.00  0.00    -0.316 N 
ATOM      7  O   UNL d   1       2.075   0.095   1.821  0.00  0.00    -0.266 OA
ATOM      8  O   UNL d   1      -1.953   1.412   0.279  0.00  0.00    -0.247 OA
ATOM      9  H   UNL d   1       0.063   1.448   1.737  0.00  0.00     0.173 HD
ATOM     10  H   UNL d   1      -1.797  -0.488  -1.266  0.00  0.00     0.170 HD
ENDROOT
BRANCH   1  11
ATOM     11  N   UNL d   1       2.272  -2.107  -0.163  0.00  0.00    -0.375 N 
ATOM     12  C   UNL d   1       3.394  -2.124   0.796  0.00  0.00     0.123 C 
ATOM     13  C   UNL d   1       4.194  -3.430   0.829  0.00  0.00     0.020 C 
ATOM     14  C   UNL d   1       3.321  -4.682   0.929  0.00  0.00     0.002 C 
ATOM     15  C   UNL d   1       2.883  -5.216  -0.435  0.00  0.00     0.002 C 
ATOM     16  C   UNL d   1       1.948  -4.301  -1.223  0.00  0.00     0.020 C 
ATOM     17  C   UNL d   1       2.477  -2.879  -1.399  0.00  0.00     0.123 C 
ENDBRANCH   1  11
TORSDOF 1
