REMARK  1 active torsions:
REMARK  status: ('A' for Active; 'I' for Inactive)
REMARK    1  A    between atoms: O_9  and  C_4 
ROOT
ATOM      1  N   UNL d   1       0.654   1.224  -0.001  0.00  0.00    -0.313 N 
ATOM      2  C   UNL d   1      -0.003   2.449   0.005  0.00  0.00     0.250 A 
ATOM      3  C   UNL d   1      -1.474   2.426   0.013  0.00  0.00     0.112 A 
ATOM      4  C   UNL d   1      -2.164   1.286   0.015  0.00  0.00     0.083 A 
ATOM      5  C   UNL d   1      -0.044  -0.010   0.002  0.00  0.00     0.056 A 
ATOM      6  C   UNL d   1      -1.462  -0.012   0.012  0.00  0.00     0.025 A 
ATOM      7  O   UNL d   1       0.567   3.539   0.002  0.00  0.00    -0.268 OA
ATOM      8  C   UNL d   1       0.658  -1.222  -0.006  0.00  0.00    -0.030 A 
ATOM      9  C   UNL d   1       2.099   1.288  -0.029  0.00  0.00     0.133 A 
ATOM     10  C   UNL d   1      -2.140  -1.244   0.014  0.00  0.00     0.016 A 
ATOM     11  C   UNL d   1       2.907   0.005  -0.022  0.00  0.00     0.025 A 
ATOM     12  C   UNL d   1      -1.438  -2.446   0.009  0.00  0.00     0.002 A 
ATOM     13  C   UNL d   1       2.151  -1.306  -0.033  0.00  0.00     0.042 A 
ATOM     14  C   UNL d   1      -0.051  -2.434   0.000  0.00  0.00     0.009 A 
ENDROOT
BRANCH   4  15
ATOM     15  O   UNL d   1      -3.545   1.353   0.017  0.00  0.00    -0.360 OA
ATOM     16  H   UNL d   1      -3.931   0.467   0.006  0.00  0.00     0.217 HD
ENDBRANCH   4  15
TORSDOF 1
