REMARK  4 active torsions:
REMARK  status: ('A' for Active; 'I' for Inactive)
REMARK    1  A    between atoms: C_2  and  C_1 
REMARK    2  A    between atoms: O_15  and  C_3 
REMARK       I    between atoms: C_7  and  N_8 
REMARK    3  A    between atoms: C_16  and  C_7 
REMARK    4  A    between atoms: N_8  and  C_9 
ROOT
ATOM      1  C   UNL d   1       0.725   1.307   0.019  0.00  0.00     0.101 A 
ATOM      2  C   UNL d   1      -0.644   1.136   0.017  0.00  0.00     0.157 A 
ATOM      3  N   UNL d   1      -1.236  -0.086   0.000  0.00  0.00    -0.344 N 
ATOM      4  HN  UNL d   1      -2.251  -0.181  -0.001  1.00  0.00     0.167 HD
ATOM      5  C   UNL d   1       1.519   0.150   0.000  0.00  0.00     0.051 A 
ATOM      6  C   UNL d   1       0.957  -1.124  -0.017  0.00  0.00     0.051 A 
ATOM      7  C   UNL d   1      -0.429  -1.176  -0.015  0.00  0.00     0.119 A 
ENDROOT
BRANCH   6   8
ATOM      8  N   UNL d   1       1.723  -2.313  -0.033  0.00  0.00    -0.326 N 
ATOM      9  C   UNL d   1       3.108  -2.372  -0.041  0.00  0.00     0.221 C 
ATOM     10  O   UNL d   1       3.864  -1.403  -0.039  0.00  0.00    -0.273 OA
ATOM     11  H   UNL d   1       1.215  -3.192  -0.041  0.00  0.00     0.169 HD
BRANCH   9  12
ATOM     12  C   UNL d   1       3.660  -3.782  -0.054  0.00  0.00     0.098 C 
ATOM     13  C   UNL d   1       5.183  -3.750  -0.050  0.00  0.00     0.014 C 
ENDBRANCH   9  12
ENDBRANCH   6   8
BRANCH   1  14
ATOM     14  C   UNL d   1       1.427   2.628   0.037  0.00  0.00     0.421 C 
ATOM     15  F   UNL d   1       0.641   3.734   0.085  0.00  0.00    -0.166 F 
ATOM     16  F   UNL d   1       2.271   2.735   1.107  0.00  0.00    -0.166 F 
ATOM     17  F   UNL d   1       2.223   2.791  -1.061  0.00  0.00    -0.166 F 
ENDBRANCH   1  14
BRANCH   2  18
ATOM     18  O   UNL d   1      -1.447   2.253   0.038  0.00  0.00    -0.340 OA
ATOM     19  C   UNL d   1      -2.841   1.957   0.028  0.00  0.00     0.211 C 
ENDBRANCH   2  18
TORSDOF 4
