REMARK  3 active torsions:
REMARK  status: ('A' for Active; 'I' for Inactive)
REMARK    1  A    between atoms: N_8  and  C_2 
REMARK       I    between atoms: C_11  and  N_8 
REMARK    2  A    between atoms: C_14  and  C_11 
REMARK    3  A    between atoms: N_12  and  C_14 
ROOT
ATOM      1  C   UNL d   1       6.102  -0.274   1.489  0.00  0.00     0.085 C 
ATOM      2  C   UNL d   1       4.852  -0.669   1.906  0.00  0.00     0.093 C 
ATOM      3  C   UNL d   1       6.957  -0.061   2.612  0.00  0.00     0.003 C 
ATOM      4  C   UNL d   1       6.571  -0.116   0.119  0.00  0.00     0.302 C 
ATOM      5  O   UNL d   1       7.959   0.093  -0.014  0.00  0.00    -0.274 OA
ATOM      6  S   UNL d   1       4.600  -0.400   3.565  0.00  0.00    -0.082 SA
ATOM      7  C   UNL d   1       6.270  -0.072   3.807  0.00  0.00     0.065 C 
ATOM      8  C   UNL d   1       8.381   0.123   2.424  0.00  0.00     0.010 A 
ATOM      9  C   UNL d   1       8.841   0.169   1.100  0.00  0.00     0.090 A 
ATOM     10  O   UNL d   1       5.832  -0.042  -0.860  0.00  0.00    -0.259 OA
ATOM     11  C   UNL d   1       9.312   0.167   3.462  0.00  0.00     0.015 A 
ATOM     12  C   UNL d   1      10.197   0.277   0.800  0.00  0.00     0.038 A 
ATOM     13  C   UNL d   1      10.678   0.258   3.169  0.00  0.00     0.001 A 
ATOM     14  C   UNL d   1      11.118   0.315   1.844  0.00  0.00     0.003 A 
ENDROOT
BRANCH   2  15
ATOM     15  N   UNL d   1       3.797  -1.273   1.260  0.00  0.00    -0.319 N 
ATOM     16  C   UNL d   1       4.073  -2.295   0.354  0.00  0.00     0.251 C 
ATOM     17  O   UNL d   1       5.197  -2.721   0.099  0.00  0.00    -0.271 OA
ATOM     18  H   UNL d   1       2.918  -1.313   1.758  0.00  0.00     0.169 HD
BRANCH  16  19
ATOM     19  C   UNL d   1       2.819  -2.921  -0.258  0.00  0.00     0.374 C 
BRANCH  19  20
ATOM     20  N   UNL d   1       2.596  -2.568  -1.669  0.00  0.00     0.097 N 
ATOM     21  C   UNL d   1       3.706  -2.982  -2.541  0.00  0.00     0.273 C 
ATOM     22  C   UNL d   1       3.272  -2.870  -4.002  0.00  0.00     0.030 C 
ATOM     23  C   UNL d   1       2.774  -1.468  -4.346  0.00  0.00     0.003 C 
ATOM     24  C   UNL d   1       1.808  -0.921  -3.296  0.00  0.00     0.030 C 
ATOM     25  C   UNL d   1       2.307  -1.144  -1.867  0.00  0.00     0.273 C 
ENDBRANCH  19  20
ENDBRANCH  16  19
ENDBRANCH   2  15
TORSDOF 3
