REMARK  3 active torsions:
REMARK  status: ('A' for Active; 'I' for Inactive)
REMARK    1  A    between atoms: C_2  and  S_1 
REMARK    2  A    between atoms: N_3  and  S_1 
REMARK       I    between atoms: C_9  and  N_8 
REMARK    3  A    between atoms: C_17  and  C_9 
ROOT
ATOM      1  N   UNL d   1       0.419   0.191  -1.362  0.00  0.00    -0.203 NA
ATOM      2  N   UNL d   1      -2.310   1.188  -1.263  0.00  0.00    -0.348 N 
ATOM      3  C   UNL d   1      -3.598   1.716  -1.351  0.00  0.00     0.248 C 
ATOM      4  C   UNL d   1       0.099   1.571  -1.846  0.00  0.00     0.127 C 
ATOM      5  C   UNL d   1      -0.750  -0.721  -1.544  0.00  0.00     0.127 C 
ATOM      6  C   UNL d   1      -2.002  -0.185  -0.837  0.00  0.00     0.141 C 
ATOM      7  C   UNL d   1      -1.182   2.128  -1.202  0.00  0.00     0.141 C 
ATOM      8  O   UNL d   1      -3.778   2.905  -1.629  0.00  0.00    -0.270 OA
ENDROOT
BRANCH   1   9
ATOM      9  S   UNL d   1       1.242   0.071   0.115  0.00  0.00     0.248 S 
ATOM     10  O   UNL d   1       1.006   1.274   0.881  0.00  0.00    -0.206 OA
ATOM     11  O   UNL d   1       1.003  -1.245   0.670  0.00  0.00    -0.206 OA
BRANCH   9  12
ATOM     12  C   UNL d   1       2.930   0.072  -0.131  0.00  0.00     0.130 A 
ATOM     13  C   UNL d   1       3.664   0.141  -1.291  0.00  0.00     0.097 A 
ATOM     14  O   UNL d   1       4.989   0.084  -0.968  0.00  0.00    -0.241 OA
ATOM     15  C   UNL d   1       3.401   0.242  -2.736  0.00  0.00     0.081 C 
ATOM     16  N   UNL d   1       5.136  -0.043   0.396  0.00  0.00    -0.264 N 
ATOM     17  C   UNL d   1       3.895  -0.060   0.899  0.00  0.00     0.054 A 
ATOM     18  HN  UNL d   1       6.011  -0.112   0.916  1.00  0.00     0.194 HD
ATOM     19  C   UNL d   1       3.702  -0.235   2.359  0.00  0.00     0.072 C 
ENDBRANCH   9  12
ENDBRANCH   1   9
BRANCH   3  20
ATOM     20  C   UNL d   1      -4.794   0.753  -1.162  0.00  0.00     0.213 C 
ATOM     21  O   UNL d   1      -4.809   0.129   0.133  0.00  0.00    -0.376 OA
ATOM     22  C   UNL d   1      -6.117   0.266   0.702  0.00  0.00     0.168 C 
ATOM     23  C   UNL d   1      -7.046   0.632  -0.431  0.00  0.00     0.029 C 
ATOM     24  C   UNL d   1      -6.144   1.445  -1.323  0.00  0.00     0.043 C 
ENDBRANCH   3  20
TORSDOF 3
