REMARK  3 active torsions:
REMARK  status: ('A' for Active; 'I' for Inactive)
REMARK    1  A    between atoms: C_8  and  C_3 
REMARK    2  A    between atoms: O_16  and  C_8 
REMARK    3  A    between atoms: O_17  and  C_14 
ROOT
ATOM      1  C   UNL d   1      -0.793   0.154  -0.058  0.00  0.00     0.023 A 
ATOM      2  S   UNL d   1      -1.963   1.381   0.110  0.00  0.00    -0.083 SA
ATOM      3  C   UNL d   1      -3.264   0.267  -0.005  0.00  0.00     0.081 A 
ATOM      4  C   UNL d   1      -1.377  -1.091  -0.203  0.00  0.00    -0.038 A 
ATOM      5  C   UNL d   1       0.669   0.342  -0.024  0.00  0.00    -0.012 A 
ATOM      6  C   UNL d   1      -2.795  -1.024  -0.182  0.00  0.00     0.033 A 
ATOM      7  C   UNL d   1       1.457  -0.821   0.162  0.00  0.00    -0.044 A 
ATOM      8  C   UNL d   1       1.313   1.570  -0.206  0.00  0.00     0.016 A 
ATOM      9  C   UNL d   1      -0.531  -2.315  -0.368  0.00  0.00     0.044 C 
ATOM     10  C   UNL d   1       2.855  -0.724   0.189  0.00  0.00     0.044 A 
ATOM     11  C   UNL d   1       0.791  -2.166   0.402  0.00  0.00     0.044 C 
ATOM     12  C   UNL d   1       3.489   0.503  -0.002  0.00  0.00     0.068 A 
ATOM     13  C   UNL d   1       2.716   1.648  -0.200  0.00  0.00     0.037 A 
ENDROOT
BRANCH   3  14
ATOM     14  C   UNL d   1      -4.666   0.641   0.076  0.00  0.00     0.299 C 
ATOM     15  O   UNL d   1      -5.594  -0.154  -0.022  0.00  0.00    -0.259 OA
BRANCH  14  16
ATOM     16  O   UNL d   1      -4.836   1.980   0.281  0.00  0.00    -0.322 OA
ATOM     17  C   UNL d   1      -6.208   2.367   0.379  0.00  0.00     0.213 C 
ENDBRANCH  14  16
ENDBRANCH   3  14
BRANCH  12  18
ATOM     18  O   UNL d   1       4.855   0.441   0.028  0.00  0.00    -0.356 OA
ATOM     19  C   UNL d   1       5.565   1.652  -0.190  0.00  0.00     0.210 C 
ENDBRANCH  12  18
TORSDOF 3
