REMARK  4 active torsions:
REMARK  status: ('A' for Active; 'I' for Inactive)
REMARK       I    between atoms: N_2  and  C_1 
REMARK    1  A    between atoms: C_5  and  C_1 
REMARK    2  A    between atoms: C_3  and  N_2 
REMARK    3  A    between atoms: O_13  and  C_6 
REMARK    4  A    between atoms: O_14  and  C_9 
ROOT
ATOM      1  C   UNL d   1       1.082   2.118   0.561  0.00  0.00     0.071 A 
ATOM      2  C   UNL d   1       2.274   2.520  -0.049  0.00  0.00     0.069 A 
ATOM      3  C   UNL d   1       0.420   3.014   1.418  0.00  0.00     0.095 A 
ATOM      4  C   UNL d   1       0.929   4.290   1.654  0.00  0.00     0.042 A 
ATOM      5  C   UNL d   1       2.784   3.804   0.171  0.00  0.00     0.070 A 
ATOM      6  C   UNL d   1       2.118   4.677   1.036  0.00  0.00     0.039 A 
ENDROOT
BRANCH   1   7
ATOM      7  N   UNL d   1       0.478   0.862   0.340  0.00  0.00    -0.322 N 
ATOM      8  C   UNL d   1       1.036  -0.260  -0.252  0.00  0.00     0.255 C 
ATOM      9  O   UNL d   1       2.185  -0.344  -0.683  0.00  0.00    -0.270 OA
ATOM     10  H   UNL d   1      -0.459   0.769   0.720  0.00  0.00     0.169 HD
BRANCH   8  11
ATOM     11  C   UNL d   1       0.099  -1.468  -0.316  0.00  0.00     0.270 C 
ATOM     12 CL   UNL d   1      -0.441  -1.890   1.327  0.00  0.00    -0.098 Cl
ATOM     13 CL   UNL d   1      -1.296  -1.079  -1.346  0.00  0.00    -0.098 Cl
ENDBRANCH   8  11
ENDBRANCH   1   7
BRANCH   3  14
ATOM     14  O   UNL d   1      -0.779   2.685   2.001  0.00  0.00    -0.354 OA
ATOM     15  C   UNL d   1      -0.609   1.813   3.120  0.00  0.00     0.210 C 
ENDBRANCH   3  14
BRANCH   5  16
ATOM     16  O   UNL d   1       3.917   4.316  -0.405  0.00  0.00    -0.356 OA
ATOM     17  C   UNL d   1       4.407   3.627  -1.551  0.00  0.00     0.210 C 
ENDBRANCH   5  16
TORSDOF 4
