REMARK  7 active torsions:
REMARK  status: ('A' for Active; 'I' for Inactive)
REMARK    1  A    between atoms: C_4  and  S_1 
REMARK    2  A    between atoms: C_6  and  S_1 
REMARK    3  A    between atoms: S_2  and  C_3 
REMARK    4  A    between atoms: C_7  and  S_2 
REMARK    5  A    between atoms: C_3  and  C_5 
REMARK    6  A    between atoms: C_5  and  C_4 
REMARK    7  A    between atoms: O_16  and  C_5 
ROOT
ATOM      1  C   UNL d   1       0.999   2.171  -1.468  0.00  0.00     0.081 C 
ATOM      2  C   UNL d   1       0.647   2.820  -2.821  0.00  0.00     0.047 C 
ENDROOT
BRANCH   1   3
ATOM      3  C   UNL d   1       0.257   3.003  -0.402  0.00  0.00     0.184 C 
BRANCH   3   4
ATOM      4  S   UNL d   1       0.581   2.547   1.285  0.00  0.00     0.178 S 
ATOM      5  O   UNL d   1      -0.084   1.278   1.530  0.00  0.00    -0.223 OA
ATOM      6  O   UNL d   1       1.990   2.705   1.570  0.00  0.00    -0.223 OA
BRANCH   4   7
ATOM      7  C   UNL d   1      -0.305   3.798   2.201  0.00  0.00     0.059 A 
ATOM      8  C   UNL d   1      -1.621   3.547   2.604  0.00  0.00     0.025 A 
ATOM      9  C   UNL d   1      -2.343   4.546   3.259  0.00  0.00     0.025 A 
ATOM     10  C   UNL d   1      -1.744   5.780   3.520  0.00  0.00     0.034 A 
ATOM     11  C   UNL d   1      -0.419   6.015   3.150  0.00  0.00     0.025 A 
ATOM     12 CL   UNL d   1      -2.652   7.020   4.293  0.00  0.00    -0.084 Cl
ATOM     13  C   UNL d   1       0.311   5.019   2.493  0.00  0.00     0.025 A 
ENDBRANCH   4   7
ENDBRANCH   3   4
ENDBRANCH   1   3
BRANCH   1  14
ATOM     14  C   UNL d   1       0.632   0.668  -1.445  0.00  0.00     0.184 C 
BRANCH  14  15
ATOM     15  S   UNL d   1       1.380  -0.271  -2.775  0.00  0.00     0.178 S 
ATOM     16  O   UNL d   1       2.817  -0.278  -2.584  0.00  0.00    -0.223 OA
ATOM     17  O   UNL d   1       0.791   0.139  -4.037  0.00  0.00    -0.223 OA
BRANCH  15  18
ATOM     18  C   UNL d   1       0.835  -1.953  -2.524  0.00  0.00     0.059 A 
ATOM     19  C   UNL d   1      -0.317  -2.404  -3.179  0.00  0.00     0.025 A 
ATOM     20  C   UNL d   1      -0.658  -3.758  -3.124  0.00  0.00     0.025 A 
ATOM     21  C   UNL d   1       0.157  -4.651  -2.428  0.00  0.00     0.034 A 
ATOM     22  C   UNL d   1       1.308  -4.202  -1.779  0.00  0.00     0.025 A 
ATOM     23 CL   UNL d   1      -0.244  -6.323  -2.396  0.00  0.00    -0.084 Cl
ATOM     24  C   UNL d   1       1.655  -2.849  -1.830  0.00  0.00     0.025 A 
ENDBRANCH  15  18
ENDBRANCH  14  15
ENDBRANCH   1  14
BRANCH   1  25
ATOM     25  O   UNL d   1       2.400   2.388  -1.304  0.00  0.00    -0.388 OA
ATOM     26  H   UNL d   1       2.772   1.802  -0.615  0.00  0.00     0.210 HD
ENDBRANCH   1  25
TORSDOF 7
