REMARK  4 active torsions:
REMARK  status: ('A' for Active; 'I' for Inactive)
REMARK    1  A    between atoms: C_7  and  C_1 
REMARK    2  A    between atoms: S_9  and  C_4 
REMARK    3  A    between atoms: S_10  and  C_5 
REMARK    4  A    between atoms: O_11  and  C_7 
ROOT
ATOM      1  C   UNL d   1      -1.578  -0.819   0.008  0.00  0.00     0.096 A 
ATOM      2  N   UNL d   1      -0.105   1.059  -0.007  0.00  0.00    -0.319 N 
ATOM      3  HN  UNL d   1       0.182   2.038  -0.015  1.00  0.00     0.175 HD
ATOM      4  C   UNL d   1      -0.324  -1.451   0.037  0.00  0.00     0.077 A 
ATOM      5  C   UNL d   1      -1.354   0.625  -0.008  0.00  0.00     0.094 A 
ATOM      6  S   UNL d   1       0.903  -0.223   0.008  0.00  0.00    -0.006 SA
ENDROOT
BRANCH   1   7
ATOM      7  C   UNL d   1      -2.881  -1.488  -0.007  0.00  0.00     0.181 C 
ATOM      8  O   UNL d   1      -3.042  -2.683  -0.182  0.00  0.00    -0.646 OA
BRANCH   7   9
ATOM      9  O   UNL d   1      -3.983  -0.716   0.185  0.00  0.00    -0.773 OA
ATOM     10  H   UNL d   1      -3.807   0.241   0.266  0.00  0.00     0.167 HD
ENDBRANCH   7   9
ENDBRANCH   1   7
BRANCH   4  11
ATOM     11  S   UNL d   1       0.338  -3.080   0.146  0.00  0.00    -0.125 SA
ATOM     12  C   UNL d   1      -0.926  -4.315  -0.097  0.00  0.00     0.096 C 
ENDBRANCH   4  11
BRANCH   5  13
ATOM     13  S   UNL d   1      -2.629   1.860  -0.023  0.00  0.00    -0.115 SA
ATOM     14  C   UNL d   1      -1.677   3.401  -0.026  0.00  0.00     0.097 C 
ENDBRANCH   5  13
TORSDOF 4
