REMARK  3 active torsions:
REMARK  status: ('A' for Active; 'I' for Inactive)
REMARK    1  A    between atoms: C_6  and  C_1 
REMARK    2  A    between atoms: C_12  and  N_5 
REMARK    3  A    between atoms: C_8  and  C_6 
ROOT
ATOM      1  C   UNL d   1       0.904  -0.686   0.004  0.00  0.00     0.122 A 
ATOM      2  N   UNL d   1       0.925   0.663  -0.041  0.00  0.00    -0.289 N 
ATOM      3  HN  UNL d   1       1.745   1.265  -0.116  1.00  0.00     0.188 HD
ATOM      4  C   UNL d   1      -0.427  -1.152   0.088  0.00  0.00     0.094 A 
ATOM      5  N   UNL d   1      -0.376   1.052   0.036  0.00  0.00    -0.266 N 
ATOM      6  C   UNL d   1      -1.215  -0.030   0.136  0.00  0.00     0.142 A 
ATOM      7  C   UNL d   1      -0.905  -2.491   0.150  0.00  0.00     0.103 C 
ATOM      8  N   UNL d   1      -1.350  -3.560   0.227  0.00  0.00    -0.191 NA
ENDROOT
BRANCH   1   9
ATOM      9  C   UNL d   1       2.106  -1.538  -0.074  0.00  0.00     0.218 C 
ATOM     10  O   UNL d   1       2.016  -2.684  -0.511  0.00  0.00    -0.284 OA
BRANCH   9  11
ATOM     11  C   UNL d   1       3.347  -0.965   0.428  0.00  0.00     0.057 A 
ATOM     12  S   UNL d   1       4.833  -1.544  -0.212  0.00  0.00    -0.098 SA
ATOM     13  C   UNL d   1       5.752  -0.536   0.816  0.00  0.00     0.050 A 
ATOM     14  C   UNL d   1       4.956   0.219   1.645  0.00  0.00     0.009 A 
ATOM     15  C   UNL d   1       3.569  -0.022   1.418  0.00  0.00     0.023 A 
ENDBRANCH   9  11
ENDBRANCH   1   9
BRANCH   5  16
ATOM     16  C   UNL d   1      -0.744   2.426   0.014  0.00  0.00     0.056 A 
ATOM     17  C   UNL d   1       0.231   3.412  -0.203  0.00  0.00     0.033 A 
ATOM     18  C   UNL d   1      -0.135   4.763  -0.245  0.00  0.00     0.026 A 
ATOM     19  C   UNL d   1      -1.467   5.130  -0.059  0.00  0.00     0.034 A 
ATOM     20  C   UNL d   1      -2.439   4.161   0.170  0.00  0.00     0.026 A 
ATOM     21 CL   UNL d   1      -1.918   6.789  -0.114  0.00  0.00    -0.084 Cl
ATOM     22  C   UNL d   1      -2.082   2.810   0.203  0.00  0.00     0.033 A 
ENDBRANCH   5  16
TORSDOF 3
