REMARK  5 active torsions:
REMARK  status: ('A' for Active; 'I' for Inactive)
REMARK    1  A    between atoms: C_2  and  C_1 
REMARK    2  A    between atoms: C_6  and  C_2 
REMARK    3  A    between atoms: S_8  and  C_3 
REMARK    4  A    between atoms: C_7  and  S_8 
REMARK    5  A    between atoms: C_17  and  C_14 
ROOT
ATOM      1  C   UNL d   1       1.108   0.229   0.089  0.00  0.00     0.063 C 
ATOM      2  C   UNL d   1       0.547   0.769  -1.000  0.00  0.00     0.056 C 
ENDROOT
BRANCH   1   3
ATOM      3  C   UNL d   1       0.269  -0.299   1.198  0.00  0.00     0.182 C 
ATOM      4  O   UNL d   1      -0.909  -0.595   1.039  0.00  0.00    -0.288 OA
BRANCH   3   5
ATOM      5  C   UNL d   1       0.942  -0.523   2.509  0.00  0.00     0.014 A 
ATOM      6  C   UNL d   1       1.990   0.294   2.950  0.00  0.00     0.016 A 
ATOM      7  C   UNL d   1       2.607   0.047   4.180  0.00  0.00     0.008 A 
ATOM      8  C   UNL d   1       2.178  -1.010   4.993  0.00  0.00    -0.059 A 
ATOM      9  C   UNL d   1       1.117  -1.815   4.555  0.00  0.00     0.008 A 
ATOM     10  C   UNL d   1       0.496  -1.568   3.326  0.00  0.00     0.016 A 
BRANCH   8  11
ATOM     11  C   UNL d   1       2.850  -1.282   6.316  0.00  0.00     0.034 C 
ATOM     12  C   UNL d   1       4.017  -2.249   6.186  0.00  0.00     0.010 C 
ENDBRANCH   8  11
ENDBRANCH   3   5
ENDBRANCH   1   3
BRANCH   2  13
ATOM     13  S   UNL d   1       1.543   1.334  -2.305  0.00  0.00    -0.084 SA
BRANCH  13  14
ATOM     14  C   UNL d   1       0.585   2.708  -2.930  0.00  0.00     0.073 A 
ATOM     15  N   UNL d   1      -0.248   3.362  -2.089  0.00  0.00    -0.360 N 
ATOM     16  C   UNL d   1      -0.909   4.433  -2.582  0.00  0.00     0.089 A 
ATOM     17  HN  UNL d   1      -0.372   3.059  -1.123  1.00  0.00     0.166 HD
ATOM     18  C   UNL d   1      -0.776   4.894  -3.881  0.00  0.00     0.017 A 
ATOM     19  C   UNL d   1       0.086   4.213  -4.731  0.00  0.00     0.004 A 
ATOM     20  C   UNL d   1       0.779   3.105  -4.251  0.00  0.00     0.037 A 
ENDBRANCH  13  14
ENDBRANCH   2  13
TORSDOF 5
