REMARK  3 active torsions:
REMARK  status: ('A' for Active; 'I' for Inactive)
REMARK    1  A    between atoms: C_2  and  C_1 
REMARK    2  A    between atoms: C_12  and  N_3 
REMARK    3  A    between atoms: C_14  and  C_8 
ROOT
ATOM      1  C   UNL d   1      -0.172  -1.273  -0.221  0.00  0.00     0.152 C 
ATOM      2  N   UNL d   1      -1.030  -0.341  -0.774  0.00  0.00    -0.224 N 
ATOM      3  N   UNL d   1      -0.308   0.757  -1.095  0.00  0.00     0.001 NA
ATOM      4  N   UNL d   1       0.876   0.578  -0.527  0.00  0.00    -0.007 NA
ATOM      5  N   UNL d   1       0.968  -0.668   0.043  0.00  0.00    -0.269 N 
ATOM      6  HN  UNL d   1       1.758  -1.048   0.564  1.00  0.00     0.185 HD
ENDROOT
BRANCH   1   7
ATOM      7  C   UNL d   1      -0.423  -2.725  -0.054  0.00  0.00     0.056 A 
ATOM      8  C   UNL d   1       0.057  -3.567   0.935  0.00  0.00     0.073 A 
ATOM      9  N   UNL d   1      -0.441  -4.805   0.594  0.00  0.00    -0.299 N 
ATOM     10  N   UNL d   1      -1.225  -4.811  -0.497  0.00  0.00    -0.310 N 
ATOM     11  H   UNL d   1      -0.317  -5.678   1.093  0.00  0.00     0.187 HD
ATOM     12  C   UNL d   1      -1.210  -3.541  -0.896  0.00  0.00     0.124 A 
ATOM     13  HN  UNL d   1      -1.715  -5.601  -0.919  1.00  0.00     0.186 HD
BRANCH   8  14
ATOM     14  C   UNL d   1       0.774  -3.343   2.193  0.00  0.00    -0.007 A 
ATOM     15  C   UNL d   1       0.583  -2.159   2.922  0.00  0.00     0.014 A 
ATOM     16  C   UNL d   1       1.193  -1.972   4.165  0.00  0.00     0.001 A 
ATOM     17  C   UNL d   1       1.996  -2.973   4.703  0.00  0.00     0.000 A 
ATOM     18  C   UNL d   1       2.202  -4.151   3.991  0.00  0.00     0.001 A 
ATOM     19  C   UNL d   1       1.601  -4.334   2.742  0.00  0.00     0.014 A 
ENDBRANCH   8  14
ENDBRANCH   1   7
BRANCH   2  20
ATOM     20  C   UNL d   1      -2.443  -0.343  -0.844  0.00  0.00     0.056 A 
ATOM     21  C   UNL d   1      -3.196  -1.050   0.108  0.00  0.00     0.032 A 
ATOM     22  C   UNL d   1      -4.591  -1.003   0.070  0.00  0.00     0.021 A 
ATOM     23  C   UNL d   1      -5.229  -0.267  -0.924  0.00  0.00     0.011 A 
ATOM     24  C   UNL d   1      -4.488   0.439  -1.873  0.00  0.00     0.021 A 
ATOM     25 BR   UNL d   1      -7.118  -0.206  -0.973  0.00  0.00    -0.051 Br
ATOM     26  C   UNL d   1      -3.091   0.419  -1.822  0.00  0.00     0.032 A 
ENDBRANCH   2  20
TORSDOF 3
