REMARK  5 active torsions:
REMARK  status: ('A' for Active; 'I' for Inactive)
REMARK    1  A    between atoms: C_7  and  N_1 
REMARK    2  A    between atoms: C_13  and  C_3 
REMARK    3  A    between atoms: C_5  and  O_15 
REMARK    4  A    between atoms: C_18  and  C_7 
REMARK    5  A    between atoms: O_15  and  C_25 
ROOT
ATOM      1  N   UNL d   1      -2.531   0.325  -0.321  0.00  0.00     0.106 N 
ATOM      2  C   UNL d   1      -0.142   0.866  -0.001  0.00  0.00    -0.007 A 
ATOM      3  C   UNL d   1      -1.567   1.343   0.173  0.00  0.00     0.290 C 
ATOM      4  C   UNL d   1       0.183  -0.463  -0.191  0.00  0.00    -0.007 A 
ATOM      5  S   UNL d   1       1.857  -0.737  -0.291  0.00  0.00    -0.106 SA
ATOM      6  C   UNL d   1      -2.231  -1.065   0.063  0.00  0.00     0.279 C 
ATOM      7  C   UNL d   1       1.041   1.678   0.014  0.00  0.00     0.018 A 
ATOM      8  C   UNL d   1      -0.818  -1.559  -0.321  0.00  0.00     0.077 C 
ATOM      9  C   UNL d   1       2.191   0.932  -0.116  0.00  0.00     0.051 A 
ENDROOT
BRANCH   3  10
ATOM     10  C   UNL d   1      -1.662   1.762   1.641  0.00  0.00    -0.020 A 
ATOM     11  C   UNL d   1      -1.963   3.099   1.960  0.00  0.00     0.012 A 
ATOM     12  C   UNL d   1      -2.080   3.525   3.291  0.00  0.00     0.037 A 
ATOM     13  C   UNL d   1      -1.925   2.614   4.334  0.00  0.00     0.078 A 
ATOM     14  C   UNL d   1      -1.567   1.298   4.030  0.00  0.00     0.037 A 
ATOM     15  C   UNL d   1      -1.436   0.878   2.708  0.00  0.00     0.012 A 
BRANCH  13  16
ATOM     16  O   UNL d   1      -2.058   2.858   5.663  0.00  0.00    -0.255 OA
BRANCH  16  17
ATOM     17  C   UNL d   1      -2.838   3.964   6.083  0.00  0.00     0.530 C 
ATOM     18  F   UNL d   1      -3.806   4.302   5.204  0.00  0.00    -0.144 F 
ATOM     19  F   UNL d   1      -3.442   3.638   7.248  0.00  0.00    -0.144 F 
ATOM     20  F   UNL d   1      -2.044   5.032   6.303  0.00  0.00    -0.144 F 
ENDBRANCH  16  17
ENDBRANCH  13  16
ENDBRANCH   3  10
BRANCH   1  21
ATOM     21  C   UNL d   1      -3.935   0.650  -0.021  0.00  0.00     0.312 C 
BRANCH  21  22
ATOM     22  C   UNL d   1      -4.429   1.935  -0.655  0.00  0.00    -0.029 A 
ATOM     23  C   UNL d   1      -4.944   2.967   0.147  0.00  0.00     0.019 A 
ATOM     24  C   UNL d   1      -5.388   4.125  -0.466  0.00  0.00    -0.022 A 
ATOM     25  C   UNL d   1      -5.888   5.381   0.135  0.00  0.00     0.068 C 
ATOM     26  C   UNL d   1      -5.335   4.268  -1.843  0.00  0.00     0.075 A 
ATOM     27  C   UNL d   1      -6.439   6.049  -1.125  0.00  0.00     0.180 C 
ATOM     28  O   UNL d   1      -5.792   5.481  -2.288  0.00  0.00    -0.350 OA
ATOM     29  C   UNL d   1      -4.843   3.274  -2.661  0.00  0.00     0.038 A 
ATOM     30  C   UNL d   1      -4.392   2.096  -2.059  0.00  0.00     0.012 A 
ENDBRANCH  21  22
ENDBRANCH   1  21
TORSDOF 5
