REMARK  2 active torsions:
REMARK  status: ('A' for Active; 'I' for Inactive)
REMARK    1  A    between atoms: C_6  and  C_1 
REMARK    2  A    between atoms: O_10  and  C_6 
ROOT
ATOM      1  C   UNL d   1      -0.360  -1.239   0.002  0.00  0.00     0.082 A 
ATOM      2  S   UNL d   1       1.319  -0.863   0.001  0.00  0.00    -0.075 SA
ATOM      3  C   UNL d   1       1.016   0.805   0.002  0.00  0.00     0.069 A 
ATOM      4  C   UNL d   1      -1.128  -0.084   0.003  0.00  0.00     0.046 A 
ATOM      5  C   UNL d   1      -0.324   1.091   0.003  0.00  0.00     0.036 A 
ATOM      6 BR   UNL d   1       2.409   2.062   0.002  0.00  0.00    -0.042 Br
ATOM      7 BR   UNL d   1      -1.124   2.804   0.004  0.00  0.00    -0.049 Br
ENDROOT
BRANCH   1   8
ATOM      8  C   UNL d   1      -0.756  -2.634   0.001  0.00  0.00     0.299 C 
ATOM      9  O   UNL d   1       0.000  -3.599   0.002  0.00  0.00    -0.259 OA
BRANCH   8  10
ATOM     10  O   UNL d   1      -2.119  -2.744  -0.001  0.00  0.00    -0.322 OA
ATOM     11  C   UNL d   1      -2.571  -4.101  -0.002  0.00  0.00     0.213 C 
ENDBRANCH   8  10
ENDBRANCH   1   8
TORSDOF 2
