REMARK  4 active torsions:
REMARK  status: ('A' for Active; 'I' for Inactive)
REMARK    1  A    between atoms: O_4  and  C_1 
REMARK       I    between atoms: C_2  and  N_3 
REMARK    2  A    between atoms: C_5  and  C_2 
REMARK    3  A    between atoms: N_3  and  C_11 
REMARK    4  A    between atoms: C_12  and  O_4 
ROOT
ATOM      1  C   UNL d   1       1.744  -2.098  -4.537  0.00  0.00     0.035 A 
ATOM      2  C   UNL d   1       0.757  -1.771  -1.905  0.00  0.00     0.078 A 
ATOM      3  C   UNL d   1       2.618  -1.969  -3.457  0.00  0.00     0.032 A 
ATOM      4  C   UNL d   1       0.367  -2.055  -4.289  0.00  0.00     0.032 A 
ATOM      5  C   UNL d   1      -0.114  -1.889  -2.989  0.00  0.00     0.039 A 
ATOM      6  C   UNL d   1       2.134  -1.794  -2.150  0.00  0.00     0.039 A 
ENDROOT
BRANCH   1   7
ATOM      7  N   UNL d   1       2.155  -2.259  -5.878  0.00  0.00    -0.324 N 
ATOM      8  C   UNL d   1       3.454  -2.301  -6.348  0.00  0.00     0.244 C 
ATOM      9  O   UNL d   1       4.482  -2.288  -5.685  0.00  0.00    -0.268 OA
ATOM     10  H   UNL d   1       1.412  -2.308  -6.560  0.00  0.00     0.169 HD
BRANCH   8  11
ATOM     11  C   UNL d   1       3.504  -2.352  -7.838  0.00  0.00     0.064 C 
ATOM     12  C   UNL d   1       4.678  -2.274  -8.479  0.00  0.00     0.017 C 
ENDBRANCH   8  11
ENDBRANCH   1   7
BRANCH   2  13
ATOM     13  O   UNL d   1       0.145  -1.664  -0.696  0.00  0.00    -0.255 OA
BRANCH  13  14
ATOM     14  C   UNL d   1       0.935  -1.681   0.479  0.00  0.00     0.530 C 
ATOM     15  F   UNL d   1       1.855  -2.670   0.462  0.00  0.00    -0.144 F 
ATOM     16  F   UNL d   1       0.122  -1.897   1.540  0.00  0.00    -0.144 F 
ATOM     17  F   UNL d   1       1.550  -0.494   0.653  0.00  0.00    -0.144 F 
ENDBRANCH  13  14
ENDBRANCH   2  13
TORSDOF 4
