REMARK  10 active torsions:
REMARK  status: ('A' for Active; 'I' for Inactive)
REMARK    1  A    between atoms: C_6  and  C_1 
REMARK    2  A    between atoms: C_7  and  C_1 
REMARK    3  A    between atoms: N_8  and  C_2 
REMARK    4  A    between atoms: N_3  and  C_5 
REMARK    5  A    between atoms: C_4  and  N_8 
REMARK    6  A    between atoms: O_20  and  C_6 
REMARK    7  A    between atoms: O_19  and  C_7 
REMARK    8  A    between atoms: O_21  and  C_17 
REMARK    9  A    between atoms: C_23  and  O_19 
REMARK   10  A    between atoms: C_22  and  O_20 
ROOT
ATOM      1  N   UNL d   1       1.054   1.608   1.782  0.00  0.00    -0.363 N 
ATOM      2  H   UNL d   1       1.975   1.264   2.058  0.00  0.00     0.165 HD
ENDROOT
BRANCH   1   3
ATOM      3  C   UNL d   1       0.358   2.029   2.953  0.00  0.00     0.062 A 
ATOM      4  C   UNL d   1       0.731   3.199   3.651  0.00  0.00     0.065 A 
ATOM      5  C   UNL d   1       0.177   3.457   4.919  0.00  0.00     0.035 A 
ATOM      6  C   UNL d   1      -0.746   2.581   5.496  0.00  0.00     0.039 A 
ATOM      7  C   UNL d   1      -1.125   1.427   4.821  0.00  0.00     0.070 A 
ATOM      8  C   UNL d   1      -0.567   1.153   3.569  0.00  0.00     0.068 A 
BRANCH   4   9
ATOM      9  N   UNL d   1       1.637   4.163   3.104  0.00  0.00    -0.331 N 
ATOM     10  C   UNL d   1       1.878   4.430   1.771  0.00  0.00     0.097 A 
ATOM     11  C   UNL d   1       2.783   5.460   1.658  0.00  0.00     0.019 A 
ATOM     12  C   UNL d   1       3.136   5.843   2.964  0.00  0.00     0.019 A 
ATOM     13  C   UNL d   1       2.420   5.048   3.830  0.00  0.00     0.097 A 
ENDBRANCH   4   9
BRANCH   7  14
ATOM     14  O   UNL d   1      -2.014   0.489   5.277  0.00  0.00    -0.356 OA
ATOM     15  C   UNL d   1      -2.631   0.747   6.535  0.00  0.00     0.210 C 
ENDBRANCH   7  14
ENDBRANCH   1   3
BRANCH   1  16
ATOM     16  C   UNL d   1       0.495   0.891   0.738  0.00  0.00     0.112 C 
ATOM     17  C   UNL d   1      -0.595   1.116  -0.023  0.00  0.00     0.129 C 
BRANCH  17  18
ATOM     18  C   UNL d   1      -0.992   0.141  -1.065  0.00  0.00     0.300 C 
ATOM     19  O   UNL d   1      -1.623   0.433  -2.069  0.00  0.00    -0.259 OA
BRANCH  18  20
ATOM     20  O   UNL d   1      -0.639  -1.120  -0.697  0.00  0.00    -0.318 OA
BRANCH  20  21
ATOM     21  C   UNL d   1      -1.290  -2.182  -1.410  0.00  0.00     0.174 C 
ATOM     22  C   UNL d   1      -2.484  -2.631  -0.588  0.00  0.00     0.034 C 
ENDBRANCH  20  21
ENDBRANCH  18  20
ENDBRANCH  17  18
BRANCH  17  23
ATOM     23  C   UNL d   1      -1.419   2.328   0.161  0.00  0.00     0.300 C 
ATOM     24  O   UNL d   1      -1.006   3.436   0.467  0.00  0.00    -0.259 OA
BRANCH  23  25
ATOM     25  O   UNL d   1      -2.726   1.986   0.031  0.00  0.00    -0.318 OA
BRANCH  25  26
ATOM     26  C   UNL d   1      -3.676   2.919   0.557  0.00  0.00     0.174 C 
ATOM     27  C   UNL d   1      -4.176   2.331   1.861  0.00  0.00     0.034 C 
ENDBRANCH  25  26
ENDBRANCH  23  25
ENDBRANCH  17  23
ENDBRANCH   1  16
TORSDOF 10
