REMARK  4 active torsions:
REMARK  status: ('A' for Active; 'I' for Inactive)
REMARK    1  A    between atoms: C_2  and  C_1 
REMARK    2  A    between atoms: C_3  and  C_5 
REMARK    3  A    between atoms: N_8  and  C_4 
REMARK       I    between atoms: C_5  and  N_10 
REMARK    4  A    between atoms: N_10  and  N_8 
ROOT
ATOM      1  N   UNL d   1      -0.762  -3.515   4.021  0.00  0.00    -0.186 NA
ATOM      2  H   UNL d   1      -0.849  -4.521   3.824  0.00  0.00     0.154 HD
ENDROOT
BRANCH   1   3
ATOM      3  C   UNL d   1       0.386  -3.002   3.355  0.00  0.00     0.120 A 
ATOM      4  N   UNL d   1       1.454  -2.587   4.087  0.00  0.00    -0.353 N 
ATOM      5  C   UNL d   1       2.539  -2.109   3.428  0.00  0.00     0.105 A 
ATOM      6  HN  UNL d   1       1.440  -2.633   5.106  1.00  0.00     0.166 HD
ATOM      7  C   UNL d   1       2.610  -1.962   2.052  0.00  0.00     0.065 A 
ATOM      8  C   UNL d   1       1.500  -2.365   1.306  0.00  0.00     0.044 A 
ATOM      9  C   UNL d   1       0.388  -2.908   1.955  0.00  0.00     0.074 A 
ATOM     10 CL   UNL d   1      -0.969  -3.379   0.998  0.00  0.00    -0.081 Cl
BRANCH   7  11
ATOM     11  C   UNL d   1       3.845  -1.393   1.426  0.00  0.00     0.418 C 
ATOM     12  F   UNL d   1       3.740  -1.224   0.079  0.00  0.00    -0.166 F 
ATOM     13  F   UNL d   1       4.937  -2.182   1.621  0.00  0.00    -0.166 F 
ATOM     14  F   UNL d   1       4.169  -0.172   1.931  0.00  0.00    -0.166 F 
ENDBRANCH   7  11
ENDBRANCH   1   3
BRANCH   1  15
ATOM     15  N   UNL d   1      -0.758  -3.258   5.397  0.00  0.00    -0.281 N 
ATOM     16  C   UNL d   1      -1.091  -4.271   6.273  0.00  0.00     0.272 C 
ATOM     17  O   UNL d   1      -1.268  -5.428   5.903  0.00  0.00    -0.266 OA
ATOM     18  H   UNL d   1      -0.679  -2.278   5.663  0.00  0.00     0.184 HD
BRANCH  16  19
ATOM     19  C   UNL d   1      -1.232  -3.873   7.696  0.00  0.00     0.110 A 
ATOM     20  C   UNL d   1      -1.549  -2.561   8.062  0.00  0.00     0.135 A 
ATOM     21  F   UNL d   1      -1.737  -1.611   7.136  0.00  0.00    -0.205 F 
ATOM     22  C   UNL d   1      -1.685  -2.192   9.402  0.00  0.00     0.043 A 
ATOM     23  C   UNL d   1      -1.502  -3.142  10.404  0.00  0.00     0.006 A 
ATOM     24  C   UNL d   1      -1.190  -4.456  10.054  0.00  0.00     0.043 A 
ATOM     25  C   UNL d   1      -1.061  -4.815   8.710  0.00  0.00     0.135 A 
ATOM     26  F   UNL d   1      -0.741  -6.086   8.435  0.00  0.00    -0.205 F 
ENDBRANCH  16  19
ENDBRANCH   1  15
TORSDOF 4
