REMARK  7 active torsions:
REMARK  status: ('A' for Active; 'I' for Inactive)
REMARK    1  A    between atoms: C_6  and  C_1 
REMARK    2  A    between atoms: C_9  and  N_2 
REMARK    3  A    between atoms: C_7  and  C_3 
REMARK    4  A    between atoms: O_10  and  C_6 
REMARK    5  A    between atoms: C_16  and  C_9 
REMARK    6  A    between atoms: C_18  and  O_10 
REMARK    7  A    between atoms: S_12  and  C_16 
ROOT
ATOM      1  C   UNL d   1      -0.261   1.117   0.001  0.00  0.00     0.063 A 
ATOM      2  N   UNL d   1       0.955  -0.784  -0.003  0.00  0.00    -0.352 N 
ATOM      3  C   UNL d   1      -0.384  -1.181   0.036  0.00  0.00     0.020 A 
ATOM      4  C   UNL d   1       1.029   0.609  -0.065  0.00  0.00     0.024 A 
ATOM      5  C   UNL d   1      -1.125  -0.005   0.013  0.00  0.00     0.045 A 
ATOM      6  C   UNL d   1       2.297   1.401  -0.120  0.00  0.00     0.069 C 
ENDROOT
BRANCH   1   7
ATOM      7  C   UNL d   1      -0.653   2.522   0.109  0.00  0.00     0.295 C 
ATOM      8  O   UNL d   1       0.140   3.455   0.184  0.00  0.00    -0.259 OA
BRANCH   7   9
ATOM      9  O   UNL d   1      -2.009   2.654   0.215  0.00  0.00    -0.318 OA
BRANCH   9  10
ATOM     10  C   UNL d   1      -2.483   3.913   0.703  0.00  0.00     0.174 C 
ATOM     11  C   UNL d   1      -2.542   3.851   2.220  0.00  0.00     0.034 C 
ENDBRANCH   9  10
ENDBRANCH   7   9
ENDBRANCH   1   7
BRANCH   2  12
ATOM     12  C   UNL d   1       2.133  -1.629   0.170  0.00  0.00     0.139 C 
BRANCH  12  13
ATOM     13  C   UNL d   1       2.709  -2.199  -1.125  0.00  0.00     0.093 C 
BRANCH  13  14
ATOM     14  S   UNL d   1       4.311  -3.060  -0.872  0.00  0.00    -0.172 SA
ATOM     15  C   UNL d   1       3.865  -4.219   0.450  0.00  0.00     0.089 C 
ENDBRANCH  13  14
ENDBRANCH  12  13
ENDBRANCH   2  12
BRANCH   3  16
ATOM     16  C   UNL d   1      -0.962  -2.608   0.110  0.00  0.00    -0.009 C 
ATOM     17  C   UNL d   1      -2.512  -2.560   0.005  0.00  0.00     0.021 C 
ATOM     18  C   UNL d   1      -0.479  -3.489  -1.053  0.00  0.00     0.021 C 
ATOM     19  C   UNL d   1      -0.653  -3.278   1.462  0.00  0.00     0.021 C 
ENDBRANCH   3  16
TORSDOF 7
