REMARK  1 active torsions:
REMARK  status: ('A' for Active; 'I' for Inactive)
REMARK    1  A    between atoms: N_6  and  N_1 
ROOT
ATOM      1  N   UNL d   1       1.897   0.036  -0.084  0.00  0.00    -0.203 N 
ATOM      2  C   UNL d   1       1.151  -1.123  -0.013  0.00  0.00     0.276 A 
ATOM      3  C   UNL d   1       1.113   1.170  -0.082  0.00  0.00     0.276 A 
ATOM      4  C   UNL d   1      -0.270   0.697  -0.018  0.00  0.00     0.049 A 
ATOM      5  C   UNL d   1      -0.248  -0.687   0.022  0.00  0.00     0.049 A 
ATOM      6  O   UNL d   1       1.415   2.349  -0.129  0.00  0.00    -0.266 OA
ATOM      7  O   UNL d   1       1.486  -2.292   0.015  0.00  0.00    -0.266 OA
ATOM      8  C   UNL d   1      -1.452   1.412  -0.019  0.00  0.00     0.018 A 
ATOM      9  C   UNL d   1      -1.412  -1.431   0.062  0.00  0.00     0.018 A 
ATOM     10  C   UNL d   1      -2.623  -0.730   0.059  0.00  0.00     0.001 A 
ATOM     11  C   UNL d   1      -2.643   0.680   0.019  0.00  0.00     0.001 A 
ENDROOT
BRANCH   1  12
ATOM     12  N   UNL d   1       3.304   0.016  -0.194  0.00  0.00    -0.227 NA
ATOM     13  C   UNL d   1       3.764   0.586  -1.460  0.00  0.00     0.136 C 
ATOM     14  C   UNL d   1       3.958   0.657   0.945  0.00  0.00     0.136 C 
ENDBRANCH   1  12
TORSDOF 1
