REMARK  4 active torsions:
REMARK  status: ('A' for Active; 'I' for Inactive)
REMARK    1  A    between atoms: C_6  and  C_1 
REMARK    2  A    between atoms: C_7  and  C_2 
REMARK    3  A    between atoms: C_9  and  C_5 
REMARK       I    between atoms: N_8  and  C_6 
REMARK    4  A    between atoms: C_16  and  N_8 
ROOT
ATOM      1  C   UNL d   1       1.101   0.709   0.135  0.00  0.00     0.073 A 
ATOM      2  C   UNL d   1      -0.197   1.161  -0.057  0.00  0.00     0.175 A 
ATOM      3  O   UNL d   1      -1.063   0.095  -0.066  0.00  0.00    -0.304 OA
ATOM      4  C   UNL d   1       0.971  -0.697   0.376  0.00  0.00     0.058 A 
ATOM      5  C   UNL d   1      -0.346  -1.038   0.187  0.00  0.00     0.087 A 
ENDROOT
BRANCH   1   6
ATOM      6  C   UNL d   1       2.384   1.417   0.142  0.00  0.00     0.259 C 
ATOM      7  N   UNL d   1       2.453   2.573  -0.610  0.00  0.00    -0.323 N 
ATOM      8  H   UNL d   1       1.595   2.990  -0.938  0.00  0.00     0.169 HD
ATOM      9  O   UNL d   1       3.326   0.915   0.746  0.00  0.00    -0.267 OA
BRANCH   7  10
ATOM     10  C   UNL d   1       3.635   3.253  -0.998  0.00  0.00     0.035 A 
ATOM     11  C   UNL d   1       4.921   2.742  -0.807  0.00  0.00     0.031 A 
ATOM     12  C   UNL d   1       6.042   3.425  -1.291  0.00  0.00     0.026 A 
ATOM     13  C   UNL d   1       5.882   4.630  -1.965  0.00  0.00     0.034 A 
ATOM     14  C   UNL d   1       4.610   5.166  -2.146  0.00  0.00     0.026 A 
ATOM     15 CL   UNL d   1       7.258   5.448  -2.594  0.00  0.00    -0.084 Cl
ATOM     16  C   UNL d   1       3.488   4.476  -1.668  0.00  0.00     0.031 A 
ENDBRANCH   7  10
ENDBRANCH   1   6
BRANCH   2  17
ATOM     17  C   UNL d   1      -0.826   2.492  -0.217  0.00  0.00     0.440 C 
ATOM     18  F   UNL d   1       0.083   3.497  -0.107  0.00  0.00    -0.164 F 
ATOM     19  F   UNL d   1      -1.398   2.642  -1.438  0.00  0.00    -0.164 F 
ATOM     20  F   UNL d   1      -1.784   2.732   0.711  0.00  0.00    -0.164 F 
ENDBRANCH   2  17
BRANCH   5  21
ATOM     21  C   UNL d   1      -1.085  -2.301   0.221  0.00  0.00    -0.002 A 
ATOM     22  C   UNL d   1      -0.419  -3.502   0.522  0.00  0.00     0.016 A 
ATOM     23  C   UNL d   1      -1.115  -4.714   0.601  0.00  0.00     0.024 A 
ATOM     24  C   UNL d   1      -2.486  -4.739   0.371  0.00  0.00     0.034 A 
ATOM     25  C   UNL d   1      -3.162  -3.567   0.041  0.00  0.00     0.024 A 
ATOM     26 CL   UNL d   1      -3.349  -6.220   0.504  0.00  0.00    -0.084 Cl
ATOM     27  C   UNL d   1      -2.463  -2.356  -0.036  0.00  0.00     0.016 A 
ENDBRANCH   5  21
TORSDOF 4
