REMARK  1 active torsions:
REMARK  status: ('A' for Active; 'I' for Inactive)
REMARK    1  A    between atoms: C_7  and  C_3 
ROOT
ATOM      1  C   UNL d   1       1.873   0.485   0.099  0.00  0.00    -0.002 A 
ATOM      2  C   UNL d   1       0.833   1.547   0.256  0.00  0.00     0.189 A 
ATOM      3  C   UNL d   1       3.158   0.768  -0.148  0.00  0.00     0.024 C 
ATOM      4  C   UNL d   1      -0.429   0.860   0.555  0.00  0.00     0.021 A 
ATOM      5  C   UNL d   1      -0.213  -0.518   0.577  0.00  0.00    -0.040 A 
ATOM      6  C   UNL d   1       1.214  -0.861   0.283  0.00  0.00     0.082 A 
ATOM      7  O   UNL d   1       0.995   2.747   0.174  0.00  0.00    -0.287 OA
ATOM      8  C   UNL d   1      -1.669   1.421   0.801  0.00  0.00     0.016 A 
ATOM      9  C   UNL d   1      -1.259  -1.385   0.851  0.00  0.00     0.008 A 
ATOM     10  C   UNL d   1      -2.726   0.552   1.079  0.00  0.00     0.001 A 
ATOM     11  C   UNL d   1      -2.522  -0.839   1.104  0.00  0.00     0.001 A 
ENDROOT
BRANCH   3  12
ATOM     12  C   UNL d   1       4.162  -0.296  -0.258  0.00  0.00    -0.014 A 
ATOM     13  C   UNL d   1       4.474  -0.932  -1.470  0.00  0.00     0.044 A 
ATOM     14 CL   UNL d   1       3.761  -0.441  -2.967  0.00  0.00    -0.083 Cl
ATOM     15  C   UNL d   1       5.368  -2.006  -1.492  0.00  0.00     0.024 A 
ATOM     16  C   UNL d   1       5.959  -2.451  -0.309  0.00  0.00     0.002 A 
ATOM     17  C   UNL d   1       5.668  -1.816   0.896  0.00  0.00     0.001 A 
ATOM     18  C   UNL d   1       4.775  -0.743   0.922  0.00  0.00     0.013 A 
ENDBRANCH   3  12
TORSDOF 1
