REMARK  5 active torsions:
REMARK  status: ('A' for Active; 'I' for Inactive)
REMARK    1  A    between atoms: C_11  and  C_1 
REMARK    2  A    between atoms: C_12  and  C_1 
REMARK    3  A    between atoms: N_4  and  N_2 
REMARK    4  A    between atoms: C_5  and  N_4 
REMARK    5  A    between atoms: C_13  and  C_6 
ROOT
ATOM      1  C   UNL d   1       0.277  -2.294   2.618  0.00  0.00     0.060 A 
ATOM      2  C   UNL d   1      -1.267  -3.648   4.638  0.00  0.00    -0.049 A 
ATOM      3  C   UNL d   1       0.586  -2.157   3.995  0.00  0.00    -0.033 A 
ATOM      4  C   UNL d   1      -0.836  -3.087   2.263  0.00  0.00    -0.033 A 
ATOM      5  C   UNL d   1      -0.174  -2.837   4.972  0.00  0.00     0.017 A 
ATOM      6  C   UNL d   1      -1.577  -3.743   3.277  0.00  0.00     0.017 A 
ATOM      7  C   UNL d   1      -1.377  -3.292   0.871  0.00  0.00     0.050 C 
ATOM      8  C   UNL d   1       1.762  -1.349   4.487  0.00  0.00     0.050 C 
ENDROOT
BRANCH   1   9
ATOM      9  N   UNL d   1       1.096  -1.593   1.693  0.00  0.00    -0.299 N 
ATOM     10  H   UNL d   1       1.008  -0.573   1.817  0.00  0.00     0.187 HD
BRANCH   9  11
ATOM     11  N   UNL d   1       1.253  -2.083   0.444  0.00  0.00    -0.294 N 
ATOM     12  C   UNL d   1       1.786  -1.327  -0.475  0.00  0.00     0.139 C 
ATOM     13  HN  UNL d   1       0.958  -3.034   0.222  1.00  0.00     0.187 HD
BRANCH  12  14
ATOM     14  C   UNL d   1       1.840  -1.933  -1.862  0.00  0.00     0.177 C 
ATOM     15  O   UNL d   1       1.915  -1.179  -2.825  0.00  0.00    -0.291 OA
ATOM     16  C   UNL d   1       1.808  -3.431  -1.991  0.00  0.00     0.098 C 
ENDBRANCH  12  14
BRANCH  12  17
ATOM     17  C   UNL d   1       2.294   0.080  -0.197  0.00  0.00     0.177 C 
ATOM     18  O   UNL d   1       1.698   0.790   0.609  0.00  0.00    -0.291 OA
ATOM     19  C   UNL d   1       3.550   0.522  -0.890  0.00  0.00     0.098 C 
ENDBRANCH  12  17
ENDBRANCH   9  11
ENDBRANCH   1   9
BRANCH   2  20
ATOM     20  C   UNL d   1      -2.060  -4.398   5.723  0.00  0.00    -0.024 C 
ATOM     21  C   UNL d   1      -3.254  -5.206   5.162  0.00  0.00     0.019 C 
ATOM     22  C   UNL d   1      -1.131  -5.397   6.445  0.00  0.00     0.019 C 
ATOM     23  C   UNL d   1      -2.631  -3.412   6.759  0.00  0.00     0.019 C 
ENDBRANCH   2  20
TORSDOF 5
