REMARK  1 active torsions:
REMARK  status: ('A' for Active; 'I' for Inactive)
REMARK    1  A    between atoms: N_15  and  C_5 
ROOT
ATOM      1  C   UNL d   1      -0.601   0.638   0.350  0.00  0.00     0.144 A 
ATOM      2  C   UNL d   1      -1.678   0.268  -0.657  0.00  0.00     0.095 C 
ATOM      3  C   UNL d   1      -1.103   0.594   1.776  0.00  0.00     0.045 C 
ATOM      4  C   UNL d   1      -0.126   2.098   0.046  0.00  0.00     0.246 A 
ATOM      5  C   UNL d   1      -2.876  -0.206  -0.252  0.00  0.00     0.139 C 
ATOM      6  C   UNL d   1      -2.320   0.115   2.074  0.00  0.00     0.067 C 
ATOM      7  N   UNL d   1       1.225   2.035  -0.286  0.00  0.00    -0.325 N 
ATOM      8  O   UNL d   1      -3.173  -0.369   1.094  0.00  0.00    -0.301 OA
ATOM      9  C   UNL d   1       0.680  -0.147   0.133  0.00  0.00    -0.003 A 
ATOM     10  C   UNL d   1       1.708   0.736  -0.209  0.00  0.00     0.043 A 
ATOM     11  C   UNL d   1      -1.405   0.434  -2.050  0.00  0.00     0.101 C 
ATOM     12  C   UNL d   1      -0.278   1.155   2.881  0.00  0.00     0.160 C 
ATOM     13  N   UNL d   1      -1.189   0.538  -3.182  0.00  0.00    -0.191 NA
ATOM     14  O   UNL d   1      -0.801   3.115   0.087  0.00  0.00    -0.271 OA
ATOM     15  O   UNL d   1       0.920   1.374   2.733  0.00  0.00    -0.293 OA
ATOM     16  C   UNL d   1      -2.921   0.054   3.449  0.00  0.00     0.066 C 
ATOM     17  C   UNL d   1       0.923  -1.507   0.245  0.00  0.00     0.011 A 
ATOM     18  C   UNL d   1       3.005   0.317  -0.404  0.00  0.00     0.030 A 
ATOM     19  C   UNL d   1      -0.974   1.540   4.164  0.00  0.00     0.084 C 
ATOM     20  C   UNL d   1      -2.015   0.521   4.584  0.00  0.00     0.014 C 
ATOM     21  C   UNL d   1       2.231  -1.954   0.039  0.00  0.00     0.001 A 
ATOM     22  C   UNL d   1       3.264  -1.049  -0.270  0.00  0.00     0.002 A 
ATOM     23  H   UNL d   1       1.779   2.856  -0.481  0.00  0.00     0.169 HD
ENDROOT
BRANCH   5  24
ATOM     24  N   UNL d   1      -3.914  -0.587  -1.069  0.00  0.00    -0.282 NA
ATOM     25  H   UNL d   1      -3.673  -0.828  -2.028  0.00  0.00     0.126 HD
ATOM     26  H   UNL d   1      -4.545  -1.245  -0.626  0.00  0.00     0.126 HD
ENDBRANCH   5  24
TORSDOF 1
