REMARK  5 active torsions:
REMARK  status: ('A' for Active; 'I' for Inactive)
REMARK    1  A    between atoms: C_2  and  C_1 
REMARK       I    between atoms: N_5  and  C_2 
REMARK    2  A    between atoms: O_10  and  C_4 
REMARK    3  A    between atoms: C_21  and  N_8 
REMARK    4  A    between atoms: C_9  and  O_10 
REMARK    5  A    between atoms: C_22  and  C_21 
ROOT
ATOM      1  C   UNL d   1      -0.614   2.390  -0.174  0.00  0.00     0.277 C 
ATOM      2  N   UNL d   1      -1.970   2.744  -0.126  0.00  0.00    -0.343 N 
ATOM      3  N   UNL d   1      -4.855   2.740  -0.773  0.00  0.00     0.095 N 
ATOM      4  O   UNL d   1       0.110   2.835  -1.069  0.00  0.00    -0.265 OA
ATOM      5  C   UNL d   1      -2.961   2.279   0.853  0.00  0.00     0.156 C 
ATOM      6  C   UNL d   1      -2.498   3.662  -1.141  0.00  0.00     0.156 C 
ATOM      7  C   UNL d   1      -4.243   1.779   0.167  0.00  0.00     0.292 C 
ATOM      8  C   UNL d   1      -3.819   3.141  -1.758  0.00  0.00     0.292 C 
ENDROOT
BRANCH   1   9
ATOM      9  C   UNL d   1      -0.081   1.446   0.791  0.00  0.00     0.146 A 
ATOM     10  O   UNL d   1      -0.562   1.387   2.068  0.00  0.00    -0.282 OA
ATOM     11  C   UNL d   1       0.085   0.375   2.709  0.00  0.00     0.191 A 
ATOM     12  C   UNL d   1       1.011  -0.199   1.873  0.00  0.00     0.067 A 
ATOM     13  C   UNL d   1       0.947   0.526   0.658  0.00  0.00     0.048 A 
BRANCH  11  14
ATOM     14  O   UNL d   1      -0.319   0.087   3.947  0.00  0.00    -0.288 OA
BRANCH  14  15
ATOM     15  C   UNL d   1      -0.826   1.057   4.783  0.00  0.00     0.081 A 
ATOM     16  C   UNL d   1      -1.816   0.662   5.687  0.00  0.00     0.061 A 
ATOM     17  C   UNL d   1      -2.320   1.590   6.599  0.00  0.00     0.038 A 
ATOM     18 CL   UNL d   1      -3.534   1.107   7.722  0.00  0.00    -0.084 Cl
ATOM     19  C   UNL d   1      -1.846   2.900   6.622  0.00  0.00     0.048 A 
ATOM     20  C   UNL d   1      -0.853   3.278   5.722  0.00  0.00     0.038 A 
ATOM     21  C   UNL d   1      -0.331   2.361   4.812  0.00  0.00     0.061 A 
ATOM     22 CL   UNL d   1      -0.252   4.890   5.740  0.00  0.00    -0.084 Cl
ENDBRANCH  14  15
ENDBRANCH  11  14
ENDBRANCH   1   9
BRANCH   3  23
ATOM     23  C   UNL d   1      -5.423   3.927  -0.109  0.00  0.00     0.312 C 
BRANCH  23  24
ATOM     24  C   UNL d   1      -6.463   3.631   0.942  0.00  0.00    -0.015 A 
ATOM     25  C   UNL d   1      -6.293   4.076   2.251  0.00  0.00     0.096 A 
ATOM     26  N   UNL d   1      -7.186   3.881   3.246  0.00  0.00    -0.375 N 
ATOM     27  C   UNL d   1      -8.313   3.213   2.922  0.00  0.00     0.087 A 
ATOM     28  HN  UNL d   1      -7.017   4.222   4.193  1.00  0.00     0.164 HD
ATOM     29  C   UNL d   1      -8.581   2.722   1.655  0.00  0.00     0.018 A 
ATOM     30  C   UNL d   1      -7.639   2.934   0.651  0.00  0.00     0.011 A 
ENDBRANCH  23  24
ENDBRANCH   3  23
TORSDOF 5
