REMARK  3 active torsions:
REMARK  status: ('A' for Active; 'I' for Inactive)
REMARK    1  A    between atoms: C_6  and  N_2 
REMARK    2  A    between atoms: C_7  and  C_6 
REMARK       I    between atoms: N_12  and  C_7 
REMARK    3  A    between atoms: C_14  and  N_12 
ROOT
ATOM      1  C   UNL d   1       2.160  -2.091   0.237  0.00  0.00     0.248 C 
ENDROOT
BRANCH   1   2
ATOM      2  N   UNL d   1       1.355  -1.445   1.270  0.00  0.00    -0.228 N 
ATOM      3  S   UNL d   1      -0.299  -1.265   1.028  0.00  0.00     0.269 S 
ATOM      4  C   UNL d   1      -0.511  -0.434   2.539  0.00  0.00     0.095 A 
ATOM      5  O   UNL d   1      -0.525  -0.336  -0.049  0.00  0.00    -0.200 OA
ATOM      6  O   UNL d   1      -0.936  -2.557   1.140  0.00  0.00    -0.200 OA
ATOM      7  C   UNL d   1       0.722  -0.128   3.103  0.00  0.00     0.056 A 
ATOM      8  C   UNL d   1      -1.702  -0.218   3.207  0.00  0.00     0.026 A 
ATOM      9  C   UNL d   1       0.804   0.512   4.329  0.00  0.00     0.018 A 
ATOM     10  C   UNL d   1       1.853  -0.690   2.349  0.00  0.00     0.269 C 
ATOM     11  C   UNL d   1      -0.388   0.772   5.009  0.00  0.00     0.001 A 
ATOM     12  C   UNL d   1      -1.628   0.387   4.465  0.00  0.00     0.002 A 
ATOM     13  O   UNL d   1       3.026  -0.600   2.662  0.00  0.00    -0.266 OA
ENDBRANCH   1   2
BRANCH   1  14
ATOM     14  C   UNL d   1       1.724  -3.511  -0.073  0.00  0.00     0.241 C 
ATOM     15  N   UNL d   1       1.627  -4.319   1.053  0.00  0.00    -0.326 N 
ATOM     16  H   UNL d   1       1.698  -3.848   1.948  0.00  0.00     0.169 HD
ATOM     17  O   UNL d   1       1.575  -3.869  -1.240  0.00  0.00    -0.271 OA
BRANCH  15  18
ATOM     18  C   UNL d   1       1.425  -5.715   1.085  0.00  0.00     0.036 A 
ATOM     19  C   UNL d   1       1.308  -6.505  -0.062  0.00  0.00     0.056 A 
ATOM     20  C   UNL d   1       1.198  -7.895   0.043  0.00  0.00     0.074 A 
ATOM     21 CL   UNL d   1       1.094  -8.846  -1.389  0.00  0.00    -0.081 Cl
ATOM     22  C   UNL d   1       1.192  -8.499   1.296  0.00  0.00     0.138 A 
ATOM     23  C   UNL d   1       1.276  -7.726   2.448  0.00  0.00     0.046 A 
ATOM     24  F   UNL d   1       1.115  -9.832   1.416  0.00  0.00    -0.204 F 
ATOM     25  C   UNL d   1       1.388  -6.335   2.344  0.00  0.00     0.032 A 
ENDBRANCH  15  18
ENDBRANCH   1  14
TORSDOF 3
