REMARK  3 active torsions:
REMARK  status: ('A' for Active; 'I' for Inactive)
REMARK    1  A    between atoms: C_18  and  N_2 
REMARK    2  A    between atoms: C_9  and  C_6 
REMARK    3  A    between atoms: C_19  and  C_18 
ROOT
ATOM      1  C   UNL d   1      -1.283  -2.927  -0.075  0.00  0.00     0.250 C 
ATOM      2  N   UNL d   1      -0.639  -4.024   2.230  0.00  0.00    -0.195 NA
ATOM      3  N   UNL d   1      -0.206  -4.121  -2.159  0.00  0.00    -0.195 NA
ATOM      4  C   UNL d   1      -0.672  -3.596  -1.232  0.00  0.00     0.085 C 
ATOM      5  C   UNL d   1      -0.910  -3.542   1.207  0.00  0.00     0.085 C 
ENDROOT
BRANCH   1   6
ATOM      6  C   UNL d   1      -1.036  -1.429  -0.067  0.00  0.00     0.063 A 
ATOM      7  C   UNL d   1       0.221  -0.856  -0.055  0.00  0.00     0.077 A 
ATOM      8  C   UNL d   1       0.284   0.526  -0.023  0.00  0.00     0.129 A 
ATOM      9  S   UNL d   1       1.831  -1.563  -0.055  0.00  0.00    -0.055 SA
ATOM     10  N   UNL d   1       1.609   1.022  -0.007  0.00  0.00    -0.314 N 
ATOM     11  N   UNL d   1      -0.791   1.326   0.003  0.00  0.00    -0.337 N 
ATOM     12  C   UNL d   1       2.595   0.042  -0.020  0.00  0.00     0.147 A 
ATOM     13  S   UNL d   1       4.250   0.235   0.004  0.00  0.00    -0.052 SA
ATOM     14  C   UNL d   1      -1.968   0.692  -0.011  0.00  0.00     0.182 A 
ATOM     15  HN  UNL d   1      -0.717   2.343   0.032  1.00  0.00     0.168 HD
ATOM     16  N   UNL d   1      -2.147  -0.643  -0.046  0.00  0.00    -0.353 N 
ATOM     17  HN  UNL d   1      -3.082  -1.051  -0.056  1.00  0.00     0.166 HD
BRANCH  10  18
ATOM     18  C   UNL d   1       1.842   2.458   0.076  0.00  0.00     0.158 C 
BRANCH  18  19
ATOM     19  C   UNL d   1       2.041   3.115  -1.265  0.00  0.00    -0.017 C 
ATOM     20  C   UNL d   1       1.944   2.582  -2.490  0.00  0.00     0.008 C 
ENDBRANCH  18  19
ENDBRANCH  10  18
ENDBRANCH   1   6
TORSDOF 3
