REMARK  2 active torsions:
REMARK  status: ('A' for Active; 'I' for Inactive)
REMARK    1  A    between atoms: C_3  and  C_1 
REMARK       I    between atoms: N_10  and  C_3 
REMARK    2  A    between atoms: C_11  and  N_10 
ROOT
ATOM      1  C   UNL d   1      -0.652  -4.917  -0.092  0.00  0.00     0.258 C 
ATOM      2  N   UNL d   1      -0.332  -3.598   0.142  0.00  0.00    -0.322 N 
ATOM      3  O   UNL d   1       0.152  -5.851  -0.106  0.00  0.00    -0.267 OA
ATOM      4  H   UNL d   1      -1.094  -2.949   0.306  0.00  0.00     0.169 HD
ENDROOT
BRANCH   1   5
ATOM      5  C   UNL d   1      -2.087  -5.247  -0.228  0.00  0.00     0.061 A 
ATOM      6  C   UNL d   1      -3.088  -4.320  -0.620  0.00  0.00     0.082 A 
ATOM      7  N   UNL d   1      -2.937  -3.016  -0.918  0.00  0.00    -0.310 N 
ATOM      8  C   UNL d   1      -4.531  -4.771  -0.738  0.00  0.00     0.068 A 
ATOM      9  S   UNL d   1      -4.432  -2.444  -1.365  0.00  0.00     0.068 SA
ATOM     10  HN  UNL d   1      -2.070  -2.480  -0.877  1.00  0.00     0.176 HD
ATOM     11  N   UNL d   1      -5.363  -3.797  -1.134  0.00  0.00    -0.310 N 
ATOM     12  HN  UNL d   1      -6.372  -3.873  -1.267  1.00  0.00     0.176 HD
ATOM     13  C   UNL d   1      -4.912  -6.103  -0.446  0.00  0.00     0.032 A 
ATOM     14  C   UNL d   1      -3.879  -6.975  -0.069  0.00  0.00     0.003 A 
ATOM     15  C   UNL d   1      -2.529  -6.567   0.027  0.00  0.00     0.019 A 
ENDBRANCH   1   5
BRANCH   2  16
ATOM     16  C   UNL d   1       0.979  -3.097   0.312  0.00  0.00     0.041 A 
ATOM     17  C   UNL d   1       1.200  -2.028   1.207  0.00  0.00    -0.025 A 
ATOM     18  C   UNL d   1       2.476  -1.427   1.265  0.00  0.00    -0.050 A 
ATOM     19  C   UNL d   1       0.098  -1.585   2.149  0.00  0.00     0.041 C 
ATOM     20  C   UNL d   1       2.769  -0.268   2.187  0.00  0.00     0.039 C 
ATOM     21  C   UNL d   1       3.525  -1.948   0.493  0.00  0.00     0.008 A 
ATOM     22  C   UNL d   1       1.505   0.411   2.704  0.00  0.00     0.005 C 
ATOM     23  C   UNL d   1       0.555  -0.638   3.258  0.00  0.00     0.005 C 
ATOM     24  C   UNL d   1       3.312  -3.041  -0.342  0.00  0.00     0.003 A 
ATOM     25  C   UNL d   1       2.044  -3.611  -0.435  0.00  0.00     0.030 A 
ENDBRANCH   2  16
TORSDOF 2
