REMARK  8 active torsions:
REMARK  status: ('A' for Active; 'I' for Inactive)
REMARK    1  A    between atoms: C_9  and  N_1 
REMARK    2  A    between atoms: S_14  and  C_2 
REMARK    3  A    between atoms: O_16  and  C_3 
REMARK    4  A    between atoms: S_4  and  C_11 
REMARK    5  A    between atoms: C_10  and  S_4 
REMARK    6  A    between atoms: C_15  and  C_9 
REMARK    7  A    between atoms: C_11  and  C_19 
REMARK    8  A    between atoms: C_19  and  S_14 
ROOT
ATOM      1  N   UNL d   1      -0.158  -1.162  -0.065  0.00  0.00    -0.282 N 
ATOM      2  C   UNL d   1       1.106  -0.626   0.013  0.00  0.00     0.165 A 
ATOM      3  C   UNL d   1      -0.984  -0.053  -0.109  0.00  0.00     0.241 A 
ATOM      4  N   UNL d   1       1.040   0.686   0.000  0.00  0.00    -0.277 N 
ATOM      5  HN  UNL d   1       1.835   1.326   0.020  1.00  0.00     0.189 HD
ATOM      6  N   UNL d   1      -0.278   1.047  -0.044  0.00  0.00    -0.263 N 
ATOM      7  HN  UNL d   1      -0.644   1.999  -0.029  1.00  0.00     0.190 HD
ENDROOT
BRANCH   2   8
ATOM      8  S   UNL d   1       2.587  -1.507   0.136  0.00  0.00    -0.091 SA
BRANCH   8   9
ATOM      9  C   UNL d   1       3.854  -0.190   0.058  0.00  0.00     0.098 C 
BRANCH   9  10
ATOM     10  C   UNL d   1       3.920   0.811   1.207  0.00  0.00     0.156 C 
BRANCH  10  11
ATOM     11  S   UNL d   1       4.401   0.075   2.751  0.00  0.00     0.176 S 
ATOM     12  O   UNL d   1       3.309  -0.724   3.270  0.00  0.00    -0.223 OA
ATOM     13  O   UNL d   1       5.726  -0.494   2.567  0.00  0.00    -0.223 OA
BRANCH  11  14
ATOM     14  C   UNL d   1       4.577   1.444   3.883  0.00  0.00     0.059 A 
ATOM     15  C   UNL d   1       3.482   2.285   4.123  0.00  0.00     0.026 A 
ATOM     16  C   UNL d   1       3.598   3.312   5.064  0.00  0.00     0.044 A 
ATOM     17  C   UNL d   1       4.793   3.480   5.755  0.00  0.00     0.116 A 
ATOM     18  C   UNL d   1       5.884   2.648   5.523  0.00  0.00     0.044 A 
ATOM     19  F   UNL d   1       4.892   4.451   6.675  0.00  0.00    -0.206 F 
ATOM     20  C   UNL d   1       5.779   1.623   4.578  0.00  0.00     0.026 A 
ENDBRANCH  11  14
ENDBRANCH  10  11
ENDBRANCH   9  10
ENDBRANCH   8   9
ENDBRANCH   2   8
BRANCH   1  21
ATOM     21  C   UNL d   1      -0.648  -2.536   0.017  0.00  0.00     0.124 C 
ATOM     22  C   UNL d   1       0.121  -3.526   0.895  0.00  0.00     0.038 C 
BRANCH  21  23
ATOM     23  C   UNL d   1      -0.937  -3.143  -1.353  0.00  0.00    -0.035 A 
ATOM     24  C   UNL d   1       0.077  -3.352  -2.301  0.00  0.00     0.009 A 
ATOM     25  C   UNL d   1      -0.189  -4.029  -3.496  0.00  0.00     0.001 A 
ATOM     26  C   UNL d   1      -1.472  -4.499  -3.766  0.00  0.00     0.000 A 
ATOM     27  C   UNL d   1      -2.495  -4.284  -2.848  0.00  0.00     0.001 A 
ATOM     28  C   UNL d   1      -2.231  -3.612  -1.651  0.00  0.00     0.009 A 
ENDBRANCH  21  23
ENDBRANCH   1  21
BRANCH   3  29
ATOM     29  O   UNL d   1      -2.306  -0.055  -0.173  0.00  0.00    -0.331 OA
ATOM     30  H   UNL d   1      -2.599  -0.866  -0.613  0.00  0.00     0.221 HD
ENDBRANCH   3  29
TORSDOF 8
