REMARK  6 active torsions:
REMARK  status: ('A' for Active; 'I' for Inactive)
REMARK    1  A    between atoms: N_5  and  C_1 
REMARK       I    between atoms: C_4  and  N_5 
REMARK       I    between atoms: N_6  and  C_4 
REMARK    2  A    between atoms: C_8  and  N_6 
REMARK    3  A    between atoms: C_10  and  C_7 
REMARK    4  A    between atoms: C_13  and  C_10 
REMARK    5  A    between atoms: O_19  and  C_13 
REMARK    6  A    between atoms: C_20  and  O_19 
ROOT
ATOM      1  C   UNL d   1       0.195  -0.629  -0.032  0.00  0.00     0.152 A 
ATOM      2  N   UNL d   1       1.326   0.006  -0.251  0.00  0.00    -0.339 N 
ATOM      3  HN  UNL d   1       2.199  -0.443  -0.529  1.00  0.00     0.168 HD
ATOM      4  C   UNL d   1       1.168   1.387  -0.049  0.00  0.00     0.027 A 
ATOM      5  S   UNL d   1      -1.139   0.378   0.327  0.00  0.00    -0.064 SA
ATOM      6  C   UNL d   1      -0.134   1.752   0.235  0.00  0.00     0.078 A 
ENDROOT
BRANCH   1   7
ATOM      7  N   UNL d   1       0.044  -1.991  -0.181  0.00  0.00    -0.288 N 
ATOM      8  C   UNL d   1      -1.019  -2.789   0.179  0.00  0.00     0.327 C 
ATOM      9  N   UNL d   1      -1.722  -2.360   1.270  0.00  0.00    -0.303 N 
ATOM     10  O   UNL d   1      -1.203  -3.853  -0.400  0.00  0.00    -0.247 OA
ATOM     11  H   UNL d   1      -1.278  -1.681   1.872  0.00  0.00     0.171 HD
ATOM     12  H   UNL d   1       0.762  -2.437  -0.736  0.00  0.00     0.172 HD
BRANCH   9  13
ATOM     13  C   UNL d   1      -2.923  -2.841   1.716  0.00  0.00     0.077 A 
ATOM     14  S   UNL d   1      -3.311  -2.266   3.269  0.00  0.00    -0.084 SA
ATOM     15  C   UNL d   1      -4.826  -3.054   3.243  0.00  0.00     0.052 A 
ATOM     16  C   UNL d   1      -5.030  -3.730   2.057  0.00  0.00     0.010 A 
ATOM     17  C   UNL d   1      -3.901  -3.636   1.175  0.00  0.00     0.038 A 
ENDBRANCH   9  13
ENDBRANCH   1   7
BRANCH   4  18
ATOM     18  C   UNL d   1       2.376   2.270  -0.213  0.00  0.00     0.168 C 
BRANCH  18  19
ATOM     19  C   UNL d   1       2.268   3.680   0.346  0.00  0.00     0.264 C 
ATOM     20  O   UNL d   1       1.340   4.145   0.991  0.00  0.00    -0.265 OA
BRANCH  19  21
ATOM     21  O   UNL d   1       3.408   4.375   0.040  0.00  0.00    -0.322 OA
BRANCH  21  22
ATOM     22  C   UNL d   1       3.528   5.696   0.601  0.00  0.00     0.174 C 
ATOM     23  C   UNL d   1       2.968   6.742  -0.346  0.00  0.00     0.034 C 
ENDBRANCH  21  22
ENDBRANCH  19  21
ENDBRANCH  18  19
ENDBRANCH   4  18
TORSDOF 6
