REMARK  2 active torsions:
REMARK  status: ('A' for Active; 'I' for Inactive)
REMARK       I    between atoms: C_4  and  N_1 
REMARK    1  A    between atoms: C_11  and  N_14 
REMARK    2  A    between atoms: N_14  and  C_17 
ROOT
ATOM      1  C   UNL d   1      -4.823  -3.399   0.334  0.00  0.00     0.139 C 
ATOM      2  C   UNL d   1      -5.956  -2.916  -0.367  0.00  0.00     0.112 C 
ATOM      3  C   UNL d   1      -4.860  -4.700   0.903  0.00  0.00     0.112 C 
ATOM      4  N   UNL d   1      -6.877  -2.504  -0.942  0.00  0.00    -0.191 NA
ATOM      5  N   UNL d   1      -4.870  -5.758   1.380  0.00  0.00    -0.191 NA
ATOM      6  C   UNL d   1      -3.706  -2.650   0.465  0.00  0.00     0.122 C 
ENDROOT
BRANCH   6   7
ATOM      7  N   UNL d   1      -3.442  -1.369   0.042  0.00  0.00    -0.364 N 
ATOM      8  H   UNL d   1      -4.183  -0.853  -0.431  0.00  0.00     0.165 HD
BRANCH   7   9
ATOM      9  C   UNL d   1      -2.194  -0.717   0.045  0.00  0.00     0.032 A 
ATOM     10  C   UNL d   1      -2.157   0.688   0.166  0.00  0.00     0.031 A 
ATOM     11  C   UNL d   1      -0.944   1.394   0.192  0.00  0.00     0.032 A 
ATOM     12  C   UNL d   1       0.237   0.682   0.101  0.00  0.00     0.043 A 
ATOM     13  N   UNL d   1       1.567   1.145   0.047  0.00  0.00    -0.318 N 
ATOM     14  C   UNL d   1       0.213  -0.709   0.025  0.00  0.00    -0.027 A 
ATOM     15  C   UNL d   1       1.961   2.469  -0.016  0.00  0.00     0.220 C 
ATOM     16  C   UNL d   1       2.458  -0.027   0.078  0.00  0.00     0.137 C 
ATOM     17  O   UNL d   1       1.190   3.429  -0.049  0.00  0.00    -0.273 OA
ATOM     18  C   UNL d   1       3.449   2.727  -0.107  0.00  0.00     0.117 C 
ATOM     19  C   UNL d   1       1.589  -1.273  -0.114  0.00  0.00     0.061 C 
ATOM     20  C   UNL d   1      -0.982  -1.417   0.006  0.00  0.00     0.039 A 
ENDBRANCH   7   9
ENDBRANCH   6   7
TORSDOF 2
