REMARK  3 active torsions:
REMARK  status: ('A' for Active; 'I' for Inactive)
REMARK    1  A    between atoms: C_12  and  C_3 
REMARK    2  A    between atoms: N_6  and  C_9 
REMARK    3  A    between atoms: C_14  and  C_8 
ROOT
ATOM      1  N   UNL d   1      -0.781   0.030   0.007  0.00  0.00    -0.331 N 
ATOM      2  HN  UNL d   1      -1.764  -0.238   0.049  1.00  0.00     0.168 HD
ATOM      3  C   UNL d   1      -0.267   1.216  -0.043  0.00  0.00     0.162 A 
ATOM      4  C   UNL d   1       0.324  -0.777  -0.010  0.00  0.00     0.111 A 
ATOM      5  O   UNL d   1       1.082   1.315  -0.100  0.00  0.00    -0.256 OA
ATOM      6  C   UNL d   1       1.563   0.039  -0.073  0.00  0.00     0.316 A 
ATOM      7  C   UNL d   1       0.331  -2.115   0.010  0.00  0.00     0.047 C 
ATOM      8  O   UNL d   1       2.722  -0.318  -0.101  0.00  0.00    -0.257 OA
ENDROOT
BRANCH   7   9
ATOM      9  C   UNL d   1      -0.927  -2.861   0.010  0.00  0.00    -0.032 A 
ATOM     10  C   UNL d   1      -1.539  -3.167  -1.210  0.00  0.00     0.047 A 
ATOM     11  C   UNL d   1      -2.800  -3.773  -1.216  0.00  0.00     0.103 A 
ATOM     12  C   UNL d   1      -3.448  -4.089  -0.014  0.00  0.00     0.036 A 
ATOM     13  C   UNL d   1      -2.829  -3.788   1.200  0.00  0.00     0.003 A 
ATOM     14  C   UNL d   1      -1.575  -3.172   1.212  0.00  0.00     0.011 A 
BRANCH  11  15
ATOM     15  N   UNL d   1      -3.460  -4.050  -2.496  0.00  0.00    -0.116 N 
ATOM     16  O   UNL d   1      -2.866  -3.733  -3.536  0.00  0.00    -0.532 OA
ATOM     17  O   UNL d   1      -4.578  -4.586  -2.463  0.00  0.00    -0.532 OA
ENDBRANCH  11  15
ENDBRANCH   7   9
BRANCH   3  18
ATOM     18  C   UNL d   1      -1.009   2.483  -0.016  0.00  0.00     0.015 A 
ATOM     19  C   UNL d   1      -2.406   2.445   0.090  0.00  0.00     0.016 A 
ATOM     20  C   UNL d   1      -3.133   3.631   0.186  0.00  0.00     0.001 A 
ATOM     21  C   UNL d   1      -2.468   4.857   0.170  0.00  0.00     0.000 A 
ATOM     22  C   UNL d   1      -1.079   4.899   0.043  0.00  0.00     0.001 A 
ATOM     23  C   UNL d   1      -0.347   3.714  -0.052  0.00  0.00     0.016 A 
ENDBRANCH   3  18
TORSDOF 3
