REMARK  5 active torsions:
REMARK  status: ('A' for Active; 'I' for Inactive)
REMARK    1  A    between atoms: C_8  and  C_1 
REMARK    2  A    between atoms: C_9  and  C_2 
REMARK    3  A    between atoms: C_10  and  C_5 
REMARK    4  A    between atoms: O_13  and  C_8 
REMARK    5  A    between atoms: C_18  and  O_13 
ROOT
ATOM      1  C   UNL d   1      -0.221   1.361  -0.203  0.00  0.00     0.122 A 
ATOM      2  C   UNL d   1       1.120   1.409  -0.047  0.00  0.00     0.025 A 
ATOM      3  N   UNL d   1       1.180  -1.065   0.125  0.00  0.00    -0.296 N 
ATOM      4  HN  UNL d   1       1.686  -1.944   0.240  1.00  0.00     0.187 HD
ATOM      5  C   UNL d   1       1.809   0.075   0.106  0.00  0.00     0.070 A 
ATOM      6  C   UNL d   1      -0.929   0.064  -0.242  0.00  0.00     0.277 A 
ATOM      7  N   UNL d   1      -0.165  -1.047  -0.014  0.00  0.00    -0.265 N 
ATOM      8  O   UNL d   1      -2.129  -0.037  -0.479  0.00  0.00    -0.266 OA
ATOM      9  H   UNL d   1      -0.632  -1.946  -0.044  0.00  0.00     0.190 HD
ENDROOT
BRANCH   2  10
ATOM     10  C   UNL d   1       1.860   2.685  -0.047  0.00  0.00    -0.022 A 
ATOM     11  C   UNL d   1       1.953   3.461   1.119  0.00  0.00     0.012 A 
ATOM     12  C   UNL d   1       2.734   4.618   1.132  0.00  0.00     0.001 A 
ATOM     13  C   UNL d   1       3.394   5.029  -0.026  0.00  0.00     0.000 A 
ATOM     14  C   UNL d   1       3.265   4.290  -1.201  0.00  0.00     0.001 A 
ATOM     15  C   UNL d   1       2.503   3.121  -1.213  0.00  0.00     0.012 A 
ENDBRANCH   2  10
BRANCH   1  16
ATOM     16  C   UNL d   1      -1.030   2.600  -0.307  0.00  0.00     0.299 C 
ATOM     17  O   UNL d   1      -0.783   3.542  -1.043  0.00  0.00    -0.259 OA
BRANCH  16  18
ATOM     18  O   UNL d   1      -2.017   2.535   0.618  0.00  0.00    -0.318 OA
BRANCH  18  19
ATOM     19  C   UNL d   1      -2.800   3.714   0.836  0.00  0.00     0.174 C 
ATOM     20  C   UNL d   1      -2.564   4.132   2.274  0.00  0.00     0.034 C 
ENDBRANCH  18  19
ENDBRANCH  16  18
ENDBRANCH   1  16
BRANCH   5  21
ATOM     21  C   UNL d   1       3.305  -0.004   0.203  0.00  0.00    -0.007 A 
ATOM     22  C   UNL d   1       4.072   0.819   1.033  0.00  0.00     0.014 A 
ATOM     23  C   UNL d   1       5.465   0.705   1.054  0.00  0.00     0.001 A 
ATOM     24  C   UNL d   1       6.098  -0.275   0.294  0.00  0.00     0.000 A 
ATOM     25  C   UNL d   1       5.340  -1.145  -0.485  0.00  0.00     0.001 A 
ATOM     26  C   UNL d   1       3.951  -1.009  -0.533  0.00  0.00     0.014 A 
ENDBRANCH   5  21
TORSDOF 5
