REMARK  8 active torsions:
REMARK  status: ('A' for Active; 'I' for Inactive)
REMARK    1  A    between atoms: C_16  and  N_1 
REMARK    2  A    between atoms: C_21  and  C_2 
REMARK    3  A    between atoms: S_15  and  C_5 
REMARK    4  A    between atoms: C_20  and  N_6 
REMARK    5  A    between atoms: C_11  and  C_19 
REMARK    6  A    between atoms: C_14  and  C_26 
REMARK       I    between atoms: N_22  and  C_14 
REMARK    7  A    between atoms: C_26  and  S_15 
REMARK    8  A    between atoms: N_17  and  N_22 
ROOT
ATOM      1  S   UNL d   1      -2.922   0.046   0.048  0.00  0.00    -0.083 SA
ENDROOT
BRANCH   1   2
ATOM      2  C   UNL d   1      -1.201  -0.267  -0.053  0.00  0.00     0.168 A 
ATOM      3  N   UNL d   1      -0.199   0.701   0.000  0.00  0.00    -0.275 N 
ATOM      4  C   UNL d   1       0.980  -0.011  -0.283  0.00  0.00     0.139 A 
ATOM      5  N   UNL d   1       0.661  -1.272  -0.520  0.00  0.00    -0.282 N 
ATOM      6  N   UNL d   1      -0.690  -1.435  -0.359  0.00  0.00    -0.278 N 
ATOM      7  HN  UNL d   1       1.317  -2.008  -0.781  1.00  0.00     0.188 HD
ATOM      8  HN  UNL d   1      -1.205  -2.309  -0.460  1.00  0.00     0.189 HD
BRANCH   3   9
ATOM      9  C   UNL d   1      -0.328   2.093   0.274  0.00  0.00     0.043 A 
ATOM     10  C   UNL d   1       0.455   3.027  -0.421  0.00  0.00     0.030 A 
ATOM     11  C   UNL d   1       0.412   4.379  -0.072  0.00  0.00     0.002 A 
ATOM     12  C   UNL d   1      -0.441   4.812   0.940  0.00  0.00     0.000 A 
ATOM     13  C   UNL d   1      -1.251   3.896   1.607  0.00  0.00     0.002 A 
ATOM     14  C   UNL d   1      -1.190   2.538   1.285  0.00  0.00     0.030 A 
ENDBRANCH   3   9
BRANCH   4  15
ATOM     15  C   UNL d   1       2.372   0.483  -0.290  0.00  0.00     0.013 A 
ATOM     16  C   UNL d   1       2.855   1.415   0.634  0.00  0.00     0.032 A 
ATOM     17  C   UNL d   1       4.150   1.888   0.497  0.00  0.00     0.088 A 
ATOM     18  N   UNL d   1       5.008   1.459  -0.452  0.00  0.00    -0.375 N 
ATOM     19  C   UNL d   1       4.556   0.505  -1.288  0.00  0.00     0.088 A 
ATOM     20  HN  UNL d   1       5.951   1.837  -0.531  1.00  0.00     0.164 HD
ATOM     21  C   UNL d   1       3.266  -0.007  -1.249  0.00  0.00     0.032 A 
ENDBRANCH   4  15
ENDBRANCH   1   2
BRANCH   1  22
ATOM     22  C   UNL d   1      -3.604  -1.638  -0.027  0.00  0.00     0.186 C 
BRANCH  22  23
ATOM     23  C   UNL d   1      -5.130  -1.728   0.010  0.00  0.00     0.245 C 
ATOM     24  N   UNL d   1      -5.842  -0.546   0.153  0.00  0.00    -0.270 N 
ATOM     25  H   UNL d   1      -5.350   0.341   0.202  0.00  0.00     0.190 HD
ATOM     26  O   UNL d   1      -5.670  -2.834  -0.084  0.00  0.00    -0.271 OA
BRANCH  24  27
ATOM     27  N   UNL d   1      -7.211  -0.574   0.052  0.00  0.00    -0.308 N 
ATOM     28  C   UNL d   1      -7.841   0.548   0.173  0.00  0.00     0.122 C 
ATOM     29  HN  UNL d   1      -7.711  -1.447  -0.111  1.00  0.00     0.186 HD
BRANCH  28  30
ATOM     30  C   UNL d   1      -9.282   0.565  -0.004  0.00  0.00     0.022 A 
ATOM     31  C   UNL d   1     -10.093  -0.519  -0.278  0.00  0.00     0.131 A 
ATOM     32  N   UNL d   1     -11.384  -0.060  -0.413  0.00  0.00    -0.267 N 
ATOM     33  N   UNL d   1     -11.438   1.286  -0.240  0.00  0.00    -0.298 N 
ATOM     34  C   UNL d   1     -10.184   1.658   0.037  0.00  0.00     0.035 A 
ATOM     35  HN  UNL d   1     -12.261   1.886  -0.306  1.00  0.00     0.187 HD
ATOM     36  C   UNL d   1      -9.895   3.084   0.328  0.00  0.00     0.070 C 
BRANCH  32  37
ATOM     37  C   UNL d   1     -12.562  -0.815  -0.685  0.00  0.00     0.056 A 
ATOM     38  C   UNL d   1     -12.534  -2.216  -0.713  0.00  0.00     0.031 A 
ATOM     39  C   UNL d   1     -13.707  -2.937  -0.956  0.00  0.00     0.002 A 
ATOM     40  C   UNL d   1     -14.909  -2.268  -1.185  0.00  0.00     0.000 A 
ATOM     41  C   UNL d   1     -14.944  -0.876  -1.171  0.00  0.00     0.002 A 
ATOM     42  C   UNL d   1     -13.776  -0.149  -0.918  0.00  0.00     0.031 A 
ENDBRANCH  32  37
ENDBRANCH  28  30
ENDBRANCH  24  27
ENDBRANCH  22  23
ENDBRANCH   1  22
TORSDOF 8
