REMARK  2 active torsions:
REMARK  status: ('A' for Active; 'I' for Inactive)
REMARK    1  A    between atoms: C_6  and  C_1 
REMARK    2  A    between atoms: O_11  and  C_6 
ROOT
ATOM      1  C   UNL d   1      -2.035  -1.115   0.001  0.00  0.00     0.080 A 
ATOM      2  S   UNL d   1      -2.025   0.603   0.002  0.00  0.00    -0.082 SA
ATOM      3  C   UNL d   1      -0.765  -1.661   0.004  0.00  0.00     0.046 A 
ATOM      4  C   UNL d   1      -0.283   0.617   0.003  0.00  0.00     0.023 A 
ATOM      5  C   UNL d   1       0.238  -0.646   0.004  0.00  0.00     0.023 A 
ATOM      6  S   UNL d   1       1.983  -0.634   0.005  0.00  0.00    -0.101 SA
ATOM      7  C   UNL d   1       0.717   1.635   0.004  0.00  0.00     0.027 A 
ATOM      8  C   UNL d   1       1.976   1.080   0.004  0.00  0.00     0.052 A 
ENDROOT
BRANCH   1   9
ATOM      9  C   UNL d   1      -3.283  -1.866  -0.002  0.00  0.00     0.183 C 
ATOM     10  O   UNL d   1      -3.368  -3.086  -0.000  0.00  0.00    -0.646 OA
BRANCH   9  11
ATOM     11  O   UNL d   1      -4.387  -1.075  -0.008  0.00  0.00    -0.772 OA
ATOM     12  H   UNL d   1      -4.150  -0.127  -0.010  0.00  0.00     0.167 HD
ENDBRANCH   9  11
ENDBRANCH   1   9
TORSDOF 2
