REMARK  2 active torsions:
REMARK  status: ('A' for Active; 'I' for Inactive)
REMARK    1  A    between atoms: N_5  and  C_1 
REMARK    2  A    between atoms: C_9  and  C_4 
REMARK       I    between atoms: C_8  and  N_5 
ROOT
ATOM      1  C   UNL d   1       0.438  -1.266   0.044  0.00  0.00     0.151 A 
ATOM      2  N   UNL d   1       1.574  -0.625   0.030  0.00  0.00    -0.335 N 
ATOM      3  HN  UNL d   1       2.494  -1.065   0.031  1.00  0.00     0.168 HD
ATOM      4  C   UNL d   1       1.346   0.741   0.014  0.00  0.00     0.052 A 
ATOM      5  S   UNL d   1      -0.973  -0.308  -0.006  0.00  0.00    -0.063 SA
ATOM      6  C   UNL d   1       0.011   1.103  -0.012  0.00  0.00     0.083 A 
ENDROOT
BRANCH   4   7
ATOM      7  C   UNL d   1       2.459   1.674  -0.006  0.00  0.00     0.006 A 
ATOM      8  C   UNL d   1       2.390   2.944   0.558  0.00  0.00     0.101 A 
ATOM      9  N   UNL d   1       3.410   3.839   0.562  0.00  0.00    -0.374 N 
ATOM     10  C   UNL d   1       4.565   3.440  -0.016  0.00  0.00     0.087 A 
ATOM     11  HN  UNL d   1       3.311   4.764   0.979  1.00  0.00     0.164 HD
ATOM     12  C   UNL d   1       4.744   2.196  -0.597  0.00  0.00     0.018 A 
ATOM     13  C   UNL d   1       3.675   1.303  -0.587  0.00  0.00     0.016 A 
ENDBRANCH   4   7
BRANCH   1  14
ATOM     14  N   UNL d   1       0.204  -2.612   0.086  0.00  0.00    -0.307 N 
ATOM     15  C   UNL d   1       1.224  -3.529   0.198  0.00  0.00     0.219 C 
ATOM     16  O   UNL d   1       2.423  -3.297   0.303  0.00  0.00    -0.274 OA
ATOM     17  C   UNL d   1       0.727  -4.953   0.213  0.00  0.00     0.117 C 
ATOM     18  H   UNL d   1      -0.762  -2.903   0.064  0.00  0.00     0.171 HD
ENDBRANCH   1  14
TORSDOF 2
