REMARK  1 active torsions:
REMARK  status: ('A' for Active; 'I' for Inactive)
REMARK    1  A    between atoms: O_12  and  C_6 
ROOT
ATOM      1  C   UNL d   1      -0.002  -0.749  -0.026  0.00  0.00     0.123 A 
ATOM      2  C   UNL d   1       0.080   0.650  -0.003  0.00  0.00     0.138 A 
ATOM      3  C   UNL d   1       1.171  -1.510  -0.067  0.00  0.00     0.066 A 
ATOM      4  C   UNL d   1       2.424  -0.866  -0.053  0.00  0.00     0.051 A 
ATOM      5  C   UNL d   1       2.509   0.556  -0.002  0.00  0.00     0.066 A 
ATOM      6  C   UNL d   1       1.326   1.326   0.026  0.00  0.00     0.123 A 
ATOM      7  O   UNL d   1      -1.056   1.440   0.006  0.00  0.00    -0.344 OA
ATOM      8  O   UNL d   1      -1.204  -1.418  -0.022  0.00  0.00    -0.345 OA
ATOM      9 BR   UNL d   1       1.000  -3.418  -0.129  0.00  0.00    -0.046 Br
ATOM     10 BR   UNL d   1       4.258   1.347   0.018  0.00  0.00    -0.046 Br
ATOM     11 BR   UNL d   1       4.020  -1.948  -0.098  0.00  0.00    -0.048 Br
ATOM     12  C   UNL d   1      -2.233   0.727  -0.374  0.00  0.00     0.202 C 
ATOM     13  C   UNL d   1      -2.297  -0.587   0.371  0.00  0.00     0.202 C 
ENDROOT
BRANCH   6  14
ATOM     14  O   UNL d   1       1.145   2.683   0.072  0.00  0.00    -0.352 OA
ATOM     15  C   UNL d   1       2.193   3.628   0.114  0.00  0.00     0.210 C 
ENDBRANCH   6  14
TORSDOF 1
