REMARK  3 active torsions:
REMARK  status: ('A' for Active; 'I' for Inactive)
REMARK    1  A    between atoms: N_10  and  C_1 
REMARK    2  A    between atoms: S_11  and  C_8 
REMARK    3  A    between atoms: N_12  and  C_9 
ROOT
ATOM      1  C   UNL d   1      -0.863  -0.030   0.026  0.00  0.00     0.683 A 
ATOM      2  N   UNL d   1      -0.212  -1.187  -0.004  0.00  0.00    -0.170 N 
ATOM      3  HN  UNL d   1      -0.700  -2.081   0.045  1.00  0.00     0.186 HD
ATOM      4  N   UNL d   1      -0.234   1.139  -0.062  0.00  0.00    -0.166 N 
ATOM      5  HN  UNL d   1      -0.743   2.022  -0.042  1.00  0.00     0.187 HD
ATOM      6  N   UNL d   1       1.816   0.009  -0.187  0.00  0.00    -0.312 N 
ATOM      7  HN  UNL d   1       2.834   0.024  -0.254  1.00  0.00     0.170 HD
ATOM      8  C   UNL d   1       1.112  -1.115  -0.102  0.00  0.00     0.161 A 
ATOM      9  C   UNL d   1       1.085   1.100  -0.177  0.00  0.00     0.171 A 
ENDROOT
BRANCH   1  10
ATOM     10  N   UNL d   1      -2.231  -0.041   0.254  0.00  0.00    -0.226 N 
ATOM     11  C   UNL d   1      -2.965   1.200   0.064  0.00  0.00     0.168 C 
ATOM     12  C   UNL d   1      -2.962  -1.268  -0.015  0.00  0.00     0.168 C 
ENDBRANCH   1  10
BRANCH   8  13
ATOM     13  S   UNL d   1       2.063  -2.620  -0.083  0.00  0.00    -0.098 SA
ATOM     14  C   UNL d   1       0.739  -3.847   0.030  0.00  0.00     0.099 C 
ENDBRANCH   8  13
BRANCH   9  15
ATOM     15  N   UNL d   1       1.751   2.311  -0.228  0.00  0.00    -0.273 NA
ATOM     16  H   UNL d   1       2.695   2.195   0.114  0.00  0.00     0.127 HD
ATOM     17  H   UNL d   1       1.191   3.030   0.206  0.00  0.00     0.127 HD
ENDBRANCH   9  15
TORSDOF 3
