REMARK  3 active torsions:
REMARK  status: ('A' for Active; 'I' for Inactive)
REMARK    1  A    between atoms: N_9  and  C_2 
REMARK    2  A    between atoms: C_12  and  C_5 
REMARK    3  A    between atoms: C_13  and  C_8 
ROOT
ATOM      1  C   UNL d   1      -0.729   1.381   0.007  0.00  0.00     0.103 A 
ATOM      2  C   UNL d   1      -1.463   0.184  -0.000  0.00  0.00     0.140 A 
ATOM      3  N   UNL d   1      -0.755  -0.959  -0.106  0.00  0.00    -0.284 N 
ATOM      4  HN  UNL d   1      -1.264  -1.842  -0.150  1.00  0.00     0.188 HD
ATOM      5  C   UNL d   1       0.704   1.388  -0.046  0.00  0.00     0.028 A 
ATOM      6  N   UNL d   1       0.621  -0.994  -0.157  0.00  0.00    -0.297 N 
ATOM      7  HN  UNL d   1       1.098  -1.893  -0.226  1.00  0.00     0.187 HD
ATOM      8  C   UNL d   1       1.348   0.140  -0.116  0.00  0.00     0.071 A 
ATOM      9  C   UNL d   1      -1.421   2.639   0.029  0.00  0.00     0.104 C 
ATOM     10  N   UNL d   1      -1.984   3.656   0.031  0.00  0.00    -0.191 NA
ENDROOT
BRANCH   2  11
ATOM     11  N   UNL d   1      -2.829   0.045   0.118  0.00  0.00    -0.361 N 
ATOM     12  C   UNL d   1      -3.773   1.015   0.689  0.00  0.00     0.150 C 
ATOM     13  C   UNL d   1      -4.841   0.305   1.540  0.00  0.00     0.187 C 
ATOM     14  O   UNL d   1      -5.483  -0.763   0.833  0.00  0.00    -0.388 OA
ATOM     15  C   UNL d   1      -4.508  -1.738   0.431  0.00  0.00     0.187 C 
ATOM     16  C   UNL d   1      -3.476  -1.121  -0.521  0.00  0.00     0.150 C 
ENDBRANCH   2  11
BRANCH   5  17
ATOM     17  C   UNL d   1       1.468   2.669   0.011  0.00  0.00    -0.022 A 
ATOM     18  C   UNL d   1       2.442   2.899   1.001  0.00  0.00     0.012 A 
ATOM     19  C   UNL d   1       3.181   4.086   1.033  0.00  0.00     0.001 A 
ATOM     20  C   UNL d   1       2.926   5.093   0.107  0.00  0.00     0.000 A 
ATOM     21  C   UNL d   1       1.953   4.902  -0.867  0.00  0.00     0.001 A 
ATOM     22  C   UNL d   1       1.252   3.694  -0.931  0.00  0.00     0.012 A 
ENDBRANCH   5  17
BRANCH   8  23
ATOM     23  C   UNL d   1       2.810  -0.102  -0.092  0.00  0.00    -0.007 A 
ATOM     24  C   UNL d   1       3.720   0.620  -0.883  0.00  0.00     0.014 A 
ATOM     25  C   UNL d   1       5.101   0.434  -0.753  0.00  0.00     0.001 A 
ATOM     26  C   UNL d   1       5.601  -0.509   0.140  0.00  0.00     0.000 A 
ATOM     27  C   UNL d   1       4.721  -1.280   0.892  0.00  0.00     0.001 A 
ATOM     28  C   UNL d   1       3.343  -1.079   0.775  0.00  0.00     0.014 A 
ENDBRANCH   8  23
TORSDOF 3
