REMARK  7 active torsions:
REMARK  status: ('A' for Active; 'I' for Inactive)
REMARK    1  A    between atoms: C_5  and  C_1 
REMARK    2  A    between atoms: N_3  and  C_2 
REMARK       I    between atoms: C_8  and  N_3 
REMARK    3  A    between atoms: C_11  and  C_5 
REMARK    4  A    between atoms: C_7  and  C_10 
REMARK    5  A    between atoms: C_12  and  C_8 
REMARK    6  A    between atoms: C_28  and  C_9 
REMARK    7  A    between atoms: O_27  and  C_24 
ROOT
ATOM      1  C   UNL d   1       1.440   0.501   0.334  0.00  0.00     0.050 A 
ATOM      2  C   UNL d   1       0.237   1.103  -0.020  0.00  0.00     0.091 A 
ATOM      3  S   UNL d   1      -0.944  -0.060  -0.426  0.00  0.00    -0.076 SA
ATOM      4  C   UNL d   1       1.358  -0.932   0.201  0.00  0.00     0.033 A 
ATOM      5  C   UNL d   1       0.090  -1.369  -0.105  0.00  0.00    -0.015 A 
ENDROOT
BRANCH   2   6
ATOM      6  N   UNL d   1      -0.072   2.466  -0.104  0.00  0.00    -0.316 N 
ATOM      7  C   UNL d   1      -1.358   2.985  -0.062  0.00  0.00     0.256 C 
ATOM      8  O   UNL d   1      -2.397   2.345   0.083  0.00  0.00    -0.267 OA
ATOM      9  H   UNL d   1       0.708   3.107  -0.088  0.00  0.00     0.169 HD
BRANCH   7  10
ATOM     10  C   UNL d   1      -1.514   4.470  -0.147  0.00  0.00     0.032 A 
ATOM     11  C   UNL d   1      -2.756   4.946  -0.596  0.00  0.00     0.018 A 
ATOM     12  C   UNL d   1      -3.050   6.310  -0.601  0.00  0.00     0.017 A 
ATOM     13  C   UNL d   1      -2.103   7.236  -0.151  0.00  0.00     0.048 A 
ATOM     14  C   UNL d   1      -0.845   6.766   0.270  0.00  0.00     0.017 A 
ATOM     15  C   UNL d   1      -0.549   5.392   0.276  0.00  0.00     0.018 A 
BRANCH  13  16
ATOM     16  C   UNL d   1      -2.438   8.709  -0.085  0.00  0.00     0.417 C 
ATOM     17  F   UNL d   1      -3.712   8.996  -0.472  0.00  0.00    -0.166 F 
ATOM     18  F   UNL d   1      -2.308   9.215   1.173  0.00  0.00    -0.166 F 
ATOM     19  F   UNL d   1      -1.628   9.464  -0.878  0.00  0.00    -0.166 F 
ENDBRANCH  13  16
ENDBRANCH   7  10
ENDBRANCH   2   6
BRANCH   1  20
ATOM     20  C   UNL d   1       2.650   1.158   0.829  0.00  0.00     0.195 C 
ATOM     21  O   UNL d   1       3.770   0.773   0.504  0.00  0.00    -0.287 OA
BRANCH  20  22
ATOM     22  C   UNL d   1       2.531   2.293   1.791  0.00  0.00     0.015 A 
ATOM     23  C   UNL d   1       3.564   3.237   1.841  0.00  0.00     0.018 A 
ATOM     24  C   UNL d   1       3.455   4.358   2.671  0.00  0.00     0.037 A 
ATOM     25  C   UNL d   1       2.316   4.537   3.456  0.00  0.00     0.068 A 
ATOM     26  C   UNL d   1       1.304   3.578   3.434  0.00  0.00     0.037 A 
ATOM     27  C   UNL d   1       1.422   2.444   2.631  0.00  0.00     0.018 A 
BRANCH  25  28
ATOM     28  O   UNL d   1       2.059   5.624   4.242  0.00  0.00    -0.356 OA
ATOM     29  C   UNL d   1       3.201   6.275   4.786  0.00  0.00     0.210 C 
ENDBRANCH  25  28
ENDBRANCH  20  22
ENDBRANCH   1  20
BRANCH   5  30
ATOM     30  C   UNL d   1      -0.425  -2.774  -0.152  0.00  0.00     0.042 C 
ATOM     31  C   UNL d   1      -0.814  -3.255   1.241  0.00  0.00     0.010 C 
ENDBRANCH   5  30
TORSDOF 7
