REMARK  5 active torsions:
REMARK  status: ('A' for Active; 'I' for Inactive)
REMARK    1  A    between atoms: S_10  and  C_1 
REMARK    2  A    between atoms: C_3  and  C_6 
REMARK       I    between atoms: N_4  and  C_3 
REMARK    3  A    between atoms: C_11  and  N_4 
REMARK    4  A    between atoms: C_6  and  C_12 
REMARK    5  A    between atoms: C_12  and  S_10 
ROOT
ATOM      1  C   UNL d   1       2.193   6.126  -0.020  0.00  0.00     0.222 C 
ATOM      2  N   UNL d   1       3.394   5.450  -0.106  0.00  0.00    -0.327 N 
ATOM      3  O   UNL d   1       2.047   7.345  -0.004  0.00  0.00    -0.273 OA
ATOM      4  H   UNL d   1       3.348   4.468  -0.358  0.00  0.00     0.169 HD
ENDROOT
BRANCH   1   5
ATOM      5  C   UNL d   1       0.986   5.212   0.089  0.00  0.00     0.113 C 
BRANCH   5   6
ATOM      6  C   UNL d   1       0.628   4.494  -1.202  0.00  0.00     0.089 C 
BRANCH   6   7
ATOM      7  S   UNL d   1       1.697   3.044  -1.497  0.00  0.00    -0.122 SA
BRANCH   7   8
ATOM      8  C   UNL d   1       0.847   2.307  -2.846  0.00  0.00     0.041 A 
ATOM      9  S   UNL d   1       0.222   0.718  -2.752  0.00  0.00    -0.095 SA
ATOM     10  C   UNL d   1      -0.392   0.797  -4.347  0.00  0.00     0.051 A 
ATOM     11  C   UNL d   1      -0.115   2.006  -4.946  0.00  0.00     0.009 A 
ATOM     12  C   UNL d   1       0.608   2.878  -4.078  0.00  0.00     0.026 A 
ENDBRANCH   7   8
ENDBRANCH   6   7
ENDBRANCH   5   6
ENDBRANCH   1   5
BRANCH   2  13
ATOM     13  C   UNL d   1       4.683   6.000   0.059  0.00  0.00     0.034 A 
ATOM     14  C   UNL d   1       4.914   7.274   0.579  0.00  0.00     0.031 A 
ATOM     15  C   UNL d   1       6.220   7.737   0.780  0.00  0.00     0.026 A 
ATOM     16  C   UNL d   1       7.301   6.925   0.451  0.00  0.00     0.034 A 
ATOM     17  C   UNL d   1       7.088   5.655  -0.076  0.00  0.00     0.026 A 
ATOM     18 CL   UNL d   1       8.906   7.489   0.706  0.00  0.00    -0.084 Cl
ATOM     19  C   UNL d   1       5.781   5.190  -0.266  0.00  0.00     0.031 A 
ENDBRANCH   2  13
TORSDOF 5
