REMARK  6 active torsions:
REMARK  status: ('A' for Active; 'I' for Inactive)
REMARK    1  A    between atoms: C_4  and  C_1 
REMARK    2  A    between atoms: C_9  and  C_1 
REMARK    3  A    between atoms: N_3  and  C_2 
REMARK    4  A    between atoms: S_15  and  C_2 
REMARK    5  A    between atoms: C_11  and  N_3 
REMARK    6  A    between atoms: N_5  and  C_4 
ROOT
ATOM      1  C   UNL d   1       0.950  -0.059   0.063  0.00  0.00     0.081 C 
ATOM      2  C   UNL d   1       0.214  -1.184  -0.147  0.00  0.00     0.071 C 
ENDROOT
BRANCH   2   3
ATOM      3  N   UNL d   1      -1.189  -1.163  -0.110  0.00  0.00    -0.253 NA
ATOM      4  H   UNL d   1      -1.506  -0.307   0.373  0.00  0.00     0.134 HD
BRANCH   3   5
ATOM      5  C   UNL d   1      -1.994  -1.299  -1.274  0.00  0.00     0.016 A 
ATOM      6  C   UNL d   1      -1.494  -1.157  -2.571  0.00  0.00     0.066 A 
ATOM      7  C   UNL d   1      -2.333  -1.345  -3.665  0.00  0.00     0.124 A 
ATOM      8  F   UNL d   1      -1.823  -1.215  -4.898  0.00  0.00    -0.206 F 
ATOM      9  C   UNL d   1      -3.680  -1.677  -3.504  0.00  0.00    -0.023 A 
ATOM     10  C   UNL d   1      -4.197  -1.754  -2.208  0.00  0.00     0.011 A 
ATOM     11  C   UNL d   1      -4.531  -1.947  -4.704  0.00  0.00     0.051 C 
ATOM     12  C   UNL d   1      -3.361  -1.558  -1.104  0.00  0.00     0.024 A 
ENDBRANCH   3   5
ENDBRANCH   2   3
BRANCH   2  13
ATOM     13  S   UNL d   1       1.116  -2.693  -0.450  0.00  0.00    -0.121 SA
ATOM     14  C   UNL d   1      -0.172  -3.955  -0.458  0.00  0.00     0.097 C 
ENDBRANCH   2  13
BRANCH   1  15
ATOM     15  C   UNL d   1       2.470  -0.059   0.063  0.00  0.00    -0.032 C 
BRANCH  15  16
ATOM     16  N   UNL d   1       3.731  -0.059   0.063  0.00  0.00    -0.365 N 
ATOM     17  HN2 UNL d   1       2.711  -0.059   0.063  1.00  0.00     0.165 HD
ATOM     18  HN1 UNL d   1       4.751  -0.059   0.063  1.00  0.00     0.165 HD
ENDBRANCH  15  16
ENDBRANCH   1  15
BRANCH   1  19
ATOM     19  C   UNL d   1       0.368   1.300   0.278  0.00  0.00     0.054 A 
ATOM     20  N   UNL d   1      -0.840   1.372   0.895  0.00  0.00    -0.365 N 
ATOM     21  C   UNL d   1      -1.337   2.607   1.145  0.00  0.00     0.088 A 
ATOM     22  HN  UNL d   1      -1.351   0.530   1.160  1.00  0.00     0.165 HD
ATOM     23  C   UNL d   1      -0.704   3.790   0.800  0.00  0.00     0.017 A 
ATOM     24  C   UNL d   1       0.518   3.707   0.149  0.00  0.00     0.004 A 
ATOM     25  C   UNL d   1       1.058   2.453  -0.118  0.00  0.00     0.031 A 
ENDBRANCH   1  19
TORSDOF 6
