REMARK  4 active torsions:
REMARK  status: ('A' for Active; 'I' for Inactive)
REMARK    1  A    between atoms: C_6  and  C_1 
REMARK    2  A    between atoms: C_3  and  C_2 
REMARK    3  A    between atoms: O_16  and  C_6 
REMARK    4  A    between atoms: C_18  and  O_16 
ROOT
ATOM      1  C   UNL d   1      -0.340   1.077  -0.014  0.00  0.00     0.136 A 
ATOM      2  C   UNL d   1       1.059   0.760  -0.049  0.00  0.00     0.027 A 
ATOM      3  N   UNL d   1      -1.085  -0.045  -0.127  0.00  0.00    -0.295 N 
ATOM      4  HN  UNL d   1      -2.102  -0.119  -0.136  1.00  0.00     0.187 HD
ATOM      5  N   UNL d   1      -0.194  -1.036  -0.223  0.00  0.00    -0.310 N 
ATOM      6  C   UNL d   1       1.095  -0.607  -0.233  0.00  0.00     0.122 A 
ATOM      7  H   UNL d   1      -0.541  -1.987  -0.298  0.00  0.00     0.186 HD
ENDROOT
BRANCH   2   8
ATOM      8  C   UNL d   1       2.256   1.598  -0.052  0.00  0.00    -0.000 A 
ATOM      9  C   UNL d   1       3.412   1.309   0.703  0.00  0.00     0.046 A 
ATOM     10  C   UNL d   1       4.556   2.111   0.595  0.00  0.00     0.048 A 
ATOM     11 CL   UNL d   1       3.507  -0.010   1.824  0.00  0.00    -0.083 Cl
ATOM     12  C   UNL d   1       4.549   3.221  -0.243  0.00  0.00     0.035 A 
ATOM     13  C   UNL d   1       3.411   3.542  -0.974  0.00  0.00     0.025 A 
ATOM     14 CL   UNL d   1       5.956   4.202  -0.375  0.00  0.00    -0.084 Cl
ATOM     15  C   UNL d   1       2.276   2.730  -0.885  0.00  0.00     0.016 A 
ENDBRANCH   2   8
BRANCH   1  16
ATOM     16  C   UNL d   1      -0.978   2.397   0.136  0.00  0.00     0.312 C 
ATOM     17  O   UNL d   1      -0.410   3.382   0.589  0.00  0.00    -0.258 OA
BRANCH  16  18
ATOM     18  O   UNL d   1      -2.274   2.390  -0.302  0.00  0.00    -0.317 OA
BRANCH  18  19
ATOM     19  C   UNL d   1      -3.059   3.560  -0.053  0.00  0.00     0.175 C 
ATOM     20  C   UNL d   1      -3.903   3.309   1.181  0.00  0.00     0.034 C 
ENDBRANCH  18  19
ENDBRANCH  16  18
ENDBRANCH   1  16
TORSDOF 4
