REMARK  2 active torsions:
REMARK  status: ('A' for Active; 'I' for Inactive)
REMARK    1  A    between atoms: C_12  and  C_5 
REMARK    2  A    between atoms: C_10  and  C_12 
ROOT
ATOM      1  C   UNL d   1       0.797  -0.044  -0.027  0.00  0.00     0.118 A 
ATOM      2  C   UNL d   1       0.200   1.176  -0.034  0.00  0.00    -0.027 A 
ATOM      3  C   UNL d   1      -0.036  -1.272  -0.024  0.00  0.00     0.267 A 
ATOM      4  N   UNL d   1      -1.388  -1.083  -0.021  0.00  0.00    -0.326 N 
ATOM      5  C   UNL d   1      -1.290   1.280  -0.044  0.00  0.00    -0.025 A 
ATOM      6  C   UNL d   1      -2.019   0.137  -0.025  0.00  0.00     0.015 A 
ATOM      7  C   UNL d   1       2.211  -0.241  -0.008  0.00  0.00     0.105 C 
ATOM      8  N   UNL d   1       3.361  -0.353   0.009  0.00  0.00    -0.191 NA
ATOM      9  O   UNL d   1       0.438  -2.403  -0.017  0.00  0.00    -0.267 OA
ATOM     10  C   UNL d   1       1.026   2.442  -0.017  0.00  0.00     0.050 C 
ATOM     11  C   UNL d   1      -3.523   0.071  -0.000  0.00  0.00     0.069 C 
ATOM     12  H   UNL d   1      -1.932  -1.939  -0.007  0.00  0.00     0.169 HD
ENDROOT
BRANCH   5  13
ATOM     13  C   UNL d   1      -1.990   2.638   0.039  0.00  0.00     0.067 C 
BRANCH  13  14
ATOM     14  C   UNL d   1      -2.421   3.288  -1.254  0.00  0.00    -0.032 C 
ATOM     15  C   UNL d   1      -2.216   2.885  -2.515  0.00  0.00     0.007 C 
ENDBRANCH  13  14
ENDBRANCH   5  13
TORSDOF 2
