REMARK  4 active torsions:
REMARK  status: ('A' for Active; 'I' for Inactive)
REMARK    1  A    between atoms: C_8  and  C_1 
REMARK    2  A    between atoms: N_4  and  C_11 
REMARK    3  A    between atoms: C_14  and  C_7 
REMARK    4  A    between atoms: O_20  and  C_15 
ROOT
ATOM      1  C   UNL d   1      -1.605   1.707  -0.160  0.00  0.00     0.024 C 
ATOM      2  N   UNL d   1      -0.484   1.581  -0.813  0.00  0.00    -0.358 N 
ATOM      3  HN  UNL d   1      -0.327   2.133  -1.657  1.00  0.00     0.166 HD
ATOM      4  S   UNL d   1      -1.203  -1.528  -0.510  0.00  0.00    -0.118 SA
ATOM      5  C   UNL d   1      -1.995   0.817   1.010  0.00  0.00     0.078 C 
ATOM      6  C   UNL d   1      -2.380  -0.612   0.577  0.00  0.00     0.091 C 
ATOM      7  C   UNL d   1       0.513   0.693  -0.368  0.00  0.00     0.049 A 
ATOM      8  C   UNL d   1       0.337  -0.690  -0.184  0.00  0.00     0.028 A 
ATOM      9  C   UNL d   1       1.780   1.250  -0.142  0.00  0.00     0.031 A 
ATOM     10  C   UNL d   1       1.427  -1.481   0.212  0.00  0.00     0.021 A 
ATOM     11  C   UNL d   1       2.856   0.460   0.266  0.00  0.00     0.002 A 
ATOM     12  C   UNL d   1       2.679  -0.907   0.443  0.00  0.00     0.002 A 
ENDROOT
BRANCH   6  13
ATOM     13  C   UNL d   1      -3.784  -0.656  -0.025  0.00  0.00    -0.043 A 
ATOM     14  C   UNL d   1      -4.858  -1.182   0.712  0.00  0.00     0.011 A 
ATOM     15  C   UNL d   1      -6.157  -1.164   0.194  0.00  0.00     0.037 A 
ATOM     16  C   UNL d   1      -6.390  -0.601  -1.069  0.00  0.00     0.102 A 
ATOM     17  C   UNL d   1      -5.336  -0.095  -1.825  0.00  0.00     0.037 A 
ATOM     18  C   UNL d   1      -4.041  -0.145  -1.311  0.00  0.00     0.011 A 
BRANCH  16  19
ATOM     19  N   UNL d   1      -7.756  -0.534  -1.602  0.00  0.00    -0.116 N 
ATOM     20  O   UNL d   1      -8.663  -1.049  -0.925  0.00  0.00    -0.532 OA
ATOM     21  O   UNL d   1      -7.926   0.037  -2.688  0.00  0.00    -0.532 OA
ENDBRANCH  16  19
ENDBRANCH   6  13
BRANCH   1  22
ATOM     22  C   UNL d   1      -2.541   2.783  -0.617  0.00  0.00     0.020 A 
ATOM     23  C   UNL d   1      -2.624   3.111  -1.981  0.00  0.00     0.077 A 
ATOM     24  C   UNL d   1      -3.446   4.147  -2.417  0.00  0.00     0.037 A 
ATOM     25  C   UNL d   1      -4.189   4.879  -1.492  0.00  0.00     0.003 A 
ATOM     26  C   UNL d   1      -4.120   4.561  -0.136  0.00  0.00     0.001 A 
ATOM     27  C   UNL d   1      -3.298   3.518   0.303  0.00  0.00     0.016 A 
BRANCH  23  28
ATOM     28  O   UNL d   1      -1.928   2.436  -2.948  0.00  0.00    -0.360 OA
ATOM     29  H   UNL d   1      -1.223   1.923  -2.494  0.00  0.00     0.217 HD
ENDBRANCH  23  28
ENDBRANCH   1  22
TORSDOF 4
