REMARK  8 active torsions:
REMARK  status: ('A' for Active; 'I' for Inactive)
REMARK    1  A    between atoms: C_3  and  C_1 
REMARK    2  A    between atoms: C_4  and  C_1 
REMARK    3  A    between atoms: N_8  and  C_2 
REMARK    4  A    between atoms: O_17  and  C_3 
REMARK    5  A    between atoms: O_16  and  C_4 
REMARK    6  A    between atoms: C_14  and  N_8 
REMARK    7  A    between atoms: C_20  and  O_16 
REMARK    8  A    between atoms: C_19  and  O_17 
ROOT
ATOM      1  C   UNL d   1       1.119  -0.033  -0.046  0.00  0.00     0.129 C 
ATOM      2  C   UNL d   1       0.468  -0.147  -1.223  0.00  0.00     0.112 C 
ENDROOT
BRANCH   2   3
ATOM      3  N   UNL d   1       0.989  -0.361  -2.480  0.00  0.00    -0.365 N 
ATOM      4  H   UNL d   1       1.996  -0.556  -2.491  0.00  0.00     0.165 HD
BRANCH   3   5
ATOM      5  C   UNL d   1       0.316  -0.702  -3.671  0.00  0.00     0.034 A 
ATOM      6  C   UNL d   1       1.092  -1.038  -4.795  0.00  0.00     0.069 A 
ATOM      7  C   UNL d   1       0.452  -1.353  -5.976  0.00  0.00     0.107 A 
ATOM      8  O   UNL d   1       1.061  -1.707  -7.140  0.00  0.00    -0.323 OA
ATOM      9  C   UNL d   1      -0.916  -1.333  -6.086  0.00  0.00     0.105 A 
ATOM     10  C   UNL d   1      -0.085  -1.917  -7.991  0.00  0.00     0.352 A 
ATOM     11  O   UNL d   1      -1.344  -1.671  -7.331  0.00  0.00    -0.323 OA
ATOM     12  C   UNL d   1      -1.717  -0.995  -5.021  0.00  0.00     0.042 A 
ATOM     13  C   UNL d   1      -1.090  -0.672  -3.809  0.00  0.00     0.032 A 
ENDBRANCH   3   5
ENDBRANCH   2   3
BRANCH   1  14
ATOM     14  C   UNL d   1       0.354   0.041   1.222  0.00  0.00     0.300 C 
ATOM     15  O   UNL d   1       0.796  -0.308   2.308  0.00  0.00    -0.259 OA
BRANCH  14  16
ATOM     16  O   UNL d   1      -0.930   0.435   1.005  0.00  0.00    -0.318 OA
BRANCH  16  17
ATOM     17  C   UNL d   1      -1.839   0.191   2.088  0.00  0.00     0.174 C 
ATOM     18  C   UNL d   1      -2.333  -1.243   2.000  0.00  0.00     0.034 C 
ENDBRANCH  16  17
ENDBRANCH  14  16
ENDBRANCH   1  14
BRANCH   1  19
ATOM     19  C   UNL d   1       2.592  -0.168  -0.030  0.00  0.00     0.300 C 
ATOM     20  O   UNL d   1       3.236  -0.715  -0.914  0.00  0.00    -0.259 OA
BRANCH  19  21
ATOM     21  O   UNL d   1       3.111   0.385   1.093  0.00  0.00    -0.318 OA
BRANCH  21  22
ATOM     22  C   UNL d   1       4.454  -0.004   1.415  0.00  0.00     0.174 C 
ATOM     23  C   UNL d   1       4.400  -1.276   2.241  0.00  0.00     0.034 C 
ENDBRANCH  21  22
ENDBRANCH  19  21
ENDBRANCH   1  19
TORSDOF 8
