REMARK  6 active torsions:
REMARK  status: ('A' for Active; 'I' for Inactive)
REMARK       I    between atoms: N_3  and  C_1 
REMARK    1  A    between atoms: C_5  and  C_1 
REMARK    2  A    between atoms: C_2  and  C_4 
REMARK    3  A    between atoms: C_7  and  N_3 
REMARK    4  A    between atoms: O_8  and  C_6 
REMARK    5  A    between atoms: C_19  and  O_8 
REMARK    6  A    between atoms: C_11  and  C_13 
ROOT
ATOM      1  C   UNL d   1       0.581   1.288   3.496  0.00  0.00     0.175 A 
ATOM      2  C   UNL d   1       0.973   1.411   2.153  0.00  0.00     0.087 A 
ATOM      3  N   UNL d   1       1.213   1.928   4.521  0.00  0.00    -0.345 N 
ATOM      4  HN  UNL d   1       0.870   1.849   5.479  1.00  0.00     0.167 HD
ATOM      5  C   UNL d   1       2.132   2.169   1.915  0.00  0.00     0.035 A 
ATOM      6  C   UNL d   1       2.298   2.664   4.236  0.00  0.00     0.090 A 
ATOM      7  C   UNL d   1       2.804   2.802   2.961  0.00  0.00     0.019 A 
ENDROOT
BRANCH   2   8
ATOM      8  N   UNL d   1       0.347   0.871   0.990  0.00  0.00    -0.319 N 
ATOM      9  C   UNL d   1      -0.858   0.204   0.878  0.00  0.00     0.257 C 
ATOM     10  O   UNL d   1      -1.662  -0.080   1.754  0.00  0.00    -0.267 OA
ATOM     11  H   UNL d   1       0.824   1.071   0.119  0.00  0.00     0.169 HD
BRANCH   9  12
ATOM     12  C   UNL d   1      -1.219  -0.240  -0.490  0.00  0.00     0.047 A 
ATOM     13  C   UNL d   1      -2.523  -0.092  -0.992  0.00  0.00     0.063 A 
ATOM     14  C   UNL d   1      -2.843  -0.716  -2.218  0.00  0.00     0.017 A 
ATOM     15  C   UNL d   1      -1.884  -1.430  -2.938  0.00  0.00     0.001 A 
ATOM     16  C   UNL d   1      -0.587  -1.533  -2.450  0.00  0.00     0.001 A 
ATOM     17  C   UNL d   1      -0.254  -0.951  -1.226  0.00  0.00     0.018 A 
BRANCH  13  18
ATOM     18  C   UNL d   1      -3.622   0.694  -0.311  0.00  0.00     0.418 C 
ATOM     19  F   UNL d   1      -3.238   1.552   0.666  0.00  0.00    -0.166 F 
ATOM     20  F   UNL d   1      -4.271   1.492  -1.218  0.00  0.00    -0.166 F 
ATOM     21  F   UNL d   1      -4.594  -0.105   0.209  0.00  0.00    -0.166 F 
ENDBRANCH  13  18
ENDBRANCH   9  12
ENDBRANCH   2   8
BRANCH   1  22
ATOM     22  O   UNL d   1      -0.517   0.527   3.819  0.00  0.00    -0.292 OA
BRANCH  22  23
ATOM     23  C   UNL d   1      -0.598  -0.094   5.041  0.00  0.00     0.077 A 
ATOM     24  C   UNL d   1      -1.884  -0.264   5.545  0.00  0.00     0.038 A 
ATOM     25  C   UNL d   1      -2.087  -0.939   6.753  0.00  0.00     0.011 A 
ATOM     26  C   UNL d   1      -1.008  -1.476   7.483  0.00  0.00    -0.050 A 
ATOM     27  C   UNL d   1       0.279  -1.302   6.948  0.00  0.00     0.011 A 
ATOM     28  C   UNL d   1       0.482  -0.634   5.734  0.00  0.00     0.038 A 
BRANCH  26  29
ATOM     29  C   UNL d   1      -1.264  -2.239   8.794  0.00  0.00    -0.024 C 
ATOM     30  C   UNL d   1       0.025  -2.773   9.458  0.00  0.00     0.019 C 
ATOM     31  C   UNL d   1      -1.958  -1.315   9.817  0.00  0.00     0.019 C 
ATOM     32  C   UNL d   1      -2.170  -3.458   8.515  0.00  0.00     0.019 C 
ENDBRANCH  26  29
ENDBRANCH  22  23
ENDBRANCH   1  22
TORSDOF 6
