REMARK  3 active torsions:
REMARK  status: ('A' for Active; 'I' for Inactive)
REMARK    1  A    between atoms: C_2  and  C_1 
REMARK       I    between atoms: N_5  and  C_1 
REMARK    2  A    between atoms: C_3  and  C_4 
REMARK    3  A    between atoms: C_13  and  N_5 
ROOT
ATOM      1  C   UNL d   1      -3.366  -0.330   1.112  0.00  0.00     0.070 A 
ATOM      2  N   UNL d   1      -6.490   0.906   2.314  0.00  0.00    -0.191 NA
ATOM      3  C   UNL d   1      -5.379   0.850   1.982  0.00  0.00     0.100 C 
ATOM      4  C   UNL d   1      -3.996   0.823   1.598  0.00  0.00     0.059 A 
ATOM      5  C   UNL d   1      -1.993  -0.266   0.787  0.00  0.00     0.047 A 
ATOM      6  C   UNL d   1      -1.244   0.904   0.945  0.00  0.00     0.035 A 
ATOM      7  C   UNL d   1      -3.252   2.006   1.743  0.00  0.00     0.026 A 
ATOM      8  C   UNL d   1      -1.889   2.043   1.426  0.00  0.00     0.031 A 
ENDROOT
BRANCH   1   9
ATOM      9  C   UNL d   1      -4.055  -1.659   0.913  0.00  0.00     0.419 C 
ATOM     10  F   UNL d   1      -5.350  -1.703   1.316  0.00  0.00    -0.166 F 
ATOM     11  F   UNL d   1      -4.061  -2.041  -0.393  0.00  0.00    -0.166 F 
ATOM     12  F   UNL d   1      -3.429  -2.663   1.592  0.00  0.00    -0.166 F 
ENDBRANCH   1   9
BRANCH   6  13
ATOM     13  N   UNL d   1       0.143   0.980   0.685  0.00  0.00    -0.323 N 
ATOM     14  C   UNL d   1       0.915   0.004   0.065  0.00  0.00     0.262 C 
ATOM     15  O   UNL d   1       0.451  -0.989  -0.484  0.00  0.00    -0.267 OA
ATOM     16  H   UNL d   1       0.610   1.829   0.987  0.00  0.00     0.169 HD
BRANCH  14  17
ATOM     17  C   UNL d   1       2.392   0.194   0.062  0.00  0.00     0.109 A 
ATOM     18  C   UNL d   1       3.028   1.220   0.765  0.00  0.00     0.135 A 
ATOM     19  F   UNL d   1       2.318   2.123   1.460  0.00  0.00    -0.205 F 
ATOM     20  C   UNL d   1       4.420   1.345   0.773  0.00  0.00     0.043 A 
ATOM     21  C   UNL d   1       5.206   0.435   0.069  0.00  0.00     0.006 A 
ATOM     22  C   UNL d   1       4.593  -0.593  -0.638  0.00  0.00     0.043 A 
ATOM     23  C   UNL d   1       3.201  -0.710  -0.638  0.00  0.00     0.135 A 
ATOM     24  F   UNL d   1       2.680  -1.725  -1.341  0.00  0.00    -0.205 F 
ENDBRANCH  14  17
ENDBRANCH   6  13
TORSDOF 3
