REMARK  2 active torsions:
REMARK  status: ('A' for Active; 'I' for Inactive)
REMARK    1  A    between atoms: O_19  and  C_12 
REMARK    2  A    between atoms: O_20  and  C_16 
ROOT
ATOM      1  C   UNL d   1       0.814  -0.093  -0.587  0.00  0.00    -0.046 C 
ATOM      2  C   UNL d   1       3.784   0.228  -0.858  0.00  0.00    -0.011 C 
ATOM      3  C   UNL d   1       1.458   1.274  -0.435  0.00  0.00     0.024 C 
ATOM      4  C   UNL d   1       2.925   1.150   0.063  0.00  0.00     0.005 C 
ATOM      5  C   UNL d   1      -0.643  -0.232  -0.276  0.00  0.00    -0.023 A 
ATOM      6  C   UNL d   1       1.553  -1.083  -1.120  0.00  0.00    -0.018 C 
ATOM      7  C   UNL d   1      -1.428   0.929  -0.128  0.00  0.00    -0.045 A 
ATOM      8  C   UNL d   1       2.993  -0.924  -1.533  0.00  0.00     0.040 C 
ATOM      9  C   UNL d   1       0.604   2.208   0.435  0.00  0.00     0.014 C 
ATOM     10  C   UNL d   1       3.637   2.526   0.041  0.00  0.00     0.009 C 
ATOM     11  C   UNL d   1      -1.280  -1.472  -0.107  0.00  0.00     0.015 A 
ATOM     12  C   UNL d   1       4.334   1.253  -1.881  0.00  0.00     0.127 C 
ATOM     13  C   UNL d   1      -0.798   2.294  -0.163  0.00  0.00     0.040 C 
ATOM     14  C   UNL d   1      -2.822   0.838   0.052  0.00  0.00     0.044 A 
ATOM     15  C   UNL d   1       4.732   2.443  -1.012  0.00  0.00     0.033 C 
ATOM     16  C   UNL d   1      -3.423  -0.403   0.168  0.00  0.00     0.066 A 
ATOM     17  C   UNL d   1      -2.660  -1.561   0.118  0.00  0.00     0.037 A 
ATOM     18  C   UNL d   1       4.964  -0.415  -0.081  0.00  0.00     0.018 C 
ENDROOT
BRANCH  12  19
ATOM     19  O   UNL d   1       5.424   0.750  -2.630  0.00  0.00    -0.395 OA
ATOM     20  H   UNL d   1       6.140   1.407  -2.613  0.00  0.00     0.210 HD
ENDBRANCH  12  19
BRANCH  16  21
ATOM     21  O   UNL d   1      -4.772  -0.439   0.348  0.00  0.00    -0.361 OA
ATOM     22  H   UNL d   1      -5.056  -1.362   0.374  0.00  0.00     0.217 HD
ENDBRANCH  16  21
TORSDOF 2
