REMARK  2 active torsions:
REMARK  status: ('A' for Active; 'I' for Inactive)
REMARK    1  A    between atoms: C_5  and  N_1 
REMARK    2  A    between atoms: C_6  and  C_5 
ROOT
ATOM      1  N   UNL d   1       0.368  -1.006   0.045  0.00  0.00    -0.296 N 
ATOM      2  C   UNL d   1       0.295  -0.347   1.250  0.00  0.00     0.144 A 
ATOM      3  C   UNL d   1       0.477  -0.226  -1.091  0.00  0.00     0.235 A 
ATOM      4  S   UNL d   1       0.402   1.387   1.007  0.00  0.00    -0.091 SA
ATOM      5  S   UNL d   1       0.103  -1.000   2.775  0.00  0.00    -0.052 SA
ATOM      6  C   UNL d   1       0.606   1.238  -0.773  0.00  0.00     0.185 A 
ATOM      7  O   UNL d   1       0.450  -0.642  -2.245  0.00  0.00    -0.272 OA
ENDROOT
BRANCH   1   8
ATOM      8  C   UNL d   1       0.298  -2.457  -0.107  0.00  0.00     0.198 C 
BRANCH   8   9
ATOM      9  C   UNL d   1       1.631  -3.071   0.149  0.00  0.00     0.070 A 
ATOM     10  O   UNL d   1       2.638  -2.747  -0.713  0.00  0.00    -0.325 OA
ATOM     11  C   UNL d   1       3.739  -3.437  -0.318  0.00  0.00     0.142 A 
ATOM     12  C   UNL d   1       3.456  -4.198   0.793  0.00  0.00     0.027 A 
ATOM     13  C   UNL d   1       2.095  -3.961   1.097  0.00  0.00     0.036 A 
ENDBRANCH   8   9
ENDBRANCH   1   8
TORSDOF 2
