REMARK  5 active torsions:
REMARK  status: ('A' for Active; 'I' for Inactive)
REMARK    1  A    between atoms: C_5  and  C_1 
REMARK    2  A    between atoms: C_8  and  C_2 
REMARK       I    between atoms: N_9  and  C_5 
REMARK    3  A    between atoms: C_11  and  C_6 
REMARK       I    between atoms: C_7  and  N_9 
REMARK    4  A    between atoms: C_10  and  C_7 
REMARK    5  A    between atoms: O_24  and  C_13 
ROOT
ATOM      1  C   UNL d   1       0.867   0.692   0.548  0.00  0.00     0.073 A 
ATOM      2  C   UNL d   1      -0.385   1.224   0.253  0.00  0.00     0.175 A 
ATOM      3  O   UNL d   1      -1.337   0.239   0.303  0.00  0.00    -0.304 OA
ATOM      4  C   UNL d   1       0.635  -0.699   0.765  0.00  0.00     0.058 A 
ATOM      5  C   UNL d   1      -0.716  -0.932   0.616  0.00  0.00     0.087 A 
ENDROOT
BRANCH   1   6
ATOM      6  C   UNL d   1       2.111   1.440   0.509  0.00  0.00     0.261 C 
ATOM      7  N   UNL d   1       3.223   1.050   1.240  0.00  0.00    -0.289 N 
ATOM      8  C   UNL d   1       3.342   0.345   2.431  0.00  0.00     0.261 C 
ATOM      9  H   UNL d   1       3.990   1.665   1.009  0.00  0.00     0.172 HD
ATOM     10  O   UNL d   1       2.559  -0.501   2.853  0.00  0.00    -0.267 OA
ATOM     11  O   UNL d   1       2.227   2.451  -0.184  0.00  0.00    -0.267 OA
BRANCH   8  12
ATOM     12  C   UNL d   1       4.623   0.531   3.168  0.00  0.00     0.065 A 
ATOM     13  C   UNL d   1       5.208  -0.558   3.830  0.00  0.00     0.081 A 
ATOM     14  C   UNL d   1       6.423  -0.415   4.499  0.00  0.00     0.037 A 
ATOM     15  C   UNL d   1       7.051   0.829   4.538  0.00  0.00     0.003 A 
ATOM     16  C   UNL d   1       6.464   1.927   3.912  0.00  0.00     0.001 A 
ATOM     17  C   UNL d   1       5.251   1.784   3.229  0.00  0.00     0.020 A 
BRANCH  13  18
ATOM     18  O   UNL d   1       4.644  -1.806   3.860  0.00  0.00    -0.360 OA
ATOM     19  H   UNL d   1       3.705  -1.721   3.585  0.00  0.00     0.217 HD
ENDBRANCH  13  18
ENDBRANCH   8  12
ENDBRANCH   1   6
BRANCH   2  20
ATOM     20  C   UNL d   1      -0.880   2.580  -0.110  0.00  0.00     0.440 C 
ATOM     21  F   UNL d   1      -0.042   3.582   0.254  0.00  0.00    -0.164 F 
ATOM     22  F   UNL d   1      -1.093   2.700  -1.446  0.00  0.00    -0.164 F 
ATOM     23  F   UNL d   1      -2.068   2.857   0.496  0.00  0.00    -0.164 F 
ENDBRANCH   2  20
BRANCH   5  24
ATOM     24  C   UNL d   1      -1.558  -2.122   0.707  0.00  0.00    -0.002 A 
ATOM     25  C   UNL d   1      -1.005  -3.348   1.112  0.00  0.00     0.016 A 
ATOM     26  C   UNL d   1      -1.795  -4.498   1.212  0.00  0.00     0.024 A 
ATOM     27  C   UNL d   1      -3.151  -4.434   0.907  0.00  0.00     0.034 A 
ATOM     28  C   UNL d   1      -3.721  -3.232   0.497  0.00  0.00     0.024 A 
ATOM     29 CL   UNL d   1      -4.124  -5.845   1.040  0.00  0.00    -0.084 Cl
ATOM     30  C   UNL d   1      -2.928  -2.082   0.398  0.00  0.00     0.016 A 
ENDBRANCH   5  24
TORSDOF 5
