REMARK  0 active torsions:
REMARK  status: ('A' for Active; 'I' for Inactive)
ROOT
ATOM      1  N   UNL d   1      -0.917   0.404  -0.058  0.00  0.00    -0.342 N 
ATOM      2  C   UNL d   1      -1.422  -0.857  -0.026  0.00  0.00     0.088 A 
ATOM      3  C   UNL d   1      -0.373  -1.744  -0.017  0.00  0.00    -0.019 A 
ATOM      4  C   UNL d   1       0.433   0.423  -0.039  0.00  0.00     0.045 A 
ATOM      5  C   UNL d   1       0.822  -0.926  -0.009  0.00  0.00    -0.001 A 
ATOM      6  C   UNL d   1      -1.953   1.416  -0.103  0.00  0.00     0.137 C 
ATOM      7  C   UNL d   1      -2.850  -0.832   0.007  0.00  0.00     0.178 C 
ATOM      8  C   UNL d   1      -3.243   0.632   0.207  0.00  0.00     0.105 C 
ATOM      9  O   UNL d   1      -3.625  -1.772  -0.050  0.00  0.00    -0.291 OA
ATOM     10  C   UNL d   1      -0.435  -3.227   0.014  0.00  0.00     0.052 C 
ATOM     11  C   UNL d   1       1.349   1.480  -0.042  0.00  0.00     0.030 A 
ATOM     12  C   UNL d   1       2.201  -1.218   0.029  0.00  0.00     0.014 A 
ATOM     13  C   UNL d   1       2.707   1.157  -0.003  0.00  0.00     0.002 A 
ATOM     14  C   UNL d   1       3.129  -0.170   0.035  0.00  0.00     0.001 A 
ENDROOT
TORSDOF 0
