REMARK  0 active torsions:
REMARK  status: ('A' for Active; 'I' for Inactive)
ROOT
ATOM      1  C   UNL d   1      -1.873   0.591  -0.004  0.00  0.00     0.182 A 
ATOM      2  O   UNL d   1      -0.921   0.722  -0.975  0.00  0.00    -0.263 OA
ATOM      3  N   UNL d   1      -1.681  -0.374   0.846  0.00  0.00    -0.276 N 
ATOM      4  HN  UNL d   1      -2.260  -0.646   1.640  1.00  0.00     0.189 HD
ATOM      5  C   UNL d   1      -0.050  -0.275  -0.684  0.00  0.00     0.235 A 
ATOM      6  N   UNL d   1      -0.516  -0.932   0.413  0.00  0.00    -0.268 N 
ATOM      7  C   UNL d   1      -2.945   1.540  -0.070  0.00  0.00     0.057 A 
ATOM      8  S   UNL d   1      -4.183   1.512   1.115  0.00  0.00    -0.098 SA
ATOM      9  S   UNL d   1       1.300  -0.544  -1.578  0.00  0.00    -0.031 SA
ATOM     10  C   UNL d   1      -3.162   2.545  -0.996  0.00  0.00     0.024 A 
ATOM     11  C   UNL d   1      -5.001   2.827   0.393  0.00  0.00     0.050 A 
ATOM     12  C   UNL d   1      -4.351   3.285  -0.730  0.00  0.00     0.009 A 
ATOM     13  H   UNL d   1      -0.093  -1.727   0.878  0.00  0.00     0.190 HD
ENDROOT
TORSDOF 0
