REMARK  6 active torsions:
REMARK  status: ('A' for Active; 'I' for Inactive)
REMARK    1  A    between atoms: N_2  and  C_1 
REMARK    2  A    between atoms: C_3  and  C_7 
REMARK    3  A    between atoms: S_6  and  C_4 
REMARK    4  A    between atoms: C_10  and  S_6 
REMARK    5  A    between atoms: C_8  and  C_10 
REMARK    6  A    between atoms: O_18  and  C_8 
ROOT
ATOM      1  C   UNL d   1       1.422  -0.009  -0.303  0.00  0.00     0.120 A 
ATOM      2  C   UNL d   1       0.684  -1.190  -0.160  0.00  0.00     0.034 A 
ATOM      3  C   UNL d   1       0.845   1.268  -0.166  0.00  0.00     0.053 A 
ATOM      4  C   UNL d   1      -0.529   1.388   0.081  0.00  0.00     0.050 A 
ATOM      5  C   UNL d   1      -0.698  -1.044   0.051  0.00  0.00     0.022 A 
ATOM      6  C   UNL d   1      -1.296   0.219   0.165  0.00  0.00     0.017 A 
ENDROOT
BRANCH   2   7
ATOM      7  S   UNL d   1       1.245  -2.885  -0.298  0.00  0.00    -0.112 SA
BRANCH   7   8
ATOM      8  C   UNL d   1       2.805  -2.982   0.681  0.00  0.00     0.146 C 
ATOM      9  C   UNL d   1       3.185  -4.457   0.818  0.00  0.00     0.033 C 
BRANCH   8  10
ATOM     10  C   UNL d   1       2.648  -2.389   2.071  0.00  0.00     0.153 C 
ATOM     11  O   UNL d   1       1.795  -2.733   2.880  0.00  0.00    -0.649 OA
BRANCH  10  12
ATOM     12  O   UNL d   1       3.562  -1.441   2.381  0.00  0.00    -0.776 OA
ATOM     13  H   UNL d   1       4.134  -1.121   1.649  0.00  0.00     0.167 HD
ENDBRANCH  10  12
ENDBRANCH   8  10
ENDBRANCH   7   8
ENDBRANCH   2   7
BRANCH   1  14
ATOM     14  N   UNL d   1       2.821  -0.052  -0.655  0.00  0.00    -0.114 N 
ATOM     15  O   UNL d   1       3.113  -0.418  -1.798  0.00  0.00    -0.532 OA
ATOM     16  O   UNL d   1       3.636   0.235   0.236  0.00  0.00    -0.532 OA
ENDBRANCH   1  14
BRANCH   4  17
ATOM     17  C   UNL d   1      -1.191   2.738   0.246  0.00  0.00     0.417 C 
ATOM     18  F   UNL d   1      -0.312   3.776   0.196  0.00  0.00    -0.166 F 
ATOM     19  F   UNL d   1      -2.118   2.983  -0.719  0.00  0.00    -0.166 F 
ATOM     20  F   UNL d   1      -1.842   2.853   1.435  0.00  0.00    -0.166 F 
ENDBRANCH   4  17
TORSDOF 6
