REMARK  8 active torsions:
REMARK  status: ('A' for Active; 'I' for Inactive)
REMARK    1  A    between atoms: C_14  and  N_1 
REMARK    2  A    between atoms: S_16  and  C_2 
REMARK    3  A    between atoms: O_21  and  C_3 
REMARK    4  A    between atoms: C_8  and  C_15 
REMARK    5  A    between atoms: C_19  and  C_13 
REMARK    6  A    between atoms: C_20  and  C_14 
REMARK    7  A    between atoms: C_15  and  C_17 
REMARK    8  A    between atoms: C_17  and  S_16 
ROOT
ATOM      1  N   UNL d   1      -0.158  -1.272  -0.082  0.00  0.00    -0.282 N 
ATOM      2  C   UNL d   1       1.133  -0.791  -0.096  0.00  0.00     0.165 A 
ATOM      3  C   UNL d   1      -0.933  -0.137   0.058  0.00  0.00     0.241 A 
ATOM      4  N   UNL d   1       1.128   0.512   0.070  0.00  0.00    -0.277 N 
ATOM      5  HN  UNL d   1       1.951   1.114   0.107  1.00  0.00     0.189 HD
ATOM      6  N   UNL d   1      -0.174   0.922   0.186  0.00  0.00    -0.263 N 
ATOM      7  HN  UNL d   1      -0.494   1.878   0.343  1.00  0.00     0.190 HD
ENDROOT
BRANCH   2   8
ATOM      8  S   UNL d   1       2.575  -1.720  -0.320  0.00  0.00    -0.084 SA
BRANCH   8   9
ATOM      9  C   UNL d   1       3.870  -0.425  -0.242  0.00  0.00     0.168 C 
BRANCH   9  10
ATOM     10  C   UNL d   1       5.240  -0.989  -0.628  0.00  0.00     0.194 C 
ATOM     11  O   UNL d   1       5.504  -2.190  -0.556  0.00  0.00    -0.289 OA
BRANCH  10  12
ATOM     12  C   UNL d   1       6.245  -0.035  -1.058  0.00  0.00     0.147 A 
ATOM     13  C   UNL d   1       7.511  -0.209  -1.575  0.00  0.00     0.075 A 
ATOM     14  C   UNL d   1       8.020   1.100  -1.782  0.00  0.00     0.068 A 
ATOM     15  N   UNL d   1       7.094   2.006  -1.421  0.00  0.00    -0.260 N 
ATOM     16  O   UNL d   1       6.001   1.298  -0.967  0.00  0.00    -0.234 OA
ATOM     17  HN  UNL d   1       7.182   3.021  -1.474  1.00  0.00     0.195 HD
BRANCH  14  18
ATOM     18  C   UNL d   1       9.336   1.499  -2.300  0.00  0.00    -0.007 A 
ATOM     19  C   UNL d   1       9.517   2.759  -2.894  0.00  0.00     0.014 A 
ATOM     20  C   UNL d   1      10.772   3.153  -3.374  0.00  0.00     0.001 A 
ATOM     21  C   UNL d   1      11.861   2.293  -3.263  0.00  0.00     0.000 A 
ATOM     22  C   UNL d   1      11.699   1.040  -2.678  0.00  0.00     0.001 A 
ATOM     23  C   UNL d   1      10.443   0.643  -2.201  0.00  0.00     0.014 A 
ENDBRANCH  14  18
ENDBRANCH  10  12
ENDBRANCH   9  10
ENDBRANCH   8   9
ENDBRANCH   2   8
BRANCH   1  24
ATOM     24  C   UNL d   1      -0.697  -2.630  -0.026  0.00  0.00     0.124 C 
ATOM     25  C   UNL d   1       0.076  -3.655   0.806  0.00  0.00     0.038 C 
BRANCH  24  26
ATOM     26  C   UNL d   1      -1.057  -3.198  -1.393  0.00  0.00    -0.035 A 
ATOM     27  C   UNL d   1      -0.090  -3.405  -2.388  0.00  0.00     0.009 A 
ATOM     28  C   UNL d   1      -0.411  -4.068  -3.575  0.00  0.00     0.001 A 
ATOM     29  C   UNL d   1      -1.705  -4.530  -3.792  0.00  0.00     0.000 A 
ATOM     30  C   UNL d   1      -2.686  -4.316  -2.828  0.00  0.00     0.001 A 
ATOM     31  C   UNL d   1      -2.367  -3.655  -1.639  0.00  0.00     0.009 A 
ENDBRANCH  24  26
ENDBRANCH   1  24
BRANCH   3  32
ATOM     32  O   UNL d   1      -2.254  -0.087   0.103  0.00  0.00    -0.331 OA
ATOM     33  H   UNL d   1      -2.612  -0.808  -0.437  0.00  0.00     0.221 HD
ENDBRANCH   3  32
TORSDOF 8
