REMARK  6 active torsions:
REMARK  status: ('A' for Active; 'I' for Inactive)
REMARK    1  A    between atoms: C_3  and  C_1 
REMARK    2  A    between atoms: C_2  and  N_4 
REMARK    3  A    between atoms: N_9  and  C_2 
REMARK    4  A    between atoms: N_4  and  C_11 
REMARK    5  A    between atoms: N_5  and  N_9 
REMARK    6  A    between atoms: C_12  and  C_16 
ROOT
ATOM      1  N   UNL d   1      -2.063   1.451   5.499  0.00  0.00    -0.276 N 
ATOM      2  H   UNL d   1      -2.361   2.382   5.778  0.00  0.00     0.189 HD
ENDROOT
BRANCH   1   3
ATOM      3  N   UNL d   1      -2.513   0.352   6.174  0.00  0.00    -0.309 N 
ATOM      4  C   UNL d   1      -3.156   0.591   7.273  0.00  0.00     0.119 C 
ATOM      5  HN  UNL d   1      -2.353  -0.596   5.834  1.00  0.00     0.186 HD
BRANCH   4   6
ATOM      6  C   UNL d   1      -3.893  -0.460   8.026  0.00  0.00    -0.008 A 
ATOM      7  C   UNL d   1      -3.889  -1.840   7.673  0.00  0.00    -0.014 A 
ATOM      8  C   UNL d   1      -4.912  -2.659   8.212  0.00  0.00    -0.025 A 
ATOM      9  C   UNL d   1      -2.948  -2.468   6.819  0.00  0.00     0.013 A 
ATOM     10  C   UNL d   1      -5.058  -3.984   7.768  0.00  0.00     0.012 A 
ATOM     11  C   UNL d   1      -5.790  -2.142   9.178  0.00  0.00     0.012 A 
ATOM     12  C   UNL d   1      -4.165  -4.542   6.854  0.00  0.00     0.001 A 
ATOM     13  C   UNL d   1      -3.084  -3.796   6.411  0.00  0.00     0.001 A 
ATOM     14  C   UNL d   1      -5.695  -0.820   9.603  0.00  0.00     0.002 A 
ATOM     15  C   UNL d   1      -4.767   0.028   9.010  0.00  0.00     0.014 A 
ENDBRANCH   4   6
ENDBRANCH   1   3
BRANCH   1  16
ATOM     16  C   UNL d   1      -1.521   1.311   4.227  0.00  0.00     0.191 C 
ATOM     17  S   UNL d   1      -1.249   2.693   3.336  0.00  0.00    -0.039 SA
BRANCH  16  18
ATOM     18  N   UNL d   1      -1.265  -0.007   3.921  0.00  0.00    -0.332 N 
ATOM     19  H   UNL d   1      -1.356  -0.568   4.763  0.00  0.00     0.168 HD
BRANCH  18  20
ATOM     20  C   UNL d   1      -0.991  -0.695   2.730  0.00  0.00     0.035 A 
ATOM     21  C   UNL d   1      -1.183  -0.168   1.455  0.00  0.00     0.045 A 
ATOM     22  C   UNL d   1      -0.983  -0.953   0.305  0.00  0.00     0.050 A 
ATOM     23  C   UNL d   1      -0.564  -2.287   0.454  0.00  0.00     0.016 A 
ATOM     24  C   UNL d   1      -0.361  -2.820   1.723  0.00  0.00     0.003 A 
ATOM     25  C   UNL d   1      -0.583  -2.030   2.853  0.00  0.00     0.029 A 
BRANCH  22  26
ATOM     26  C   UNL d   1      -1.251  -0.396  -1.067  0.00  0.00     0.417 C 
ATOM     27  F   UNL d   1      -1.661   0.903  -1.067  0.00  0.00    -0.166 F 
ATOM     28  F   UNL d   1      -2.221  -1.089  -1.728  0.00  0.00    -0.166 F 
ATOM     29  F   UNL d   1      -0.152  -0.439  -1.871  0.00  0.00    -0.166 F 
ENDBRANCH  22  26
ENDBRANCH  18  20
ENDBRANCH  16  18
ENDBRANCH   1  16
TORSDOF 6
