REMARK  4 active torsions:
REMARK  status: ('A' for Active; 'I' for Inactive)
REMARK    1  A    between atoms: N_2  and  S_1 
REMARK    2  A    between atoms: C_8  and  S_1 
REMARK    3  A    between atoms: C_3  and  N_9 
REMARK    4  A    between atoms: C_4  and  C_5 
ROOT
ATOM      1  N   UNL d   1       0.477  -1.182  -0.033  0.00  0.00    -0.304 N 
ATOM      2  N   UNL d   1      -1.331  -2.680   1.699  0.00  0.00    -0.265 NA
ATOM      3  C   UNL d   1      -0.981  -0.903  -0.003  0.00  0.00     0.150 C 
ATOM      4  C   UNL d   1       0.796  -2.579   0.384  0.00  0.00     0.150 C 
ATOM      5  C   UNL d   1       0.121  -2.982   1.713  0.00  0.00     0.117 C 
ATOM      6  C   UNL d   1      -1.603  -1.263   1.354  0.00  0.00     0.117 C 
ENDROOT
BRANCH   1   7
ATOM      7  S   UNL d   1       1.566   0.073   0.273  0.00  0.00     0.260 S 
ATOM      8  O   UNL d   1       1.082   1.257  -0.407  0.00  0.00    -0.200 OA
ATOM      9  O   UNL d   1       2.905  -0.424   0.040  0.00  0.00    -0.200 OA
BRANCH   7  10
ATOM     10  C   UNL d   1       1.414   0.375   2.018  0.00  0.00     0.080 A 
ATOM     11  C   UNL d   1       2.161  -0.397   2.912  0.00  0.00     0.037 A 
ATOM     12  C   UNL d   1       1.954  -0.269   4.291  0.00  0.00    -0.025 A 
ATOM     13  C   UNL d   1       2.618  -1.106   5.201  0.00  0.00     0.012 A 
ATOM     14  C   UNL d   1       1.040   0.697   4.773  0.00  0.00    -0.026 A 
ATOM     15  C   UNL d   1       2.370  -1.006   6.569  0.00  0.00     0.001 A 
ATOM     16  C   UNL d   1       1.468  -0.059   7.046  0.00  0.00     0.001 A 
ATOM     17  C   UNL d   1       0.812   0.792   6.155  0.00  0.00     0.012 A 
ATOM     18  C   UNL d   1       0.372   1.532   3.859  0.00  0.00     0.014 A 
ATOM     19  C   UNL d   1       0.559   1.377   2.484  0.00  0.00     0.026 A 
ENDBRANCH   7  10
ENDBRANCH   1   7
BRANCH   2  20
ATOM     20  C   UNL d   1      -1.966  -2.973   2.933  0.00  0.00     0.104 A 
ATOM     21  N   UNL d   1      -1.223  -2.968   4.069  0.00  0.00    -0.354 N 
ATOM     22  C   UNL d   1      -1.852  -3.097   5.262  0.00  0.00     0.105 A 
ATOM     23  HN  UNL d   1      -0.209  -2.867   4.025  1.00  0.00     0.166 HD
ATOM     24  C   UNL d   1      -3.222  -3.243   5.404  0.00  0.00     0.065 A 
ATOM     25  C   UNL d   1      -3.982  -3.304   4.236  0.00  0.00     0.044 A 
ATOM     26  C   UNL d   1      -3.358  -3.180   2.994  0.00  0.00     0.073 A 
ATOM     27 CL   UNL d   1      -4.350  -3.299   1.582  0.00  0.00    -0.081 Cl
BRANCH  24  28
ATOM     28  C   UNL d   1      -3.834  -3.329   6.768  0.00  0.00     0.418 C 
ATOM     29  F   UNL d   1      -5.195  -3.337   6.747  0.00  0.00    -0.166 F 
ATOM     30  F   UNL d   1      -3.462  -4.453   7.437  0.00  0.00    -0.166 F 
ATOM     31  F   UNL d   1      -3.481  -2.283   7.563  0.00  0.00    -0.166 F 
ENDBRANCH  24  28
ENDBRANCH   2  20
TORSDOF 4
