REMARK  6 active torsions:
REMARK  status: ('A' for Active; 'I' for Inactive)
REMARK    1  A    between atoms: C_2  and  C_1 
REMARK    2  A    between atoms: C_6  and  C_2 
REMARK    3  A    between atoms: O_22  and  C_2 
REMARK    4  A    between atoms: N_3  and  C_6 
REMARK    5  A    between atoms: C_13  and  N_4 
REMARK    6  A    between atoms: C_12  and  C_13 
ROOT
ATOM      1  N   UNL d   1      -1.743  -0.933  -1.064  0.00  0.00     0.094 N 
ATOM      2  N   UNL d   1      -1.379  -3.190  -3.073  0.00  0.00     0.096 N 
ATOM      3  C   UNL d   1      -1.024  -2.190  -0.760  0.00  0.00     0.302 C 
ATOM      4  C   UNL d   1      -2.711  -1.204  -2.155  0.00  0.00     0.302 C 
ATOM      5  C   UNL d   1      -2.120  -1.945  -3.388  0.00  0.00     0.303 C 
ATOM      6  C   UNL d   1      -0.408  -2.892  -1.993  0.00  0.00     0.303 C 
ENDROOT
BRANCH   2   7
ATOM      7  C   UNL d   1      -2.333  -4.255  -2.710  0.00  0.00     0.311 C 
BRANCH   7   8
ATOM      8  C   UNL d   1      -1.701  -5.595  -2.386  0.00  0.00    -0.027 A 
ATOM      9  C   UNL d   1      -1.860  -6.148  -1.103  0.00  0.00     0.048 A 
ATOM     10  C   UNL d   1      -1.312  -7.389  -0.857  0.00  0.00     0.105 A 
ATOM     11  O   UNL d   1      -1.385  -8.067   0.319  0.00  0.00    -0.323 OA
ATOM     12  C   UNL d   1      -0.622  -8.082  -1.823  0.00  0.00     0.105 A 
ATOM     13  C   UNL d   1      -0.668  -9.272  -0.022  0.00  0.00     0.352 A 
ATOM     14  O   UNL d   1      -0.178  -9.287  -1.379  0.00  0.00    -0.323 OA
ATOM     15  C   UNL d   1      -0.436  -7.569  -3.089  0.00  0.00     0.040 A 
ATOM     16  C   UNL d   1      -0.982  -6.311  -3.370  0.00  0.00     0.012 A 
ENDBRANCH   7   8
ENDBRANCH   2   7
BRANCH   1  17
ATOM     17  C   UNL d   1      -0.862   0.200  -1.436  0.00  0.00     0.313 C 
BRANCH  17  18
ATOM     18  C   UNL d   1       0.117   0.709  -0.352  0.00  0.00     0.253 C 
BRANCH  18  19
ATOM     19  C   UNL d   1       0.709   2.071  -0.777  0.00  0.00     0.414 C 
ATOM     20  F   UNL d   1       0.272   2.478  -1.990  0.00  0.00    -0.168 F 
ATOM     21  F   UNL d   1       2.061   1.991  -0.863  0.00  0.00    -0.168 F 
ATOM     22  F   UNL d   1       0.416   3.043   0.113  0.00  0.00    -0.168 F 
ENDBRANCH  18  19
BRANCH  18  23
ATOM     23  O   UNL d   1       1.157  -0.265  -0.110  0.00  0.00    -0.385 OA
ATOM     24  H   UNL d   1       1.852  -0.133  -0.783  0.00  0.00     0.210 HD
ENDBRANCH  18  23
ENDBRANCH  17  18
ENDBRANCH   1  17
TORSDOF 6
