REMARK  8 active torsions:
REMARK  status: ('A' for Active; 'I' for Inactive)
REMARK    1  A    between atoms: C_10  and  N_1 
REMARK    2  A    between atoms: N_3  and  C_2 
REMARK    3  A    between atoms: S_21  and  C_4 
REMARK    4  A    between atoms: C_19  and  C_5 
REMARK    5  A    between atoms: O_23  and  C_12 
REMARK    6  A    between atoms: C_14  and  S_17 
REMARK    7  A    between atoms: O_24  and  C_15 
REMARK    8  A    between atoms: S_17  and  C_19 
ROOT
ATOM      1  N   UNL d   1      -0.433   0.762  -0.027  0.00  0.00    -0.279 N 
ATOM      2  C   UNL d   1       0.829   0.226   0.220  0.00  0.00     0.164 A 
ATOM      3  C   UNL d   1      -1.297  -0.320   0.207  0.00  0.00     0.114 A 
ATOM      4  N   UNL d   1       0.736  -1.041   0.539  0.00  0.00    -0.278 N 
ATOM      5  HN  UNL d   1       1.515  -1.666   0.746  1.00  0.00     0.189 HD
ATOM      6  N   UNL d   1      -0.581  -1.377   0.547  0.00  0.00    -0.286 N 
ATOM      7  HN  UNL d   1      -0.956  -2.297   0.778  1.00  0.00     0.188 HD
ENDROOT
BRANCH   3   8
ATOM      8  C   UNL d   1      -2.784  -0.330  -0.013  0.00  0.00     0.158 C 
BRANCH   8   9
ATOM      9  S   UNL d   1      -3.524  -2.003   0.122  0.00  0.00    -0.119 SA
BRANCH   9  10
ATOM     10  C   UNL d   1      -5.312  -1.772   0.023  0.00  0.00     0.037 A 
ATOM     11  C   UNL d   1      -6.055  -2.932   0.350  0.00  0.00     0.060 A 
ATOM     12  C   UNL d   1      -7.457  -2.982   0.289  0.00  0.00     0.102 A 
ATOM     13  C   UNL d   1      -8.117  -1.816  -0.083  0.00  0.00     0.138 A 
ATOM     14  C   UNL d   1      -7.413  -0.645  -0.415  0.00  0.00     0.077 A 
ATOM     15  C   UNL d   1      -6.012  -0.612  -0.364  0.00  0.00     0.087 A 
BRANCH  12  16
ATOM     16  O   UNL d   1      -7.978  -4.186   0.664  0.00  0.00    -0.353 OA
ATOM     17  C   UNL d   1      -9.129  -4.671  -0.021  0.00  0.00     0.210 C 
ENDBRANCH  12  16
BRANCH  13  18
ATOM     18  N   UNL d   1      -9.561  -1.713  -0.090  0.00  0.00    -0.113 N 
ATOM     19  O   UNL d   1     -10.091  -1.419  -1.166  0.00  0.00    -0.532 OA
ATOM     20  O   UNL d   1     -10.154  -1.883   0.983  0.00  0.00    -0.532 OA
ENDBRANCH  13  18
BRANCH  15  21
ATOM     21  O   UNL d   1      -5.285   0.505  -0.671  0.00  0.00    -0.355 OA
ATOM     22  C   UNL d   1      -5.977   1.689  -1.049  0.00  0.00     0.210 C 
ENDBRANCH  15  21
ENDBRANCH   9  10
ENDBRANCH   8   9
ENDBRANCH   3   8
BRANCH   1  23
ATOM     23  C   UNL d   1      -0.766   2.102  -0.415  0.00  0.00     0.044 A 
ATOM     24  C   UNL d   1      -1.934   2.719   0.054  0.00  0.00     0.054 A 
ATOM     25  C   UNL d   1      -2.210   4.050  -0.277  0.00  0.00     0.036 A 
ATOM     26 CL   UNL d   1      -3.652   4.789   0.305  0.00  0.00    -0.084 Cl
ATOM     27  C   UNL d   1      -1.328   4.790  -1.057  0.00  0.00     0.024 A 
ATOM     28  C   UNL d   1      -0.175   4.183  -1.544  0.00  0.00     0.004 A 
ATOM     29  C   UNL d   1       0.092   2.842  -1.245  0.00  0.00     0.030 A 
ENDBRANCH   1  23
BRANCH   2  30
ATOM     30  S   UNL d   1       2.347   1.068   0.314  0.00  0.00    -0.105 SA
ATOM     31  H   UNL d   1       1.911   2.324   0.468  0.00  0.00     0.110 HD
ENDBRANCH   2  30
TORSDOF 8
