REMARK  5 active torsions:
REMARK  status: ('A' for Active; 'I' for Inactive)
REMARK       I    between atoms: C_3  and  N_1 
REMARK    1  A    between atoms: C_7  and  C_2 
REMARK    2  A    between atoms: O_9  and  C_3 
REMARK    3  A    between atoms: O_17  and  C_7 
REMARK    4  A    between atoms: C_15  and  O_9 
REMARK    5  A    between atoms: C_22  and  O_17 
ROOT
ATOM      1  N   UNL d   1      -1.622  -0.604  -0.256  0.00  0.00    -0.251 N 
ATOM      2  C   UNL d   1      -2.423   0.528  -0.116  0.00  0.00     0.120 A 
ATOM      3  C   UNL d   1      -2.032  -1.951  -0.265  0.00  0.00     0.373 C 
ATOM      4  C   UNL d   1      -0.277  -0.201  -0.265  0.00  0.00     0.058 A 
ATOM      5  C   UNL d   1      -0.236   1.183  -0.070  0.00  0.00     0.015 A 
ATOM      6  C   UNL d   1      -1.578   1.618   0.022  0.00  0.00     0.052 A 
ATOM      7  C   UNL d   1       1.026   1.809   0.001  0.00  0.00     0.048 A 
ATOM      8  C   UNL d   1       0.913  -0.958  -0.341  0.00  0.00     0.055 A 
ATOM      9  C   UNL d   1       2.209   1.084  -0.077  0.00  0.00     0.048 A 
ATOM     10  O   UNL d   1      -1.445  -2.781  -0.938  0.00  0.00    -0.237 OA
ATOM     11  C   UNL d   1       2.140  -0.293  -0.237  0.00  0.00     0.037 A 
ATOM     12 CL   UNL d   1       1.024   3.505   0.218  0.00  0.00    -0.083 Cl
ATOM     13 CL   UNL d   1       3.599  -1.208  -0.284  0.00  0.00    -0.084 Cl
ENDROOT
BRANCH   2  14
ATOM     14  C   UNL d   1      -3.868   0.548  -0.200  0.00  0.00     0.310 C 
ATOM     15  O   UNL d   1      -4.579  -0.365  -0.601  0.00  0.00    -0.258 OA
BRANCH  14  16
ATOM     16  O   UNL d   1      -4.308   1.786   0.153  0.00  0.00    -0.317 OA
BRANCH  16  17
ATOM     17  C   UNL d   1      -5.675   2.121  -0.120  0.00  0.00     0.175 C 
ATOM     18  C   UNL d   1      -6.488   2.086   1.157  0.00  0.00     0.034 C 
ENDBRANCH  16  17
ENDBRANCH  14  16
ENDBRANCH   2  14
BRANCH   3  19
ATOM     19  O   UNL d   1      -2.887  -2.137   0.765  0.00  0.00    -0.293 OA
BRANCH  19  20
ATOM     20  C   UNL d   1      -3.084  -3.441   1.368  0.00  0.00     0.061 C 
ATOM     21  C   UNL d   1      -3.423  -3.105   2.828  0.00  0.00     0.046 C 
ATOM     22  C   UNL d   1      -4.268  -4.147   0.709  0.00  0.00     0.046 C 
ATOM     23  C   UNL d   1      -1.840  -4.343   1.363  0.00  0.00     0.046 C 
ENDBRANCH  19  20
ENDBRANCH   3  19
TORSDOF 5
