REMARK  4 active torsions:
REMARK  status: ('A' for Active; 'I' for Inactive)
REMARK    1  A    between atoms: C_8  and  C_3 
REMARK    2  A    between atoms: C_5  and  S_16 
REMARK    3  A    between atoms: C_21  and  C_9 
REMARK    4  A    between atoms: S_16  and  C_21 
ROOT
ATOM      1  N   UNL d   1       1.290   0.232   0.028  0.00  0.00    -0.322 N 
ATOM      2  HN  UNL d   1       2.286   0.450   0.027  1.00  0.00     0.169 HD
ATOM      3  C   UNL d   1       0.229   1.090   0.070  0.00  0.00     0.138 A 
ATOM      4  N   UNL d   1      -0.974   0.502   0.034  0.00  0.00    -0.242 N 
ATOM      5  HN  UNL d   1      -1.895   0.940   0.045  1.00  0.00     0.196 HD
ATOM      6  C   UNL d   1       0.706  -0.946  -0.012  0.00  0.00     0.158 A 
ATOM      7  O   UNL d   1      -0.658  -0.865  -0.022  0.00  0.00    -0.222 OA
ENDROOT
BRANCH   6   8
ATOM      8  C   UNL d   1       1.313  -2.305  -0.013  0.00  0.00     0.169 C 
BRANCH   8   9
ATOM      9  S   UNL d   1       3.130  -2.156   0.034  0.00  0.00    -0.084 SA
BRANCH   9  10
ATOM     10  C   UNL d   1       3.637  -3.794   0.088  0.00  0.00     0.162 A 
ATOM     11  N   UNL d   1       4.949  -4.162   0.155  0.00  0.00    -0.326 N 
ATOM     12  C   UNL d   1       4.943  -5.526   0.178  0.00  0.00     0.201 A 
ATOM     13  C   UNL d   1       6.132  -3.345   0.195  0.00  0.00     0.159 C 
ATOM     14  N   UNL d   1       3.703  -5.962   0.132  0.00  0.00    -0.294 N 
ATOM     15  N   UNL d   1       2.874  -4.862   0.075  0.00  0.00    -0.279 N 
ATOM     16  HN  UNL d   1       3.408  -6.938   0.137  1.00  0.00     0.187 HD
ATOM     17  HN  UNL d   1       1.855  -4.876   0.030  1.00  0.00     0.189 HD
ENDBRANCH   9  10
ENDBRANCH   8   9
ENDBRANCH   6   8
BRANCH   3  18
ATOM     18  C   UNL d   1       0.486   2.526   0.194  0.00  0.00     0.017 A 
ATOM     19  C   UNL d   1       1.746   3.091   0.214  0.00  0.00     0.065 A 
ATOM     20  S   UNL d   1       1.694   4.787   0.411  0.00  0.00    -0.113 SA
ATOM     21  C   UNL d   1      -0.017   4.780   0.468  0.00  0.00     0.050 A 
ATOM     22  C   UNL d   1      -0.536   3.510   0.334  0.00  0.00     0.023 A 
ENDBRANCH   3  18
TORSDOF 4
