REMARK  2 active torsions:
REMARK  status: ('A' for Active; 'I' for Inactive)
REMARK    1  A    between atoms: C_2  and  C_1 
REMARK    2  A    between atoms: N_8  and  C_2 
ROOT
ATOM      1  C   UNL d   1       0.338  -1.139  -0.027  0.00  0.00     0.048 A 
ATOM      2  C   UNL d   1       1.248  -0.079   0.007  0.00  0.00    -0.041 A 
ATOM      3  S   UNL d   1      -1.291  -0.547  -0.020  0.00  0.00    -0.098 SA
ATOM      4  C   UNL d   1      -0.797   1.077  -0.019  0.00  0.00     0.051 A 
ATOM      5  C   UNL d   1       0.570   1.193  -0.003  0.00  0.00     0.015 A 
ATOM      6  C   UNL d   1       2.741  -0.147   0.065  0.00  0.00     0.049 C 
ENDROOT
BRANCH   1   7
ATOM      7  C   UNL d   1       0.517  -2.580  -0.066  0.00  0.00     0.112 C 
ATOM      8  S   UNL d   1       1.719  -3.328  -0.944  0.00  0.00    -0.059 SA
BRANCH   7   9
ATOM      9  N   UNL d   1      -0.381  -3.350   0.623  0.00  0.00    -0.389 N 
ATOM     10  H   UNL d   1      -1.173  -2.936   1.095  0.00  0.00     0.157 HD
ATOM     11  H   UNL d   1      -0.323  -4.359   0.559  0.00  0.00     0.157 HD
ENDBRANCH   7   9
ENDBRANCH   1   7
TORSDOF 2
