REMARK  2 active torsions:
REMARK  status: ('A' for Active; 'I' for Inactive)
REMARK    1  A    between atoms: C_5  and  N_1 
REMARK    2  A    between atoms: C_9  and  C_5 
ROOT
ATOM      1  N   UNL d   1       0.466  -0.783  -0.092  0.00  0.00    -0.289 N 
ATOM      2  C   UNL d   1       0.568   0.016  -1.196  0.00  0.00     0.177 A 
ATOM      3  C   UNL d   1       0.533  -0.017   1.048  0.00  0.00     0.244 A 
ATOM      4  N   UNL d   1       0.734   1.321  -0.783  0.00  0.00    -0.358 N 
ATOM      5  S   UNL d   1       0.496  -0.373  -2.805  0.00  0.00    -0.041 SA
ATOM      6  C   UNL d   1       0.715   1.438   0.647  0.00  0.00     0.225 A 
ATOM      7  O   UNL d   1       0.438  -0.410   2.204  0.00  0.00    -0.271 OA
ATOM      8  H   UNL d   1       0.819   2.090  -1.438  0.00  0.00     0.162 HD
ENDROOT
BRANCH   1   9
ATOM      9  C   UNL d   1       0.265  -2.223  -0.044  0.00  0.00     0.173 C 
BRANCH   9  10
ATOM     10  C   UNL d   1       1.565  -2.991   0.061  0.00  0.00    -0.040 A 
ATOM     11  C   UNL d   1       2.102  -3.313   1.317  0.00  0.00     0.009 A 
ATOM     12  C   UNL d   1       3.296  -4.031   1.415  0.00  0.00     0.001 A 
ATOM     13  C   UNL d   1       3.974  -4.423   0.263  0.00  0.00     0.000 A 
ATOM     14  C   UNL d   1       3.457  -4.098  -0.990  0.00  0.00     0.001 A 
ATOM     15  C   UNL d   1       2.259  -3.389  -1.090  0.00  0.00     0.009 A 
ENDBRANCH   9  10
ENDBRANCH   1   9
TORSDOF 2
