REMARK  4 active torsions:
REMARK  status: ('A' for Active; 'I' for Inactive)
REMARK       I    between atoms: N_2  and  C_1 
REMARK    1  A    between atoms: C_5  and  C_1 
REMARK    2  A    between atoms: C_6  and  N_2 
REMARK    3  A    between atoms: C_7  and  N_3 
REMARK    4  A    between atoms: C_12  and  C_7 
ROOT
ATOM      1  N   UNL d   1       1.124  -5.270  -0.203  0.00  0.00     0.092 N 
ATOM      2  C   UNL d   1       1.130  -2.382   0.063  0.00  0.00     0.088 C 
ATOM      3  C   UNL d   1       1.136  -3.055  -1.314  0.00  0.00     0.055 C 
ATOM      4  C   UNL d   1       0.934  -3.292   1.285  0.00  0.00     0.055 C 
ATOM      5  C   UNL d   1       0.622  -4.488  -1.347  0.00  0.00     0.275 C 
ATOM      6  C   UNL d   1       0.483  -4.725   1.003  0.00  0.00     0.275 C 
ENDROOT
BRANCH   2   7
ATOM      7  N   UNL d   1       0.315  -1.163   0.108  0.00  0.00    -0.352 N 
ATOM      8  C   UNL d   1      -1.055  -1.126  -0.018  0.00  0.00     0.252 C 
ATOM      9  O   UNL d   1      -1.744  -2.127  -0.190  0.00  0.00    -0.268 OA
ATOM     10  H   UNL d   1       0.822  -0.289   0.069  0.00  0.00     0.163 HD
BRANCH   8  11
ATOM     11  C   UNL d   1      -1.680   0.236   0.024  0.00  0.00     0.032 A 
ATOM     12  C   UNL d   1      -2.904   0.437  -0.629  0.00  0.00     0.017 A 
ATOM     13  C   UNL d   1      -3.515   1.694  -0.617  0.00  0.00     0.001 A 
ATOM     14  C   UNL d   1      -2.913   2.759   0.053  0.00  0.00     0.000 A 
ATOM     15  C   UNL d   1      -1.705   2.565   0.720  0.00  0.00     0.001 A 
ATOM     16  C   UNL d   1      -1.091   1.308   0.711  0.00  0.00     0.017 A 
ENDBRANCH   8  11
ENDBRANCH   2   7
BRANCH   1  17
ATOM     17  C   UNL d   1       0.767  -6.691  -0.412  0.00  0.00     0.311 C 
BRANCH  17  18
ATOM     18  C   UNL d   1       1.270  -7.652   0.648  0.00  0.00    -0.030 A 
ATOM     19  C   UNL d   1       0.359  -8.386   1.424  0.00  0.00     0.009 A 
ATOM     20  C   UNL d   1       0.808  -9.319   2.361  0.00  0.00     0.001 A 
ATOM     21  C   UNL d   1       2.173  -9.533   2.532  0.00  0.00     0.000 A 
ATOM     22  C   UNL d   1       3.091  -8.810   1.772  0.00  0.00     0.001 A 
ATOM     23  C   UNL d   1       2.643  -7.872   0.838  0.00  0.00     0.009 A 
ENDBRANCH  17  18
ENDBRANCH   1  17
TORSDOF 4
