REMARK  10 active torsions:
REMARK  status: ('A' for Active; 'I' for Inactive)
REMARK    1  A    between atoms: C_6  and  C_1 
REMARK    2  A    between atoms: C_11  and  C_2 
REMARK    3  A    between atoms: C_21  and  N_3 
REMARK    4  A    between atoms: N_7  and  C_23 
REMARK    5  A    between atoms: C_9  and  C_12 
REMARK    6  A    between atoms: C_10  and  C_13 
REMARK    7  A    between atoms: O_22  and  C_11 
REMARK    8  A    between atoms: C_14  and  C_15 
REMARK    9  A    between atoms: N_40  and  C_15 
REMARK   10  A    between atoms: N_16  and  O_22 
ROOT
ATOM      1  C   UNL d   1       1.033  -1.071  -0.361  0.00  0.00     0.318 C 
ATOM      2  O   UNL d   1       1.327   0.109  -0.511  0.00  0.00    -0.257 OA
ENDROOT
BRANCH   1   3
ATOM      3  C   UNL d   1      -0.308  -1.537  -0.061  0.00  0.00     0.091 C 
ATOM      4  C   UNL d   1      -1.423  -0.787   0.298  0.00  0.00     0.158 C 
ATOM      5  N   UNL d   1      -2.489  -1.673   0.385  0.00  0.00    -0.251 N 
ATOM      6  N   UNL d   1      -2.063  -2.957   0.253  0.00  0.00    -0.303 N 
ATOM      7  C   UNL d   1      -0.778  -2.862  -0.081  0.00  0.00     0.127 C 
ATOM      8  HN  UNL d   1      -2.609  -3.809   0.381  1.00  0.00     0.186 HD
BRANCH   4   9
ATOM      9  C   UNL d   1      -1.552   0.638   0.647  0.00  0.00     0.435 C 
ATOM     10  F   UNL d   1      -0.377   1.195   1.040  0.00  0.00    -0.165 F 
ATOM     11  F   UNL d   1      -2.014   1.373  -0.393  0.00  0.00    -0.165 F 
ATOM     12  F   UNL d   1      -2.403   0.835   1.684  0.00  0.00    -0.165 F 
ENDBRANCH   4   9
BRANCH   5  13
ATOM     13  C   UNL d   1      -3.870  -1.440   0.666  0.00  0.00     0.057 A 
ATOM     14  C   UNL d   1      -4.512  -0.248   0.301  0.00  0.00     0.034 A 
ATOM     15  C   UNL d   1      -5.802   0.030   0.762  0.00  0.00     0.038 A 
ATOM     16  C   UNL d   1      -6.467  -0.902   1.566  0.00  0.00     0.103 A 
ATOM     17  C   UNL d   1      -5.881  -2.143   1.844  0.00  0.00     0.038 A 
ATOM     18  C   UNL d   1      -4.590  -2.416   1.379  0.00  0.00     0.034 A 
BRANCH  16  19
ATOM     19  N   UNL d   1      -7.771  -0.560   2.147  0.00  0.00    -0.116 N 
ATOM     20  O   UNL d   1      -8.338  -1.418   2.838  0.00  0.00    -0.532 OA
ATOM     21  O   UNL d   1      -8.219   0.575   1.928  0.00  0.00    -0.532 OA
ENDBRANCH  16  19
ENDBRANCH   5  13
ENDBRANCH   1   3
BRANCH   1  22
ATOM     22  O   UNL d   1       1.929  -2.118  -0.459  0.00  0.00    -0.193 OA
BRANCH  22  23
ATOM     23  N   UNL d   1       2.773  -1.919  -1.572  0.00  0.00    -0.246 N 
ATOM     24  C   UNL d   1       3.794  -2.724  -1.547  0.00  0.00     0.109 C 
ATOM     25  HN  UNL d   1       2.603  -1.230  -2.304  1.00  0.00     0.196 HD
BRANCH  24  26
ATOM     26  C   UNL d   1       4.695  -2.760  -2.749  0.00  0.00     0.005 A 
ATOM     27  C   UNL d   1       4.726  -1.692  -3.654  0.00  0.00     0.031 A 
ATOM     28  C   UNL d   1       5.588  -1.721  -4.766  0.00  0.00     0.049 A 
ATOM     29  C   UNL d   1       6.418  -2.839  -4.958  0.00  0.00     0.032 A 
ATOM     30  C   UNL d   1       6.397  -3.917  -4.061  0.00  0.00     0.049 A 
ATOM     31  C   UNL d   1       5.513  -3.876  -2.971  0.00  0.00     0.031 A 
BRANCH  28  32
ATOM     32  C   UNL d   1       5.635  -0.549  -5.721  0.00  0.00     0.417 C 
ATOM     33  F   UNL d   1       6.559  -0.708  -6.716  0.00  0.00    -0.166 F 
ATOM     34  F   UNL d   1       4.450  -0.333  -6.348  0.00  0.00    -0.166 F 
ATOM     35  F   UNL d   1       5.960   0.614  -5.100  0.00  0.00    -0.166 F 
ENDBRANCH  28  32
BRANCH  30  36
ATOM     36  C   UNL d   1       7.325  -5.097  -4.228  0.00  0.00     0.417 C 
ATOM     37  F   UNL d   1       8.211  -4.953  -5.250  0.00  0.00    -0.166 F 
ATOM     38  F   UNL d   1       8.075  -5.313  -3.111  0.00  0.00    -0.166 F 
ATOM     39  F   UNL d   1       6.659  -6.259  -4.462  0.00  0.00    -0.166 F 
ENDBRANCH  30  36
ENDBRANCH  24  26
BRANCH  24  40
ATOM     40  N   UNL d   1       4.094  -3.536  -0.475  0.00  0.00    -0.286 NA
ATOM     41  H   UNL d   1       5.085  -3.700  -0.317  0.00  0.00     0.125 HD
ATOM     42  H   UNL d   1       3.639  -3.231   0.380  0.00  0.00     0.125 HD
ENDBRANCH  24  40
ENDBRANCH  22  23
ENDBRANCH   1  22
TORSDOF 10
