REMARK  6 active torsions:
REMARK  status: ('A' for Active; 'I' for Inactive)
REMARK    1  A    between atoms: N_2  and  C_1 
REMARK    2  A    between atoms: N_9  and  C_1 
REMARK    3  A    between atoms: C_3  and  N_2 
REMARK    4  A    between atoms: N_6  and  N_9 
REMARK    5  A    between atoms: C_12  and  C_15 
REMARK    6  A    between atoms: C_17  and  C_13 
ROOT
ATOM      1  N   UNL d   1       2.534  -0.107  -0.145  0.00  0.00    -0.277 N 
ATOM      2  H   UNL d   1       3.061  -0.808   0.366  0.00  0.00     0.189 HD
ENDROOT
BRANCH   1   3
ATOM      3  N   UNL d   1       3.162   0.804  -0.941  0.00  0.00    -0.310 N 
ATOM      4  C   UNL d   1       4.454   0.739  -0.954  0.00  0.00     0.107 C 
ATOM      5  HN  UNL d   1       2.647   1.492  -1.490  1.00  0.00     0.186 HD
BRANCH   4   6
ATOM      6  C   UNL d   1       5.211   1.679  -1.798  0.00  0.00     0.019 C 
ATOM      7  C   UNL d   1       6.549   1.733  -1.792  0.00  0.00     0.013 C 
BRANCH   7   8
ATOM      8  C   UNL d   1       7.288   2.690  -2.631  0.00  0.00    -0.036 A 
ATOM      9  C   UNL d   1       6.790   3.974  -2.902  0.00  0.00     0.011 A 
ATOM     10  C   UNL d   1       7.499   4.860  -3.716  0.00  0.00     0.001 A 
ATOM     11  C   UNL d   1       8.725   4.481  -4.253  0.00  0.00     0.000 A 
ATOM     12  C   UNL d   1       9.247   3.221  -3.967  0.00  0.00     0.001 A 
ATOM     13  C   UNL d   1       8.535   2.330  -3.156  0.00  0.00     0.011 A 
ENDBRANCH   7   8
ENDBRANCH   4   6
ENDBRANCH   1   3
BRANCH   1  14
ATOM     14  C   UNL d   1       1.168  -0.057   0.042  0.00  0.00     0.186 C 
ATOM     15  S   UNL d   1       0.436  -1.159   1.056  0.00  0.00    -0.040 SA
BRANCH  14  16
ATOM     16  N   UNL d   1       0.562   0.958  -0.659  0.00  0.00    -0.361 N 
ATOM     17  H   UNL d   1       1.256   1.533  -1.128  0.00  0.00     0.162 HD
BRANCH  16  18
ATOM     18  C   UNL d   1      -0.757   1.506  -0.413  0.00  0.00     0.088 C 
ATOM     19  C   UNL d   1      -0.831   2.393   0.853  0.00  0.00     0.009 C 
ATOM     20  C   UNL d   1      -2.151   3.124   0.609  0.00  0.00     0.011 C 
ATOM     21  C   UNL d   1       0.185   3.552   0.773  0.00  0.00     0.007 C 
ATOM     22  C   UNL d   1      -1.684   3.714  -0.723  0.00  0.00    -0.012 C 
ATOM     23  C   UNL d   1      -1.258   2.460  -1.516  0.00  0.00     0.030 C 
ATOM     24  C   UNL d   1      -0.421   4.476  -0.293  0.00  0.00     0.005 C 
ENDBRANCH  16  18
ENDBRANCH  14  16
ENDBRANCH   1  14
TORSDOF 6
