REMARK  7 active torsions:
REMARK  status: ('A' for Active; 'I' for Inactive)
REMARK    1  A    between atoms: N_2  and  S_1 
REMARK    2  A    between atoms: C_3  and  S_1 
REMARK    3  A    between atoms: C_6  and  C_9 
REMARK    4  A    between atoms: O_18  and  C_10 
REMARK    5  A    between atoms: C_21  and  C_17 
REMARK    6  A    between atoms: C_23  and  C_21 
REMARK    7  A    between atoms: C_24  and  C_23 
ROOT
ATOM      1  N   UNL d   1       0.741  -0.600   1.744  0.00  0.00    -0.307 N 
ATOM      2  C   UNL d   1       0.550  -2.071   1.763  0.00  0.00     0.136 C 
ATOM      3  C   UNL d   1      -0.344   0.220   2.328  0.00  0.00     0.136 C 
ATOM      4  C   UNL d   1      -1.214  -1.890   3.558  0.00  0.00     0.024 C 
ATOM      5  C   UNL d   1      -0.967  -0.373   3.591  0.00  0.00     0.030 C 
ATOM      6  C   UNL d   1       0.098  -2.560   3.128  0.00  0.00     0.030 C 
ENDROOT
BRANCH   1   7
ATOM      7  S   UNL d   1       1.375   0.017   0.264  0.00  0.00     0.260 S 
ATOM      8  O   UNL d   1       2.541  -0.768  -0.084  0.00  0.00    -0.200 OA
ATOM      9  O   UNL d   1       1.450   1.457   0.373  0.00  0.00    -0.200 OA
BRANCH   7  10
ATOM     10  C   UNL d   1       0.106  -0.367  -0.941  0.00  0.00     0.079 A 
ATOM     11  C   UNL d   1      -0.872   0.580  -1.263  0.00  0.00     0.026 A 
ATOM     12  C   UNL d   1      -1.829   0.281  -2.238  0.00  0.00     0.009 A 
ATOM     13  C   UNL d   1      -1.811  -0.951  -2.911  0.00  0.00    -0.058 A 
ATOM     14  C   UNL d   1      -0.810  -1.881  -2.593  0.00  0.00     0.009 A 
ATOM     15  C   UNL d   1       0.151  -1.587  -1.622  0.00  0.00     0.026 A 
BRANCH  13  16
ATOM     16  C   UNL d   1      -2.817  -1.250  -4.001  0.00  0.00     0.038 C 
BRANCH  16  17
ATOM     17  C   UNL d   1      -3.753  -2.430  -3.710  0.00  0.00     0.004 C 
BRANCH  17  18
ATOM     18  C   UNL d   1      -4.713  -2.145  -2.557  0.00  0.00    -0.004 C 
ATOM     19  C   UNL d   1      -5.652  -3.312  -2.297  0.00  0.00     0.005 C 
ENDBRANCH  17  18
ENDBRANCH  16  17
ENDBRANCH  13  16
ENDBRANCH   7  10
ENDBRANCH   1   7
BRANCH   4  20
ATOM     20  C   UNL d   1      -2.432  -2.394   2.777  0.00  0.00    -0.021 A 
ATOM     21  C   UNL d   1      -2.924  -3.701   2.991  0.00  0.00     0.074 A 
ATOM     22  C   UNL d   1      -4.004  -4.194   2.246  0.00  0.00     0.037 A 
ATOM     23  C   UNL d   1      -4.663  -3.376   1.337  0.00  0.00     0.003 A 
ATOM     24  C   UNL d   1      -4.237  -2.068   1.161  0.00  0.00     0.001 A 
ATOM     25  C   UNL d   1      -3.129  -1.589   1.861  0.00  0.00     0.010 A 
BRANCH  21  26
ATOM     26  O   UNL d   1      -2.292  -4.463   3.943  0.00  0.00    -0.355 OA
ATOM     27  C   UNL d   1      -3.158  -5.325   4.680  0.00  0.00     0.210 C 
ENDBRANCH  21  26
ENDBRANCH   4  20
TORSDOF 7
