REMARK  1 active torsions:
REMARK  status: ('A' for Active; 'I' for Inactive)
REMARK    1  A    between atoms: S_13  and  C_7 
ROOT
ATOM      1  C   UNL d   1      -0.376  -1.030  -0.004  0.00  0.00     0.182 A 
ATOM      2  O   UNL d   1      -1.193   0.068  -0.141  0.00  0.00    -0.267 OA
ATOM      3  N   UNL d   1       0.881  -0.677   0.198  0.00  0.00    -0.276 N 
ATOM      4  HN  UNL d   1       1.674  -1.305   0.329  1.00  0.00     0.189 HD
ATOM      5  N   UNL d   1       0.917   0.700   0.198  0.00  0.00    -0.272 N 
ATOM      6  HN  UNL d   1       1.741   1.288   0.328  1.00  0.00     0.189 HD
ATOM      7  C   UNL d   1      -0.318   1.109  -0.003  0.00  0.00     0.203 A 
ATOM      8  C   UNL d   1      -0.822  -2.392  -0.066  0.00  0.00     0.057 A 
ATOM      9  S   UNL d   1      -2.461  -2.794  -0.361  0.00  0.00    -0.098 SA
ATOM     10  C   UNL d   1      -0.049  -3.527   0.094  0.00  0.00     0.024 A 
ATOM     11  C   UNL d   1      -2.138  -4.471  -0.275  0.00  0.00     0.050 A 
ATOM     12  C   UNL d   1      -0.809  -4.728  -0.025  0.00  0.00     0.009 A 
ENDROOT
BRANCH   7  13
ATOM     13  S   UNL d   1      -0.818   2.770  -0.087  0.00  0.00    -0.089 SA
ATOM     14  C   UNL d   1       0.762   3.603   0.180  0.00  0.00     0.099 C 
ENDBRANCH   7  13
TORSDOF 1
