REMARK  3 active torsions:
REMARK  status: ('A' for Active; 'I' for Inactive)
REMARK    1  A    between atoms: N_5  and  C_1 
REMARK    2  A    between atoms: C_10  and  C_9 
REMARK    3  A    between atoms: O_16  and  C_11 
ROOT
ATOM      1  C   UNL d   1      -2.353  -0.078   0.017  0.00  0.00     0.683 A 
ATOM      2  N   UNL d   1      -1.555  -1.079   0.329  0.00  0.00    -0.189 N 
ATOM      3  HN  UNL d   1      -1.824  -2.048   0.503  1.00  0.00     0.184 HD
ATOM      4  N   UNL d   1      -1.625   1.072  -0.161  0.00  0.00    -0.189 N 
ATOM      5  C   UNL d   1      -0.288  -0.550   0.372  0.00  0.00     0.076 A 
ATOM      6  C   UNL d   1      -0.303   0.805   0.070  0.00  0.00     0.076 A 
ATOM      7  C   UNL d   1       0.935  -1.169   0.670  0.00  0.00     0.032 A 
ATOM      8  C   UNL d   1       0.843   1.603   0.047  0.00  0.00     0.032 A 
ATOM      9  C   UNL d   1       2.053   0.969   0.354  0.00  0.00     0.002 A 
ATOM     10  C   UNL d   1       2.102  -0.393   0.660  0.00  0.00     0.002 A 
ATOM     11  H   UNL d   1      -2.033   1.960  -0.405  0.00  0.00     0.184 HD
ENDROOT
BRANCH   1  12
ATOM     12  N   UNL d   1      -3.695  -0.009  -0.136  0.00  0.00    -0.201 N 
ATOM     13  C   UNL d   1      -4.334  -1.115   0.083  0.00  0.00     0.117 C 
ATOM     14  HN  UNL d   1      -4.170   0.853  -0.405  1.00  0.00     0.183 HD
BRANCH  13  15
ATOM     15  C   UNL d   1      -5.807  -1.183  -0.029  0.00  0.00    -0.020 A 
ATOM     16  C   UNL d   1      -6.547  -0.047  -0.368  0.00  0.00     0.015 A 
ATOM     17  C   UNL d   1      -7.940  -0.118  -0.465  0.00  0.00     0.037 A 
ATOM     18  C   UNL d   1      -8.600  -1.323  -0.220  0.00  0.00     0.068 A 
ATOM     19  C   UNL d   1      -7.852  -2.457   0.118  0.00  0.00     0.037 A 
ATOM     20  C   UNL d   1      -6.459  -2.393   0.215  0.00  0.00     0.015 A 
BRANCH  18  21
ATOM     21  O   UNL d   1      -9.952  -1.519  -0.273  0.00  0.00    -0.356 OA
ATOM     22  C   UNL d   1     -10.751  -0.393  -0.617  0.00  0.00     0.210 C 
ENDBRANCH  18  21
ENDBRANCH  13  15
ENDBRANCH   1  12
TORSDOF 3
