REMARK  4 active torsions:
REMARK  status: ('A' for Active; 'I' for Inactive)
REMARK       I    between atoms: C_6  and  N_1 
REMARK       I    between atoms: C_7  and  N_1 
REMARK    1  A    between atoms: C_3  and  C_10 
REMARK    2  A    between atoms: C_11  and  C_6 
REMARK       I    between atoms: N_12  and  C_7 
REMARK    3  A    between atoms: C_22  and  N_12 
REMARK    4  A    between atoms: C_21  and  C_22 
ROOT
ATOM      1  N   UNL d   1       1.123   0.115  -0.135  0.00  0.00    -0.275 N 
ATOM      2  C   UNL d   1       0.380  -0.206  -1.257  0.00  0.00     0.259 C 
ATOM      3  C   UNL d   1       2.481   0.362  -0.081  0.00  0.00     0.323 C 
ATOM      4  N   UNL d   1       3.111   0.368  -1.290  0.00  0.00    -0.337 N 
ATOM      5  O   UNL d   1       0.832  -0.206  -2.402  0.00  0.00    -0.267 OA
ATOM      6  O   UNL d   1       3.041   0.552   0.991  0.00  0.00    -0.247 OA
ATOM      7  H   UNL d   1       0.672   0.185   0.765  0.00  0.00     0.173 HD
ATOM      8  H   UNL d   1       2.507   0.305  -2.103  0.00  0.00     0.164 HD
ENDROOT
BRANCH   2   9
ATOM      9  C   UNL d   1      -1.056  -0.537  -1.075  0.00  0.00     0.032 A 
ATOM     10  C   UNL d   1      -1.931  -0.185  -2.110  0.00  0.00     0.018 A 
ATOM     11  C   UNL d   1      -3.274  -0.567  -2.068  0.00  0.00     0.015 A 
ATOM     12  C   UNL d   1      -3.764  -1.325  -0.996  0.00  0.00    -0.008 A 
ATOM     13  C   UNL d   1      -2.887  -1.655   0.051  0.00  0.00     0.015 A 
ATOM     14  C   UNL d   1      -1.537  -1.265   0.016  0.00  0.00     0.018 A 
BRANCH  12  15
ATOM     15  C   UNL d   1      -5.151  -1.778  -0.970  0.00  0.00     0.063 A 
ATOM     16  N   UNL d   1      -5.812  -2.023   0.229  0.00  0.00    -0.292 N 
ATOM     17  N   UNL d   1      -7.061  -2.412   0.034  0.00  0.00    -0.061 NA
ATOM     18  HN  UNL d   1      -5.384  -1.917   1.148  1.00  0.00     0.183 HD
ATOM     19  S   UNL d   1      -7.469  -2.512  -1.584  0.00  0.00    -0.010 SA
ATOM     20  C   UNL d   1      -5.910  -2.020  -2.104  0.00  0.00     0.096 A 
ENDBRANCH  12  15
ENDBRANCH   2   9
BRANCH   4  21
ATOM     21  C   UNL d   1       4.485   0.772  -1.509  0.00  0.00     0.181 C 
BRANCH  21  22
ATOM     22  C   UNL d   1       4.803   0.839  -2.992  0.00  0.00     0.026 A 
ATOM     23  N   UNL d   1       5.180   2.036  -3.509  0.00  0.00    -0.368 N 
ATOM     24  C   UNL d   1       5.419   2.093  -4.840  0.00  0.00     0.088 A 
ATOM     25  HN  UNL d   1       5.280   2.860  -2.917  1.00  0.00     0.165 HD
ATOM     26  C   UNL d   1       5.296   1.011  -5.696  0.00  0.00     0.017 A 
ATOM     27  C   UNL d   1       4.906  -0.207  -5.156  0.00  0.00     0.003 A 
ATOM     28  C   UNL d   1       4.659  -0.299  -3.789  0.00  0.00     0.027 A 
ENDBRANCH  21  22
ENDBRANCH   4  21
TORSDOF 4
