REMARK  3 active torsions:
REMARK  status: ('A' for Active; 'I' for Inactive)
REMARK    1  A    between atoms: C_9  and  C_3 
REMARK    2  A    between atoms: C_8  and  C_7 
REMARK    3  A    between atoms: O_12  and  C_11 
ROOT
ATOM      1  N   UNL d   1       1.570  -0.045   0.274  0.00  0.00    -0.331 N 
ATOM      2  HN  UNL d   1       2.516  -0.423   0.226  1.00  0.00     0.168 HD
ATOM      3  C   UNL d   1       1.193   1.193   0.274  0.00  0.00     0.162 A 
ATOM      4  C   UNL d   1       0.379  -0.722   0.353  0.00  0.00     0.111 A 
ATOM      5  O   UNL d   1      -0.126   1.450   0.422  0.00  0.00    -0.256 OA
ATOM      6  C   UNL d   1      -0.750   0.240   0.512  0.00  0.00     0.316 A 
ATOM      7  C   UNL d   1       0.299  -2.046   0.180  0.00  0.00     0.050 C 
ATOM      8  O   UNL d   1      -1.933   0.047   0.702  0.00  0.00    -0.257 OA
ENDROOT
BRANCH   7   9
ATOM      9  C   UNL d   1      -0.934  -2.819   0.030  0.00  0.00    -0.001 A 
ATOM     10  C   UNL d   1      -1.583  -3.021  -1.202  0.00  0.00     0.078 A 
ATOM     11  C   UNL d   1      -2.781  -3.747  -1.236  0.00  0.00     0.037 A 
ATOM     12  C   UNL d   1      -3.324  -4.290  -0.071  0.00  0.00     0.003 A 
ATOM     13  C   UNL d   1      -2.681  -4.096   1.145  0.00  0.00     0.001 A 
ATOM     14  C   UNL d   1      -1.493  -3.365   1.197  0.00  0.00     0.014 A 
BRANCH  10  15
ATOM     15  O   UNL d   1      -1.224  -2.514  -2.424  0.00  0.00    -0.355 OA
ATOM     16  C   UNL d   1       0.160  -2.512  -2.750  0.00  0.00     0.210 C 
ENDBRANCH  10  15
ENDBRANCH   7   9
BRANCH   3  17
ATOM     17  C   UNL d   1       2.060   2.365   0.081  0.00  0.00     0.015 A 
ATOM     18  C   UNL d   1       3.435   2.160  -0.091  0.00  0.00     0.016 A 
ATOM     19  C   UNL d   1       4.275   3.239  -0.368  0.00  0.00     0.001 A 
ATOM     20  C   UNL d   1       3.745   4.524  -0.473  0.00  0.00     0.000 A 
ATOM     21  C   UNL d   1       2.378   4.735  -0.289  0.00  0.00     0.001 A 
ATOM     22  C   UNL d   1       1.533   3.658  -0.010  0.00  0.00     0.016 A 
ENDBRANCH   3  17
TORSDOF 3
