REMARK  5 active torsions:
REMARK  status: ('A' for Active; 'I' for Inactive)
REMARK    1  A    between atoms: C_20  and  N_1 
REMARK    2  A    between atoms: C_2  and  N_13 
REMARK    3  A    between atoms: S_17  and  C_9 
REMARK       I    between atoms: N_13  and  C_18 
REMARK    4  A    between atoms: C_27  and  S_17 
REMARK    5  A    between atoms: C_18  and  C_27 
ROOT
ATOM      1  C   UNL d   1      -7.092  -1.196  -0.459  0.00  0.00     0.098 C 
ATOM      2  C   UNL d   1      -8.030  -1.759   0.378  0.00  0.00     0.085 C 
ATOM      3  C   UNL d   1      -9.305  -1.167   0.187  0.00  0.00    -0.021 C 
ATOM      4  C   UNL d   1      -9.367  -0.508  -1.024  0.00  0.00    -0.007 C 
ATOM      5  S   UNL d   1      -7.816  -0.235  -1.672  0.00  0.00    -0.075 SA
ATOM      6  C   UNL d   1      -7.827  -2.902   1.225  0.00  0.00     0.103 C 
ATOM      7  N   UNL d   1      -7.759  -3.893   1.827  0.00  0.00    -0.191 NA
ATOM      8  C   UNL d   1     -10.563  -1.428   0.941  0.00  0.00     0.042 C 
ATOM      9  C   UNL d   1     -10.664  -0.157  -1.694  0.00  0.00     0.051 C 
ATOM     10  C   UNL d   1     -11.537  -2.054  -0.044  0.00  0.00     0.009 C 
ATOM     11  C   UNL d   1     -11.818  -1.139  -1.271  0.00  0.00    -0.014 C 
ATOM     12  C   UNL d   1     -12.271  -2.019  -2.442  0.00  0.00     0.010 C 
ENDROOT
BRANCH   1  13
ATOM     13  N   UNL d   1      -5.712  -1.318  -0.562  0.00  0.00    -0.319 N 
ATOM     14  C   UNL d   1      -4.964  -1.731   0.525  0.00  0.00     0.232 C 
ATOM     15  O   UNL d   1      -5.413  -1.850   1.669  0.00  0.00    -0.272 OA
ATOM     16  H   UNL d   1      -5.264  -0.879  -1.355  0.00  0.00     0.169 HD
BRANCH  14  17
ATOM     17  C   UNL d   1      -3.508  -2.030   0.221  0.00  0.00     0.185 C 
BRANCH  17  18
ATOM     18  S   UNL d   1      -2.514  -1.269   1.524  0.00  0.00    -0.083 SA
BRANCH  18  19
ATOM     19  C   UNL d   1      -0.922  -1.847   1.177  0.00  0.00     0.168 A 
ATOM     20  N   UNL d   1       0.194  -1.448   1.894  0.00  0.00    -0.273 N 
ATOM     21  C   UNL d   1       1.251  -1.790   1.063  0.00  0.00     0.163 A 
ATOM     22  N   UNL d   1       0.794  -2.435   0.003  0.00  0.00    -0.281 N 
ATOM     23  C   UNL d   1       2.636  -1.511   1.274  0.00  0.00     0.120 A 
ATOM     24  N   UNL d   1      -0.574  -2.480   0.082  0.00  0.00    -0.278 N 
ATOM     25  HN  UNL d   1       1.362  -2.831  -0.746  1.00  0.00     0.188 HD
ATOM     26  HN  UNL d   1      -1.204  -2.923  -0.586  1.00  0.00     0.189 HD
ATOM     27  O   UNL d   1       3.218  -1.417   2.513  0.00  0.00    -0.319 OA
ATOM     28  C   UNL d   1       3.603  -1.249   0.316  0.00  0.00     0.043 A 
ATOM     29  C   UNL d   1       4.512  -1.053   2.338  0.00  0.00     0.142 A 
ATOM     30  C   UNL d   1       4.797  -0.923   1.002  0.00  0.00     0.027 A 
BRANCH  20  31
ATOM     31  C   UNL d   1       0.204  -0.701   3.104  0.00  0.00     0.043 A 
ATOM     32  C   UNL d   1       0.986   0.451   3.214  0.00  0.00     0.030 A 
ATOM     33  C   UNL d   1       0.904   1.242   4.360  0.00  0.00     0.002 A 
ATOM     34  C   UNL d   1       0.047   0.884   5.402  0.00  0.00     0.000 A 
ATOM     35  C   UNL d   1      -0.720  -0.276   5.303  0.00  0.00     0.002 A 
ATOM     36  C   UNL d   1      -0.644  -1.070   4.161  0.00  0.00     0.030 A 
ENDBRANCH  20  31
ENDBRANCH  18  19
ENDBRANCH  17  18
ENDBRANCH  14  17
ENDBRANCH   1  13
TORSDOF 5
