REMARK  4 active torsions:
REMARK  status: ('A' for Active; 'I' for Inactive)
REMARK    1  A    between atoms: C_6  and  C_1 
REMARK    2  A    between atoms: C_20  and  C_5 
REMARK       I    between atoms: C_7  and  N_14 
REMARK       I    between atoms: N_8  and  C_7 
REMARK    3  A    between atoms: C_10  and  N_8 
REMARK    4  A    between atoms: N_14  and  C_20 
ROOT
ATOM      1  C   UNL d   1       4.816   1.574   0.226  0.00  0.00     0.321 C 
ATOM      2  N   UNL d   1       5.921   0.780   0.387  0.00  0.00    -0.307 N 
ATOM      3  N   UNL d   1       3.690   0.844  -0.075  0.00  0.00    -0.337 N 
ATOM      4  O   UNL d   1       4.808   2.797   0.283  0.00  0.00    -0.247 OA
ATOM      5  H   UNL d   1       5.917  -0.072  -0.157  0.00  0.00     0.170 HD
ATOM      6  H   UNL d   1       3.635  -0.142   0.145  0.00  0.00     0.164 HD
ENDROOT
BRANCH   3   7
ATOM      7  C   UNL d   1       2.456   1.534  -0.349  0.00  0.00     0.181 C 
BRANCH   7   8
ATOM      8  C   UNL d   1       1.264   0.625  -0.302  0.00  0.00     0.034 A 
ATOM      9  N   UNL d   1       1.366  -0.704   0.124  0.00  0.00    -0.351 N 
ATOM     10  C   UNL d   1       0.181  -1.292   0.065  0.00  0.00     0.091 A 
ATOM     11  HN  UNL d   1       2.227  -1.154   0.435  1.00  0.00     0.166 HD
ATOM     12  S   UNL d   1      -1.109  -0.279  -0.463  0.00  0.00    -0.081 SA
ATOM     13  C   UNL d   1      -0.016   1.018  -0.643  0.00  0.00     0.078 A 
BRANCH  10  14
ATOM     14  C   UNL d   1      -0.026  -2.668   0.458  0.00  0.00     0.038 A 
ATOM     15  S   UNL d   1      -1.293  -3.645  -0.175  0.00  0.00    -0.099 SA
ATOM     16  C   UNL d   1      -0.829  -4.995   0.762  0.00  0.00     0.050 A 
ATOM     17  C   UNL d   1       0.272  -4.724   1.541  0.00  0.00     0.008 A 
ATOM     18  C   UNL d   1       0.739  -3.388   1.358  0.00  0.00     0.022 A 
ENDBRANCH  10  14
ENDBRANCH   7   8
ENDBRANCH   3   7
BRANCH   2  19
ATOM     19  C   UNL d   1       7.191   1.238   0.807  0.00  0.00     0.058 A 
ATOM     20  C   UNL d   1       8.351   0.608   0.322  0.00  0.00     0.062 A 
ATOM     21  C   UNL d   1       9.617   0.969   0.790  0.00  0.00     0.050 A 
ATOM     22 CL   UNL d   1       8.248  -0.607  -0.906  0.00  0.00    -0.082 Cl
ATOM     23  C   UNL d   1       9.729   1.955   1.767  0.00  0.00     0.035 A 
ATOM     24  C   UNL d   1       8.594   2.608   2.243  0.00  0.00     0.026 A 
ATOM     25 CL   UNL d   1      11.276   2.342   2.410  0.00  0.00    -0.084 Cl
ATOM     26  C   UNL d   1       7.331   2.264   1.758  0.00  0.00     0.033 A 
ENDBRANCH   2  19
TORSDOF 4
