REMARK  6 active torsions:
REMARK  status: ('A' for Active; 'I' for Inactive)
REMARK    1  A    between atoms: C_8  and  C_2 
REMARK    2  A    between atoms: C_5  and  O_9 
REMARK       I    between atoms: N_11  and  C_5 
REMARK    3  A    between atoms: O_9  and  C_14 
REMARK    4  A    between atoms: C_17  and  N_11 
REMARK    5  A    between atoms: C_18  and  C_17 
REMARK    6  A    between atoms: C_19  and  C_18 
ROOT
ATOM      1  C   UNL d   1       2.445  -1.619  -0.040  0.00  0.00    -0.008 A 
ATOM      2  C   UNL d   1       2.837  -2.132  -1.284  0.00  0.00     0.016 A 
ATOM      3  C   UNL d   1       3.164  -2.002   1.102  0.00  0.00     0.016 A 
ATOM      4  C   UNL d   1       4.600  -3.413  -0.240  0.00  0.00     0.081 A 
ATOM      5  C   UNL d   1       4.242  -2.889   1.003  0.00  0.00     0.038 A 
ATOM      6  C   UNL d   1       3.916  -3.015  -1.385  0.00  0.00     0.038 A 
ENDROOT
BRANCH   4   7
ATOM      7  O   UNL d   1       5.672  -4.341  -0.226  0.00  0.00    -0.262 OA
BRANCH   7   8
ATOM      8  C   UNL d   1       6.056  -5.109  -1.321  0.00  0.00     0.365 C 
ATOM      9  O   UNL d   1       5.538  -5.113  -2.435  0.00  0.00    -0.238 OA
ATOM     10  N   UNL d   1       7.128  -5.922  -1.081  0.00  0.00    -0.337 N 
ATOM     11  H   UNL d   1       7.368  -6.453  -1.907  0.00  0.00     0.164 HD
BRANCH  10  12
ATOM     12  C   UNL d   1       7.367  -6.563   0.193  0.00  0.00     0.125 C 
BRANCH  12  13
ATOM     13  C   UNL d   1       6.313  -7.635   0.492  0.00  0.00     0.019 C 
BRANCH  13  14
ATOM     14  C   UNL d   1       6.258  -8.733  -0.577  0.00  0.00    -0.003 C 
ATOM     15  C   UNL d   1       5.212  -9.785  -0.248  0.00  0.00     0.005 C 
ENDBRANCH  13  14
ENDBRANCH  12  13
ENDBRANCH  10  12
ENDBRANCH   7   8
ENDBRANCH   4   7
BRANCH   1  16
ATOM     16  C   UNL d   1       1.307  -0.719   0.080  0.00  0.00     0.063 A 
ATOM     17  N   UNL d   1       0.531  -0.686   1.234  0.00  0.00    -0.292 N 
ATOM     18  N   UNL d   1      -0.459   0.187   1.141  0.00  0.00    -0.061 NA
ATOM     19  HN  UNL d   1       0.704  -1.266   2.055  1.00  0.00     0.183 HD
ATOM     20  S   UNL d   1      -0.472   1.001  -0.319  0.00  0.00    -0.010 SA
ATOM     21  C   UNL d   1       0.909   0.169  -0.906  0.00  0.00     0.096 A 
ENDBRANCH   1  16
TORSDOF 6
