REMARK  4 active torsions:
REMARK  status: ('A' for Active; 'I' for Inactive)
REMARK    1  A    between atoms: C_16  and  C_2 
REMARK    2  A    between atoms: C_10  and  C_14 
REMARK    3  A    between atoms: S_15  and  C_11 
REMARK    4  A    between atoms: C_18  and  S_15 
ROOT
ATOM      1  N   UNL d   1       0.108   0.677   0.021  0.00  0.00    -0.219 N 
ATOM      2  C   UNL d   1       1.409   1.156   0.008  0.00  0.00     0.154 A 
ATOM      3  N   UNL d   1       2.231   0.121  -0.098  0.00  0.00    -0.282 N 
ATOM      4  HN  UNL d   1       3.248   0.175  -0.150  1.00  0.00     0.188 HD
ATOM      5  C   UNL d   1       0.225  -0.698  -0.063  0.00  0.00     0.143 A 
ATOM      6  N   UNL d   1      -1.062   1.397   0.060  0.00  0.00    -0.284 N 
ATOM      7  HN  UNL d   1      -1.096   2.414   0.114  1.00  0.00     0.188 HD
ATOM      8  N   UNL d   1       1.491  -1.037  -0.128  0.00  0.00    -0.282 N 
ATOM      9  HN  UNL d   1       1.858  -1.986  -0.189  1.00  0.00     0.188 HD
ATOM     10  C   UNL d   1      -2.114   0.645   0.021  0.00  0.00     0.090 A 
ATOM     11  C   UNL d   1      -0.960  -1.464  -0.081  0.00  0.00     0.054 A 
ATOM     12  C   UNL d   1      -2.145  -0.838  -0.041  0.00  0.00     0.042 A 
ENDROOT
BRANCH  10  13
ATOM     13  S   UNL d   1      -3.692   1.395  -0.043  0.00  0.00    -0.071 SA
BRANCH  13  14
ATOM     14  C   UNL d   1      -4.096   1.614   1.678  0.00  0.00     0.007 A 
ATOM     15  C   UNL d   1      -5.339   1.155   2.135  0.00  0.00     0.035 A 
ATOM     16  C   UNL d   1      -5.750   1.372   3.461  0.00  0.00     0.049 A 
ATOM     17  C   UNL d   1      -4.888   2.053   4.333  0.00  0.00     0.016 A 
ATOM     18  C   UNL d   1      -3.651   2.515   3.885  0.00  0.00     0.002 A 
ATOM     19  C   UNL d   1      -3.260   2.302   2.561  0.00  0.00     0.019 A 
BRANCH  16  20
ATOM     20  C   UNL d   1      -7.102   0.906   3.943  0.00  0.00     0.417 C 
ATOM     21  F   UNL d   1      -7.837   0.283   2.980  0.00  0.00    -0.166 F 
ATOM     22  F   UNL d   1      -7.010   0.021   4.973  0.00  0.00    -0.166 F 
ATOM     23  F   UNL d   1      -7.874   1.931   4.396  0.00  0.00    -0.166 F 
ENDBRANCH  16  20
ENDBRANCH  13  14
ENDBRANCH  10  13
BRANCH   2  24
ATOM     24  C   UNL d   1       1.820   2.563   0.061  0.00  0.00     0.011 A 
ATOM     25  C   UNL d   1       1.056   3.550   0.701  0.00  0.00     0.015 A 
ATOM     26  C   UNL d   1       1.487   4.879   0.742  0.00  0.00     0.001 A 
ATOM     27  C   UNL d   1       2.694   5.240   0.149  0.00  0.00     0.000 A 
ATOM     28  C   UNL d   1       3.471   4.273  -0.484  0.00  0.00     0.001 A 
ATOM     29  C   UNL d   1       3.038   2.944  -0.523  0.00  0.00     0.015 A 
ENDBRANCH   2  24
TORSDOF 4
