REMARK  6 active torsions:
REMARK  status: ('A' for Active; 'I' for Inactive)
REMARK    1  A    between atoms: N_4  and  C_1 
REMARK       I    between atoms: C_5  and  N_4 
REMARK       I    between atoms: N_10  and  C_5 
REMARK    2  A    between atoms: C_8  and  C_6 
REMARK    3  A    between atoms: C_11  and  C_8 
REMARK    4  A    between atoms: C_13  and  N_10 
REMARK    5  A    between atoms: O_17  and  C_11 
REMARK    6  A    between atoms: C_22  and  O_17 
ROOT
ATOM      1  N   UNL d   1       0.295  -1.854  -0.182  0.00  0.00    -0.288 N 
ATOM      2  C   UNL d   1      -0.698  -2.780  -0.016  0.00  0.00     0.326 C 
ATOM      3  N   UNL d   1      -1.627  -2.511   0.954  0.00  0.00    -0.309 N 
ATOM      4  O   UNL d   1      -0.644  -3.821  -0.665  0.00  0.00    -0.247 OA
ATOM      5  H   UNL d   1       1.105  -2.190  -0.681  0.00  0.00     0.172 HD
ATOM      6  H   UNL d   1      -1.356  -1.798   1.615  0.00  0.00     0.170 HD
ENDROOT
BRANCH   1   7
ATOM      7  C   UNL d   1       0.302  -0.500   0.044  0.00  0.00     0.152 A 
ATOM      8  N   UNL d   1       1.393   0.220  -0.065  0.00  0.00    -0.339 N 
ATOM      9  C   UNL d   1       1.119   1.574   0.153  0.00  0.00     0.027 A 
ATOM     10  HN  UNL d   1       2.316  -0.156  -0.281  1.00  0.00     0.168 HD
ATOM     11  C   UNL d   1      -0.224   1.837   0.351  0.00  0.00     0.078 A 
ATOM     12  S   UNL d   1      -1.123   0.380   0.361  0.00  0.00    -0.064 SA
BRANCH   9  13
ATOM     13  C   UNL d   1       2.277   2.526   0.085  0.00  0.00     0.168 C 
BRANCH  13  14
ATOM     14  C   UNL d   1       2.095   3.873   0.757  0.00  0.00     0.264 C 
ATOM     15  O   UNL d   1       1.092   4.287   1.316  0.00  0.00    -0.265 OA
BRANCH  14  16
ATOM     16  O   UNL d   1       3.269   4.573   0.658  0.00  0.00    -0.322 OA
BRANCH  16  17
ATOM     17  C   UNL d   1       3.349   5.812   1.381  0.00  0.00     0.174 C 
ATOM     18  C   UNL d   1       3.031   6.987   0.476  0.00  0.00     0.034 C 
ENDBRANCH  16  17
ENDBRANCH  14  16
ENDBRANCH  13  14
ENDBRANCH   9  13
ENDBRANCH   1   7
BRANCH   3  19
ATOM     19  C   UNL d   1      -2.837  -3.183   1.212  0.00  0.00     0.037 A 
ATOM     20  C   UNL d   1      -3.430  -4.081   0.323  0.00  0.00     0.053 A 
ATOM     21  C   UNL d   1      -4.689  -4.613   0.612  0.00  0.00     0.036 A 
ATOM     22 CL   UNL d   1      -5.452  -5.672  -0.512  0.00  0.00    -0.084 Cl
ATOM     23  C   UNL d   1      -5.354  -4.278   1.791  0.00  0.00     0.024 A 
ATOM     24  C   UNL d   1      -4.752  -3.408   2.696  0.00  0.00     0.004 A 
ATOM     25  C   UNL d   1      -3.502  -2.859   2.403  0.00  0.00     0.029 A 
ENDBRANCH   3  19
TORSDOF 6
