REMARK  11 active torsions:
REMARK  status: ('A' for Active; 'I' for Inactive)
REMARK    1  A    between atoms: C_1  and  O_6 
REMARK    2  A    between atoms: C_2  and  C_1 
REMARK    3  A    between atoms: C_3  and  C_1 
REMARK    4  A    between atoms: C_2  and  O_7 
REMARK    5  A    between atoms: C_13  and  C_3 
REMARK    6  A    between atoms: C_3  and  O_8 
REMARK    7  A    between atoms: C_9  and  O_6 
REMARK    8  A    between atoms: C_10  and  O_7 
REMARK    9  A    between atoms: C_11  and  O_8 
REMARK   10  A    between atoms: C_12  and  O_14 
REMARK   11  A    between atoms: O_14  and  C_13 
ROOT
ATOM      1  C   UNL d   1      -1.390   4.067  -1.391  0.00  0.00     0.270 C 
ATOM      2  N   UNL d   1      -3.925   4.333  -2.057  0.00  0.00    -0.194 NA
ATOM      3  C   UNL d   1      -2.807   4.228  -1.759  0.00  0.00     0.094 C 
ENDROOT
BRANCH   1   4
ATOM      4  O   UNL d   1      -0.666   5.213  -1.889  0.00  0.00    -0.299 OA
BRANCH   4   5
ATOM      5  C   UNL d   1      -0.002   5.948  -0.964  0.00  0.00     0.256 C 
ATOM      6  O   UNL d   1       0.033   5.709   0.234  0.00  0.00    -0.266 OA
ATOM      7  C   UNL d   1       0.744   7.070  -1.617  0.00  0.00     0.126 C 
ENDBRANCH   4   5
ENDBRANCH   1   4
BRANCH   1   8
ATOM      8  C   UNL d   1      -0.808   2.778  -2.018  0.00  0.00     0.207 C 
BRANCH   8   9
ATOM      9  O   UNL d   1       0.604   2.683  -1.705  0.00  0.00    -0.310 OA
BRANCH   9  10
ATOM     10  C   UNL d   1       1.502   3.181  -2.590  0.00  0.00     0.255 C 
ATOM     11  O   UNL d   1       1.222   3.804  -3.603  0.00  0.00    -0.266 OA
ATOM     12  C   UNL d   1       2.896   2.907  -2.114  0.00  0.00     0.126 C 
ENDBRANCH   9  10
ENDBRANCH   8   9
BRANCH   8  13
ATOM     13  C   UNL d   1      -1.498   1.508  -1.443  0.00  0.00     0.189 C 
BRANCH  13  14
ATOM     14  C   UNL d   1      -1.033   0.199  -2.105  0.00  0.00     0.213 C 
BRANCH  14  15
ATOM     15  O   UNL d   1      -1.283   0.215  -3.527  0.00  0.00    -0.319 OA
BRANCH  15  16
ATOM     16  C   UNL d   1      -2.546  -0.108  -3.913  0.00  0.00     0.254 C 
ATOM     17  O   UNL d   1      -3.465  -0.370  -3.150  0.00  0.00    -0.266 OA
ATOM     18  C   UNL d   1      -2.680  -0.080  -5.408  0.00  0.00     0.126 C 
ENDBRANCH  15  16
ENDBRANCH  14  15
ENDBRANCH  13  14
BRANCH  13  19
ATOM     19  O   UNL d   1      -1.453   1.487   0.014  0.00  0.00    -0.311 OA
BRANCH  19  20
ATOM     20  C   UNL d   1      -0.318   1.157   0.685  0.00  0.00     0.255 C 
ATOM     21  O   UNL d   1       0.730   0.782   0.181  0.00  0.00    -0.266 OA
ATOM     22  C   UNL d   1      -0.500   1.378   2.158  0.00  0.00     0.126 C 
ENDBRANCH  19  20
ENDBRANCH  13  19
ENDBRANCH   8  13
ENDBRANCH   1   8
TORSDOF 11
