REMARK  3 active torsions:
REMARK  status: ('A' for Active; 'I' for Inactive)
REMARK    1  A    between atoms: C_7  and  N_1 
REMARK    2  A    between atoms: S_12  and  C_2 
REMARK    3  A    between atoms: C_16  and  S_12 
ROOT
ATOM      1  C   UNL d   1      -3.472   1.377  -3.244  0.00  0.00    -0.107 C 
ATOM      2  C   UNL d   1      -4.520   1.621  -3.785  0.00  0.00     0.013 C 
ATOM      3  C   UNL d   1      -2.188   1.106  -2.585  0.00  0.00     0.175 C 
ENDROOT
BRANCH   3   4
ATOM      4  S   UNL d   1      -2.350  -0.209  -1.339  0.00  0.00    -0.079 SA
BRANCH   4   5
ATOM      5  C   UNL d   1      -0.733  -0.242  -0.710  0.00  0.00     0.178 A 
ATOM      6  N   UNL d   1      -0.140  -1.298  -0.026  0.00  0.00    -0.218 N 
ATOM      7  N   UNL d   1       1.035  -0.828   0.473  0.00  0.00     0.001 NA
ATOM      8  N   UNL d   1       1.151   0.423   0.059  0.00  0.00    -0.006 NA
ATOM      9  N   UNL d   1       0.064   0.803  -0.673  0.00  0.00    -0.264 N 
ATOM     10  HN  UNL d   1      -0.097   1.713  -1.104  1.00  0.00     0.186 HD
BRANCH   6  11
ATOM     11  C   UNL d   1      -0.467  -2.682   0.067  0.00  0.00     0.062 A 
ATOM     12  C   UNL d   1      -0.058  -3.480   1.160  0.00  0.00    -0.033 A 
ATOM     13  C   UNL d   1      -0.268  -4.875   1.094  0.00  0.00     0.015 A 
ATOM     14  C   UNL d   1       0.553  -2.974   2.442  0.00  0.00     0.050 C 
ATOM     15  C   UNL d   1      -0.891  -5.478  -0.003  0.00  0.00    -0.061 A 
ATOM     16  C   UNL d   1      -1.341  -4.673  -1.046  0.00  0.00     0.009 A 
ATOM     17  C   UNL d   1      -1.040  -6.970  -0.060  0.00  0.00     0.048 C 
ATOM     18  C   UNL d   1      -1.128  -3.292  -1.015  0.00  0.00     0.032 A 
ENDBRANCH   6  11
ENDBRANCH   4   5
ENDBRANCH   3   4
TORSDOF 3
