REMARK  7 active torsions:
REMARK  status: ('A' for Active; 'I' for Inactive)
REMARK    1  A    between atoms: N_5  and  C_1 
REMARK    2  A    between atoms: C_8  and  C_2 
REMARK    3  A    between atoms: C_7  and  N_5 
REMARK    4  A    between atoms: N_11  and  C_7 
REMARK    5  A    between atoms: O_12  and  C_8 
REMARK    6  A    between atoms: C_15  and  N_11 
REMARK    7  A    between atoms: C_16  and  O_12 
ROOT
ATOM      1  C   UNL d   1       1.028  -1.301   0.054  0.00  0.00     0.093 A 
ATOM      2  C   UNL d   1      -0.330  -1.606   0.057  0.00  0.00     0.080 A 
ATOM      3  S   UNL d   1       1.318   0.365   0.127  0.00  0.00    -0.076 SA
ATOM      4  C   UNL d   1      -1.134  -0.384  -0.004  0.00  0.00    -0.030 A 
ATOM      5  C   UNL d   1      -0.331   0.749   0.033  0.00  0.00    -0.012 A 
ATOM      6  C   UNL d   1      -2.629  -0.285  -0.083  0.00  0.00     0.050 C 
ATOM      7  C   UNL d   1      -0.753   2.182   0.009  0.00  0.00     0.057 C 
ENDROOT
BRANCH   1   8
ATOM      8  N   UNL d   1       2.083  -2.203   0.136  0.00  0.00    -0.327 N 
ATOM      9  H   UNL d   1       1.798  -3.174   0.231  0.00  0.00     0.169 HD
BRANCH   8  10
ATOM     10  C   UNL d   1       3.433  -2.019  -0.043  0.00  0.00     0.172 C 
ATOM     11  S   UNL d   1       4.235  -0.952  -1.048  0.00  0.00    -0.041 SA
BRANCH  10  12
ATOM     12  N   UNL d   1       4.220  -2.877   0.687  0.00  0.00    -0.367 N 
ATOM     13  H   UNL d   1       5.216  -2.760   0.530  0.00  0.00     0.161 HD
BRANCH  12  14
ATOM     14  C   UNL d   1       3.786  -3.771   1.746  0.00  0.00     0.117 C 
ATOM     15  C   UNL d   1       4.932  -4.153   2.661  0.00  0.00     0.026 C 
ENDBRANCH  12  14
ENDBRANCH  10  12
ENDBRANCH   8  10
ENDBRANCH   1   8
BRANCH   2  16
ATOM     16  C   UNL d   1      -0.804  -3.001   0.085  0.00  0.00     0.296 C 
ATOM     17  O   UNL d   1      -0.061  -3.965  -0.057  0.00  0.00    -0.259 OA
BRANCH  16  18
ATOM     18  O   UNL d   1      -2.147  -3.103   0.287  0.00  0.00    -0.318 OA
BRANCH  18  19
ATOM     19  C   UNL d   1      -2.766  -4.365   0.001  0.00  0.00     0.174 C 
ATOM     20  C   UNL d   1      -2.995  -5.160   1.270  0.00  0.00     0.034 C 
ENDBRANCH  18  19
ENDBRANCH  16  18
ENDBRANCH   2  16
TORSDOF 7
