REMARK  5 active torsions:
REMARK  status: ('A' for Active; 'I' for Inactive)
REMARK    1  A    between atoms: C_3  and  S_1 
REMARK    2  A    between atoms: N_9  and  S_1 
REMARK    3  A    between atoms: S_2  and  C_4 
REMARK    4  A    between atoms: N_10  and  S_2 
REMARK    5  A    between atoms: C_8  and  C_7 
ROOT
ATOM      1  C   UNL d   1      -0.459  -1.408   1.323  0.00  0.00     0.121 A 
ATOM      2  S   UNL d   1      -1.517  -2.188   2.421  0.00  0.00    -0.075 SA
ATOM      3  C   UNL d   1      -0.419  -2.021   3.740  0.00  0.00     0.023 A 
ATOM      4  C   UNL d   1       0.756  -1.132   1.917  0.00  0.00     0.034 A 
ATOM      5  C   UNL d   1       0.783  -1.494   3.295  0.00  0.00     0.022 A 
ENDROOT
BRANCH   3   6
ATOM      6  C   UNL d   1      -0.739  -2.333   5.123  0.00  0.00     0.023 A 
ATOM      7  S   UNL d   1      -2.349  -2.438   5.718  0.00  0.00    -0.075 SA
ATOM      8  C   UNL d   1      -1.835  -2.483   7.349  0.00  0.00     0.121 A 
ATOM      9  C   UNL d   1      -0.463  -2.580   7.441  0.00  0.00     0.034 A 
ATOM     10  C   UNL d   1       0.165  -2.494   6.164  0.00  0.00     0.022 A 
BRANCH   8  11
ATOM     11  S   UNL d   1      -3.113  -2.355   8.583  0.00  0.00     0.267 S 
ATOM     12  O   UNL d   1      -3.915  -3.552   8.425  0.00  0.00    -0.200 OA
ATOM     13  O   UNL d   1      -2.409  -2.075   9.817  0.00  0.00    -0.200 OA
BRANCH  11  14
ATOM     14  N   UNL d   1      -4.055  -1.000   8.190  0.00  0.00    -0.302 N 
ATOM     15  C   UNL d   1      -3.408   0.337   8.346  0.00  0.00     0.161 C 
ATOM     16  C   UNL d   1      -3.562   0.876   9.774  0.00  0.00     0.188 C 
ATOM     17  O   UNL d   1      -4.941   0.913  10.169  0.00  0.00    -0.388 OA
ATOM     18  C   UNL d   1      -5.511  -0.404  10.127  0.00  0.00     0.188 C 
ATOM     19  C   UNL d   1      -5.451  -0.982   8.712  0.00  0.00     0.161 C 
ENDBRANCH  11  14
ENDBRANCH   8  11
ENDBRANCH   3   6
BRANCH   1  20
ATOM     20  S   UNL d   1      -1.090  -1.030  -0.307  0.00  0.00     0.267 S 
ATOM     21  O   UNL d   1       0.026  -0.417  -0.994  0.00  0.00    -0.200 OA
ATOM     22  O   UNL d   1      -2.312  -0.295  -0.070  0.00  0.00    -0.200 OA
BRANCH  20  23
ATOM     23  N   UNL d   1      -1.471  -2.468  -1.118  0.00  0.00    -0.302 N 
ATOM     24  C   UNL d   1      -0.326  -3.332  -1.526  0.00  0.00     0.161 C 
ATOM     25  C   UNL d   1       0.215  -2.932  -2.903  0.00  0.00     0.188 C 
ATOM     26  O   UNL d   1      -0.821  -3.039  -3.888  0.00  0.00    -0.388 OA
ATOM     27  C   UNL d   1      -1.879  -2.118  -3.591  0.00  0.00     0.188 C 
ATOM     28  C   UNL d   1      -2.494  -2.366  -2.208  0.00  0.00     0.161 C 
ENDBRANCH  20  23
ENDBRANCH   1  20
TORSDOF 5
