REMARK  7 active torsions:
REMARK  status: ('A' for Active; 'I' for Inactive)
REMARK    1  A    between atoms: O_2  and  S_1 
REMARK    2  A    between atoms: C_3  and  S_1 
REMARK    3  A    between atoms: C_16  and  O_2 
REMARK    4  A    between atoms: C_4  and  C_8 
REMARK    5  A    between atoms: O_18  and  C_4 
REMARK       I    between atoms: C_7  and  N_9 
REMARK    6  A    between atoms: N_9  and  C_17 
REMARK    7  A    between atoms: C_24  and  O_18 
ROOT
ATOM      1  S   UNL d   1       1.044   0.022  -0.048  0.00  0.00     0.303 S 
ATOM      2  O   UNL d   1       0.428  -0.978  -0.896  0.00  0.00    -0.193 OA
ATOM      3  O   UNL d   1       2.478   0.250  -0.061  0.00  0.00    -0.193 OA
ENDROOT
BRANCH   1   4
ATOM      4  O   UNL d   1       0.575  -0.205   1.499  0.00  0.00    -0.229 OA
BRANCH   4   5
ATOM      5  C   UNL d   1       0.997  -1.284   2.232  0.00  0.00     0.089 A 
ATOM      6  C   UNL d   1       0.989  -1.111   3.618  0.00  0.00     0.039 A 
ATOM      7  C   UNL d   1       1.358  -2.160   4.465  0.00  0.00     0.020 A 
ATOM      8  C   UNL d   1       1.725  -3.400   3.926  0.00  0.00     0.039 A 
ATOM      9  C   UNL d   1       1.732  -3.569   2.537  0.00  0.00     0.020 A 
ATOM     10  C   UNL d   1       1.367  -2.515   1.693  0.00  0.00     0.039 A 
BRANCH   8  11
ATOM     11  C   UNL d   1       2.020  -4.584   4.775  0.00  0.00     0.293 C 
ATOM     12  O   UNL d   1       2.229  -5.701   4.328  0.00  0.00    -0.259 OA
BRANCH  11  13
ATOM     13  O   UNL d   1       1.909  -4.253   6.085  0.00  0.00    -0.318 OA
BRANCH  13  14
ATOM     14  C   UNL d   1       1.752  -5.355   6.988  0.00  0.00     0.174 C 
ATOM     15  C   UNL d   1       0.270  -5.661   7.104  0.00  0.00     0.034 C 
ENDBRANCH  13  14
ENDBRANCH  11  13
ENDBRANCH   8  11
ENDBRANCH   4   5
ENDBRANCH   1   4
BRANCH   1  16
ATOM     16  C   UNL d   1       0.280   1.563  -0.502  0.00  0.00     0.086 A 
ATOM     17  C   UNL d   1       0.902   2.386  -1.442  0.00  0.00     0.028 A 
ATOM     18  C   UNL d   1       0.309   3.605  -1.785  0.00  0.00     0.031 A 
ATOM     19  C   UNL d   1      -0.894   4.010  -1.188  0.00  0.00     0.034 A 
ATOM     20  C   UNL d   1      -1.504   3.166  -0.256  0.00  0.00     0.031 A 
ATOM     21  C   UNL d   1      -0.923   1.943   0.092  0.00  0.00     0.028 A 
BRANCH  19  22
ATOM     22  N   UNL d   1      -1.413   5.267  -1.565  0.00  0.00    -0.328 N 
ATOM     23  C   UNL d   1      -2.550   5.882  -1.073  0.00  0.00     0.218 C 
ATOM     24  O   UNL d   1      -3.325   5.430  -0.237  0.00  0.00    -0.274 OA
ATOM     25  C   UNL d   1      -2.795   7.248  -1.664  0.00  0.00     0.117 C 
ATOM     26  H   UNL d   1      -0.876   5.779  -2.252  0.00  0.00     0.169 HD
ENDBRANCH  19  22
ENDBRANCH   1  16
TORSDOF 7
