REMARK  2 active torsions:
REMARK  status: ('A' for Active; 'I' for Inactive)
REMARK    1  A    between atoms: C_2  and  C_1 
REMARK       I    between atoms: N_3  and  C_2 
REMARK    2  A    between atoms: C_9  and  N_3 
ROOT
ATOM      1  C   UNL d   1       3.177  -2.779  -1.004  0.00  0.00     0.104 A 
ATOM      2  C   UNL d   1       3.023  -1.394  -1.024  0.00  0.00     0.069 A 
ATOM      3  C   UNL d   1       4.053  -3.380  -0.099  0.00  0.00     0.102 A 
ATOM      4  C   UNL d   1       3.697  -0.591  -0.100  0.00  0.00     0.037 A 
ATOM      5  O   UNL d   1       2.416  -3.490  -1.896  0.00  0.00    -0.346 OA
ATOM      6  O   UNL d   1       4.227  -4.736  -0.008  0.00  0.00    -0.346 OA
ATOM      7  C   UNL d   1       4.776  -2.585   0.786  0.00  0.00     0.042 A 
ATOM      8  C   UNL d   1       4.605  -1.194   0.782  0.00  0.00     0.032 A 
ATOM      9  C   UNL d   1       2.258  -4.840  -1.452  0.00  0.00     0.202 C 
ATOM     10  C   UNL d   1       3.611  -5.435  -1.098  0.00  0.00     0.202 C 
ENDROOT
BRANCH   4  11
ATOM     11  N   UNL d   1       3.479   0.802   0.017  0.00  0.00    -0.323 N 
ATOM     12  C   UNL d   1       2.409   1.499  -0.523  0.00  0.00     0.258 C 
ATOM     13  O   UNL d   1       1.502   1.004  -1.186  0.00  0.00    -0.267 OA
ATOM     14  H   UNL d   1       4.069   1.297   0.671  0.00  0.00     0.169 HD
BRANCH  12  15
ATOM     15  C   UNL d   1       2.372   2.920  -0.207  0.00  0.00     0.056 A 
ATOM     16  C   UNL d   1       1.278   3.716  -0.500  0.00  0.00     0.158 A 
ATOM     17  O   UNL d   1       1.485   4.998  -0.116  0.00  0.00    -0.334 OA
ATOM     18  C   UNL d   1       2.726   5.045   0.426  0.00  0.00     0.142 A 
ATOM     19  C   UNL d   1       3.315   3.802   0.398  0.00  0.00     0.043 A 
ENDBRANCH  12  15
ENDBRANCH   4  11
TORSDOF 2
