REMARK  4 active torsions:
REMARK  status: ('A' for Active; 'I' for Inactive)
REMARK    1  A    between atoms: N_9  and  C_1 
REMARK    2  A    between atoms: C_2  and  C_5 
REMARK    3  A    between atoms: N_7  and  N_9 
REMARK    4  A    between atoms: C_17  and  C_12 
ROOT
ATOM      1  C   UNL d   1      -0.296   1.131   0.028  0.00  0.00     0.122 A 
ATOM      2  N   UNL d   1      -1.335   0.998  -0.849  0.00  0.00    -0.353 N 
ATOM      3  HN  UNL d   1      -1.654   1.801  -1.392  1.00  0.00     0.166 HD
ATOM      4  C   UNL d   1      -1.580  -1.341  -0.292  0.00  0.00     0.065 A 
ATOM      5  C   UNL d   1       0.129   0.009   0.771  0.00  0.00     0.074 A 
ATOM      6  C   UNL d   1      -0.511  -1.224   0.595  0.00  0.00     0.044 A 
ATOM      7  C   UNL d   1      -1.942  -0.206  -0.994  0.00  0.00     0.105 A 
ATOM      8 CL   UNL d   1       1.341   0.055   2.004  0.00  0.00    -0.081 Cl
ENDROOT
BRANCH   1   9
ATOM      9  N   UNL d   1       0.270   2.430   0.235  0.00  0.00    -0.184 NA
ATOM     10  C   UNL d   1       1.702   2.495  -0.089  0.00  0.00     0.144 C 
BRANCH   9  11
ATOM     11  N   UNL d   1      -0.388   3.558  -0.214  0.00  0.00    -0.324 N 
ATOM     12  C   UNL d   1      -1.619   3.719   0.154  0.00  0.00     0.113 C 
ATOM     13  HN  UNL d   1       0.078   4.239  -0.814  1.00  0.00     0.180 HD
BRANCH  12  14
ATOM     14  C   UNL d   1      -2.348   4.966  -0.159  0.00  0.00    -0.020 A 
ATOM     15  C   UNL d   1      -1.661   6.080  -0.659  0.00  0.00     0.014 A 
ATOM     16  C   UNL d   1      -2.335   7.288  -0.848  0.00  0.00     0.024 A 
ATOM     17  C   UNL d   1      -3.694   7.375  -0.548  0.00  0.00     0.034 A 
ATOM     18  C   UNL d   1      -4.386   6.261  -0.070  0.00  0.00     0.024 A 
ATOM     19 CL   UNL d   1      -4.518   8.872  -0.750  0.00  0.00    -0.084 Cl
ATOM     20  C   UNL d   1      -3.713   5.052   0.128  0.00  0.00     0.014 A 
ENDBRANCH  12  14
ENDBRANCH   9  11
ENDBRANCH   1   9
BRANCH   4  21
ATOM     21  C   UNL d   1      -2.351  -2.611  -0.468  0.00  0.00     0.418 C 
ATOM     22  F   UNL d   1      -1.878  -3.641   0.289  0.00  0.00    -0.166 F 
ATOM     23  F   UNL d   1      -3.661  -2.471  -0.125  0.00  0.00    -0.166 F 
ATOM     24  F   UNL d   1      -2.347  -3.058  -1.753  0.00  0.00    -0.166 F 
ENDBRANCH   4  21
TORSDOF 4
