REMARK  2 active torsions:
REMARK  status: ('A' for Active; 'I' for Inactive)
REMARK    1  A    between atoms: C_5  and  N_1 
REMARK    2  A    between atoms: C_2  and  C_6 
ROOT
ATOM      1  C   UNL d   1       0.423   0.244   1.603  0.00  0.00     0.103 A 
ATOM      2  C   UNL d   1      -0.159   2.376   2.616  0.00  0.00     0.002 A 
ATOM      3  C   UNL d   1       0.814   1.468   2.163  0.00  0.00     0.047 A 
ATOM      4  C   UNL d   1      -0.932  -0.091   1.489  0.00  0.00     0.036 A 
ATOM      5  C   UNL d   1      -1.516   2.034   2.481  0.00  0.00     0.012 A 
ATOM      6  C   UNL d   1      -1.900   0.809   1.929  0.00  0.00     0.003 A 
ENDROOT
BRANCH   2   7
ATOM      7  C   UNL d   1       0.221   3.721   3.190  0.00  0.00     0.391 C 
ATOM      8  N   UNL d   1       0.320   4.733   2.148  0.00  0.00     0.123 N 
ATOM      9  C   UNL d   1       1.405   5.618   2.580  0.00  0.00     0.243 C 
ATOM     10  H   UNL d   1      -0.567   5.219   2.059  0.00  0.00     0.320 HD
ATOM     11  C   UNL d   1       0.951   7.064   2.725  0.00  0.00     0.045 C 
ATOM     12  C   UNL d   1       1.913   5.030   3.892  0.00  0.00     0.206 C 
ATOM     13  O   UNL d   1       1.467   3.671   3.881  0.00  0.00    -0.352 OA
ENDBRANCH   2   7
BRANCH   1  14
ATOM     14  N   UNL d   1       1.443  -0.694   1.115  0.00  0.00    -0.116 N 
ATOM     15  O   UNL d   1       2.632  -0.358   1.205  0.00  0.00    -0.532 OA
ATOM     16  O   UNL d   1       1.053  -1.770   0.636  0.00  0.00    -0.532 OA
ENDBRANCH   1  14
TORSDOF 2
