REMARK  1 active torsions:
REMARK  status: ('A' for Active; 'I' for Inactive)
REMARK    1  A    between atoms: C_8  and  N_2 
ROOT
ATOM      1  C   UNL d   1       4.630   2.635  -0.704  0.00  0.00     0.124 A 
ATOM      2  C   UNL d   1       3.770   1.541  -0.723  0.00  0.00     0.072 A 
ATOM      3  C   UNL d   1       2.943   1.273   0.370  0.00  0.00     0.036 A 
ATOM      4  C   UNL d   1       4.688   3.496   0.394  0.00  0.00    -0.023 A 
ATOM      5  C   UNL d   1       3.894   3.209   1.508  0.00  0.00     0.012 A 
ATOM      6  F   UNL d   1       5.422   2.856  -1.764  0.00  0.00    -0.205 F 
ATOM      7  C   UNL d   1       3.048   2.094   1.500  0.00  0.00     0.030 A 
ATOM      8  C   UNL d   1       5.617   4.670   0.383  0.00  0.00     0.051 C 
ENDROOT
BRANCH   3   9
ATOM      9  N   UNL d   1       2.133   0.129   0.319  0.00  0.00    -0.337 N 
ATOM     10  C   UNL d   1       0.862   0.142   0.546  0.00  0.00     0.140 C 
ATOM     11  N   UNL d   1       0.111  -0.998   0.479  0.00  0.00    -0.370 N 
ATOM     12  S   UNL d   1      -0.150   1.498   1.021  0.00  0.00    -0.093 SA
ATOM     13  C   UNL d   1      -1.108  -0.978   1.253  0.00  0.00     0.132 C 
ATOM     14  H   UNL d   1       0.663  -1.848   0.472  0.00  0.00     0.161 HD
ATOM     15  C   UNL d   1      -1.631   0.455   1.205  0.00  0.00     0.102 C 
ATOM     16  HN  UNL d   1       2.573  -0.763   0.090  1.00  0.00     0.168 HD
ENDBRANCH   3   9
TORSDOF 1
