REMARK  2 active torsions:
REMARK  status: ('A' for Active; 'I' for Inactive)
REMARK    1  A    between atoms: C_8  and  N_7 
REMARK    2  A    between atoms: C_11  and  C_9 
ROOT
ATOM      1  C   UNL d   1       4.063   0.218   0.927  0.00  0.00     0.166 A 
ATOM      2  S   UNL d   1       3.232   1.595   1.635  0.00  0.00    -0.022 SA
ATOM      3  C   UNL d   1       4.777   2.191   2.175  0.00  0.00     0.160 A 
ATOM      4  N   UNL d   1       5.353   0.220   1.068  0.00  0.00    -0.278 N 
ATOM      5  HN  UNL d   1       5.980  -0.500   0.710  1.00  0.00     0.189 HD
ATOM      6  N   UNL d   1       5.747   1.323   1.761  0.00  0.00    -0.282 N 
ATOM      7  N   UNL d   1       3.269  -0.694   0.293  0.00  0.00    -0.335 N 
ATOM      8  S   UNL d   1       5.069   3.568   3.045  0.00  0.00    -0.051 SA
ATOM      9  H   UNL d   1       6.735   1.464   1.944  0.00  0.00     0.188 HD
ATOM     10  H   UNL d   1       2.274  -0.519   0.315  0.00  0.00     0.168 HD
ENDROOT
BRANCH   7  11
ATOM     11  C   UNL d   1       3.609  -2.036   0.036  0.00  0.00     0.040 A 
ATOM     12  C   UNL d   1       3.124  -2.720  -1.100  0.00  0.00    -0.028 A 
ATOM     13  C   UNL d   1       3.485  -4.076  -1.273  0.00  0.00     0.010 A 
ATOM     14  C   UNL d   1       4.311  -4.740  -0.365  0.00  0.00     0.001 A 
ATOM     15  C   UNL d   1       4.793  -4.062   0.743  0.00  0.00     0.002 A 
ATOM     16  C   UNL d   1       4.446  -2.727   0.937  0.00  0.00     0.030 A 
BRANCH  12  17
ATOM     17  C   UNL d   1       2.228  -2.124  -2.185  0.00  0.00     0.013 C 
ATOM     18  C   UNL d   1       0.754  -2.358  -1.848  0.00  0.00     0.015 C 
ATOM     19  C   UNL d   1       2.474  -0.659  -2.556  0.00  0.00     0.015 C 
ENDBRANCH  12  17
ENDBRANCH   7  11
TORSDOF 2
