REMARK  6 active torsions:
REMARK  status: ('A' for Active; 'I' for Inactive)
REMARK    1  A    between atoms: C_10  and  N_1 
REMARK    2  A    between atoms: C_7  and  C_2 
REMARK    3  A    between atoms: C_8  and  O_11 
REMARK    4  A    between atoms: N_12  and  C_9 
REMARK    5  A    between atoms: O_11  and  C_16 
REMARK    6  A    between atoms: C_17  and  N_12 
ROOT
ATOM      1  C   UNL d   1       2.462  -1.338  -0.213  0.00  0.00     0.063 C 
ATOM      2  C   UNL d   1       2.269  -2.609   0.160  0.00  0.00     0.066 C 
ENDROOT
BRANCH   2   3
ATOM      3  N   UNL d   1       3.135  -3.500   0.765  0.00  0.00    -0.270 NA
ATOM      4  H   UNL d   1       3.106  -4.398   0.278  0.00  0.00     0.133 HD
BRANCH   3   5
ATOM      5  C   UNL d   1       3.032  -3.793   2.158  0.00  0.00     0.012 A 
ATOM      6  C   UNL d   1       3.382  -5.072   2.611  0.00  0.00     0.026 A 
ATOM      7  C   UNL d   1       3.346  -5.383   3.973  0.00  0.00     0.039 A 
ATOM      8  C   UNL d   1       3.013  -4.412   4.917  0.00  0.00     0.078 A 
ATOM      9  C   UNL d   1       2.667  -3.135   4.482  0.00  0.00     0.039 A 
ATOM     10  C   UNL d   1       2.700  -2.825   3.115  0.00  0.00     0.026 A 
BRANCH   8  11
ATOM     11  O   UNL d   1       3.018  -4.847   6.206  0.00  0.00    -0.255 OA
BRANCH  11  12
ATOM     12  C   UNL d   1       3.410  -3.946   7.232  0.00  0.00     0.530 C 
ATOM     13  F   UNL d   1       3.995  -2.818   6.782  0.00  0.00    -0.144 F 
ATOM     14  F   UNL d   1       2.332  -3.618   7.977  0.00  0.00    -0.144 F 
ATOM     15  F   UNL d   1       4.296  -4.580   8.035  0.00  0.00    -0.144 F 
ENDBRANCH  11  12
ENDBRANCH   8  11
ENDBRANCH   3   5
ENDBRANCH   2   3
BRANCH   1  16
ATOM     16  C   UNL d   1       3.666  -0.649   0.045  0.00  0.00     0.139 A 
ATOM     17  N   UNL d   1       4.736  -0.557  -0.853  0.00  0.00    -0.225 N 
ATOM     18  N   UNL d   1       5.701   0.189  -0.243  0.00  0.00     0.001 NA
ATOM     19  N   UNL d   1       5.218   0.555   0.930  0.00  0.00    -0.007 NA
ATOM     20  N   UNL d   1       3.964   0.061   1.118  0.00  0.00    -0.270 N 
ATOM     21  HN  UNL d   1       3.369   0.210   1.933  1.00  0.00     0.185 HD
BRANCH  17  22
ATOM     22  C   UNL d   1       4.952  -1.029  -2.186  0.00  0.00     0.056 A 
ATOM     23  C   UNL d   1       3.969  -1.683  -2.937  0.00  0.00     0.031 A 
ATOM     24  C   UNL d   1       4.244  -2.120  -4.240  0.00  0.00     0.002 A 
ATOM     25  C   UNL d   1       5.497  -1.909  -4.808  0.00  0.00     0.000 A 
ATOM     26  C   UNL d   1       6.482  -1.252  -4.079  0.00  0.00     0.002 A 
ATOM     27  C   UNL d   1       6.212  -0.812  -2.780  0.00  0.00     0.031 A 
ENDBRANCH  17  22
ENDBRANCH   1  16
TORSDOF 6
