REMARK  7 active torsions:
REMARK  status: ('A' for Active; 'I' for Inactive)
REMARK    1  A    between atoms: C_11  and  N_2 
REMARK    2  A    between atoms: N_15  and  C_9 
REMARK    3  A    between atoms: C_12  and  C_11 
REMARK    4  A    between atoms: N_16  and  N_15 
REMARK    5  A    between atoms: O_29  and  C_18 
REMARK    6  A    between atoms: O_30  and  C_19 
REMARK    7  A    between atoms: C_25  and  C_24 
ROOT
ATOM      1  C   UNL d   1      -0.118  -0.850  -0.010  0.00  0.00     0.160 A 
ATOM      2  N   UNL d   1       1.908   0.920   0.047  0.00  0.00    -0.260 N 
ATOM      3  C   UNL d   1      -0.418   0.477   0.013  0.00  0.00     0.164 A 
ATOM      4  N   UNL d   1      -1.213  -1.621  -0.086  0.00  0.00    -0.172 N 
ATOM      5  HN  UNL d   1      -1.241  -2.638  -0.147  1.00  0.00     0.186 HD
ATOM      6  N   UNL d   1       1.151  -1.340   0.061  0.00  0.00    -0.287 N 
ATOM      7  C   UNL d   1       2.211  -0.450   0.155  0.00  0.00     0.333 C 
ATOM      8  C   UNL d   1       0.609   1.469   0.047  0.00  0.00     0.283 C 
ATOM      9  C   UNL d   1      -2.242  -0.802  -0.065  0.00  0.00     0.701 A 
ATOM     10  N   UNL d   1      -1.797   0.516  -0.001  0.00  0.00    -0.177 N 
ATOM     11  O   UNL d   1       3.359  -0.863   0.330  0.00  0.00    -0.246 OA
ATOM     12  O   UNL d   1       0.375   2.673   0.095  0.00  0.00    -0.265 OA
ATOM     13  C   UNL d   1       1.407  -2.768   0.079  0.00  0.00     0.163 C 
ATOM     14  C   UNL d   1      -2.636   1.689   0.011  0.00  0.00     0.176 C 
ENDROOT
BRANCH   9  15
ATOM     15  N   UNL d   1      -3.554  -1.173  -0.106  0.00  0.00    -0.132 N 
ATOM     16  H   UNL d   1      -4.265  -0.444  -0.089  0.00  0.00     0.205 HD
BRANCH  15  17
ATOM     17  N   UNL d   1      -4.028  -2.361  -0.649  0.00  0.00    -0.297 N 
ATOM     18  C   UNL d   1      -3.286  -3.421  -0.534  0.00  0.00     0.119 C 
ATOM     19  HN  UNL d   1      -4.930  -2.399  -1.123  1.00  0.00     0.186 HD
BRANCH  18  20
ATOM     20  C   UNL d   1      -3.602  -4.714  -1.180  0.00  0.00    -0.017 A 
ATOM     21  C   UNL d   1      -2.606  -5.706  -1.227  0.00  0.00     0.052 A 
ATOM     22  C   UNL d   1      -2.860  -6.955  -1.819  0.00  0.00     0.102 A 
ATOM     23  C   UNL d   1      -4.136  -7.196  -2.365  0.00  0.00     0.101 A 
ATOM     24  C   UNL d   1      -5.113  -6.186  -2.318  0.00  0.00     0.040 A 
ATOM     25  C   UNL d   1      -4.852  -4.947  -1.735  0.00  0.00     0.016 A 
BRANCH  22  26
ATOM     26  O   UNL d   1      -1.929  -7.955  -1.891  0.00  0.00    -0.353 OA
ATOM     27  C   UNL d   1      -0.628  -7.735  -1.364  0.00  0.00     0.210 C 
ENDBRANCH  22  26
BRANCH  23  28
ATOM     28  O   UNL d   1      -4.607  -8.329  -2.976  0.00  0.00    -0.353 OA
ATOM     29  C   UNL d   1      -3.758  -9.460  -3.098  0.00  0.00     0.210 C 
ENDBRANCH  23  28
ENDBRANCH  18  20
ENDBRANCH  15  17
ENDBRANCH   9  15
BRANCH   2  30
ATOM     30  C   UNL d   1       3.046   1.832   0.013  0.00  0.00     0.178 C 
BRANCH  30  31
ATOM     31  C   UNL d   1       3.655   1.945  -1.369  0.00  0.00    -0.001 A 
ATOM     32  C   UNL d   1       3.274   2.978  -2.228  0.00  0.00     0.124 A 
ATOM     33  F   UNL d   1       2.394   3.899  -1.816  0.00  0.00    -0.205 F 
ATOM     34  C   UNL d   1       3.798   3.086  -3.514  0.00  0.00     0.043 A 
ATOM     35  C   UNL d   1       4.723   2.147  -3.968  0.00  0.00     0.003 A 
ATOM     36  C   UNL d   1       5.123   1.111  -3.128  0.00  0.00     0.001 A 
ATOM     37  C   UNL d   1       4.597   1.012  -1.836  0.00  0.00     0.012 A 
ENDBRANCH  30  31
ENDBRANCH   2  30
TORSDOF 7
