REMARK  4 active torsions:
REMARK  status: ('A' for Active; 'I' for Inactive)
REMARK    1  A    between atoms: C_5  and  C_1 
REMARK    2  A    between atoms: N_2  and  C_6 
REMARK    3  A    between atoms: N_7  and  C_3 
REMARK    4  A    between atoms: O_14  and  C_5 
ROOT
ATOM      1  C   UNL d   1       1.458  -0.112   0.075  0.00  0.00     0.066 A 
ATOM      2  C   UNL d   1       0.664  -1.288  -0.015  0.00  0.00     0.047 A 
ATOM      3  C   UNL d   1       0.852   1.155   0.203  0.00  0.00     0.056 A 
ATOM      4  C   UNL d   1      -0.541   1.267   0.181  0.00  0.00     0.104 A 
ATOM      5  C   UNL d   1      -0.735  -1.127  -0.021  0.00  0.00     0.033 A 
ATOM      6  C   UNL d   1      -1.341   0.132   0.064  0.00  0.00     0.038 A 
ENDROOT
BRANCH   2   7
ATOM      7  N   UNL d   1       1.222  -2.561  -0.060  0.00  0.00    -0.376 N 
ATOM      8  C   UNL d   1       0.527  -3.705   0.560  0.00  0.00     0.149 C 
ATOM      9  C   UNL d   1       1.542  -4.833   0.816  0.00  0.00     0.187 C 
ATOM     10  O   UNL d   1       2.199  -5.227  -0.402  0.00  0.00    -0.388 OA
ATOM     11  C   UNL d   1       2.908  -4.105  -0.963  0.00  0.00     0.187 C 
ATOM     12  C   UNL d   1       1.949  -2.946  -1.287  0.00  0.00     0.149 C 
ENDBRANCH   2   7
BRANCH   1  13
ATOM     13  C   UNL d   1       2.954  -0.170   0.139  0.00  0.00     0.178 C 
ATOM     14  O   UNL d   1       3.596  -1.038   0.704  0.00  0.00    -0.646 OA
BRANCH  13  15
ATOM     15  O   UNL d   1       3.555   0.847  -0.518  0.00  0.00    -0.773 OA
ATOM     16  H   UNL d   1       2.983   1.429  -1.046  0.00  0.00     0.167 HD
ENDBRANCH  13  15
ENDBRANCH   1  13
BRANCH   4  17
ATOM     17  N   UNL d   1      -1.165   2.593   0.279  0.00  0.00    -0.116 N 
ATOM     18  O   UNL d   1      -0.410   3.576   0.301  0.00  0.00    -0.532 OA
ATOM     19  O   UNL d   1      -2.400   2.649   0.314  0.00  0.00    -0.532 OA
ENDBRANCH   4  17
TORSDOF 4
