REMARK  2 active torsions:
REMARK  status: ('A' for Active; 'I' for Inactive)
REMARK    1  A    between atoms: O_9  and  C_3 
REMARK    2  A    between atoms: O_10  and  C_4 
ROOT
ATOM      1  N   UNL d   1       2.450  -0.672   0.004  0.00  0.00    -0.302 N 
ATOM      2  HN  UNL d   1       3.351  -1.149   0.009  1.00  0.00     0.171 HD
ATOM      3  C   UNL d   1       1.277  -1.314   0.013  0.00  0.00     0.155 A 
ATOM      4  C   UNL d   1       2.321   0.654  -0.011  0.00  0.00     0.223 A 
ATOM      5  N   UNL d   1       1.196   1.371  -0.019  0.00  0.00    -0.321 N 
ATOM      6  HN  UNL d   1       1.209   2.391  -0.028  1.00  0.00     0.169 HD
ATOM      7  C   UNL d   1       0.020  -0.718   0.002  0.00  0.00     0.042 A 
ATOM      8  C   UNL d   1       0.049   0.680  -0.015  0.00  0.00     0.049 A 
ATOM      9  C   UNL d   1      -1.209  -1.416   0.004  0.00  0.00     0.018 A 
ATOM     10  C   UNL d   1      -1.166   1.356  -0.032  0.00  0.00     0.030 A 
ATOM     11  C   UNL d   1      -2.411  -0.715  -0.017  0.00  0.00     0.001 A 
ATOM     12  C   UNL d   1      -2.389   0.676  -0.035  0.00  0.00     0.002 A 
ENDROOT
BRANCH   3  13
ATOM     13  O   UNL d   1       1.407  -2.670   0.025  0.00  0.00    -0.345 OA
ATOM     14  H   UNL d   1       2.376  -2.763   0.022  0.00  0.00     0.219 HD
ENDBRANCH   3  13
BRANCH   4  15
ATOM     15  O   UNL d   1       3.494   1.338  -0.031  0.00  0.00    -0.332 OA
ATOM     16  H   UNL d   1       4.115   0.593  -0.038  0.00  0.00     0.221 HD
ENDBRANCH   4  15
TORSDOF 2
