REMARK  6 active torsions:
REMARK  status: ('A' for Active; 'I' for Inactive)
REMARK    1  A    between atoms: C_3  and  C_1 
REMARK    2  A    between atoms: C_12  and  N_2 
REMARK    3  A    between atoms: S_18  and  C_6 
REMARK    4  A    between atoms: C_28  and  S_18 
REMARK    5  A    between atoms: C_21  and  C_28 
REMARK       I    between atoms: N_23  and  C_21 
REMARK    6  A    between atoms: C_24  and  N_23 
ROOT
ATOM      1  C   UNL d   1      -0.631  -0.798  -0.057  0.00  0.00     0.145 A 
ATOM      2  N   UNL d   1      -0.139   0.253  -0.817  0.00  0.00    -0.305 N 
ATOM      3  N   UNL d   1       0.391  -1.534   0.343  0.00  0.00    -0.282 N 
ATOM      4  HN  UNL d   1       0.328  -2.392   0.892  1.00  0.00     0.188 HD
ATOM      5  C   UNL d   1       1.230   0.140  -0.759  0.00  0.00     0.163 A 
ATOM      6  N   UNL d   1       1.547  -0.955  -0.103  0.00  0.00    -0.278 N 
ATOM      7  HN  UNL d   1       2.491  -1.310   0.047  1.00  0.00     0.189 HD
ENDROOT
BRANCH   5   8
ATOM      8  S   UNL d   1       2.397   1.341  -1.230  0.00  0.00    -0.083 SA
BRANCH   8   9
ATOM      9  C   UNL d   1       3.815   0.750  -0.263  0.00  0.00     0.185 C 
BRANCH   9  10
ATOM     10  C   UNL d   1       5.062   1.619  -0.288  0.00  0.00     0.231 C 
ATOM     11  N   UNL d   1       4.961   2.859  -0.889  0.00  0.00    -0.326 N 
ATOM     12  H   UNL d   1       4.047   3.111  -1.248  0.00  0.00     0.169 HD
ATOM     13  O   UNL d   1       6.067   1.187   0.279  0.00  0.00    -0.272 OA
BRANCH  11  14
ATOM     14  C   UNL d   1       5.971   3.852  -0.934  0.00  0.00     0.037 A 
ATOM     15  C   UNL d   1       7.290   3.631  -0.527  0.00  0.00     0.069 A 
ATOM     16  C   UNL d   1       8.207   4.682  -0.485  0.00  0.00     0.104 A 
ATOM     17  O   UNL d   1       9.457   4.382  -0.006  0.00  0.00    -0.346 OA
ATOM     18  C   UNL d   1       7.836   5.960  -0.900  0.00  0.00     0.102 A 
ATOM     19  C   UNL d   1      10.111   5.564   0.462  0.00  0.00     0.202 C 
ATOM     20  C   UNL d   1      10.036   6.658  -0.591  0.00  0.00     0.202 C 
ATOM     21  O   UNL d   1       8.680   7.039  -0.862  0.00  0.00    -0.346 OA
ATOM     22  C   UNL d   1       6.539   6.183  -1.356  0.00  0.00     0.042 A 
ATOM     23  C   UNL d   1       5.612   5.133  -1.378  0.00  0.00     0.032 A 
ENDBRANCH  11  14
ENDBRANCH   9  10
ENDBRANCH   8   9
ENDBRANCH   5   8
BRANCH   2  24
ATOM     24  C   UNL d   1      -0.952   1.277  -1.443  0.00  0.00     0.094 A 
ATOM     25  C   UNL d   1      -1.367   1.139  -2.895  0.00  0.00     0.028 A 
ATOM     26  C   UNL d   1      -0.534   2.307  -2.464  0.00  0.00     0.028 A 
ENDBRANCH   2  24
BRANCH   1  27
ATOM     27  C   UNL d   1      -1.983  -1.130   0.273  0.00  0.00     0.092 A 
ATOM     28  C   UNL d   1      -2.483  -1.724   1.431  0.00  0.00     0.044 A 
ATOM     29  N   UNL d   1      -3.863  -1.919   1.437  0.00  0.00    -0.298 N 
ATOM     30  C   UNL d   1      -1.746  -2.163   2.646  0.00  0.00     0.071 C 
ATOM     31  N   UNL d   1      -4.422  -1.538   0.305  0.00  0.00    -0.269 N 
ATOM     32  HN  UNL d   1      -4.379  -2.311   2.224  1.00  0.00     0.187 HD
ATOM     33  S   UNL d   1      -3.316  -0.966  -0.798  0.00  0.00     0.007 SA
ATOM     34  HN  UNL d   1      -5.425  -1.588   0.125  1.00  0.00     0.195 HD
ENDBRANCH   1  27
TORSDOF 6
