REMARK  2 active torsions:
REMARK  status: ('A' for Active; 'I' for Inactive)
REMARK    1  A    between atoms: C_7  and  C_6 
REMARK    2  A    between atoms: O_16  and  C_9 
ROOT
ATOM      1  C   UNL d   1      -3.863   0.325   0.066  0.00  0.00    -0.000 A 
ATOM      2  C   UNL d   1      -4.149  -0.546   1.127  0.00  0.00     0.076 A 
ATOM      3  C   UNL d   1      -4.774   0.421  -0.995  0.00  0.00     0.033 A 
ATOM      4  C   UNL d   1      -5.311  -1.315   1.128  0.00  0.00     0.039 A 
ATOM      5  C   UNL d   1      -5.938  -0.349  -0.988  0.00  0.00     0.011 A 
ATOM      6  C   UNL d   1      -6.210  -1.219   0.066  0.00  0.00     0.022 A 
ATOM      7 BR   UNL d   1      -7.157  -0.216  -2.428  0.00  0.00    -0.051 Br
ENDROOT
BRANCH   1   8
ATOM      8  C   UNL d   1      -2.628   1.117   0.012  0.00  0.00     0.038 C 
ATOM      9  C   UNL d   1      -1.480   0.692  -0.532  0.00  0.00     0.076 A 
ATOM     10  C   UNL d   1      -0.247   1.522  -0.526  0.00  0.00     0.264 A 
ATOM     11  S   UNL d   1      -1.161  -0.826  -1.290  0.00  0.00    -0.055 SA
ATOM     12  N   UNL d   1       0.773   0.832  -1.117  0.00  0.00    -0.307 N 
ATOM     13  O   UNL d   1      -0.151   2.639  -0.044  0.00  0.00    -0.267 OA
ATOM     14  C   UNL d   1       0.517  -0.423  -1.577  0.00  0.00     0.146 A 
ATOM     15  H   UNL d   1       1.693   1.242  -1.183  0.00  0.00     0.170 HD
ATOM     16  S   UNL d   1       1.655  -1.392  -2.287  0.00  0.00    -0.052 SA
ENDBRANCH   1   8
BRANCH   2  17
ATOM     17  O   UNL d   1      -3.328  -0.699   2.209  0.00  0.00    -0.360 OA
ATOM     18  H   UNL d   1      -2.576  -0.090   2.130  0.00  0.00     0.217 HD
ENDBRANCH   2  17
TORSDOF 2
