REMARK  3 active torsions:
REMARK  status: ('A' for Active; 'I' for Inactive)
REMARK       I    between atoms: N_2  and  C_1 
REMARK       I    between atoms: N_4  and  C_1 
REMARK    1  A    between atoms: C_3  and  N_2 
REMARK    2  A    between atoms: C_13  and  N_4 
REMARK       I    between atoms: C_5  and  N_6 
REMARK    3  A    between atoms: N_6  and  C_14 
ROOT
ATOM      1  C   UNL d   1       1.201  -0.096   0.046  0.00  0.00     0.325 C 
ATOM      2  N   UNL d   1       0.575   0.174   1.256  0.00  0.00    -0.309 N 
ATOM      3  N   UNL d   1       0.323  -0.632  -0.881  0.00  0.00    -0.309 N 
ATOM      4  O   UNL d   1       2.390   0.102  -0.171  0.00  0.00    -0.247 OA
ATOM      5  H   UNL d   1      -0.317  -0.266   1.417  0.00  0.00     0.170 HD
ATOM      6  H   UNL d   1      -0.655  -0.632  -0.641  0.00  0.00     0.170 HD
ENDROOT
BRANCH   3   7
ATOM      7  C   UNL d   1       0.655  -1.071  -2.185  0.00  0.00     0.036 A 
ATOM      8  C   UNL d   1       1.955  -1.088  -2.696  0.00  0.00     0.032 A 
ATOM      9  C   UNL d   1       2.213  -1.518  -4.001  0.00  0.00     0.032 A 
ATOM     10  C   UNL d   1       1.175  -1.949  -4.827  0.00  0.00     0.034 A 
ATOM     11  C   UNL d   1      -0.123  -1.956  -4.318  0.00  0.00     0.032 A 
ATOM     12  C   UNL d   1      -0.381  -1.519  -3.009  0.00  0.00     0.032 A 
BRANCH  10  13
ATOM     13  N   UNL d   1       1.522  -2.344  -6.136  0.00  0.00    -0.328 N 
ATOM     14  C   UNL d   1       0.675  -2.782  -7.133  0.00  0.00     0.218 C 
ATOM     15  O   UNL d   1      -0.541  -2.931  -7.052  0.00  0.00    -0.274 OA
ATOM     16  C   UNL d   1       1.389  -3.082  -8.428  0.00  0.00     0.117 C 
ATOM     17  H   UNL d   1       2.505  -2.278  -6.364  0.00  0.00     0.169 HD
ENDBRANCH  10  13
ENDBRANCH   3   7
BRANCH   2  18
ATOM     18  C   UNL d   1       1.210   0.746   2.388  0.00  0.00     0.037 A 
ATOM     19  C   UNL d   1       2.437   1.411   2.314  0.00  0.00     0.036 A 
ATOM     20  C   UNL d   1       3.076   1.897   3.459  0.00  0.00    -0.059 A 
ATOM     21  C   UNL d   1       4.417   2.560   3.350  0.00  0.00     0.048 C 
ATOM     22  C   UNL d   1       2.455   1.741   4.699  0.00  0.00     0.013 A 
ATOM     23  C   UNL d   1       1.205   1.115   4.797  0.00  0.00    -0.059 A 
ATOM     24  C   UNL d   1       0.583   0.629   3.635  0.00  0.00     0.036 A 
ATOM     25  C   UNL d   1       0.563   0.965   6.145  0.00  0.00     0.048 C 
ENDBRANCH   2  18
TORSDOF 3
