REMARK  3 active torsions:
REMARK  status: ('A' for Active; 'I' for Inactive)
REMARK       I    between atoms: N_3  and  C_1 
REMARK    1  A    between atoms: C_4  and  C_1 
REMARK       I    between atoms: C_2  and  N_3 
REMARK    2  A    between atoms: C_5  and  C_2 
REMARK    3  A    between atoms: O_13  and  C_9 
ROOT
ATOM      1  C   UNL d   1       1.041  -0.242   0.113  0.00  0.00     0.263 C 
ATOM      2  C   UNL d   1       1.098   1.462   1.908  0.00  0.00     0.261 C 
ATOM      3  N   UNL d   1       0.469   0.751   0.897  0.00  0.00    -0.289 N 
ATOM      4  O   UNL d   1       2.195  -0.629   0.224  0.00  0.00    -0.267 OA
ATOM      5  O   UNL d   1       2.221   1.261   2.355  0.00  0.00    -0.267 OA
ATOM      6  H   UNL d   1      -0.521   0.908   0.785  0.00  0.00     0.172 HD
ENDROOT
BRANCH   2   7
ATOM      7  C   UNL d   1       0.266   2.517   2.558  0.00  0.00     0.065 A 
ATOM      8  C   UNL d   1       0.485   2.836   3.906  0.00  0.00     0.081 A 
ATOM      9  C   UNL d   1      -0.323   3.770   4.551  0.00  0.00     0.037 A 
ATOM     10  C   UNL d   1      -1.340   4.415   3.849  0.00  0.00     0.003 A 
ATOM     11  C   UNL d   1      -1.538   4.141   2.496  0.00  0.00     0.001 A 
ATOM     12  C   UNL d   1      -0.735   3.199   1.848  0.00  0.00     0.020 A 
BRANCH   8  13
ATOM     13  O   UNL d   1       1.475   2.264   4.659  0.00  0.00    -0.360 OA
ATOM     14  H   UNL d   1       2.078   1.778   4.051  0.00  0.00     0.217 HD
ENDBRANCH   8  13
ENDBRANCH   2   7
BRANCH   1  15
ATOM     15  C   UNL d   1       0.142  -0.856  -0.919  0.00  0.00     0.092 A 
ATOM     16  C   UNL d   1      -1.245  -0.872  -0.710  0.00  0.00     0.133 A 
ATOM     17  F   UNL d   1      -1.778  -0.318   0.391  0.00  0.00    -0.205 F 
ATOM     18  C   UNL d   1      -2.129  -1.435  -1.631  0.00  0.00     0.043 A 
ATOM     19  C   UNL d   1      -1.636  -2.004  -2.797  0.00  0.00     0.005 A 
ATOM     20  C   UNL d   1      -0.262  -2.000  -3.032  0.00  0.00     0.025 A 
ATOM     21  C   UNL d   1       0.628  -1.431  -2.104  0.00  0.00     0.052 A 
ATOM     22 CL   UNL d   1       2.294  -1.440  -2.567  0.00  0.00    -0.083 Cl
ENDBRANCH   1  15
TORSDOF 3
