REMARK  5 active torsions:
REMARK  status: ('A' for Active; 'I' for Inactive)
REMARK    1  A    between atoms: C_4  and  C_1 
REMARK       I    between atoms: C_2  and  N_5 
REMARK       I    between atoms: N_6  and  C_2 
REMARK       I    between atoms: C_3  and  N_7 
REMARK    2  A    between atoms: O_15  and  C_3 
REMARK    3  A    between atoms: N_5  and  C_10 
REMARK    4  A    between atoms: N_7  and  N_6 
REMARK    5  A    between atoms: C_19  and  O_15 
ROOT
ATOM      1  C   UNL d   1      -2.831   1.621   2.362  0.00  0.00     0.339 C 
ATOM      2  N   UNL d   1      -2.128   2.649   1.800  0.00  0.00    -0.308 N 
ATOM      3  N   UNL d   1      -2.360   0.351   2.238  0.00  0.00    -0.247 N 
ATOM      4  O   UNL d   1      -3.857   1.881   2.996  0.00  0.00    -0.245 OA
ATOM      5  H   UNL d   1      -2.520   3.540   2.096  0.00  0.00     0.170 HD
ATOM      6  H   UNL d   1      -1.378   0.174   2.068  0.00  0.00     0.192 HD
ENDROOT
BRANCH   2   7
ATOM      7  C   UNL d   1      -0.933   2.715   1.065  0.00  0.00     0.037 C 
ATOM      8  C   UNL d   1      -0.344   1.621   0.421  0.00  0.00     0.045 C 
ATOM      9  C   UNL d   1       0.960   1.702  -0.090  0.00  0.00     0.050 C 
ATOM     10  C   UNL d   1       1.617   2.934  -0.099  0.00  0.00     0.016 C 
ATOM     11  C   UNL d   1       0.984   4.063   0.423  0.00  0.00     0.003 C 
ATOM     12  C   UNL d   1      -0.275   3.946   1.014  0.00  0.00     0.029 C 
BRANCH   9  13
ATOM     13  C   UNL d   1       1.666   0.447  -0.553  0.00  0.00     0.417 C 
ATOM     14  F   UNL d   1       0.905  -0.674  -0.446  0.00  0.00    -0.166 F 
ATOM     15  F   UNL d   1       2.791   0.201   0.177  0.00  0.00    -0.166 F 
ATOM     16  F   UNL d   1       2.068   0.511  -1.852  0.00  0.00    -0.166 F 
ENDBRANCH   9  13
ENDBRANCH   2   7
BRANCH   3  17
ATOM     17  N   UNL d   1      -2.995  -0.675   2.949  0.00  0.00    -0.241 N 
ATOM     18  C   UNL d   1      -2.624  -1.972   2.717  0.00  0.00     0.379 C 
ATOM     19  O   UNL d   1      -1.719  -2.302   1.961  0.00  0.00    -0.237 OA
ATOM     20  H   UNL d   1      -3.774  -0.435   3.556  0.00  0.00     0.192 HD
BRANCH  18  21
ATOM     21  O   UNL d   1      -3.389  -2.817   3.451  0.00  0.00    -0.303 OA
BRANCH  21  22
ATOM     22  C   UNL d   1      -3.123  -4.216   3.259  0.00  0.00     0.176 C 
ATOM     23  C   UNL d   1      -1.988  -4.674   4.157  0.00  0.00     0.034 C 
ENDBRANCH  21  22
ENDBRANCH  18  21
ENDBRANCH   3  17
TORSDOF 5
