REMARK  4 active torsions:
REMARK  status: ('A' for Active; 'I' for Inactive)
REMARK    1  A    between atoms: C_11  and  C_1 
REMARK    2  A    between atoms: S_4  and  O_9 
REMARK    3  A    between atoms: O_9  and  C_15 
REMARK    4  A    between atoms: C_19  and  C_11 
ROOT
ATOM      1  C   UNL d   1      -1.763  -0.960   0.089  0.00  0.00     0.029 C 
ATOM      2  C   UNL d   1      -2.011   0.507   0.184  0.00  0.00     0.295 C 
ATOM      3  C   UNL d   1      -0.504  -1.457   0.040  0.00  0.00    -0.036 C 
ATOM      4  O   UNL d   1      -0.924   1.346   0.060  0.00  0.00    -0.274 OA
ATOM      5  C   UNL d   1       0.382   0.845   0.017  0.00  0.00     0.093 A 
ATOM      6  C   UNL d   1       0.641  -0.521   0.050  0.00  0.00     0.005 A 
ATOM      7  C   UNL d   1       1.389   1.810  -0.044  0.00  0.00     0.076 A 
ATOM      8  C   UNL d   1       1.989  -0.904   0.052  0.00  0.00     0.017 A 
ATOM      9  O   UNL d   1      -3.136   0.972   0.339  0.00  0.00    -0.259 OA
ATOM     10  C   UNL d   1       2.720   1.417  -0.067  0.00  0.00     0.092 A 
ATOM     11  C   UNL d   1       3.020   0.054   0.004  0.00  0.00     0.039 A 
ATOM     12  C   UNL d   1      -0.189  -2.928  -0.048  0.00  0.00     0.050 C 
ENDROOT
BRANCH   1  13
ATOM     13  C   UNL d   1      -3.038  -1.773  -0.025  0.00  0.00     0.084 C 
BRANCH  13  14
ATOM     14  C   UNL d   1      -3.534  -2.372   1.274  0.00  0.00    -0.054 A 
ATOM     15  C   UNL d   1      -3.973  -1.557   2.327  0.00  0.00     0.007 A 
ATOM     16  C   UNL d   1      -4.435  -2.119   3.519  0.00  0.00     0.001 A 
ATOM     17  C   UNL d   1      -4.477  -3.503   3.668  0.00  0.00     0.000 A 
ATOM     18  C   UNL d   1      -4.067  -4.325   2.621  0.00  0.00     0.001 A 
ATOM     19  C   UNL d   1      -3.603  -3.764   1.430  0.00  0.00     0.007 A 
ENDBRANCH  13  14
ENDBRANCH   1  13
BRANCH  10  20
ATOM     20  O   UNL d   1       3.779   2.289  -0.126  0.00  0.00    -0.233 OA
BRANCH  20  21
ATOM     21  S   UNL d   1       3.607   3.762  -0.817  0.00  0.00     0.266 S 
ATOM     22  O   UNL d   1       3.302   3.602  -2.224  0.00  0.00    -0.199 OA
ATOM     23  O   UNL d   1       2.819   4.620   0.045  0.00  0.00    -0.199 OA
ATOM     24  C   UNL d   1       5.296   4.286  -0.680  0.00  0.00     0.194 C 
ENDBRANCH  20  21
ENDBRANCH  10  20
TORSDOF 4
