REMARK  6 active torsions:
REMARK  status: ('A' for Active; 'I' for Inactive)
REMARK    1  A    between atoms: C_20  and  C_5 
REMARK    2  A    between atoms: C_7  and  S_15 
REMARK    3  A    between atoms: S_15  and  C_8 
REMARK    4  A    between atoms: C_21  and  C_12 
REMARK    5  A    between atoms: O_26  and  C_20 
REMARK    6  A    between atoms: C_33  and  O_26 
ROOT
ATOM      1  C   UNL d   1       1.478  -0.980   0.050  0.00  0.00     0.161 A 
ATOM      2  N   UNL d   1       0.827   0.232  -0.057  0.00  0.00    -0.221 N 
ATOM      3  N   UNL d   1       0.807  -2.168   0.177  0.00  0.00    -0.333 N 
ATOM      4  HN  UNL d   1       1.303  -3.058   0.217  1.00  0.00     0.168 HD
ATOM      5  C   UNL d   1       2.813  -0.613  -0.038  0.00  0.00     0.167 A 
ATOM      6  N   UNL d   1       1.678   1.254  -0.231  0.00  0.00    -0.013 NA
ATOM      7  C   UNL d   1      -0.495  -2.110   0.244  0.00  0.00     0.091 A 
ATOM      8  N   UNL d   1       2.902   0.752  -0.217  0.00  0.00    -0.275 N 
ATOM      9  HN  UNL d   1       3.766   1.284  -0.320  1.00  0.00     0.184 HD
ATOM     10  C   UNL d   1      -1.278  -0.832   0.262  0.00  0.00     0.026 A 
ATOM     11  C   UNL d   1      -0.564   0.357   0.049  0.00  0.00     0.069 A 
ATOM     12  C   UNL d   1      -2.659  -0.747   0.460  0.00  0.00     0.017 A 
ATOM     13  C   UNL d   1      -1.193   1.600  -0.034  0.00  0.00     0.032 A 
ATOM     14  C   UNL d   1      -3.301   0.494   0.387  0.00  0.00     0.001 A 
ATOM     15  C   UNL d   1      -2.575   1.660   0.126  0.00  0.00     0.002 A 
ENDROOT
BRANCH   7  16
ATOM     16  S   UNL d   1      -1.371  -3.621   0.077  0.00  0.00    -0.034 SA
BRANCH  16  17
ATOM     17  C   UNL d   1      -1.311  -4.202   1.700  0.00  0.00     0.169 A 
ATOM     18  N   UNL d   1      -0.381  -5.084   2.181  0.00  0.00    -0.315 N 
ATOM     19  C   UNL d   1      -0.868  -5.524   3.401  0.00  0.00     0.134 A 
ATOM     20  C   UNL d   1       0.811  -5.551   1.515  0.00  0.00     0.160 C 
ATOM     21  N   UNL d   1      -2.005  -4.889   3.634  0.00  0.00    -0.283 N 
ATOM     22  N   UNL d   1      -2.278  -4.058   2.574  0.00  0.00    -0.278 N 
ATOM     23  HN  UNL d   1      -2.586  -4.999   4.466  1.00  0.00     0.188 HD
ATOM     24  HN  UNL d   1      -3.085  -3.441   2.484  1.00  0.00     0.189 HD
BRANCH  19  25
ATOM     25  C   UNL d   1      -0.302  -6.580   4.251  0.00  0.00     0.012 A 
ATOM     26  C   UNL d   1       1.070  -6.713   4.470  0.00  0.00     0.032 A 
ATOM     27  C   UNL d   1       1.527  -7.783   5.223  0.00  0.00     0.088 A 
ATOM     28  N   UNL d   1       0.720  -8.700   5.791  0.00  0.00    -0.375 N 
ATOM     29  C   UNL d   1      -0.607  -8.528   5.617  0.00  0.00     0.088 A 
ATOM     30  HN  UNL d   1       1.093  -9.484   6.326  1.00  0.00     0.164 HD
ATOM     31  C   UNL d   1      -1.158  -7.498   4.870  0.00  0.00     0.032 A 
ENDBRANCH  19  25
ENDBRANCH  16  17
ENDBRANCH   7  16
BRANCH   5  32
ATOM     32  C   UNL d   1       3.980  -1.462   0.090  0.00  0.00     0.315 C 
ATOM     33  O   UNL d   1       3.939  -2.670   0.301  0.00  0.00    -0.257 OA
BRANCH  32  34
ATOM     34  O   UNL d   1       5.135  -0.731   0.056  0.00  0.00    -0.317 OA
BRANCH  34  35
ATOM     35  C   UNL d   1       6.280  -1.357   0.644  0.00  0.00     0.175 C 
ATOM     36  C   UNL d   1       6.230  -1.128   2.144  0.00  0.00     0.034 C 
ENDBRANCH  34  35
ENDBRANCH  32  34
ENDBRANCH   5  32
TORSDOF 6
