REMARK  2 active torsions:
REMARK  status: ('A' for Active; 'I' for Inactive)
REMARK    1  A    between atoms: C_6  and  N_1 
REMARK    2  A    between atoms: C_9  and  C_6 
ROOT
ATOM      1  N   UNL d   1       1.875   0.032  -0.090  0.00  0.00    -0.276 N 
ATOM      2  C   UNL d   1       1.089   1.151  -0.137  0.00  0.00     0.262 A 
ATOM      3  C   UNL d   1       1.130  -1.111  -0.013  0.00  0.00     0.262 A 
ATOM      4  C   UNL d   1      -0.296   0.687  -0.054  0.00  0.00     0.048 A 
ATOM      5  C   UNL d   1      -0.271  -0.694   0.015  0.00  0.00     0.048 A 
ATOM      6  O   UNL d   1       1.413   2.317  -0.261  0.00  0.00    -0.267 OA
ATOM      7  O   UNL d   1       1.496  -2.272   0.002  0.00  0.00    -0.267 OA
ATOM      8  C   UNL d   1      -1.484   1.394  -0.067  0.00  0.00     0.018 A 
ATOM      9  C   UNL d   1      -1.427  -1.448   0.066  0.00  0.00     0.018 A 
ATOM     10  C   UNL d   1      -2.642  -0.755   0.056  0.00  0.00     0.001 A 
ATOM     11  C   UNL d   1      -2.670   0.654  -0.008  0.00  0.00     0.001 A 
ENDROOT
BRANCH   1  12
ATOM     12  C   UNL d   1       3.317   0.047  -0.192  0.00  0.00     0.174 C 
BRANCH  12  13
ATOM     13  C   UNL d   1       3.989   0.177   1.154  0.00  0.00    -0.040 A 
ATOM     14  C   UNL d   1       4.285  -0.962   1.918  0.00  0.00     0.009 A 
ATOM     15  C   UNL d   1       4.904  -0.838   3.163  0.00  0.00     0.001 A 
ATOM     16  C   UNL d   1       5.229   0.423   3.660  0.00  0.00     0.000 A 
ATOM     17  C   UNL d   1       4.933   1.562   2.914  0.00  0.00     0.001 A 
ATOM     18  C   UNL d   1       4.313   1.441   1.669  0.00  0.00     0.009 A 
ENDBRANCH  12  13
ENDBRANCH   1  12
TORSDOF 2
