REMARK  5 active torsions:
REMARK  status: ('A' for Active; 'I' for Inactive)
REMARK    1  A    between atoms: C_5  and  C_1 
REMARK    2  A    between atoms: C_4  and  C_8 
REMARK    3  A    between atoms: O_12  and  C_5 
REMARK    4  A    between atoms: N_17  and  C_8 
REMARK    5  A    between atoms: N_10  and  O_12 
ROOT
ATOM      1  C   UNL d   1       0.546   5.320   0.219  0.00  0.00     0.110 C 
ATOM      2  N   UNL d   1       0.209   4.065   0.165  0.00  0.00    -0.245 N 
ATOM      3  HN  UNL d   1      -0.758   3.741   0.164  1.00  0.00     0.196 HD
ENDROOT
BRANCH   2   4
ATOM      4  O   UNL d   1       1.331   3.191   0.107  0.00  0.00    -0.192 OA
BRANCH   4   5
ATOM      5  C   UNL d   1       0.877   1.887   0.017  0.00  0.00     0.339 C 
ATOM      6  O   UNL d   1      -0.308   1.562  -0.040  0.00  0.00    -0.255 OA
BRANCH   5   7
ATOM      7  C   UNL d   1       1.979   0.935   0.007  0.00  0.00     0.159 A 
ATOM      8  O   UNL d   1       3.285   1.369   0.048  0.00  0.00    -0.303 OA
ATOM      9  C   UNL d   1       4.088   0.265   0.023  0.00  0.00     0.087 A 
ATOM     10  C   UNL d   1       5.482   0.259   0.043  0.00  0.00     0.038 A 
ATOM     11  C   UNL d   1       3.319  -0.889  -0.028  0.00  0.00     0.007 A 
ATOM     12  C   UNL d   1       6.111  -0.995   0.014  0.00  0.00     0.003 A 
ATOM     13  C   UNL d   1       5.367  -2.177  -0.033  0.00  0.00     0.001 A 
ATOM     14  C   UNL d   1       3.969  -2.139  -0.055  0.00  0.00     0.015 A 
ATOM     15  C   UNL d   1       1.958  -0.459  -0.042  0.00  0.00    -0.009 A 
ATOM     16  C   UNL d   1       0.780  -1.365  -0.100  0.00  0.00     0.052 C 
ENDBRANCH   5   7
ENDBRANCH   4   5
ENDBRANCH   2   4
BRANCH   1  17
ATOM     17  C   UNL d   1      -0.575   6.332   0.291  0.00  0.00     0.025 A 
ATOM     18  C   UNL d   1      -0.476   7.580   0.929  0.00  0.00     0.049 A 
ATOM     19  C   UNL d   1      -1.573   8.454   0.957  0.00  0.00     0.048 A 
ATOM     20 CL   UNL d   1       0.942   8.119   1.762  0.00  0.00    -0.083 Cl
ATOM     21  C   UNL d   1      -2.774   8.090   0.354  0.00  0.00     0.035 A 
ATOM     22  C   UNL d   1      -2.894   6.859  -0.281  0.00  0.00     0.025 A 
ATOM     23 CL   UNL d   1      -4.116   9.165   0.403  0.00  0.00    -0.084 Cl
ATOM     24  C   UNL d   1      -1.801   5.984  -0.309  0.00  0.00     0.018 A 
ENDBRANCH   1  17
BRANCH   1  25
ATOM     25  N   UNL d   1       1.853   5.736   0.198  0.00  0.00    -0.286 NA
ATOM     26  H   UNL d   1       2.064   6.609   0.670  0.00  0.00     0.125 HD
ATOM     27  H   UNL d   1       2.513   4.997   0.419  0.00  0.00     0.125 HD
ENDBRANCH   1  25
TORSDOF 5
