REMARK  5 active torsions:
REMARK  status: ('A' for Active; 'I' for Inactive)
REMARK    1  A    between atoms: C_6  and  C_1 
REMARK    2  A    between atoms: C_9  and  N_2 
REMARK    3  A    between atoms: C_8  and  C_4 
REMARK       I    between atoms: N_7  and  C_6 
REMARK    4  A    between atoms: C_11  and  N_7 
REMARK    5  A    between atoms: O_18  and  C_13 
ROOT
ATOM      1  C   UNL d   1      -0.150   1.066  -0.134  0.00  0.00     0.057 C 
ATOM      2  N   UNL d   1       1.035  -0.891   0.123  0.00  0.00    -0.318 N 
ATOM      3  C   UNL d   1       1.060   0.516   0.278  0.00  0.00     0.029 C 
ATOM      4  C   UNL d   1      -0.344  -1.226  -0.021  0.00  0.00     0.025 C 
ATOM      5  C   UNL d   1      -1.012  -0.037  -0.305  0.00  0.00     0.045 C 
ATOM      6  C   UNL d   1       2.195   1.304   0.869  0.00  0.00     0.070 C 
ENDROOT
BRANCH   1   7
ATOM      7  C   UNL d   1      -0.435   2.514  -0.251  0.00  0.00     0.258 C 
ATOM      8  N   UNL d   1      -1.780   2.841  -0.285  0.00  0.00    -0.323 N 
ATOM      9  H   UNL d   1      -2.439   2.075  -0.296  0.00  0.00     0.169 HD
ATOM     10  O   UNL d   1       0.480   3.326  -0.304  0.00  0.00    -0.267 OA
BRANCH   8  11
ATOM     11  C   UNL d   1      -2.353   4.135  -0.222  0.00  0.00     0.035 A 
ATOM     12  C   UNL d   1      -1.613   5.309  -0.061  0.00  0.00     0.032 A 
ATOM     13  C   UNL d   1      -2.252   6.551   0.074  0.00  0.00     0.039 A 
ATOM     14  C   UNL d   1      -3.641   6.634   0.051  0.00  0.00     0.068 A 
ATOM     15  C   UNL d   1      -4.384   5.472  -0.159  0.00  0.00     0.039 A 
ATOM     16  C   UNL d   1      -3.747   4.232  -0.285  0.00  0.00     0.032 A 
BRANCH  14  17
ATOM     17  O   UNL d   1      -4.374   7.778   0.206  0.00  0.00    -0.356 OA
ATOM     18  C   UNL d   1      -3.699   8.877   0.810  0.00  0.00     0.210 C 
ENDBRANCH  14  17
ENDBRANCH   8  11
ENDBRANCH   1   7
BRANCH   2  19
ATOM     19  C   UNL d   1       2.231  -1.740   0.136  0.00  0.00     0.039 A 
ATOM     20  C   UNL d   1       3.497  -1.187  -0.134  0.00  0.00     0.030 A 
ATOM     21  C   UNL d   1       4.682  -1.937  -0.039  0.00  0.00     0.002 A 
ATOM     22  C   UNL d   1       4.632  -3.286   0.270  0.00  0.00     0.000 A 
ATOM     23  C   UNL d   1       3.396  -3.882   0.454  0.00  0.00     0.002 A 
ATOM     24  C   UNL d   1       2.220  -3.117   0.383  0.00  0.00     0.030 A 
ENDBRANCH   2  19
BRANCH   4  25
ATOM     25  C   UNL d   1      -1.028  -2.603   0.038  0.00  0.00    -0.008 C 
ATOM     26  C   UNL d   1      -2.578  -2.484  -0.112  0.00  0.00     0.021 C 
ATOM     27  C   UNL d   1      -0.604  -3.480  -1.161  0.00  0.00     0.021 C 
ATOM     28  C   UNL d   1      -0.856  -3.245   1.438  0.00  0.00     0.021 C 
ENDBRANCH   4  25
TORSDOF 5
