REMARK  8 active torsions:
REMARK  status: ('A' for Active; 'I' for Inactive)
REMARK    1  A    between atoms: N_9  and  C_5 
REMARK    2  A    between atoms: N_10  and  C_6 
REMARK    3  A    between atoms: C_15  and  N_9 
REMARK    4  A    between atoms: C_16  and  N_10 
REMARK    5  A    between atoms: O_11  and  C_17 
REMARK    6  A    between atoms: O_12  and  C_18 
REMARK    7  A    between atoms: C_17  and  C_15 
REMARK    8  A    between atoms: C_18  and  C_16 
ROOT
ATOM      1  N   UNL d   1       1.119   1.500  -0.270  0.00  0.00    -0.343 N 
ATOM      2  HN  UNL d   1       1.066   2.518  -0.306  1.00  0.00     0.167 HD
ATOM      3  N   UNL d   1       1.255  -1.320  -0.169  0.00  0.00    -0.343 N 
ATOM      4  HN  UNL d   1       1.300  -2.339  -0.134  1.00  0.00     0.167 HD
ATOM      5  C   UNL d   1       2.303   0.852  -0.355  0.00  0.00     0.119 A 
ATOM      6  C   UNL d   1       2.373  -0.571  -0.303  0.00  0.00     0.119 A 
ATOM      7  C   UNL d   1       0.016   0.743  -0.136  0.00  0.00     0.060 A 
ATOM      8  C   UNL d   1       0.083  -0.668  -0.085  0.00  0.00     0.060 A 
ATOM      9  C   UNL d   1      -1.227   1.363  -0.047  0.00  0.00     0.032 A 
ATOM     10  C   UNL d   1      -1.093  -1.397   0.041  0.00  0.00     0.032 A 
ATOM     11  C   UNL d   1      -2.402   0.620   0.078  0.00  0.00     0.002 A 
ATOM     12  C   UNL d   1      -2.335  -0.767   0.121  0.00  0.00     0.002 A 
ENDROOT
BRANCH   5  13
ATOM     13  N   UNL d   1       3.487   1.597  -0.512  0.00  0.00    -0.274 NA
ATOM     14  H   UNL d   1       4.044   1.549   0.337  0.00  0.00     0.129 HD
BRANCH  13  15
ATOM     15  C   UNL d   1       3.344   2.966  -1.002  0.00  0.00     0.120 C 
BRANCH  15  16
ATOM     16  C   UNL d   1       3.020   3.971   0.104  0.00  0.00     0.178 C 
BRANCH  16  17
ATOM     17  O   UNL d   1       4.085   4.021   1.056  0.00  0.00    -0.400 OA
ATOM     18  H   UNL d   1       3.832   4.689   1.715  0.00  0.00     0.209 HD
ENDBRANCH  16  17
ENDBRANCH  15  16
ENDBRANCH  13  15
ENDBRANCH   5  13
BRANCH   6  19
ATOM     19  N   UNL d   1       3.602  -1.208  -0.541  0.00  0.00    -0.274 NA
ATOM     20  H   UNL d   1       4.338  -0.811   0.036  0.00  0.00     0.129 HD
BRANCH  19  21
ATOM     21  C   UNL d   1       3.603  -2.663  -0.573  0.00  0.00     0.120 C 
BRANCH  21  22
ATOM     22  C   UNL d   1       4.978  -3.148  -1.045  0.00  0.00     0.178 C 
BRANCH  22  23
ATOM     23  O   UNL d   1       5.961  -2.914  -0.035  0.00  0.00    -0.400 OA
ATOM     24  H   UNL d   1       6.818  -3.168  -0.419  0.00  0.00     0.209 HD
ENDBRANCH  22  23
ENDBRANCH  21  22
ENDBRANCH  19  21
ENDBRANCH   6  19
TORSDOF 8
