REMARK  4 active torsions:
REMARK  status: ('A' for Active; 'I' for Inactive)
REMARK    1  A    between atoms: N_2  and  C_1 
REMARK       I    between atoms: C_3  and  N_2 
REMARK    2  A    between atoms: C_4  and  C_3 
REMARK    3  A    between atoms: C_5  and  C_6 
REMARK    4  A    between atoms: O_13  and  C_5 
ROOT
ATOM      1  N   UNL d   1       1.489   2.201   0.039  0.00  0.00    -0.323 N 
ATOM      2  C   UNL d   1       2.835   2.220  -0.265  0.00  0.00     0.245 C 
ATOM      3  O   UNL d   1       3.567   1.269  -0.496  0.00  0.00    -0.268 OA
ATOM      4  H   UNL d   1       0.997   3.079  -0.059  0.00  0.00     0.169 HD
ENDROOT
BRANCH   1   5
ATOM      5  C   UNL d   1       0.657   1.063   0.184  0.00  0.00     0.041 C 
ATOM      6  C   UNL d   1       1.068  -0.214   0.598  0.00  0.00    -0.035 C 
ATOM      7  C   UNL d   1       0.158  -1.285   0.503  0.00  0.00     0.009 C 
ATOM      8  C   UNL d   1       2.384  -0.520   1.257  0.00  0.00     0.050 C 
ATOM      9  C   UNL d   1      -1.175  -1.073   0.163  0.00  0.00     0.007 C 
ATOM     10  C   UNL d   1      -1.635   0.221  -0.071  0.00  0.00    -0.060 C 
ATOM     11  C   UNL d   1      -0.709   1.274  -0.089  0.00  0.00     0.037 C 
ATOM     12  C   UNL d   1      -3.099   0.462  -0.283  0.00  0.00     0.048 C 
ENDBRANCH   1   5
BRANCH   2  13
ATOM     13  C   UNL d   1       3.365   3.605  -0.365  0.00  0.00     0.081 C 
ATOM     14  C   UNL d   1       4.673   3.792  -0.611  0.00  0.00     0.086 C 
BRANCH  14  15
ATOM     15  C   UNL d   1       5.183   5.162  -0.712  0.00  0.00     0.165 C 
ATOM     16  O   UNL d   1       4.492   6.163  -0.626  0.00  0.00    -0.647 OA
BRANCH  15  17
ATOM     17  O   UNL d   1       6.517   5.204  -0.898  0.00  0.00    -0.773 OA
ATOM     18  H   UNL d   1       6.966   4.337  -0.946  0.00  0.00     0.167 HD
ENDBRANCH  15  17
ENDBRANCH  14  15
ENDBRANCH   2  13
TORSDOF 4
