REMARK  2 active torsions:
REMARK  status: ('A' for Active; 'I' for Inactive)
REMARK    1  A    between atoms: C_7  and  N_2 
REMARK    2  A    between atoms: C_8  and  C_5 
ROOT
ATOM      1  C   UNL d   1      -0.438  -1.138  -0.085  0.00  0.00     0.183 A 
ATOM      2  N   UNL d   1       0.932  -0.717  -0.019  0.00  0.00    -0.297 N 
ATOM      3  N   UNL d   1      -1.183   0.058  -0.065  0.00  0.00    -0.331 N 
ATOM      4  C   UNL d   1       0.919   0.673   0.081  0.00  0.00     0.130 A 
ATOM      5  C   UNL d   1      -0.342   1.133   0.045  0.00  0.00     0.060 A 
ATOM      6  S   UNL d   1      -1.180  -2.621  -0.082  0.00  0.00    -0.040 SA
ATOM      7  H   UNL d   1      -2.192   0.090  -0.057  0.00  0.00     0.168 HD
ENDROOT
BRANCH   2   8
ATOM      8  C   UNL d   1       2.107  -1.518  -0.061  0.00  0.00     0.041 A 
ATOM      9  C   UNL d   1       2.155  -2.734  -0.751  0.00  0.00     0.030 A 
ATOM     10  C   UNL d   1       3.339  -3.476  -0.825  0.00  0.00     0.002 A 
ATOM     11  C   UNL d   1       4.495  -3.016  -0.204  0.00  0.00     0.000 A 
ATOM     12  C   UNL d   1       4.469  -1.810   0.489  0.00  0.00     0.002 A 
ATOM     13  C   UNL d   1       3.287  -1.066   0.553  0.00  0.00     0.030 A 
ENDBRANCH   2   8
BRANCH   5  14
ATOM     14  C   UNL d   1      -0.811   2.517   0.097  0.00  0.00    -0.008 A 
ATOM     15  C   UNL d   1      -1.979   2.905  -0.577  0.00  0.00     0.014 A 
ATOM     16  C   UNL d   1      -2.439   4.223  -0.510  0.00  0.00     0.001 A 
ATOM     17  C   UNL d   1      -1.737   5.170   0.232  0.00  0.00     0.000 A 
ATOM     18  C   UNL d   1      -0.574   4.802   0.902  0.00  0.00     0.001 A 
ATOM     19  C   UNL d   1      -0.114   3.485   0.836  0.00  0.00     0.014 A 
ENDBRANCH   5  14
TORSDOF 2
