REMARK  6 active torsions:
REMARK  status: ('A' for Active; 'I' for Inactive)
REMARK    1  A    between atoms: C_6  and  N_1 
REMARK    2  A    between atoms: C_7  and  C_4 
REMARK    3  A    between atoms: C_12  and  C_7 
REMARK    4  A    between atoms: O_22  and  C_8 
REMARK    5  A    between atoms: O_23  and  C_10 
REMARK    6  A    between atoms: O_24  and  C_11 
ROOT
ATOM      1  N   UNL d   1      -2.912   4.302   1.696  0.00  0.00    -0.262 N 
ATOM      2  C   UNL d   1      -1.685   4.625   1.141  0.00  0.00     0.153 A 
ATOM      3  C   UNL d   1      -3.381   3.015   1.462  0.00  0.00     0.271 A 
ATOM      4  C   UNL d   1      -2.442   2.277   0.569  0.00  0.00     0.077 A 
ATOM      5  S   UNL d   1      -1.043   3.232   0.265  0.00  0.00    -0.054 SA
ATOM      6  S   UNL d   1      -0.791   6.033   1.282  0.00  0.00    -0.052 SA
ATOM      7  O   UNL d   1      -4.428   2.539   1.889  0.00  0.00    -0.266 OA
ENDROOT
BRANCH   4   8
ATOM      8  C   UNL d   1      -2.642   1.081  -0.003  0.00  0.00     0.036 C 
BRANCH   8   9
ATOM      9  C   UNL d   1      -3.890   0.321   0.081  0.00  0.00    -0.029 A 
ATOM     10  C   UNL d   1      -4.882   0.540  -0.873  0.00  0.00     0.051 A 
ATOM     11  C   UNL d   1      -6.108  -0.142  -0.816  0.00  0.00     0.105 A 
ATOM     12  C   UNL d   1      -6.356  -1.067   0.226  0.00  0.00     0.135 A 
ATOM     13  C   UNL d   1      -5.362  -1.250   1.217  0.00  0.00     0.105 A 
ATOM     14  C   UNL d   1      -4.138  -0.566   1.122  0.00  0.00     0.051 A 
BRANCH  11  15
ATOM     15  O   UNL d   1      -7.108   0.154  -1.713  0.00  0.00    -0.353 OA
ATOM     16  C   UNL d   1      -6.683   0.515  -3.026  0.00  0.00     0.210 C 
ENDBRANCH  11  15
BRANCH  12  17
ATOM     17  O   UNL d   1      -7.500  -1.804   0.378  0.00  0.00    -0.351 OA
ATOM     18  C   UNL d   1      -8.429  -1.935  -0.686  0.00  0.00     0.210 C 
ENDBRANCH  12  17
BRANCH  13  19
ATOM     19  O   UNL d   1      -5.400  -2.012   2.358  0.00  0.00    -0.353 OA
ATOM     20  C   UNL d   1      -6.458  -2.928   2.581  0.00  0.00     0.210 C 
ENDBRANCH  13  19
ENDBRANCH   8   9
ENDBRANCH   4   8
BRANCH   1  21
ATOM     21  C   UNL d   1      -3.706   5.183   2.481  0.00  0.00     0.047 A 
ATOM     22  C   UNL d   1      -4.108   6.427   1.977  0.00  0.00     0.075 A 
ATOM     23  C   UNL d   1      -4.935   7.243   2.749  0.00  0.00     0.157 A 
ATOM     24  F   UNL d   1      -5.358   8.409   2.237  0.00  0.00    -0.203 F 
ATOM     25  C   UNL d   1      -5.353   6.846   4.013  0.00  0.00     0.154 A 
ATOM     26  C   UNL d   1      -4.952   5.620   4.526  0.00  0.00     0.048 A 
ATOM     27  F   UNL d   1      -6.148   7.639   4.743  0.00  0.00    -0.203 F 
ATOM     28  C   UNL d   1      -4.144   4.784   3.754  0.00  0.00     0.033 A 
ENDBRANCH   1  21
TORSDOF 6
