REMARK  4 active torsions:
REMARK  status: ('A' for Active; 'I' for Inactive)
REMARK    1  A    between atoms: C_2  and  C_1 
REMARK       I    between atoms: N_14  and  C_1 
REMARK    2  A    between atoms: C_18  and  N_14 
REMARK    3  A    between atoms: C_16  and  C_17 
REMARK    4  A    between atoms: C_17  and  C_18 
ROOT
ATOM      1  C   UNL d   1       0.970  -0.098  -0.106  0.00  0.00     0.251 C 
ATOM      2  O   UNL d   1       0.328  -0.283  -1.132  0.00  0.00    -0.268 OA
ATOM      3  N   UNL d   1       2.341  -0.193  -0.035  0.00  0.00    -0.357 N 
ATOM      4  H   UNL d   1       2.836   0.187   0.762  0.00  0.00     0.162 HD
ENDROOT
BRANCH   1   5
ATOM      5  C   UNL d   1       0.273   0.274   1.158  0.00  0.00     0.034 A 
ATOM      6  C   UNL d   1       0.820  -0.022   2.411  0.00  0.00     0.049 A 
ATOM      7  C   UNL d   1       0.156   0.314   3.582  0.00  0.00     0.060 A 
ATOM      8  N   UNL d   1       0.722   0.006   4.766  0.00  0.00    -0.363 N 
ATOM      9  C   UNL d   1      -1.102   0.963   3.511  0.00  0.00     0.059 A 
ATOM     10  C   UNL d   1       0.027   0.349   5.871  0.00  0.00     0.105 A 
ATOM     11  HN  UNL d   1       1.627  -0.461   4.823  1.00  0.00     0.165 HD
ATOM     12  C   UNL d   1      -1.192   0.987   5.803  0.00  0.00     0.105 A 
ATOM     13  N   UNL d   1      -1.776   1.307   4.627  0.00  0.00    -0.363 N 
ATOM     14  HN  UNL d   1      -2.678   1.782   4.585  1.00  0.00     0.165 HD
ATOM     15  C   UNL d   1      -1.646   1.239   2.263  0.00  0.00     0.033 A 
ATOM     16  C   UNL d   1      -0.976   0.893   1.086  0.00  0.00     0.019 A 
ENDBRANCH   1   5
BRANCH   3  17
ATOM     17  C   UNL d   1       3.162  -0.585  -1.169  0.00  0.00     0.129 C 
BRANCH  17  18
ATOM     18  C   UNL d   1       3.604   0.598  -2.031  0.00  0.00     0.076 C 
BRANCH  18  19
ATOM     19  C   UNL d   1       4.449   1.581  -1.259  0.00  0.00     0.010 A 
ATOM     20  N   UNL d   1       5.563   1.100  -0.654  0.00  0.00    -0.369 N 
ATOM     21  C   UNL d   1       6.322   1.975   0.042  0.00  0.00     0.088 A 
ATOM     22  HN  UNL d   1       5.818   0.115  -0.721  1.00  0.00     0.165 HD
ATOM     23  C   UNL d   1       6.025   3.320   0.169  0.00  0.00     0.017 A 
ATOM     24  C   UNL d   1       4.884   3.800  -0.462  0.00  0.00     0.003 A 
ATOM     25  C   UNL d   1       4.084   2.923  -1.189  0.00  0.00     0.025 A 
ENDBRANCH  18  19
ENDBRANCH  17  18
ENDBRANCH   3  17
TORSDOF 4
