REMARK  4 active torsions:
REMARK  status: ('A' for Active; 'I' for Inactive)
REMARK    1  A    between atoms: C_9  and  C_2 
REMARK    2  A    between atoms: C_5  and  C_10 
REMARK       I    between atoms: N_8  and  C_5 
REMARK    3  A    between atoms: C_16  and  N_8 
REMARK    4  A    between atoms: C_19  and  C_16 
ROOT
ATOM      1  C   UNL d   1       2.319  -1.664  -0.141  0.00  0.00    -0.008 A 
ATOM      2  C   UNL d   1       4.705  -3.200  -0.069  0.00  0.00     0.032 A 
ATOM      3  C   UNL d   1       2.611  -2.574  -1.163  0.00  0.00     0.015 A 
ATOM      4  C   UNL d   1       3.228  -1.540   0.920  0.00  0.00     0.015 A 
ATOM      5  C   UNL d   1       3.789  -3.331  -1.125  0.00  0.00     0.018 A 
ATOM      6  C   UNL d   1       4.412  -2.296   0.957  0.00  0.00     0.018 A 
ENDROOT
BRANCH   2   7
ATOM      7  C   UNL d   1       5.934  -4.057  -0.113  0.00  0.00     0.251 C 
ATOM      8  N   UNL d   1       6.841  -3.963   0.921  0.00  0.00    -0.353 N 
ATOM      9  H   UNL d   1       6.703  -3.326   1.688  0.00  0.00     0.163 HD
ATOM     10  O   UNL d   1       6.096  -4.824  -1.059  0.00  0.00    -0.268 OA
BRANCH   8  11
ATOM     11  C   UNL d   1       8.009  -4.819   0.982  0.00  0.00     0.161 C 
BRANCH  11  12
ATOM     12  C   UNL d   1       9.285  -4.019   0.968  0.00  0.00    -0.039 A 
ATOM     13  C   UNL d   1       9.913  -3.641   2.164  0.00  0.00     0.032 A 
ATOM     14  C   UNL d   1      11.105  -2.915   2.132  0.00  0.00     0.034 A 
ATOM     15 CL   UNL d   1      11.872  -2.471   3.608  0.00  0.00    -0.084 Cl
ATOM     16  C   UNL d   1      11.683  -2.552   0.918  0.00  0.00     0.024 A 
ATOM     17  C   UNL d   1      11.061  -2.914  -0.277  0.00  0.00     0.002 A 
ATOM     18  C   UNL d   1       9.866  -3.638  -0.252  0.00  0.00     0.009 A 
ENDBRANCH  11  12
ENDBRANCH   8  11
ENDBRANCH   2   7
BRANCH   1  19
ATOM     19  C   UNL d   1       1.097  -0.864  -0.147  0.00  0.00     0.063 A 
ATOM     20  N   UNL d   1       0.541  -0.396   1.040  0.00  0.00    -0.292 N 
ATOM     21  N   UNL d   1      -0.558   0.309   0.831  0.00  0.00    -0.061 NA
ATOM     22  HN  UNL d   1       0.934  -0.576   1.964  1.00  0.00     0.183 HD
ATOM     23  S   UNL d   1      -0.943   0.444  -0.790  0.00  0.00    -0.010 SA
ATOM     24  C   UNL d   1       0.411  -0.486  -1.289  0.00  0.00     0.096 A 
ENDBRANCH   1  19
TORSDOF 4
