REMARK  10 active torsions:
REMARK  status: ('A' for Active; 'I' for Inactive)
REMARK    1  A    between atoms: C_4  and  C_1 
REMARK    2  A    between atoms: N_5  and  C_2 
REMARK    3  A    between atoms: C_9  and  C_4 
REMARK       I    between atoms: C_8  and  N_5 
REMARK    4  A    between atoms: C_24  and  C_7 
REMARK    5  A    between atoms: C_14  and  C_8 
REMARK    6  A    between atoms: C_10  and  C_16 
REMARK    7  A    between atoms: O_20  and  C_10 
REMARK    8  A    between atoms: C_11  and  C_14 
REMARK    9  A    between atoms: C_16  and  C_11 
REMARK   10  A    between atoms: O_23  and  C_19 
ROOT
ATOM      1  C   UNL d   1       1.522   0.758   0.183  0.00  0.00     0.050 C 
ATOM      2  C   UNL d   1       0.264   1.330   0.147  0.00  0.00     0.091 C 
ATOM      3  S   UNL d   1      -1.001   0.202   0.274  0.00  0.00    -0.076 SA
ATOM      4  C   UNL d   1       1.392  -0.679   0.189  0.00  0.00     0.033 C 
ATOM      5  C   UNL d   1       0.083  -1.113   0.158  0.00  0.00    -0.015 C 
ENDROOT
BRANCH   2   6
ATOM      6  N   UNL d   1      -0.182   2.627   0.010  0.00  0.00    -0.321 N 
ATOM      7  C   UNL d   1       0.413   3.466  -0.919  0.00  0.00     0.223 C 
ATOM      8  O   UNL d   1       1.281   3.120  -1.716  0.00  0.00    -0.273 OA
ATOM      9  H   UNL d   1      -1.159   2.792   0.221  0.00  0.00     0.169 HD
BRANCH   7  10
ATOM     10  C   UNL d   1      -0.178   4.876  -0.883  0.00  0.00     0.112 C 
BRANCH  10  11
ATOM     11  C   UNL d   1       0.209   5.819  -2.057  0.00  0.00    -0.030 C 
ATOM     12  C   UNL d   1      -0.471   7.191  -1.835  0.00  0.00     0.016 C 
ATOM     13  C   UNL d   1       1.732   6.086  -2.048  0.00  0.00     0.016 C 
BRANCH  11  14
ATOM     14  C   UNL d   1      -0.183   5.258  -3.451  0.00  0.00     0.119 C 
BRANCH  14  15
ATOM     15  C   UNL d   1      -1.651   4.940  -3.669  0.00  0.00     0.140 C 
ATOM     16  O   UNL d   1      -2.545   5.065  -2.849  0.00  0.00    -0.650 OA
BRANCH  15  17
ATOM     17  O   UNL d   1      -1.890   4.477  -4.919  0.00  0.00    -0.776 OA
ATOM     18  H   UNL d   1      -1.086   4.399  -5.467  0.00  0.00     0.167 HD
ENDBRANCH  15  17
ENDBRANCH  14  15
ENDBRANCH  11  14
ENDBRANCH  10  11
ENDBRANCH   7  10
ENDBRANCH   2   6
BRANCH   1  19
ATOM     19  C   UNL d   1       2.787   1.500   0.279  0.00  0.00     0.195 C 
ATOM     20  O   UNL d   1       2.888   2.575   0.871  0.00  0.00    -0.287 OA
BRANCH  19  21
ATOM     21  C   UNL d   1       4.022   0.852  -0.248  0.00  0.00     0.015 A 
ATOM     22  C   UNL d   1       5.200   0.911   0.507  0.00  0.00     0.018 A 
ATOM     23  C   UNL d   1       6.353   0.241   0.074  0.00  0.00     0.037 A 
ATOM     24  C   UNL d   1       6.337  -0.480  -1.121  0.00  0.00     0.068 A 
ATOM     25  C   UNL d   1       5.168  -0.508  -1.888  0.00  0.00     0.037 A 
ATOM     26  C   UNL d   1       4.018   0.162  -1.464  0.00  0.00     0.018 A 
BRANCH  24  27
ATOM     27  O   UNL d   1       7.378  -1.190  -1.651  0.00  0.00    -0.356 OA
ATOM     28  C   UNL d   1       8.598  -1.200  -0.920  0.00  0.00     0.210 C 
ENDBRANCH  24  27
ENDBRANCH  19  21
ENDBRANCH   1  19
BRANCH   5  29
ATOM     29  C   UNL d   1      -0.415  -2.523   0.062  0.00  0.00     0.042 C 
ATOM     30  C   UNL d   1      -0.477  -2.990  -1.387  0.00  0.00     0.010 C 
ENDBRANCH   5  29
TORSDOF 10
