REMARK  4 active torsions:
REMARK  status: ('A' for Active; 'I' for Inactive)
REMARK    1  A    between atoms: N_9  and  C_3 
REMARK    2  A    between atoms: C_10  and  C_4 
REMARK       I    between atoms: C_7  and  N_8 
REMARK    3  A    between atoms: C_14  and  C_7 
REMARK    4  A    between atoms: N_8  and  N_9 
ROOT
ATOM      1  N   UNL d   1       1.492  -0.678   0.012  0.00  0.00    -0.334 N 
ATOM      2  HN  UNL d   1       2.393  -1.153   0.066  1.00  0.00     0.168 HD
ATOM      3  C   UNL d   1       0.327  -1.284  -0.082  0.00  0.00     0.163 A 
ATOM      4  C   UNL d   1       1.318   0.698   0.027  0.00  0.00     0.051 A 
ATOM      5  S   UNL d   1      -1.038  -0.236  -0.120  0.00  0.00    -0.062 SA
ATOM      6  C   UNL d   1       0.003   1.117  -0.006  0.00  0.00     0.083 A 
ENDROOT
BRANCH   3   7
ATOM      7  N   UNL d   1       0.159  -2.624  -0.139  0.00  0.00    -0.277 N 
ATOM      8  H   UNL d   1      -0.787  -3.010  -0.137  0.00  0.00     0.189 HD
BRANCH   7   9
ATOM      9  N   UNL d   1       1.114  -3.493   0.395  0.00  0.00    -0.264 N 
ATOM     10  C   UNL d   1       0.812  -4.840   0.407  0.00  0.00     0.270 C 
ATOM     11  O   UNL d   1      -0.247  -5.301  -0.009  0.00  0.00    -0.266 OA
ATOM     12  H   UNL d   1       2.035  -3.095   0.564  0.00  0.00     0.190 HD
BRANCH  10  13
ATOM     13  C   UNL d   1       1.857  -5.736   0.955  0.00  0.00     0.036 A 
ATOM     14  C   UNL d   1       2.678  -5.337   2.010  0.00  0.00     0.034 A 
ATOM     15  C   UNL d   1       3.603  -6.248   2.484  0.00  0.00     0.088 A 
ATOM     16  N   UNL d   1       3.756  -7.490   1.983  0.00  0.00    -0.375 N 
ATOM     17  C   UNL d   1       2.937  -7.853   0.970  0.00  0.00     0.088 A 
ATOM     18  HN  UNL d   1       4.460  -8.130   2.352  1.00  0.00     0.164 HD
ATOM     19  C   UNL d   1       1.973  -7.022   0.430  0.00  0.00     0.034 A 
ENDBRANCH  10  13
ENDBRANCH   7   9
ENDBRANCH   3   7
BRANCH   4  20
ATOM     20  C   UNL d   1       2.458   1.609   0.032  0.00  0.00    -0.009 A 
ATOM     21  C   UNL d   1       3.635   1.244  -0.639  0.00  0.00     0.015 A 
ATOM     22  C   UNL d   1       4.732   2.111  -0.680  0.00  0.00     0.020 A 
ATOM     23  C   UNL d   1       4.660   3.345  -0.039  0.00  0.00     0.011 A 
ATOM     24  C   UNL d   1       3.503   3.720   0.642  0.00  0.00     0.020 A 
ATOM     25 BR   UNL d   1       6.139   4.520  -0.090  0.00  0.00    -0.051 Br
ATOM     26  C   UNL d   1       2.406   2.853   0.678  0.00  0.00     0.015 A 
ENDBRANCH   4  20
TORSDOF 4
