REMARK  2 active torsions:
REMARK  status: ('A' for Active; 'I' for Inactive)
REMARK    1  A    between atoms: C_10  and  N_2 
REMARK    2  A    between atoms: C_16  and  N_7 
ROOT
ATOM      1  C   UNL d   1      -0.249  -0.699   0.034  0.00  0.00     0.148 A 
ATOM      2  N   UNL d   1       2.132   0.723   0.076  0.00  0.00    -0.229 N 
ATOM      3  C   UNL d   1      -0.256   0.660  -0.057  0.00  0.00     0.095 A 
ATOM      4  N   UNL d   1       0.945  -1.370   0.110  0.00  0.00    -0.292 N 
ATOM      5  C   UNL d   1       2.184  -0.669   0.151  0.00  0.00     0.335 A 
ATOM      6  C   UNL d   1       0.938   1.451  -0.029  0.00  0.00     0.271 A 
ATOM      7  N   UNL d   1      -1.562  -1.131  -0.062  0.00  0.00    -0.239 N 
ATOM      8  N   UNL d   1      -2.393  -0.073  -0.275  0.00  0.00    -0.302 N 
ATOM      9  HN  UNL d   1      -3.398  -0.098  -0.447  1.00  0.00     0.186 HD
ATOM     10  C   UNL d   1      -1.605   1.003  -0.210  0.00  0.00     0.128 A 
ATOM     11  O   UNL d   1       3.164  -1.391   0.196  0.00  0.00    -0.246 OA
ATOM     12  O   UNL d   1       0.857   2.674  -0.069  0.00  0.00    -0.266 OA
ATOM     13  H   UNL d   1       1.004  -2.381   0.069  0.00  0.00     0.172 HD
ENDROOT
BRANCH   2  14
ATOM     14  C   UNL d   1       3.378   1.439   0.058  0.00  0.00     0.049 A 
ATOM     15  C   UNL d   1       4.402   1.130   0.966  0.00  0.00     0.056 A 
ATOM     16  C   UNL d   1       5.611   1.840   0.953  0.00  0.00     0.058 A 
ATOM     17 CL   UNL d   1       6.788   1.431   2.151  0.00  0.00    -0.082 Cl
ATOM     18  C   UNL d   1       5.824   2.844   0.007  0.00  0.00     0.055 A 
ATOM     19  C   UNL d   1       4.819   3.147  -0.912  0.00  0.00     0.028 A 
ATOM     20 CL   UNL d   1       7.294   3.744  -0.081  0.00  0.00    -0.083 Cl
ATOM     21  C   UNL d   1       3.600   2.461  -0.878  0.00  0.00     0.032 A 
ENDBRANCH   2  14
BRANCH   7  22
ATOM     22  C   UNL d   1      -2.067  -2.455  -0.009  0.00  0.00     0.058 A 
ATOM     23  C   UNL d   1      -1.371  -3.478   0.648  0.00  0.00     0.031 A 
ATOM     24  C   UNL d   1      -1.880  -4.779   0.643  0.00  0.00     0.002 A 
ATOM     25  C   UNL d   1      -3.078  -5.062  -0.012  0.00  0.00     0.000 A 
ATOM     26  C   UNL d   1      -3.787  -4.042  -0.642  0.00  0.00     0.002 A 
ATOM     27  C   UNL d   1      -3.293  -2.737  -0.629  0.00  0.00     0.031 A 
ENDBRANCH   7  22
TORSDOF 2
