REMARK  4 active torsions:
REMARK  status: ('A' for Active; 'I' for Inactive)
REMARK    1  A    between atoms: C_2  and  C_1 
REMARK    2  A    between atoms: N_9  and  C_3 
REMARK       I    between atoms: C_6  and  N_10 
REMARK    3  A    between atoms: O_17  and  C_6 
REMARK    4  A    between atoms: N_10  and  N_9 
ROOT
ATOM      1  C   UNL d   1       0.416  -1.424  -0.159  0.00  0.00     0.065 A 
ATOM      2  C   UNL d   1      -0.563  -3.992  -0.536  0.00  0.00     0.120 A 
ATOM      3  N   UNL d   1       0.737  -3.827  -0.169  0.00  0.00    -0.353 N 
ATOM      4  HN  UNL d   1       1.355  -4.629  -0.046  1.00  0.00     0.166 HD
ATOM      5  C   UNL d   1      -1.409  -2.891  -0.738  0.00  0.00     0.074 A 
ATOM      6  C   UNL d   1      -0.912  -1.603  -0.556  0.00  0.00     0.044 A 
ATOM      7  C   UNL d   1       1.185  -2.563   0.029  0.00  0.00     0.105 A 
ATOM      8 CL   UNL d   1      -3.051  -3.079  -1.239  0.00  0.00    -0.081 Cl
ENDROOT
BRANCH   2   9
ATOM      9  N   UNL d   1      -1.040  -5.294  -0.812  0.00  0.00    -0.184 NA
ATOM     10  H   UNL d   1      -1.920  -5.497  -0.334  0.00  0.00     0.154 HD
BRANCH   9  11
ATOM     11  N   UNL d   1      -0.079  -6.311  -0.658  0.00  0.00    -0.261 N 
ATOM     12  C   UNL d   1      -0.394  -7.519  -1.230  0.00  0.00     0.375 C 
ATOM     13  O   UNL d   1      -1.533  -7.920  -1.440  0.00  0.00    -0.237 OA
ATOM     14  H   UNL d   1       0.888  -5.997  -0.712  0.00  0.00     0.186 HD
BRANCH  12  15
ATOM     15  O   UNL d   1       0.741  -8.189  -1.566  0.00  0.00    -0.308 OA
ATOM     16  C   UNL d   1       0.491  -9.394  -2.290  0.00  0.00     0.215 C 
ENDBRANCH  12  15
ENDBRANCH   9  11
ENDBRANCH   2   9
BRANCH   1  17
ATOM     17  C   UNL d   1       1.014  -0.070   0.065  0.00  0.00     0.418 C 
ATOM     18  F   UNL d   1       0.177   0.952  -0.260  0.00  0.00    -0.166 F 
ATOM     19  F   UNL d   1       2.146   0.126  -0.664  0.00  0.00    -0.166 F 
ATOM     20  F   UNL d   1       1.365   0.131   1.364  0.00  0.00    -0.166 F 
ENDBRANCH   1  17
TORSDOF 4
