REMARK  7 active torsions:
REMARK  status: ('A' for Active; 'I' for Inactive)
REMARK    1  A    between atoms: C_7  and  C_1 
REMARK    2  A    between atoms: C_13  and  N_2 
REMARK    3  A    between atoms: C_14  and  C_6 
REMARK       I    between atoms: N_9  and  C_7 
REMARK    4  A    between atoms: C_8  and  O_10 
REMARK    5  A    between atoms: C_19  and  N_9 
REMARK    6  A    between atoms: O_10  and  C_15 
REMARK    7  A    between atoms: C_24  and  C_13 
ROOT
ATOM      1  C   UNL d   1      -1.162  -3.069  -0.308  0.00  0.00     0.274 C 
ATOM      2  N   UNL d   1      -2.463  -3.532  -0.137  0.00  0.00    -0.320 N 
ATOM      3  O   UNL d   1      -0.237  -3.842  -0.541  0.00  0.00    -0.266 OA
ATOM      4  H   UNL d   1      -3.112  -2.931   0.352  0.00  0.00     0.169 HD
ENDROOT
BRANCH   1   5
ATOM      5  C   UNL d   1      -0.932  -1.643  -0.133  0.00  0.00     0.121 A 
ATOM      6  N   UNL d   1       0.333  -1.080  -0.073  0.00  0.00    -0.282 N 
ATOM      7  N   UNL d   1       0.317   0.257   0.109  0.00  0.00    -0.301 N 
ATOM      8  C   UNL d   1      -0.965   0.609   0.035  0.00  0.00     0.036 A 
ATOM      9  HN  UNL d   1       1.118   0.868   0.270  1.00  0.00     0.187 HD
ATOM     10  C   UNL d   1      -1.788  -0.549  -0.079  0.00  0.00     0.064 A 
BRANCH   6  11
ATOM     11  C   UNL d   1       1.645  -1.723  -0.154  0.00  0.00     0.188 C 
BRANCH  11  12
ATOM     12  C   UNL d   1       2.163  -1.774  -1.573  0.00  0.00    -0.038 A 
ATOM     13  C   UNL d   1       2.621  -0.608  -2.207  0.00  0.00     0.009 A 
ATOM     14  C   UNL d   1       3.095  -0.651  -3.519  0.00  0.00     0.001 A 
ATOM     15  C   UNL d   1       3.111  -1.857  -4.216  0.00  0.00     0.000 A 
ATOM     16  C   UNL d   1       2.659  -3.021  -3.600  0.00  0.00     0.001 A 
ATOM     17  C   UNL d   1       2.194  -2.981  -2.284  0.00  0.00     0.009 A 
ENDBRANCH  11  12
ENDBRANCH   6  11
BRANCH   8  18
ATOM     18  C   UNL d   1      -1.296   2.097   0.038  0.00  0.00    -0.007 C 
ATOM     19  C   UNL d   1      -2.800   2.370   0.202  0.00  0.00     0.021 C 
ATOM     20  C   UNL d   1      -0.558   2.815   1.193  0.00  0.00     0.021 C 
ATOM     21  C   UNL d   1      -0.832   2.730  -1.294  0.00  0.00     0.021 C 
ENDBRANCH   8  18
ENDBRANCH   1   5
BRANCH   2  22
ATOM     22  C   UNL d   1      -2.890  -4.853  -0.455  0.00  0.00     0.050 A 
ATOM     23  C   UNL d   1      -4.057  -5.387   0.100  0.00  0.00     0.119 A 
ATOM     24  N   UNL d   1      -4.572  -6.620  -0.185  0.00  0.00    -0.344 N 
ATOM     25  C   UNL d   1      -3.911  -7.337  -1.120  0.00  0.00     0.148 A 
ATOM     26  HN  UNL d   1      -5.406  -6.977   0.280  1.00  0.00     0.167 HD
ATOM     27  C   UNL d   1      -2.725  -6.921  -1.702  0.00  0.00     0.059 A 
ATOM     28  C   UNL d   1      -2.215  -5.668  -1.365  0.00  0.00     0.035 A 
BRANCH  25  29
ATOM     29  O   UNL d   1      -4.381  -8.557  -1.592  0.00  0.00    -0.290 OA
BRANCH  29  30
ATOM     30  C   UNL d   1      -5.684  -8.952  -1.397  0.00  0.00     0.121 A 
ATOM     31  C   UNL d   1      -6.821  -8.181  -1.683  0.00  0.00     0.069 A 
ATOM     32 CL   UNL d   1      -6.757  -6.591  -2.365  0.00  0.00    -0.081 Cl
ATOM     33  C   UNL d   1      -8.103  -8.735  -1.541  0.00  0.00     0.027 A 
ATOM     34  C   UNL d   1      -8.269 -10.073  -1.189  0.00  0.00     0.003 A 
ATOM     35  C   UNL d   1      -7.149 -10.868  -0.973  0.00  0.00     0.027 A 
ATOM     36  C   UNL d   1      -5.869 -10.310  -1.072  0.00  0.00     0.069 A 
ATOM     37 CL   UNL d   1      -4.520 -11.375  -0.848  0.00  0.00    -0.081 Cl
ENDBRANCH  29  30
ENDBRANCH  25  29
ENDBRANCH   2  22
TORSDOF 7
