REMARK  4 active torsions:
REMARK  status: ('A' for Active; 'I' for Inactive)
REMARK    1  A    between atoms: N_2  and  C_1 
REMARK    2  A    between atoms: C_5  and  C_4 
REMARK       I    between atoms: N_9  and  C_5 
REMARK       I    between atoms: C_7  and  N_10 
REMARK    3  A    between atoms: C_11  and  C_7 
REMARK    4  A    between atoms: N_10  and  N_9 
ROOT
ATOM      1  C   UNL d   1      -4.654  -1.759  -0.024  0.00  0.00     0.270 C 
ATOM      2  N   UNL d   1      -3.284  -1.597   0.043  0.00  0.00    -0.263 N 
ATOM      3  O   UNL d   1      -5.432  -0.812  -0.092  0.00  0.00    -0.266 OA
ATOM      4  H   UNL d   1      -2.639  -2.352   0.269  0.00  0.00     0.190 HD
ENDROOT
BRANCH   2   5
ATOM      5  N   UNL d   1      -2.735  -0.298   0.049  0.00  0.00    -0.261 N 
ATOM      6  C   UNL d   1      -1.359  -0.181   0.154  0.00  0.00     0.293 C 
ATOM      7  O   UNL d   1      -0.657  -1.188   0.291  0.00  0.00    -0.264 OA
ATOM      8  H   UNL d   1      -3.365   0.490  -0.091  0.00  0.00     0.190 HD
BRANCH   6   9
ATOM      9  C   UNL d   1      -0.799   1.154   0.093  0.00  0.00     0.147 A 
ATOM     10  O   UNL d   1      -1.597   2.266  -0.048  0.00  0.00    -0.283 OA
ATOM     11  C   UNL d   1      -0.752   3.341  -0.068  0.00  0.00     0.215 A 
ATOM     12  C   UNL d   1       0.563   2.959   0.052  0.00  0.00     0.066 A 
ATOM     13  C   UNL d   1       0.531   1.550   0.156  0.00  0.00     0.048 A 
BRANCH  11  14
ATOM     14  N   UNL d   1      -1.340   4.638  -0.204  0.00  0.00    -0.090 N 
ATOM     15  O   UNL d   1      -0.552   5.595  -0.223  0.00  0.00    -0.530 OA
ATOM     16  O   UNL d   1      -2.571   4.707  -0.293  0.00  0.00    -0.530 OA
ENDBRANCH  11  14
ENDBRANCH   6   9
ENDBRANCH   2   5
BRANCH   1  17
ATOM     17  C   UNL d   1      -5.162  -3.166   0.015  0.00  0.00     0.034 A 
ATOM     18  C   UNL d   1      -6.453  -3.400   0.513  0.00  0.00     0.029 A 
ATOM     19  C   UNL d   1      -6.991  -4.701   0.562  0.00  0.00    -0.025 A 
ATOM     20  C   UNL d   1      -8.276  -4.950   1.075  0.00  0.00     0.012 A 
ATOM     21  C   UNL d   1      -6.222  -5.786   0.083  0.00  0.00    -0.026 A 
ATOM     22  C   UNL d   1      -8.794  -6.248   1.116  0.00  0.00     0.001 A 
ATOM     23  C   UNL d   1      -8.037  -7.313   0.640  0.00  0.00     0.001 A 
ATOM     24  C   UNL d   1      -6.760  -7.084   0.125  0.00  0.00     0.012 A 
ATOM     25  C   UNL d   1      -4.937  -5.540  -0.429  0.00  0.00     0.013 A 
ATOM     26  C   UNL d   1      -4.409  -4.243  -0.463  0.00  0.00     0.018 A 
ENDBRANCH   1  17
TORSDOF 4
