REMARK  0 active torsions:
REMARK  status: ('A' for Active; 'I' for Inactive)
ROOT
ATOM      1  N   UNL d   1       0.338  -1.585  -0.017  0.00  0.00    -0.358 N 
ATOM      2  C   UNL d   1       1.390  -0.736  -0.052  0.00  0.00     0.017 A 
ATOM      3  C   UNL d   1       0.945   0.553  -0.039  0.00  0.00    -0.023 A 
ATOM      4  C   UNL d   1      -0.459   0.532  -0.008  0.00  0.00    -0.001 A 
ATOM      5  C   UNL d   1      -0.826  -0.826  -0.004  0.00  0.00     0.043 A 
ATOM      6  C   UNL d   1       2.066   1.511  -0.098  0.00  0.00     0.042 C 
ATOM      7  C   UNL d   1       2.850  -0.894  -0.126  0.00  0.00     0.058 C 
ATOM      8  C   UNL d   1      -1.468   1.511   0.000  0.00  0.00     0.014 A 
ATOM      9  C   UNL d   1      -2.164  -1.236   0.001  0.00  0.00     0.030 A 
ATOM     10  C   UNL d   1       3.305   0.580   0.150  0.00  0.00     0.011 C 
ATOM     11  C   UNL d   1      -2.809   1.109  -0.000  0.00  0.00     0.001 A 
ATOM     12  C   UNL d   1      -3.149  -0.243  -0.003  0.00  0.00     0.002 A 
ATOM     13  H   UNL d   1       0.371  -2.595  -0.021  0.00  0.00     0.166 HD
ENDROOT
TORSDOF 0
