REMARK  7 active torsions:
REMARK  status: ('A' for Active; 'I' for Inactive)
REMARK    1  A    between atoms: N_7  and  C_1 
REMARK    2  A    between atoms: C_9  and  C_6 
REMARK       I    between atoms: C_8  and  N_7 
REMARK    3  A    between atoms: C_21  and  C_8 
REMARK    4  A    between atoms: C_10  and  C_22 
REMARK    5  A    between atoms: O_17  and  C_10 
REMARK    6  A    between atoms: C_23  and  C_21 
REMARK    7  A    between atoms: C_22  and  C_23 
ROOT
ATOM      1  C   UNL d   1       0.083  -1.171   0.058  0.00  0.00     0.126 A 
ATOM      2  N   UNL d   1       0.095   1.105  -0.052  0.00  0.00    -0.296 N 
ATOM      3  HN  UNL d   1      -0.231   2.072  -0.075  1.00  0.00     0.187 HD
ATOM      4  C   UNL d   1       1.390  -0.748  -0.027  0.00  0.00     0.082 A 
ATOM      5  N   UNL d   1      -0.655  -0.013  -0.009  0.00  0.00    -0.281 N 
ATOM      6  C   UNL d   1       1.365   0.670  -0.057  0.00  0.00     0.062 A 
ATOM      7  C   UNL d   1      -2.092   0.113  -0.021  0.00  0.00     0.179 C 
ENDROOT
BRANCH   1   8
ATOM      8  N   UNL d   1      -0.386  -2.480   0.180  0.00  0.00    -0.312 N 
ATOM      9  C   UNL d   1       0.495  -3.604   0.365  0.00  0.00     0.223 C 
ATOM     10  O   UNL d   1       1.700  -3.460   0.526  0.00  0.00    -0.273 OA
ATOM     11  H   UNL d   1      -1.391  -2.643   0.203  0.00  0.00     0.170 HD
BRANCH   9  12
ATOM     12  C   UNL d   1      -0.156  -4.959   0.431  0.00  0.00     0.103 C 
BRANCH  12  13
ATOM     13  C   UNL d   1      -0.007  -5.578   1.824  0.00  0.00     0.019 C 
BRANCH  13  14
ATOM     14  C   UNL d   1      -0.705  -4.803   2.942  0.00  0.00     0.110 C 
BRANCH  14  15
ATOM     15  C   UNL d   1      -2.169  -4.646   2.643  0.00  0.00     0.139 C 
ATOM     16  O   UNL d   1      -2.581  -3.788   1.866  0.00  0.00    -0.650 OA
BRANCH  15  17
ATOM     17  O   UNL d   1      -2.952  -5.580   3.205  0.00  0.00    -0.776 OA
ATOM     18  H   UNL d   1      -2.494  -6.221   3.788  0.00  0.00     0.167 HD
ENDBRANCH  15  17
ENDBRANCH  14  15
ENDBRANCH  13  14
ENDBRANCH  12  13
ENDBRANCH   9  12
ENDBRANCH   1   8
BRANCH   6  19
ATOM     19  C   UNL d   1       2.517   1.583  -0.076  0.00  0.00    -0.008 A 
ATOM     20  C   UNL d   1       3.830   1.089  -0.168  0.00  0.00     0.015 A 
ATOM     21  C   UNL d   1       4.926   1.958  -0.177  0.00  0.00     0.024 A 
ATOM     22  C   UNL d   1       4.720   3.331  -0.092  0.00  0.00     0.034 A 
ATOM     23  C   UNL d   1       3.429   3.842   0.003  0.00  0.00     0.024 A 
ATOM     24 CL   UNL d   1       6.069   4.398  -0.107  0.00  0.00    -0.084 Cl
ATOM     25  C   UNL d   1       2.333   2.971   0.011  0.00  0.00     0.015 A 
ENDBRANCH   6  19
TORSDOF 7
