REMARK  3 active torsions:
REMARK  status: ('A' for Active; 'I' for Inactive)
REMARK    1  A    between atoms: O_11  and  C_5 
REMARK    2  A    between atoms: C_12  and  O_11 
REMARK    3  A    between atoms: C_16  and  C_12 
ROOT
ATOM      1  C   UNL d   1       1.324   0.822   0.049  0.00  0.00     0.101 A 
ATOM      2  C   UNL d   1       0.538   2.127  -0.018  0.00  0.00     0.264 A 
ATOM      3  N   UNL d   1      -0.833   1.993  -0.041  0.00  0.00    -0.312 N 
ATOM      4  C   UNL d   1       0.655  -0.356   0.034  0.00  0.00     0.110 A 
ATOM      5  C   UNL d   1       2.779   0.765   0.186  0.00  0.00     0.103 A 
ATOM      6  C   UNL d   1      -0.802  -0.433  -0.047  0.00  0.00     0.026 A 
ATOM      7  C   UNL d   1      -1.472   0.766  -0.058  0.00  0.00     0.057 A 
ATOM      8  C   UNL d   1       3.372  -0.425   0.383  0.00  0.00     0.121 A 
ATOM      9  O   UNL d   1       1.284  -1.606   0.161  0.00  0.00    -0.273 OA
ATOM     10  C   UNL d   1       2.621  -1.683   0.388  0.00  0.00     0.290 A 
ATOM     11  C   UNL d   1      -1.847   3.052  -0.054  0.00  0.00     0.137 A 
ATOM     12  O   UNL d   1       1.087   3.226  -0.031  0.00  0.00    -0.267 OA
ATOM     13  C   UNL d   1      -2.850   0.896  -0.071  0.00  0.00    -0.029 A 
ATOM     14  O   UNL d   1       3.190  -2.752   0.578  0.00  0.00    -0.260 OA
ATOM     15  C   UNL d   1      -3.229   2.344  -0.044  0.00  0.00     0.061 A 
ATOM     16  C   UNL d   1      -1.585  -1.587  -0.072  0.00  0.00     0.017 A 
ATOM     17  C   UNL d   1      -2.993  -1.490  -0.088  0.00  0.00     0.002 A 
ATOM     18  C   UNL d   1      -3.635  -0.242  -0.081  0.00  0.00     0.009 A 
ENDROOT
BRANCH   5  19
ATOM     19  O   UNL d   1       3.472   2.010   0.117  0.00  0.00    -0.274 OA
BRANCH  19  20
ATOM     20  C   UNL d   1       4.835   2.114   0.119  0.00  0.00     0.298 C 
ATOM     21  O   UNL d   1       5.644   1.199   0.192  0.00  0.00    -0.259 OA
BRANCH  20  22
ATOM     22  C   UNL d   1       5.302   3.523   0.021  0.00  0.00     0.040 A 
ATOM     23  C   UNL d   1       6.687   3.754   0.123  0.00  0.00     0.019 A 
ATOM     24  C   UNL d   1       7.204   5.048   0.038  0.00  0.00     0.025 A 
ATOM     25  C   UNL d   1       6.339   6.120  -0.154  0.00  0.00     0.034 A 
ATOM     26  C   UNL d   1       4.964   5.905  -0.265  0.00  0.00     0.025 A 
ATOM     27 CL   UNL d   1       6.969   7.717  -0.252  0.00  0.00    -0.084 Cl
ATOM     28  C   UNL d   1       4.442   4.608  -0.178  0.00  0.00     0.019 A 
ENDBRANCH  20  22
ENDBRANCH  19  20
ENDBRANCH   5  19
TORSDOF 3
