REMARK  4 active torsions:
REMARK  status: ('A' for Active; 'I' for Inactive)
REMARK    1  A    between atoms: C_6  and  C_1 
REMARK       I    between atoms: C_2  and  N_5 
REMARK    2  A    between atoms: C_3  and  C_2 
REMARK       I    between atoms: C_4  and  N_9 
REMARK       I    between atoms: N_8  and  C_4 
REMARK    3  A    between atoms: N_5  and  N_8 
REMARK    4  A    between atoms: N_9  and  C_15 
ROOT
ATOM      1  C   UNL d   1       2.692  -4.541   0.383  0.00  0.00     0.339 C 
ATOM      2  N   UNL d   1       3.045  -3.387   1.024  0.00  0.00    -0.248 N 
ATOM      3  N   UNL d   1       1.819  -4.445  -0.660  0.00  0.00    -0.308 N 
ATOM      4  O   UNL d   1       3.150  -5.641   0.700  0.00  0.00    -0.245 OA
ATOM      5  H   UNL d   1       3.168  -2.564   0.434  0.00  0.00     0.192 HD
ATOM      6  H   UNL d   1       1.780  -5.313  -1.182  0.00  0.00     0.170 HD
ENDROOT
BRANCH   3   7
ATOM      7  C   UNL d   1       0.884  -3.458  -1.027  0.00  0.00     0.037 A 
ATOM      8  C   UNL d   1       0.524  -2.368  -0.228  0.00  0.00     0.045 A 
ATOM      9  C   UNL d   1      -0.484  -1.472  -0.636  0.00  0.00     0.050 A 
ATOM     10  C   UNL d   1      -1.127  -1.677  -1.865  0.00  0.00     0.016 A 
ATOM     11  C   UNL d   1      -0.778  -2.761  -2.666  0.00  0.00     0.003 A 
ATOM     12  C   UNL d   1       0.216  -3.647  -2.244  0.00  0.00     0.029 A 
BRANCH   9  13
ATOM     13  C   UNL d   1      -0.913  -0.326   0.249  0.00  0.00     0.417 C 
ATOM     14  F   UNL d   1      -0.177  -0.209   1.389  0.00  0.00    -0.166 F 
ATOM     15  F   UNL d   1      -2.209  -0.444   0.653  0.00  0.00    -0.166 F 
ATOM     16  F   UNL d   1      -0.826   0.879  -0.378  0.00  0.00    -0.166 F 
ENDBRANCH   9  13
ENDBRANCH   3   7
BRANCH   2  17
ATOM     17  N   UNL d   1       3.989  -3.482   2.064  0.00  0.00    -0.261 N 
ATOM     18  C   UNL d   1       4.830  -2.414   2.293  0.00  0.00     0.286 C 
ATOM     19  O   UNL d   1       4.793  -1.407   1.584  0.00  0.00    -0.264 OA
ATOM     20  H   UNL d   1       4.076  -4.380   2.531  0.00  0.00     0.190 HD
BRANCH  18  21
ATOM     21  C   UNL d   1       5.731  -2.542   3.416  0.00  0.00     0.102 A 
ATOM     22  N   UNL d   1       6.595  -1.519   3.754  0.00  0.00    -0.361 N 
ATOM     23  C   UNL d   1       7.300  -1.844   4.879  0.00  0.00     0.088 A 
ATOM     24  H   UNL d   1       6.661  -0.649   3.239  0.00  0.00     0.165 HD
ATOM     25  C   UNL d   1       6.913  -3.103   5.270  0.00  0.00     0.019 A 
ATOM     26  C   UNL d   1       5.933  -3.549   4.347  0.00  0.00     0.036 A 
ENDBRANCH  18  21
ENDBRANCH   2  17
TORSDOF 4
