REMARK  3 active torsions:
REMARK  status: ('A' for Active; 'I' for Inactive)
REMARK    1  A    between atoms: C_7  and  C_1 
REMARK    2  A    between atoms: C_8  and  C_7 
REMARK    3  A    between atoms: C_18  and  N_10 
ROOT
ATOM      1  C   UNL d   1      -0.118  -1.153  -0.034  0.00  0.00     0.081 C 
ATOM      2  C   UNL d   1       0.638   1.172   0.007  0.00  0.00     0.150 C 
ATOM      3  N   UNL d   1      -0.673   1.107   0.002  0.00  0.00    -0.339 N 
ATOM      4  HN  UNL d   1      -1.287   1.921   0.025  1.00  0.00     0.168 HD
ATOM      5  S   UNL d   1       1.402  -0.365  -0.165  0.00  0.00    -0.048 SA
ATOM      6  C   UNL d   1      -1.120  -0.198  -0.038  0.00  0.00     0.028 C 
ATOM      7  N   UNL d   1       1.386   2.295   0.117  0.00  0.00    -0.337 N 
ATOM      8  C   UNL d   1      -2.589  -0.426  -0.035  0.00  0.00     0.070 C 
ATOM      9  H   UNL d   1       2.386   2.195   0.015  0.00  0.00     0.168 HD
ENDROOT
BRANCH   1  10
ATOM     10  C   UNL d   1      -0.280  -2.596  -0.029  0.00  0.00     0.201 C 
ATOM     11  O   UNL d   1      -1.294  -3.143  -0.464  0.00  0.00    -0.286 OA
BRANCH  10  12
ATOM     12  C   UNL d   1       0.760  -3.501   0.540  0.00  0.00     0.018 A 
ATOM     13  C   UNL d   1       1.524  -3.152   1.660  0.00  0.00     0.055 A 
ATOM     14  C   UNL d   1       2.489  -4.036   2.143  0.00  0.00     0.103 A 
ATOM     15  O   UNL d   1       3.243  -3.600   3.203  0.00  0.00    -0.346 OA
ATOM     16  C   UNL d   1       2.650  -5.296   1.558  0.00  0.00     0.102 A 
ATOM     17  C   UNL d   1       4.418  -4.405   3.368  0.00  0.00     0.202 C 
ATOM     18  C   UNL d   1       4.066  -5.881   3.299  0.00  0.00     0.202 C 
ATOM     19  O   UNL d   1       3.558  -6.221   2.003  0.00  0.00    -0.346 OA
ATOM     20  C   UNL d   1       1.869  -5.662   0.466  0.00  0.00     0.040 A 
ATOM     21  C   UNL d   1       0.923  -4.769  -0.041  0.00  0.00     0.018 A 
ENDBRANCH  10  12
ENDBRANCH   1  10
BRANCH   7  22
ATOM     22  C   UNL d   1       0.990   3.528   0.680  0.00  0.00     0.034 A 
ATOM     23  C   UNL d   1      -0.263   3.747   1.269  0.00  0.00     0.029 A 
ATOM     24  C   UNL d   1      -0.623   4.997   1.781  0.00  0.00     0.002 A 
ATOM     25  C   UNL d   1       0.263   6.063   1.699  0.00  0.00     0.000 A 
ATOM     26  C   UNL d   1       1.506   5.878   1.101  0.00  0.00     0.002 A 
ATOM     27  C   UNL d   1       1.863   4.624   0.591  0.00  0.00     0.029 A 
ENDBRANCH   7  22
TORSDOF 3
