REMARK  4 active torsions:
REMARK  status: ('A' for Active; 'I' for Inactive)
REMARK    1  A    between atoms: N_9  and  C_3 
REMARK    2  A    between atoms: C_10  and  C_4 
REMARK    3  A    between atoms: C_19  and  N_9 
REMARK    4  A    between atoms: C_11  and  C_19 
ROOT
ATOM      1  N   UNL d   1      -1.725   1.285  -0.034  0.00  0.00    -0.330 N 
ATOM      2  HN  UNL d   1      -2.292   2.133  -0.044  1.00  0.00     0.168 HD
ATOM      3  C   UNL d   1      -0.378   1.348  -0.023  0.00  0.00     0.106 A 
ATOM      4  C   UNL d   1      -2.298   0.061  -0.031  0.00  0.00     0.134 A 
ATOM      5  N   UNL d   1      -1.605  -1.096  -0.019  0.00  0.00    -0.343 N 
ATOM      6  HN  UNL d   1      -2.083  -1.998  -0.031  1.00  0.00     0.167 HD
ATOM      7  C   UNL d   1       0.410   0.195   0.023  0.00  0.00     0.094 A 
ATOM      8  C   UNL d   1      -0.258  -1.019   0.009  0.00  0.00     0.032 A 
ATOM      9 CL   UNL d   1       2.135   0.292   0.033  0.00  0.00    -0.079 Cl
ATOM     10  C   UNL d   1       0.469  -2.332   0.012  0.00  0.00     0.070 C 
ENDROOT
BRANCH   3  11
ATOM     11  N   UNL d   1       0.231   2.617   0.060  0.00  0.00    -0.271 NA
ATOM     12  H   UNL d   1       1.183   2.578  -0.304  0.00  0.00     0.129 HD
BRANCH  11  13
ATOM     13  C   UNL d   1      -0.508   3.685  -0.610  0.00  0.00     0.159 C 
BRANCH  13  14
ATOM     14  C   UNL d   1       0.225   4.986  -0.601  0.00  0.00     0.065 A 
ATOM     15  O   UNL d   1       1.452   5.000  -1.202  0.00  0.00    -0.326 OA
ATOM     16  C   UNL d   1       1.944   6.259  -1.067  0.00  0.00     0.142 A 
ATOM     17  C   UNL d   1       1.048   7.056  -0.393  0.00  0.00     0.027 A 
ATOM     18  C   UNL d   1      -0.062   6.235  -0.091  0.00  0.00     0.036 A 
ENDBRANCH  13  14
ENDBRANCH  11  13
ENDBRANCH   3  11
BRANCH   4  19
ATOM     19  C   UNL d   1      -3.780  -0.009  -0.019  0.00  0.00     0.076 A 
ATOM     20  N   UNL d   1      -4.359  -1.142  -0.512  0.00  0.00    -0.363 N 
ATOM     21  C   UNL d   1      -5.708  -1.216  -0.521  0.00  0.00     0.088 A 
ATOM     22  HN  UNL d   1      -3.789  -1.911  -0.864  1.00  0.00     0.165 HD
ATOM     23  C   UNL d   1      -6.537  -0.211  -0.057  0.00  0.00     0.017 A 
ATOM     24  C   UNL d   1      -5.949   0.938   0.453  0.00  0.00     0.004 A 
ATOM     25  C   UNL d   1      -4.559   1.044   0.471  0.00  0.00     0.033 A 
ENDBRANCH   4  19
TORSDOF 4
