REMARK  2 active torsions:
REMARK  status: ('A' for Active; 'I' for Inactive)
REMARK    1  A    between atoms: C_8  and  C_3 
REMARK    2  A    between atoms: N_18  and  C_4 
ROOT
ATOM      1  C   UNL d   1       2.214   0.113  -0.177  0.00  0.00     0.080 C 
ATOM      2  C   UNL d   1      -0.239   0.543  -0.109  0.00  0.00     0.031 C 
ATOM      3  C   UNL d   1       1.095   1.054  -0.600  0.00  0.00     0.107 C 
ATOM      4  C   UNL d   1       1.950  -1.159   0.191  0.00  0.00     0.138 C 
ATOM      5  C   UNL d   1      -0.420  -0.756   0.176  0.00  0.00     0.066 C 
ATOM      6  O   UNL d   1       0.642  -1.650   0.184  0.00  0.00    -0.301 OA
ATOM      7  C   UNL d   1      -1.367   1.493   0.083  0.00  0.00     0.159 C 
ATOM      8  C   UNL d   1       3.544   0.627  -0.165  0.00  0.00     0.100 C 
ATOM      9  N   UNL d   1       4.630   1.027  -0.169  0.00  0.00    -0.191 NA
ATOM     10  C   UNL d   1      -1.760  -1.382   0.440  0.00  0.00     0.075 C 
ATOM     11  C   UNL d   1      -2.944  -0.477   0.023  0.00  0.00    -0.035 C 
ATOM     12  C   UNL d   1      -2.695   0.939   0.569  0.00  0.00     0.092 C 
ATOM     13  O   UNL d   1      -1.194   2.698  -0.078  0.00  0.00    -0.293 OA
ATOM     14  C   UNL d   1      -4.242  -1.052   0.612  0.00  0.00     0.015 C 
ATOM     15  C   UNL d   1      -3.108  -0.421  -1.513  0.00  0.00     0.015 C 
ENDROOT
BRANCH   3  16
ATOM     16  C   UNL d   1       1.079   1.214  -2.133  0.00  0.00    -0.022 A 
ATOM     17  C   UNL d   1       1.337   2.435  -2.782  0.00  0.00     0.043 A 
ATOM     18  C   UNL d   1       1.307   2.525  -4.180  0.00  0.00     0.048 A 
ATOM     19 CL   UNL d   1       1.720   3.878  -1.916  0.00  0.00    -0.084 Cl
ATOM     20  C   UNL d   1       1.024   1.401  -4.949  0.00  0.00     0.035 A 
ATOM     21  C   UNL d   1       0.775   0.180  -4.338  0.00  0.00     0.024 A 
ATOM     22 CL   UNL d   1       0.987   1.515  -6.665  0.00  0.00    -0.084 Cl
ATOM     23  C   UNL d   1       0.805   0.087  -2.946  0.00  0.00     0.011 A 
ENDBRANCH   3  16
BRANCH   4  24
ATOM     24  N   UNL d   1       2.876  -2.099   0.573  0.00  0.00    -0.282 NA
ATOM     25  H   UNL d   1       3.828  -1.945   0.249  0.00  0.00     0.126 HD
ATOM     26  H   UNL d   1       2.550  -3.052   0.433  0.00  0.00     0.126 HD
ENDBRANCH   4  24
TORSDOF 2
