REMARK  6 active torsions:
REMARK  status: ('A' for Active; 'I' for Inactive)
REMARK    1  A    between atoms: N_9  and  C_1 
REMARK    2  A    between atoms: C_17  and  N_5 
REMARK    3  A    between atoms: S_22  and  C_6 
REMARK    4  A    between atoms: N_8  and  C_7 
REMARK       I    between atoms: C_12  and  N_9 
REMARK    5  A    between atoms: C_11  and  C_12 
REMARK    6  A    between atoms: C_18  and  C_17 
ROOT
ATOM      1  C   UNL d   1      -0.095  -1.138  -0.059  0.00  0.00     0.148 A 
ATOM      2  N   UNL d   1       1.174  -0.682   0.097  0.00  0.00    -0.320 N 
ATOM      3  HN  UNL d   1       2.023  -1.246   0.116  1.00  0.00     0.169 HD
ATOM      4  C   UNL d   1      -0.982  -0.080  -0.040  0.00  0.00     0.163 A 
ATOM      5  N   UNL d   1      -0.189   1.052   0.082  0.00  0.00    -0.309 N 
ATOM      6  C   UNL d   1       1.101   0.615   0.218  0.00  0.00     0.149 A 
ATOM      7  C   UNL d   1      -2.398  -0.107  -0.130  0.00  0.00     0.122 C 
ATOM      8  N   UNL d   1      -3.552  -0.140  -0.220  0.00  0.00    -0.190 NA
ENDROOT
BRANCH   1   9
ATOM      9  N   UNL d   1      -0.346  -2.490  -0.190  0.00  0.00    -0.305 N 
ATOM     10  C   UNL d   1       0.680  -3.427  -0.220  0.00  0.00     0.281 C 
ATOM     11  O   UNL d   1       1.881  -3.180  -0.172  0.00  0.00    -0.265 OA
ATOM     12  H   UNL d   1      -1.302  -2.811  -0.263  0.00  0.00     0.171 HD
BRANCH  10  13
ATOM     13  C   UNL d   1       0.244  -4.808  -0.324  0.00  0.00     0.146 A 
ATOM     14  O   UNL d   1      -1.085  -5.135  -0.406  0.00  0.00    -0.283 OA
ATOM     15  C   UNL d   1      -1.125  -6.497  -0.494  0.00  0.00     0.215 A 
ATOM     16  C   UNL d   1       0.131  -7.054  -0.468  0.00  0.00     0.066 A 
ATOM     17  C   UNL d   1       1.016  -5.959  -0.358  0.00  0.00     0.047 A 
BRANCH  15  18
ATOM     18  N   UNL d   1      -2.417  -7.098  -0.599  0.00  0.00    -0.090 N 
ATOM     19  O   UNL d   1      -2.440  -8.330  -0.714  0.00  0.00    -0.530 OA
ATOM     20  O   UNL d   1      -3.402  -6.351  -0.565  0.00  0.00    -0.530 OA
ENDBRANCH  15  18
ENDBRANCH  10  13
ENDBRANCH   1   9
BRANCH   5  21
ATOM     21  C   UNL d   1      -0.640   2.437   0.044  0.00  0.00     0.197 C 
BRANCH  21  22
ATOM     22  C   UNL d   1      -0.941   2.918   1.411  0.00  0.00     0.070 A 
ATOM     23  O   UNL d   1      -2.220   2.737   1.846  0.00  0.00    -0.325 OA
ATOM     24  C   UNL d   1      -2.276   3.203   3.120  0.00  0.00     0.142 A 
ATOM     25  C   UNL d   1      -1.050   3.687   3.510  0.00  0.00     0.027 A 
ATOM     26  C   UNL d   1      -0.190   3.524   2.398  0.00  0.00     0.036 A 
ENDBRANCH  21  22
ENDBRANCH   5  21
BRANCH   6  27
ATOM     27  S   UNL d   1       2.482   1.614   0.508  0.00  0.00    -0.098 SA
ATOM     28  C   UNL d   1       3.691   0.340   0.989  0.00  0.00     0.099 C 
ENDBRANCH   6  27
TORSDOF 6
