REMARK  2 active torsions:
REMARK  status: ('A' for Active; 'I' for Inactive)
REMARK    1  A    between atoms: C_2  and  C_1 
REMARK    2  A    between atoms: C_5  and  C_3 
ROOT
ATOM      1  C   UNL d   1       1.057   0.042  -0.023  0.00  0.00     0.072 C 
ATOM      2  C   UNL d   1       0.344  -0.101   1.112  0.00  0.00     0.037 C 
ATOM      3  C   UNL d   1       0.439   0.181  -1.307  0.00  0.00     0.102 C 
ATOM      4  N   UNL d   1      -0.047   0.304  -2.356  0.00  0.00    -0.191 NA
ENDROOT
BRANCH   1   5
ATOM      5  C   UNL d   1       2.477  -0.027   0.077  0.00  0.00     0.054 A 
ATOM      6  N   UNL d   1       3.253   1.097   0.281  0.00  0.00    -0.360 N 
ATOM      7  C   UNL d   1       4.581   0.735   0.301  0.00  0.00     0.091 A 
ATOM      8  C   UNL d   1       2.826   2.471   0.447  0.00  0.00     0.155 C 
ATOM      9  C   UNL d   1       4.662  -0.625   0.115  0.00  0.00     0.019 A 
ATOM     10  C   UNL d   1       3.341  -1.105  -0.025  0.00  0.00     0.032 A 
ENDBRANCH   1   5
BRANCH   2  11
ATOM     11  C   UNL d   1      -1.127  -0.102   1.212  0.00  0.00    -0.024 A 
ATOM     12  C   UNL d   1      -1.897  -1.297   1.133  0.00  0.00    -0.016 A 
ATOM     13  C   UNL d   1      -3.301  -1.211   1.312  0.00  0.00    -0.025 A 
ATOM     14  C   UNL d   1      -1.344  -2.576   0.888  0.00  0.00     0.013 A 
ATOM     15  C   UNL d   1      -4.091  -2.372   1.252  0.00  0.00     0.012 A 
ATOM     16  C   UNL d   1      -3.901   0.034   1.550  0.00  0.00     0.012 A 
ATOM     17  C   UNL d   1      -3.518  -3.617   1.004  0.00  0.00     0.001 A 
ATOM     18  C   UNL d   1      -2.145  -3.720   0.819  0.00  0.00     0.001 A 
ATOM     19  C   UNL d   1      -3.138   1.198   1.598  0.00  0.00     0.002 A 
ATOM     20  C   UNL d   1      -1.759   1.132   1.429  0.00  0.00     0.012 A 
ENDBRANCH   2  11
TORSDOF 2
