REMARK  5 active torsions:
REMARK  status: ('A' for Active; 'I' for Inactive)
REMARK    1  A    between atoms: C_15  and  C_1 
REMARK    2  A    between atoms: C_17  and  C_2 
REMARK    3  A    between atoms: C_5  and  N_16 
REMARK    4  A    between atoms: C_18  and  C_6 
REMARK    5  A    between atoms: N_16  and  C_15 
ROOT
ATOM      1  N   UNL d   1       3.505  -4.259   0.834  0.00  0.00    -0.332 N 
ATOM      2  HN  UNL d   1       3.781  -3.506   1.464  1.00  0.00     0.168 HD
ATOM      3  C   UNL d   1       2.534  -4.082  -0.070  0.00  0.00     0.094 A 
ATOM      4  C   UNL d   1       4.104  -5.459   0.885  0.00  0.00     0.117 A 
ATOM      5  N   UNL d   1       3.760  -6.511   0.126  0.00  0.00    -0.341 N 
ATOM      6  HN  UNL d   1       4.228  -7.412   0.225  1.00  0.00     0.167 HD
ATOM      7  C   UNL d   1       2.131  -5.105  -0.944  0.00  0.00     0.029 A 
ATOM      8  C   UNL d   1       2.780  -6.333  -0.765  0.00  0.00     0.047 A 
ATOM      9  C   UNL d   1       1.117  -4.985  -1.927  0.00  0.00     0.017 A 
ATOM     10  C   UNL d   1       2.387  -7.412  -1.547  0.00  0.00     0.030 A 
ATOM     11  C   UNL d   1       0.748  -6.080  -2.706  0.00  0.00     0.001 A 
ATOM     12  C   UNL d   1       1.380  -7.301  -2.510  0.00  0.00     0.002 A 
ENDROOT
BRANCH   3  13
ATOM     13  N   UNL d   1       1.945  -2.808  -0.159  0.00  0.00    -0.274 NA
ATOM     14  H   UNL d   1       2.296  -2.349  -0.996  0.00  0.00     0.129 HD
BRANCH  13  15
ATOM     15  C   UNL d   1       2.114  -1.981   1.035  0.00  0.00     0.137 C 
BRANCH  15  16
ATOM     16  C   UNL d   1       1.488  -0.633   0.953  0.00  0.00     0.016 A 
ATOM     17  C   UNL d   1       0.181  -0.305   0.639  0.00  0.00     0.118 A 
ATOM     18  O   UNL d   1       0.053   1.052   0.650  0.00  0.00    -0.236 OA
ATOM     19  N   UNL d   1       1.258   1.638   0.987  0.00  0.00    -0.265 N 
ATOM     20  C   UNL d   1       2.112   0.626   1.175  0.00  0.00     0.039 A 
ATOM     21  HN  UNL d   1       1.456   2.634   1.075  1.00  0.00     0.194 HD
ATOM     22  C   UNL d   1       3.517   0.901   1.562  0.00  0.00     0.071 C 
BRANCH  17  23
ATOM     23  C   UNL d   1      -1.025  -1.055   0.314  0.00  0.00     0.000 A 
ATOM     24  C   UNL d   1      -1.273  -2.311   0.882  0.00  0.00     0.014 A 
ATOM     25  C   UNL d   1      -2.407  -3.049   0.539  0.00  0.00     0.001 A 
ATOM     26  C   UNL d   1      -3.321  -2.532  -0.377  0.00  0.00     0.000 A 
ATOM     27  C   UNL d   1      -3.102  -1.278  -0.939  0.00  0.00     0.001 A 
ATOM     28  C   UNL d   1      -1.965  -0.542  -0.597  0.00  0.00     0.014 A 
ENDBRANCH  17  23
ENDBRANCH  15  16
ENDBRANCH  13  15
ENDBRANCH   3  13
BRANCH   4  29
ATOM     29  C   UNL d   1       5.249  -5.600   1.806  0.00  0.00     0.008 A 
ATOM     30  C   UNL d   1       5.708  -4.508   2.572  0.00  0.00     0.015 A 
ATOM     31  C   UNL d   1       6.803  -4.626   3.433  0.00  0.00     0.001 A 
ATOM     32  C   UNL d   1       7.467  -5.841   3.546  0.00  0.00     0.000 A 
ATOM     33  C   UNL d   1       7.038  -6.937   2.802  0.00  0.00     0.001 A 
ATOM     34  C   UNL d   1       5.941  -6.815   1.942  0.00  0.00     0.015 A 
ENDBRANCH   4  29
TORSDOF 5
