REMARK  2 active torsions:
REMARK  status: ('A' for Active; 'I' for Inactive)
REMARK    1  A    between atoms: C_13  and  C_4 
REMARK    2  A    between atoms: O_14  and  C_13 
ROOT
ATOM      1  N   UNL d   1       1.226   0.127   0.144  0.00  0.00    -0.320 N 
ATOM      2  HN  UNL d   1       2.221   0.246   0.332  1.00  0.00     0.169 HD
ATOM      3  C   UNL d   1       0.541  -0.993  -0.005  0.00  0.00     0.189 A 
ATOM      4  C   UNL d   1       0.259   1.092  -0.016  0.00  0.00     0.127 A 
ATOM      5  N   UNL d   1      -0.974   0.626  -0.238  0.00  0.00    -0.245 N 
ATOM      6  HN  UNL d   1      -1.837   1.153  -0.373  1.00  0.00     0.196 HD
ATOM      7  O   UNL d   1      -0.793  -0.757  -0.237  0.00  0.00    -0.217 OA
ATOM      8  C   UNL d   1       1.126  -2.302   0.067  0.00  0.00     0.058 A 
ATOM      9  S   UNL d   1       0.203  -3.717  -0.220  0.00  0.00    -0.098 SA
ATOM     10  C   UNL d   1       2.442  -2.614   0.357  0.00  0.00     0.024 A 
ATOM     11  C   UNL d   1       1.554  -4.735   0.032  0.00  0.00     0.050 A 
ATOM     12  C   UNL d   1       2.689  -4.019   0.337  0.00  0.00     0.009 A 
ENDROOT
BRANCH   4  13
ATOM     13  C   UNL d   1       0.579   2.544   0.061  0.00  0.00     0.242 C 
BRANCH  13  14
ATOM     14  O   UNL d   1       1.944   2.825  -0.270  0.00  0.00    -0.393 OA
ATOM     15  H   UNL d   1       2.442   2.017  -0.040  0.00  0.00     0.209 HD
ENDBRANCH  13  14
ENDBRANCH   4  13
TORSDOF 2
