REMARK  6 active torsions:
REMARK  status: ('A' for Active; 'I' for Inactive)
REMARK       I    between atoms: N_4  and  C_1 
REMARK    1  A    between atoms: C_12  and  C_1 
REMARK    2  A    between atoms: C_9  and  N_4 
REMARK    3  A    between atoms: C_6  and  C_12 
REMARK    4  A    between atoms: C_14  and  C_6 
REMARK    5  A    between atoms: C_8  and  C_14 
REMARK    6  A    between atoms: O_18  and  C_8 
ROOT
ATOM      1  C   UNL d   1       1.128  -0.065  -0.531  0.00  0.00     0.222 C 
ATOM      2  N   UNL d   1       2.471   0.129  -0.241  0.00  0.00    -0.327 N 
ATOM      3  O   UNL d   1       0.651  -1.029  -1.113  0.00  0.00    -0.273 OA
ATOM      4  H   UNL d   1       2.690   0.867   0.420  0.00  0.00     0.169 HD
ENDROOT
BRANCH   1   5
ATOM      5  C   UNL d   1       0.284   1.103  -0.032  0.00  0.00     0.113 C 
BRANCH   5   6
ATOM      6  C   UNL d   1      -1.261   1.016  -0.216  0.00  0.00    -0.023 C 
ATOM      7  C   UNL d   1      -1.664   0.958  -1.721  0.00  0.00     0.010 C 
ATOM      8  C   UNL d   1      -1.363   2.231  -2.506  0.00  0.00     0.001 C 
ATOM      9  C   UNL d   1      -1.995   3.451  -1.851  0.00  0.00     0.000 C 
ATOM     10  C   UNL d   1      -1.593   3.578  -0.387  0.00  0.00     0.001 C 
ATOM     11  C   UNL d   1      -1.900   2.299   0.398  0.00  0.00     0.010 C 
BRANCH   6  12
ATOM     12  C   UNL d   1      -1.882  -0.246   0.457  0.00  0.00     0.119 C 
BRANCH  12  13
ATOM     13  C   UNL d   1      -1.652  -0.428   1.945  0.00  0.00     0.140 C 
ATOM     14  O   UNL d   1      -0.949   0.271   2.652  0.00  0.00    -0.650 OA
BRANCH  13  15
ATOM     15  O   UNL d   1      -2.335  -1.490   2.434  0.00  0.00    -0.776 OA
ATOM     16  H   UNL d   1      -2.835  -1.981   1.754  0.00  0.00     0.167 HD
ENDBRANCH  13  15
ENDBRANCH  12  13
ENDBRANCH   6  12
ENDBRANCH   5   6
ENDBRANCH   1   5
BRANCH   2  17
ATOM     17  C   UNL d   1       3.552  -0.680  -0.648  0.00  0.00     0.035 A 
ATOM     18  C   UNL d   1       3.447  -1.649  -1.651  0.00  0.00     0.042 A 
ATOM     19  C   UNL d   1       4.560  -2.451  -2.009  0.00  0.00    -0.017 A 
ATOM     20  C   UNL d   1       4.678  -3.493  -2.990  0.00  0.00     0.020 A 
ATOM     21  C   UNL d   1       5.768  -2.248  -1.339  0.00  0.00     0.015 A 
ATOM     22  C   UNL d   1       5.929  -4.061  -3.019  0.00  0.00     0.051 A 
ATOM     23  S   UNL d   1       6.984  -3.337  -1.890  0.00  0.00    -0.101 SA
ATOM     24  C   UNL d   1       5.897  -1.258  -0.348  0.00  0.00     0.022 A 
ATOM     25  C   UNL d   1       4.782  -0.476  -0.024  0.00  0.00     0.031 A 
ENDBRANCH   2  17
TORSDOF 6
