REMARK  8 active torsions:
REMARK  status: ('A' for Active; 'I' for Inactive)
REMARK    1  A    between atoms: O_5  and  N_1 
REMARK    2  A    between atoms: C_7  and  C_3 
REMARK    3  A    between atoms: N_14  and  C_3 
REMARK    4  A    between atoms: C_4  and  O_5 
REMARK    5  A    between atoms: C_6  and  C_4 
REMARK    6  A    between atoms: C_8  and  C_6 
REMARK    7  A    between atoms: C_21  and  C_16 
REMARK    8  A    between atoms: C_24  and  C_21 
ROOT
ATOM      1  C   UNL d   1       0.850   1.815  -0.930  0.00  0.00     0.289 C 
ATOM      2  O   UNL d   1       0.234   1.167  -0.092  0.00  0.00    -0.262 OA
ENDROOT
BRANCH   1   3
ATOM      3  O   UNL d   1       0.285   2.459  -2.015  0.00  0.00    -0.198 OA
BRANCH   3   4
ATOM      4  N   UNL d   1      -0.564   1.550  -2.698  0.00  0.00    -0.246 N 
ATOM      5  C   UNL d   1      -1.247   2.129  -3.643  0.00  0.00     0.109 C 
ATOM      6  HN  UNL d   1      -0.630   0.558  -2.474  1.00  0.00     0.196 HD
BRANCH   5   7
ATOM      7  C   UNL d   1      -2.055   1.253  -4.560  0.00  0.00     0.004 A 
ATOM      8  C   UNL d   1      -2.528   0.011  -4.118  0.00  0.00     0.016 A 
ATOM      9  C   UNL d   1      -3.280  -0.799  -4.976  0.00  0.00     0.024 A 
ATOM     10  C   UNL d   1      -3.548  -0.376  -6.277  0.00  0.00     0.034 A 
ATOM     11  C   UNL d   1      -3.067   0.850  -6.733  0.00  0.00     0.024 A 
ATOM     12 CL   UNL d   1      -4.480  -1.370  -7.327  0.00  0.00    -0.084 Cl
ATOM     13  C   UNL d   1      -2.318   1.664  -5.876  0.00  0.00     0.016 A 
ENDBRANCH   5   7
BRANCH   5  14
ATOM     14  N   UNL d   1      -1.289   3.490  -3.857  0.00  0.00    -0.286 NA
ATOM     15  H   UNL d   1      -0.981   4.017  -3.044  0.00  0.00     0.125 HD
ATOM     16  H   UNL d   1      -2.172   3.839  -4.212  0.00  0.00     0.125 HD
ENDBRANCH   5  14
ENDBRANCH   3   4
ENDBRANCH   1   3
BRANCH   1  17
ATOM     17  C   UNL d   1       2.362   2.045  -0.924  0.00  0.00     0.116 C 
ATOM     18  C   UNL d   1       3.131   0.810  -0.437  0.00  0.00     0.025 C 
BRANCH  17  19
ATOM     19  C   UNL d   1       2.786   3.265  -0.129  0.00  0.00    -0.045 A 
ATOM     20  C   UNL d   1       2.429   3.422   1.218  0.00  0.00     0.008 A 
ATOM     21  C   UNL d   1       2.857   4.538   1.944  0.00  0.00     0.007 A 
ATOM     22  C   UNL d   1       3.667   5.513   1.347  0.00  0.00    -0.058 A 
ATOM     23  C   UNL d   1       4.047   5.341   0.011  0.00  0.00     0.007 A 
ATOM     24  C   UNL d   1       3.609   4.234  -0.720  0.00  0.00     0.008 A 
BRANCH  22  25
ATOM     25  C   UNL d   1       4.155   6.700   2.148  0.00  0.00     0.042 C 
BRANCH  25  26
ATOM     26  C   UNL d   1       3.765   8.079   1.577  0.00  0.00    -0.019 C 
ATOM     27  C   UNL d   1       2.249   8.282   1.523  0.00  0.00     0.010 C 
ATOM     28  C   UNL d   1       4.394   9.192   2.421  0.00  0.00     0.010 C 
ENDBRANCH  25  26
ENDBRANCH  22  25
ENDBRANCH  17  19
ENDBRANCH   1  17
TORSDOF 8
