REMARK  4 active torsions:
REMARK  status: ('A' for Active; 'I' for Inactive)
REMARK    1  A    between atoms: C_7  and  N_1 
REMARK    2  A    between atoms: C_15  and  C_2 
REMARK    3  A    between atoms: C_8  and  C_11 
REMARK    4  A    between atoms: C_9  and  C_10 
ROOT
ATOM      1  C   UNL d   1      -0.484  -2.703   0.013  0.00  0.00     0.058 A 
ATOM      2  C   UNL d   1      -0.235  -4.865   1.106  0.00  0.00     0.050 A 
ATOM      3  C   UNL d   1      -1.648  -4.640  -0.884  0.00  0.00     0.050 A 
ATOM      4  C   UNL d   1       0.062  -3.496   1.032  0.00  0.00     0.047 A 
ATOM      5  C   UNL d   1      -1.363  -3.265  -0.921  0.00  0.00     0.047 A 
ATOM      6  C   UNL d   1      -1.073  -5.430   0.129  0.00  0.00     0.032 A 
ENDROOT
BRANCH   1   7
ATOM      7  N   UNL d   1      -0.154  -1.327  -0.085  0.00  0.00    -0.224 N 
ATOM      8  C   UNL d   1       1.014  -0.655   0.255  0.00  0.00     0.148 C 
ATOM      9  N   UNL d   1       0.747   0.640   0.214  0.00  0.00    -0.269 N 
ATOM     10  N   UNL d   1      -0.518   0.762  -0.298  0.00  0.00    -0.007 NA
ATOM     11  HN  UNL d   1       1.363   1.399   0.506  1.00  0.00     0.185 HD
ATOM     12  N   UNL d   1      -1.043  -0.426  -0.556  0.00  0.00     0.001 NA
BRANCH   8  13
ATOM     13  C   UNL d   1       2.333  -1.251   0.490  0.00  0.00     0.011 A 
ATOM     14  C   UNL d   1       2.766  -2.369  -0.241  0.00  0.00     0.015 A 
ATOM     15  C   UNL d   1       4.008  -2.953   0.010  0.00  0.00     0.001 A 
ATOM     16  C   UNL d   1       4.852  -2.398   0.965  0.00  0.00     0.000 A 
ATOM     17  C   UNL d   1       4.457  -1.259   1.667  0.00  0.00     0.001 A 
ATOM     18  C   UNL d   1       3.200  -0.686   1.431  0.00  0.00     0.015 A 
ENDBRANCH   8  13
ENDBRANCH   1   7
BRANCH   2  19
ATOM     19  C   UNL d   1       0.312  -5.719   2.229  0.00  0.00     0.417 C 
ATOM     20  F   UNL d   1       1.079  -5.023   3.113  0.00  0.00    -0.166 F 
ATOM     21  F   UNL d   1      -0.677  -6.294   2.965  0.00  0.00    -0.166 F 
ATOM     22  F   UNL d   1       1.090  -6.739   1.777  0.00  0.00    -0.166 F 
ENDBRANCH   2  19
BRANCH   3  23
ATOM     23  C   UNL d   1      -2.558  -5.273  -1.913  0.00  0.00     0.417 C 
ATOM     24  F   UNL d   1      -3.053  -4.388  -2.819  0.00  0.00    -0.166 F 
ATOM     25  F   UNL d   1      -1.924  -6.236  -2.637  0.00  0.00    -0.166 F 
ATOM     26  F   UNL d   1      -3.636  -5.877  -1.345  0.00  0.00    -0.166 F 
ENDBRANCH   3  23
TORSDOF 4
