REMARK  5 active torsions:
REMARK  status: ('A' for Active; 'I' for Inactive)
REMARK    1  A    between atoms: C_11  and  N_1 
REMARK    2  A    between atoms: C_4  and  C_2 
REMARK       I    between atoms: N_10  and  C_4 
REMARK    3  A    between atoms: N_7  and  C_6 
REMARK    4  A    between atoms: C_15  and  N_10 
REMARK    5  A    between atoms: C_13  and  C_11 
ROOT
ATOM      1  C   UNL d   1      -1.595   0.808  -1.677  0.00  0.00     0.228 C 
ATOM      2  N   UNL d   1      -1.721  -0.228  -2.594  0.00  0.00    -0.327 N 
ATOM      3  O   UNL d   1      -1.497   0.659  -0.461  0.00  0.00    -0.273 OA
ATOM      4  H   UNL d   1      -1.546  -0.029  -3.570  0.00  0.00     0.169 HD
ENDROOT
BRANCH   2   5
ATOM      5  C   UNL d   1      -1.824  -1.600  -2.251  0.00  0.00     0.036 A 
ATOM      6  C   UNL d   1      -2.186  -2.044  -0.983  0.00  0.00     0.055 A 
ATOM      7  C   UNL d   1      -2.110  -3.403  -0.622  0.00  0.00     0.062 A 
ATOM      8 CL   UNL d   1      -2.442  -3.715   1.053  0.00  0.00    -0.082 Cl
ATOM      9  C   UNL d   1      -1.707  -4.386  -1.549  0.00  0.00     0.052 A 
ATOM     10  C   UNL d   1      -1.470  -3.915  -2.862  0.00  0.00     0.033 A 
ATOM     11  C   UNL d   1      -1.526  -2.557  -3.215  0.00  0.00     0.032 A 
BRANCH   9  12
ATOM     12  N   UNL d   1      -1.566  -5.751  -1.325  0.00  0.00    -0.375 N 
ATOM     13  C   UNL d   1      -2.210  -6.481  -0.218  0.00  0.00     0.149 C 
ATOM     14  C   UNL d   1      -2.440  -7.943  -0.650  0.00  0.00     0.187 C 
ATOM     15  O   UNL d   1      -1.226  -8.583  -1.080  0.00  0.00    -0.388 OA
ATOM     16  C   UNL d   1      -0.631  -7.850  -2.165  0.00  0.00     0.187 C 
ATOM     17  C   UNL d   1      -0.306  -6.409  -1.744  0.00  0.00     0.149 C 
ENDBRANCH   9  12
ENDBRANCH   2   5
BRANCH   1  18
ATOM     18  C   UNL d   1      -1.512   2.228  -2.236  0.00  0.00     0.105 C 
ATOM     19  C   UNL d   1      -0.238   2.482  -3.020  0.00  0.00     0.140 C 
ATOM     20  N   UNL d   1      -0.640   2.266  -4.391  0.00  0.00    -0.345 N 
ATOM     21  C   UNL d   1      -2.014   2.256  -4.536  0.00  0.00     0.221 C 
ATOM     22  C   UNL d   1      -2.637   2.564  -3.205  0.00  0.00     0.118 C 
ATOM     23  O   UNL d   1      -2.633   1.984  -5.556  0.00  0.00    -0.273 OA
BRANCH  20  24
ATOM     24  C   UNL d   1       0.270   1.789  -5.417  0.00  0.00     0.190 C 
BRANCH  24  25
ATOM     25  C   UNL d   1       1.447   2.671  -5.599  0.00  0.00     0.070 A 
ATOM     26  O   UNL d   1       2.658   2.138  -5.258  0.00  0.00    -0.325 OA
ATOM     27  C   UNL d   1       3.607   3.043  -5.612  0.00  0.00     0.142 A 
ATOM     28  C   UNL d   1       3.024   4.160  -6.160  0.00  0.00     0.027 A 
ATOM     29  C   UNL d   1       1.626   3.929  -6.138  0.00  0.00     0.036 A 
ENDBRANCH  24  25
ENDBRANCH  20  24
ENDBRANCH   1  18
TORSDOF 5
