REMARK  2 active torsions:
REMARK  status: ('A' for Active; 'I' for Inactive)
REMARK    1  A    between atoms: C_12  and  N_3 
REMARK    2  A    between atoms: C_14  and  C_12 
ROOT
ATOM      1  C   UNL d   1       1.123   0.354  -1.129  0.00  0.00     0.155 A 
ATOM      2  C   UNL d   1       0.593  -0.788  -0.576  0.00  0.00     0.160 A 
ATOM      3  N   UNL d   1       1.448   1.111  -0.039  0.00  0.00    -0.254 N 
ATOM      4  N   UNL d   1       0.643  -0.733   0.782  0.00  0.00    -0.276 N 
ATOM      5  HN  UNL d   1       0.322  -1.454   1.428  1.00  0.00     0.184 HD
ATOM      6  N   UNL d   1       1.189   0.437   1.111  0.00  0.00    -0.018 NA
ATOM      7  N   UNL d   1       1.259   0.672  -2.442  0.00  0.00    -0.335 N 
ATOM      8  HN  UNL d   1       1.672   1.542  -2.778  1.00  0.00     0.168 HD
ATOM      9  C   UNL d   1       0.088  -1.804  -1.460  0.00  0.00     0.278 A 
ATOM     10  N   UNL d   1       0.237  -1.454  -2.796  0.00  0.00    -0.318 N 
ATOM     11  C   UNL d   1       0.801  -0.262  -3.220  0.00  0.00     0.185 A 
ATOM     12  O   UNL d   1      -0.421  -2.867  -1.120  0.00  0.00    -0.265 OA
ATOM     13  H   UNL d   1      -0.104  -2.130  -3.464  0.00  0.00     0.169 HD
ENDROOT
BRANCH   3  14
ATOM     14  C   UNL d   1       1.959   2.465  -0.011  0.00  0.00     0.187 C 
BRANCH  14  15
ATOM     15  C   UNL d   1       0.821   3.456   0.025  0.00  0.00    -0.039 A 
ATOM     16  C   UNL d   1       0.283   3.874   1.250  0.00  0.00     0.009 A 
ATOM     17  C   UNL d   1      -0.830   4.716   1.282  0.00  0.00     0.001 A 
ATOM     18  C   UNL d   1      -1.416   5.144   0.092  0.00  0.00     0.000 A 
ATOM     19  C   UNL d   1      -0.884   4.742  -1.131  0.00  0.00     0.001 A 
ATOM     20  C   UNL d   1       0.230   3.903  -1.167  0.00  0.00     0.009 A 
ENDBRANCH  14  15
ENDBRANCH   3  14
TORSDOF 2
