REMARK  10 active torsions:
REMARK  status: ('A' for Active; 'I' for Inactive)
REMARK    1  A    between atoms: O_13  and  C_1 
REMARK       I    between atoms: N_5  and  C_7 
REMARK    2  A    between atoms: C_9  and  N_5 
REMARK    3  A    between atoms: C_15  and  N_5 
REMARK    4  A    between atoms: C_19  and  C_6 
REMARK    5  A    between atoms: C_7  and  C_17 
REMARK    6  A    between atoms: C_17  and  O_13 
REMARK    7  A    between atoms: C_16  and  C_15 
REMARK    8  A    between atoms: O_22  and  C_16 
REMARK    9  A    between atoms: O_24  and  C_21 
REMARK   10  A    between atoms: C_30  and  O_22 
ROOT
ATOM      1  C   UNL d   1       0.353   1.126   0.926  0.00  0.00     0.165 A 
ATOM      2  C   UNL d   1      -0.722   0.623   1.659  0.00  0.00     0.101 A 
ATOM      3  N   UNL d   1       1.211   0.346   0.226  0.00  0.00    -0.335 N 
ATOM      4  HN  UNL d   1       1.977   0.761  -0.304  1.00  0.00     0.168 HD
ATOM      5  C   UNL d   1       1.030  -0.997   0.243  0.00  0.00     0.044 A 
ATOM      6  C   UNL d   1      -0.933  -0.766   1.648  0.00  0.00    -0.035 A 
ATOM      7  C   UNL d   1      -1.593   1.520   2.357  0.00  0.00     0.104 C 
ATOM      8  N   UNL d   1      -2.315   2.235   2.911  0.00  0.00    -0.191 NA
ATOM      9  C   UNL d   1      -0.034  -1.571   0.933  0.00  0.00     0.038 A 
ATOM     10  C   UNL d   1      -2.081  -1.458   2.332  0.00  0.00     0.050 C 
ENDROOT
BRANCH   1  11
ATOM     11  O   UNL d   1       0.578   2.494   0.925  0.00  0.00    -0.325 OA
BRANCH  11  12
ATOM     12  C   UNL d   1       1.365   2.927  -0.181  0.00  0.00     0.280 C 
BRANCH  12  13
ATOM     13  C   UNL d   1       1.766   4.412  -0.155  0.00  0.00     0.249 C 
ATOM     14  N   UNL d   1       0.769   5.389  -0.107  0.00  0.00    -0.307 N 
ATOM     15  O   UNL d   1       2.971   4.692  -0.196  0.00  0.00    -0.271 OA
BRANCH  14  16
ATOM     16  C   UNL d   1       1.133   6.771  -0.170  0.00  0.00     0.040 A 
ATOM     17  C   UNL d   1       1.948   7.251  -1.206  0.00  0.00     0.066 A 
ATOM     18  C   UNL d   1       2.224   8.616  -1.313  0.00  0.00     0.070 A 
ATOM     19  C   UNL d   1       1.722   9.495  -0.350  0.00  0.00     0.037 A 
ATOM     20  C   UNL d   1       0.945   9.022   0.706  0.00  0.00     0.005 A 
ATOM     21  C   UNL d   1       0.639   7.665   0.788  0.00  0.00     0.030 A 
BRANCH  18  22
ATOM     22  O   UNL d   1       2.950   9.217  -2.306  0.00  0.00    -0.356 OA
ATOM     23  C   UNL d   1       3.449   8.372  -3.335  0.00  0.00     0.210 C 
ENDBRANCH  18  22
ENDBRANCH  14  16
BRANCH  14  24
ATOM     24  C   UNL d   1      -0.680   5.116  -0.182  0.00  0.00     0.243 C 
BRANCH  24  25
ATOM     25  C   UNL d   1      -1.285   5.076  -1.591  0.00  0.00     0.277 C 
ATOM     26  O   UNL d   1      -2.485   4.907  -1.782  0.00  0.00    -0.263 OA
BRANCH  25  27
ATOM     27  O   UNL d   1      -0.352   5.139  -2.581  0.00  0.00    -0.321 OA
BRANCH  27  28
ATOM     28  C   UNL d   1      -0.794   4.772  -3.900  0.00  0.00     0.174 C 
ATOM     29  C   UNL d   1      -1.024   5.979  -4.789  0.00  0.00     0.034 C 
ENDBRANCH  27  28
ENDBRANCH  25  27
ENDBRANCH  24  25
ENDBRANCH  14  24
ENDBRANCH  12  13
ENDBRANCH  11  12
ENDBRANCH   1  11
BRANCH   5  30
ATOM     30  C   UNL d   1       1.986  -1.795  -0.553  0.00  0.00    -0.009 A 
ATOM     31  C   UNL d   1       2.301  -3.129  -0.227  0.00  0.00     0.013 A 
ATOM     32  C   UNL d   1       3.143  -3.897  -1.036  0.00  0.00     0.001 A 
ATOM     33  C   UNL d   1       3.704  -3.344  -2.182  0.00  0.00     0.000 A 
ATOM     34  C   UNL d   1       3.444  -2.016  -2.505  0.00  0.00     0.001 A 
ATOM     35  C   UNL d   1       2.600  -1.250  -1.696  0.00  0.00     0.013 A 
ENDBRANCH   5  30
TORSDOF 10
