REMARK  5 active torsions:
REMARK  status: ('A' for Active; 'I' for Inactive)
REMARK    1  A    between atoms: C_8  and  N_1 
REMARK    2  A    between atoms: C_7  and  C_2 
REMARK    3  A    between atoms: N_12  and  C_9 
REMARK    4  A    between atoms: C_13  and  N_12 
REMARK    5  A    between atoms: O_22  and  C_14 
ROOT
ATOM      1  N   UNL d   1       4.958  -1.084  -0.004  0.00  0.00    -0.225 N 
ATOM      2  C   UNL d   1       3.655  -0.617  -0.207  0.00  0.00     0.139 C 
ATOM      3  N   UNL d   1       4.937   1.033   0.325  0.00  0.00    -0.007 NA
ATOM      4  N   UNL d   1       5.696  -0.043   0.457  0.00  0.00     0.001 NA
ATOM      5  N   UNL d   1       3.676   0.699  -0.095  0.00  0.00    -0.270 N 
ATOM      6  HN  UNL d   1       2.906   1.340  -0.282  1.00  0.00     0.185 HD
ENDROOT
BRANCH   2   7
ATOM      7  C   UNL d   1       2.559  -1.502  -0.354  0.00  0.00     0.068 C 
ATOM      8  C   UNL d   1       1.408  -1.185  -0.957  0.00  0.00     0.092 C 
BRANCH   8   9
ATOM      9  N   UNL d   1       0.990  -0.021  -1.549  0.00  0.00    -0.366 N 
ATOM     10  H   UNL d   1       1.600   0.784  -1.417  0.00  0.00     0.165 HD
BRANCH   9  11
ATOM     11  C   UNL d   1      -0.242   0.224  -2.186  0.00  0.00     0.032 A 
ATOM     12  C   UNL d   1      -0.696   1.545  -2.318  0.00  0.00     0.032 A 
ATOM     13  C   UNL d   1      -1.948   1.829  -2.876  0.00  0.00     0.039 A 
ATOM     14  C   UNL d   1      -2.763   0.792  -3.309  0.00  0.00     0.065 A 
ATOM     15  C   UNL d   1      -2.338  -0.525  -3.206  0.00  0.00     0.039 A 
ATOM     16  C   UNL d   1      -1.085  -0.802  -2.646  0.00  0.00     0.032 A 
BRANCH  14  17
ATOM     17  O   UNL d   1      -3.982   1.108  -3.828  0.00  0.00    -0.361 OA
ATOM     18  H   UNL d   1      -4.451   0.285  -4.046  0.00  0.00     0.217 HD
ENDBRANCH  14  17
ENDBRANCH   9  11
ENDBRANCH   8   9
ENDBRANCH   2   7
BRANCH   1  19
ATOM     19  C   UNL d   1       5.570  -2.341  -0.273  0.00  0.00     0.056 A 
ATOM     20  C   UNL d   1       5.028  -3.225  -1.215  0.00  0.00     0.032 A 
ATOM     21  C   UNL d   1       5.701  -4.406  -1.542  0.00  0.00     0.009 A 
ATOM     22  C   UNL d   1       6.926  -4.720  -0.944  0.00  0.00    -0.062 A 
ATOM     23  C   UNL d   1       7.447  -3.859   0.027  0.00  0.00     0.009 A 
ATOM     24  C   UNL d   1       7.660  -5.963  -1.354  0.00  0.00     0.048 C 
ATOM     25  C   UNL d   1       6.784  -2.669   0.351  0.00  0.00     0.032 A 
ENDBRANCH   1  19
TORSDOF 5
