REMARK  3 active torsions:
REMARK  status: ('A' for Active; 'I' for Inactive)
REMARK    1  A    between atoms: C_7  and  C_3 
REMARK    2  A    between atoms: O_12  and  C_7 
REMARK    3  A    between atoms: C_15  and  O_12 
ROOT
ATOM      1  C   UNL d   1      -0.789   0.112  -0.014  0.00  0.00     0.023 A 
ATOM      2  S   UNL d   1      -1.955   1.339   0.156  0.00  0.00    -0.083 SA
ATOM      3  C   UNL d   1      -3.255   0.231   0.008  0.00  0.00     0.081 A 
ATOM      4  C   UNL d   1      -1.373  -1.133  -0.158  0.00  0.00    -0.038 A 
ATOM      5  C   UNL d   1      -2.792  -1.066  -0.136  0.00  0.00     0.033 A 
ATOM      6  C   UNL d   1       0.668   0.307   0.006  0.00  0.00    -0.012 A 
ATOM      7  C   UNL d   1      -0.524  -2.353  -0.340  0.00  0.00     0.044 C 
ATOM      8  C   UNL d   1       1.468  -0.853   0.180  0.00  0.00    -0.046 A 
ATOM      9  C   UNL d   1       0.807  -2.203   0.415  0.00  0.00     0.044 C 
ATOM     10  C   UNL d   1       1.294   1.545  -0.176  0.00  0.00     0.013 A 
ATOM     11  C   UNL d   1       2.864  -0.745   0.202  0.00  0.00     0.008 A 
ATOM     12  C   UNL d   1       2.690   1.635  -0.174  0.00  0.00     0.001 A 
ATOM     13  C   UNL d   1       3.470   0.495   0.017  0.00  0.00     0.001 A 
ENDROOT
BRANCH   3  14
ATOM     14  C   UNL d   1      -4.649   0.633  -0.009  0.00  0.00     0.300 C 
ATOM     15  O   UNL d   1      -5.588  -0.145  -0.150  0.00  0.00    -0.259 OA
BRANCH  14  16
ATOM     16  O   UNL d   1      -4.788   1.988   0.074  0.00  0.00    -0.317 OA
BRANCH  16  17
ATOM     17  C   UNL d   1      -6.084   2.494  -0.272  0.00  0.00     0.174 C 
ATOM     18  C   UNL d   1      -6.106   2.763  -1.766  0.00  0.00     0.034 C 
ENDBRANCH  16  17
ENDBRANCH  14  16
ENDBRANCH   3  14
TORSDOF 3
