REMARK  0 active torsions:
REMARK  status: ('A' for Active; 'I' for Inactive)
ROOT
ATOM      1  N   UNL d   1       2.424  -1.127  -0.028  0.00  0.00    -0.365 N 
ATOM      2  HN  UNL d   1       2.683  -2.114  -0.037  1.00  0.00     0.165 HD
ATOM      3  C   UNL d   1       0.743   0.606   0.019  0.00  0.00    -0.008 A 
ATOM      4  C   UNL d   1       1.135  -0.751   0.003  0.00  0.00     0.042 A 
ATOM      5  C   UNL d   1      -0.620   0.952   0.039  0.00  0.00     0.037 A 
ATOM      6  C   UNL d   1       0.142  -1.722   0.014  0.00  0.00     0.032 A 
ATOM      7  C   UNL d   1      -1.590  -0.047   0.040  0.00  0.00     0.035 A 
ATOM      8  C   UNL d   1      -1.216  -1.385   0.031  0.00  0.00     0.026 A 
ATOM      9 CL   UNL d   1      -3.257   0.377   0.048  0.00  0.00    -0.084 Cl
ATOM     10  C   UNL d   1       3.367  -0.159  -0.046  0.00  0.00     0.088 A 
ATOM     11  C   UNL d   1       1.751   1.580   0.008  0.00  0.00     0.015 A 
ATOM     12  C   UNL d   1       3.084   1.193  -0.028  0.00  0.00     0.018 A 
ENDROOT
TORSDOF 0
