REMARK  2 active torsions:
REMARK  status: ('A' for Active; 'I' for Inactive)
REMARK    1  A    between atoms: C_2  and  S_1 
REMARK    2  A    between atoms: C_12  and  S_1 
ROOT
ATOM      1  C   UNL d   1       0.349   0.442   1.567  0.00  0.00     0.128 A 
ATOM      2  N   UNL d   1       0.563   1.751   1.864  0.00  0.00    -0.355 N 
ATOM      3  HN  UNL d   1       1.024   2.386   1.212  1.00  0.00     0.166 HD
ATOM      4  N   UNL d   1      -1.244   2.245   6.305  0.00  0.00    -0.191 NA
ATOM      5  C   UNL d   1      -0.901   1.832   5.277  0.00  0.00     0.101 C 
ATOM      6  C   UNL d   1      -0.473   1.322   4.013  0.00  0.00     0.060 A 
ATOM      7  C   UNL d   1      -0.229  -0.480   2.426  0.00  0.00     0.043 A 
ATOM      8  C   UNL d   1       0.126   2.162   3.080  0.00  0.00     0.111 A 
ATOM      9  C   UNL d   1      -0.642  -0.024   3.678  0.00  0.00     0.027 A 
ENDROOT
BRANCH   1  10
ATOM     10  S   UNL d   1       0.889  -0.041  -0.066  0.00  0.00     0.190 S 
ATOM     11  O   UNL d   1       0.163   0.768  -1.027  0.00  0.00    -0.221 OA
ATOM     12  O   UNL d   1       0.822  -1.492  -0.122  0.00  0.00    -0.221 OA
BRANCH  10  13
ATOM     13  C   UNL d   1       2.612   0.415  -0.090  0.00  0.00     0.143 C 
ATOM     14  C   UNL d   1       3.256   0.077  -1.421  0.00  0.00     0.021 C 
ENDBRANCH  10  13
ENDBRANCH   1  10
TORSDOF 2
