REMARK  3 active torsions:
REMARK  status: ('A' for Active; 'I' for Inactive)
REMARK    1  A    between atoms: C_10  and  C_3 
REMARK       I    between atoms: C_9  and  N_8 
REMARK       I    between atoms: N_11  and  C_9 
REMARK    2  A    between atoms: C_12  and  N_11 
REMARK    3  A    between atoms: C_22  and  C_19 
ROOT
ATOM      1  S   UNL d   1       1.826   6.605   1.547  0.00  0.00    -0.037 SA
ATOM      2  C   UNL d   1       1.881   4.971   1.069  0.00  0.00     0.169 A 
ATOM      3  C   UNL d   1       0.186   6.334   1.974  0.00  0.00     0.074 A 
ATOM      4  N   UNL d   1      -0.247   5.121   1.696  0.00  0.00    -0.296 N 
ATOM      5  HN  UNL d   1      -1.199   4.801   1.875  1.00  0.00     0.187 HD
ATOM      6  N   UNL d   1       0.740   4.330   1.135  0.00  0.00    -0.279 N 
ATOM      7  HN  UNL d   1       0.598   3.373   0.814  1.00  0.00     0.189 HD
ATOM      8  N   UNL d   1       3.118   4.517   0.714  0.00  0.00    -0.287 N 
ATOM      9  C   UNL d   1       3.436   3.218   0.455  0.00  0.00     0.326 C 
ATOM     10  N   UNL d   1       2.423   2.395   0.043  0.00  0.00    -0.308 N 
ATOM     11  O   UNL d   1       4.621   2.892   0.549  0.00  0.00    -0.247 OA
ATOM     12  H   UNL d   1       3.905   5.123   0.898  0.00  0.00     0.172 HD
ATOM     13  H   UNL d   1       1.617   2.858  -0.356  0.00  0.00     0.170 HD
ENDROOT
BRANCH  10  14
ATOM     14  C   UNL d   1       2.553   1.007  -0.179  0.00  0.00     0.042 A 
ATOM     15  C   UNL d   1       1.859   0.388  -1.234  0.00  0.00    -0.035 A 
ATOM     16  C   UNL d   1       1.950  -1.007  -1.377  0.00  0.00     0.009 A 
ATOM     17  C   UNL d   1       1.024   1.145  -2.229  0.00  0.00     0.050 C 
ATOM     18  C   UNL d   1       2.697  -1.776  -0.484  0.00  0.00     0.007 A 
ATOM     19  C   UNL d   1       3.375  -1.166   0.573  0.00  0.00    -0.056 A 
ATOM     20  C   UNL d   1       3.315   0.228   0.703  0.00  0.00     0.037 A 
BRANCH  19  21
ATOM     21  C   UNL d   1       4.086  -2.000   1.608  0.00  0.00     0.034 C 
ATOM     22  C   UNL d   1       3.111  -2.532   2.651  0.00  0.00     0.010 C 
ENDBRANCH  19  21
ENDBRANCH  10  14
BRANCH   3  23
ATOM     23  C   UNL d   1      -0.742   7.352   2.639  0.00  0.00     0.044 A 
ATOM     24  C   UNL d   1      -0.775   8.781   2.139  0.00  0.00     0.012 A 
ATOM     25  C   UNL d   1      -0.171   8.486   3.470  0.00  0.00     0.012 A 
ENDBRANCH   3  23
TORSDOF 3
