REMARK  5 active torsions:
REMARK  status: ('A' for Active; 'I' for Inactive)
REMARK    1  A    between atoms: C_6  and  N_1 
REMARK    2  A    between atoms: S_7  and  C_4 
REMARK    3  A    between atoms: C_9  and  S_7 
REMARK    4  A    between atoms: N_14  and  C_12 
REMARK    5  A    between atoms: S_15  and  C_13 
ROOT
ATOM      1  N   UNL d   1       0.080   0.850   0.022  0.00  0.00    -0.251 N 
ATOM      2  C   UNL d   1      -1.055   0.109   0.258  0.00  0.00     0.232 C 
ATOM      3  C   UNL d   1       1.182   0.042  -0.148  0.00  0.00     0.245 C 
ATOM      4  C   UNL d   1       0.739  -1.405  -0.202  0.00  0.00     0.154 C 
ATOM      5  C   UNL d   1      -0.724  -1.355   0.184  0.00  0.00     0.129 C 
ATOM      6  O   UNL d   1      -2.189   0.500   0.496  0.00  0.00    -0.273 OA
ATOM      7  O   UNL d   1       2.361   0.376  -0.206  0.00  0.00    -0.271 OA
ENDROOT
BRANCH   4   8
ATOM      8  S   UNL d   1       1.043  -2.011  -1.906  0.00  0.00    -0.113 SA
BRANCH   8   9
ATOM      9  C   UNL d   1       0.627  -3.753  -1.753  0.00  0.00     0.022 A 
ATOM     10  C   UNL d   1      -0.363  -4.304  -2.595  0.00  0.00     0.022 A 
ATOM     11  C   UNL d   1      -0.674  -5.664  -2.482  0.00  0.00     0.024 A 
ATOM     12  C   UNL d   1       0.056  -6.493  -1.631  0.00  0.00     0.002 A 
ATOM     13  C   UNL d   1       1.073  -5.959  -0.844  0.00  0.00     0.001 A 
ATOM     14  C   UNL d   1       1.355  -4.591  -0.899  0.00  0.00     0.020 A 
BRANCH  10  15
ATOM     15  N   UNL d   1      -1.188  -3.479  -3.389  0.00  0.00    -0.302 NA
ATOM     16  H   UNL d   1      -0.703  -2.620  -3.645  0.00  0.00     0.124 HD
ATOM     17  H   UNL d   1      -1.573  -3.955  -4.198  0.00  0.00     0.124 HD
ENDBRANCH  10  15
ENDBRANCH   8   9
ENDBRANCH   4   8
BRANCH   1  18
ATOM     18  C   UNL d   1       0.124   2.277  -0.008  0.00  0.00     0.046 A 
ATOM     19  C   UNL d   1      -0.824   3.061   0.677  0.00  0.00     0.048 A 
ATOM     20  C   UNL d   1      -0.792   4.464   0.639  0.00  0.00     0.002 A 
ATOM     21  C   UNL d   1       0.204   5.097  -0.110  0.00  0.00     0.018 A 
ATOM     22  C   UNL d   1       1.149   4.345  -0.801  0.00  0.00     0.004 A 
ATOM     23  C   UNL d   1       1.114   2.950  -0.742  0.00  0.00     0.030 A 
BRANCH  20  24
ATOM     24  S   UNL d   1      -1.903   5.514   1.571  0.00  0.00    -0.134 SA
ATOM     25  C   UNL d   1      -3.418   4.522   1.649  0.00  0.00     0.095 C 
ENDBRANCH  20  24
ENDBRANCH   1  18
TORSDOF 5
