REMARK  4 active torsions:
REMARK  status: ('A' for Active; 'I' for Inactive)
REMARK       I    between atoms: N_2  and  C_1 
REMARK    1  A    between atoms: C_7  and  C_1 
REMARK    2  A    between atoms: C_3  and  N_2 
REMARK    3  A    between atoms: O_4  and  C_7 
REMARK    4  A    between atoms: C_5  and  O_4 
ROOT
ATOM      1  C   UNL d   1       1.059   0.201   0.424  0.00  0.00     0.251 C 
ATOM      2  N   UNL d   1       0.486  -1.016   0.070  0.00  0.00    -0.324 N 
ATOM      3  O   UNL d   1       2.137   0.351   0.986  0.00  0.00    -0.270 OA
ATOM      4  H   UNL d   1      -0.290  -0.949  -0.576  0.00  0.00     0.169 HD
ENDROOT
BRANCH   1   5
ATOM      5  C   UNL d   1       0.289   1.418  -0.151  0.00  0.00     0.217 C 
ATOM      6  C   UNL d   1       0.855   2.727   0.396  0.00  0.00     0.050 C 
BRANCH   5   7
ATOM      7  O   UNL d   1      -1.104   1.404   0.156  0.00  0.00    -0.335 OA
BRANCH   7   8
ATOM      8  C   UNL d   1      -2.001   1.006  -0.796  0.00  0.00     0.091 A 
ATOM      9  C   UNL d   1      -3.197   0.421  -0.345  0.00  0.00     0.069 A 
ATOM     10  C   UNL d   1      -4.135  -0.081  -1.251  0.00  0.00     0.050 A 
ATOM     11 CL   UNL d   1      -3.544   0.276   1.342  0.00  0.00    -0.081 Cl
ATOM     12  C   UNL d   1      -3.888   0.019  -2.615  0.00  0.00     0.035 A 
ATOM     13  C   UNL d   1      -2.738   0.653  -3.079  0.00  0.00     0.026 A 
ATOM     14 CL   UNL d   1      -5.008  -0.641  -3.741  0.00  0.00    -0.084 Cl
ATOM     15  C   UNL d   1      -1.805   1.162  -2.171  0.00  0.00     0.040 A 
ENDBRANCH   7   8
ENDBRANCH   5   7
ENDBRANCH   1   5
BRANCH   2  16
ATOM     16  C   UNL d   1       1.034  -2.315   0.216  0.00  0.00     0.040 A 
ATOM     17  C   UNL d   1       1.933  -2.743   1.206  0.00  0.00    -0.035 A 
ATOM     18  C   UNL d   1       2.491  -4.037   1.108  0.00  0.00     0.015 A 
ATOM     19  C   UNL d   1       2.328  -1.946   2.417  0.00  0.00     0.050 C 
ATOM     20  C   UNL d   1       2.120  -4.931   0.101  0.00  0.00    -0.061 A 
ATOM     21  C   UNL d   1       1.156  -4.533  -0.819  0.00  0.00     0.009 A 
ATOM     22  C   UNL d   1       2.762  -6.285   0.031  0.00  0.00     0.048 C 
ATOM     23  C   UNL d   1       0.615  -3.244  -0.754  0.00  0.00     0.030 A 
ENDBRANCH   2  16
TORSDOF 4
