REMARK  9 active torsions:
REMARK  status: ('A' for Active; 'I' for Inactive)
REMARK    1  A    between atoms: C_12  and  N_1 
REMARK    2  A    between atoms: S_10  and  C_2 
REMARK    3  A    between atoms: C_14  and  C_3 
REMARK    4  A    between atoms: C_22  and  S_10 
REMARK    5  A    between atoms: C_11  and  C_22 
REMARK       I    between atoms: N_15  and  C_11 
REMARK    6  A    between atoms: C_13  and  O_16 
REMARK    7  A    between atoms: O_16  and  C_14 
REMARK    8  A    between atoms: C_25  and  N_15 
REMARK    9  A    between atoms: C_26  and  C_18 
ROOT
ATOM      1  N   UNL d   1      -0.401  -1.449  -0.176  0.00  0.00    -0.277 N 
ATOM      2  C   UNL d   1       0.850  -0.884  -0.444  0.00  0.00     0.168 C 
ATOM      3  C   UNL d   1      -1.236  -0.335  -0.041  0.00  0.00     0.129 C 
ATOM      4  N   UNL d   1       0.799   0.419  -0.337  0.00  0.00    -0.278 N 
ATOM      5  HN  UNL d   1       1.584   1.063  -0.433  1.00  0.00     0.189 HD
ATOM      6  N   UNL d   1      -0.496   0.760  -0.074  0.00  0.00    -0.285 N 
ATOM      7  HN  UNL d   1      -0.839   1.710   0.073  1.00  0.00     0.188 HD
ENDROOT
BRANCH   2   8
ATOM      8  S   UNL d   1       2.231  -1.714  -1.143  0.00  0.00    -0.083 SA
BRANCH   8   9
ATOM      9  C   UNL d   1       1.865  -1.439  -2.894  0.00  0.00     0.185 C 
BRANCH   9  10
ATOM     10  C   UNL d   1       2.789  -2.111  -3.904  0.00  0.00     0.231 C 
ATOM     11  N   UNL d   1       3.850  -2.852  -3.424  0.00  0.00    -0.327 N 
ATOM     12  H   UNL d   1       3.863  -3.031  -2.425  0.00  0.00     0.169 HD
ATOM     13  O   UNL d   1       2.530  -1.959  -5.101  0.00  0.00    -0.272 OA
BRANCH  11  14
ATOM     14  C   UNL d   1       4.914  -3.403  -4.184  0.00  0.00     0.034 A 
ATOM     15  C   UNL d   1       5.140  -3.110  -5.529  0.00  0.00     0.030 A 
ATOM     16  C   UNL d   1       6.248  -3.637  -6.210  0.00  0.00     0.010 A 
ATOM     17  C   UNL d   1       7.169  -4.488  -5.580  0.00  0.00    -0.054 A 
ATOM     18  C   UNL d   1       6.938  -4.768  -4.225  0.00  0.00     0.010 A 
ATOM     19  C   UNL d   1       5.826  -4.244  -3.541  0.00  0.00     0.030 A 
BRANCH  17  20
ATOM     20  C   UNL d   1       8.381  -4.985  -6.368  0.00  0.00     0.018 C 
ATOM     21  C   UNL d   1       8.004  -5.745  -7.660  0.00  0.00     0.009 C 
ATOM     22  C   UNL d   1       7.477  -7.149  -7.377  0.00  0.00     0.001 C 
ATOM     23  C   UNL d   1       8.475  -7.981  -6.578  0.00  0.00     0.000 C 
ATOM     24  C   UNL d   1       8.973  -7.266  -5.327  0.00  0.00     0.001 C 
ATOM     25  C   UNL d   1       9.421  -5.827  -5.598  0.00  0.00     0.009 C 
ENDBRANCH  17  20
ENDBRANCH  11  14
ENDBRANCH   9  10
ENDBRANCH   8   9
ENDBRANCH   2   8
BRANCH   1  26
ATOM     26  C   UNL d   1      -0.712  -2.840  -0.146  0.00  0.00     0.043 A 
ATOM     27  C   UNL d   1       0.250  -3.752   0.323  0.00  0.00     0.030 A 
ATOM     28  C   UNL d   1       0.040  -5.129   0.223  0.00  0.00     0.002 A 
ATOM     29  C   UNL d   1      -1.149  -5.608  -0.309  0.00  0.00     0.000 A 
ATOM     30  C   UNL d   1      -2.140  -4.715  -0.708  0.00  0.00     0.002 A 
ATOM     31  C   UNL d   1      -1.928  -3.334  -0.624  0.00  0.00     0.030 A 
ENDBRANCH   1  26
BRANCH   3  32
ATOM     32  C   UNL d   1      -2.729  -0.285   0.052  0.00  0.00     0.254 C 
BRANCH  32  33
ATOM     33  O   UNL d   1      -3.196  -1.059   1.157  0.00  0.00    -0.343 OA
BRANCH  33  34
ATOM     34  C   UNL d   1      -4.560  -1.135   1.304  0.00  0.00     0.076 A 
ATOM     35  C   UNL d   1      -5.037  -1.812   2.424  0.00  0.00    -0.018 A 
ATOM     36  C   UNL d   1      -6.408  -1.975   2.661  0.00  0.00    -0.043 A 
ATOM     37  C   UNL d   1      -4.221  -2.433   3.514  0.00  0.00     0.042 A 
ATOM     38  C   UNL d   1      -6.670  -2.725   3.927  0.00  0.00     0.040 A 
ATOM     39  C   UNL d   1      -7.363  -1.468   1.780  0.00  0.00    -0.055 A 
ATOM     40  C   UNL d   1      -5.266  -3.027   4.467  0.00  0.00     0.009 A 
ATOM     41  C   UNL d   1      -6.894  -0.775   0.659  0.00  0.00     0.010 A 
ATOM     42  C   UNL d   1      -8.832  -1.649   2.022  0.00  0.00     0.049 C 
ATOM     43  C   UNL d   1      -5.515  -0.607   0.426  0.00  0.00     0.038 A 
ENDBRANCH  33  34
ENDBRANCH  32  33
ENDBRANCH   3  32
TORSDOF 9
