REMARK  4 active torsions:
REMARK  status: ('A' for Active; 'I' for Inactive)
REMARK    1  A    between atoms: C_13  and  C_5 
REMARK    2  A    between atoms: N_12  and  C_7 
REMARK    3  A    between atoms: O_17  and  C_13 
REMARK    4  A    between atoms: C_23  and  O_17 
ROOT
ATOM      1  C   UNL d   1       1.589  -0.887  -0.108  0.00  0.00     0.162 A 
ATOM      2  N   UNL d   1       0.905   0.311  -0.103  0.00  0.00    -0.221 N 
ATOM      3  N   UNL d   1       0.952  -2.095  -0.056  0.00  0.00    -0.325 N 
ATOM      4  HN  UNL d   1       1.482  -2.966  -0.077  1.00  0.00     0.169 HD
ATOM      5  C   UNL d   1       2.914  -0.486  -0.108  0.00  0.00     0.167 A 
ATOM      6  N   UNL d   1       1.738   1.367  -0.146  0.00  0.00    -0.013 NA
ATOM      7  C   UNL d   1      -0.353  -2.105   0.023  0.00  0.00     0.117 A 
ATOM      8  N   UNL d   1       2.975   0.893  -0.146  0.00  0.00    -0.275 N 
ATOM      9  HN  UNL d   1       3.828   1.452  -0.170  1.00  0.00     0.184 HD
ATOM     10  C   UNL d   1      -1.163  -0.828  -0.017  0.00  0.00     0.036 A 
ATOM     11  C   UNL d   1      -0.484   0.392  -0.048  0.00  0.00     0.070 A 
ATOM     12  C   UNL d   1      -2.560  -0.824  -0.055  0.00  0.00     0.017 A 
ATOM     13  C   UNL d   1      -1.171   1.608  -0.042  0.00  0.00     0.032 A 
ATOM     14  C   UNL d   1      -3.259   0.386  -0.034  0.00  0.00     0.001 A 
ATOM     15  C   UNL d   1      -2.565   1.598  -0.019  0.00  0.00     0.002 A 
ENDROOT
BRANCH   7  16
ATOM     16  N   UNL d   1      -1.038  -3.304   0.131  0.00  0.00    -0.362 N 
ATOM     17  C   UNL d   1      -1.773  -3.622   1.371  0.00  0.00     0.150 C 
ATOM     18  C   UNL d   1      -2.941  -4.543   0.998  0.00  0.00     0.187 C 
ATOM     19  O   UNL d   1      -2.462  -5.758   0.398  0.00  0.00    -0.388 OA
ATOM     20  C   UNL d   1      -1.669  -5.478  -0.773  0.00  0.00     0.187 C 
ATOM     21  C   UNL d   1      -0.489  -4.537  -0.462  0.00  0.00     0.150 C 
ENDBRANCH   7  16
BRANCH   5  22
ATOM     22  C   UNL d   1       4.091  -1.326   0.011  0.00  0.00     0.315 C 
ATOM     23  O   UNL d   1       4.069  -2.548   0.113  0.00  0.00    -0.257 OA
BRANCH  22  24
ATOM     24  O   UNL d   1       5.234  -0.580   0.102  0.00  0.00    -0.317 OA
BRANCH  24  25
ATOM     25  C   UNL d   1       6.358  -1.244   0.690  0.00  0.00     0.175 C 
ATOM     26  C   UNL d   1       6.271  -1.074   2.197  0.00  0.00     0.034 C 
ENDBRANCH  24  25
ENDBRANCH  22  24
ENDBRANCH   5  22
TORSDOF 4
