REMARK  2 active torsions:
REMARK  status: ('A' for Active; 'I' for Inactive)
REMARK    1  A    between atoms: C_10  and  C_4 
REMARK    2  A    between atoms: C_8  and  C_7 
ROOT
ATOM      1  C   UNL d   1      -1.217  -0.726   0.059  0.00  0.00     0.046 A 
ATOM      2  C   UNL d   1      -1.815   0.662   0.072  0.00  0.00     0.257 A 
ATOM      3  N   UNL d   1      -0.726   1.520   0.069  0.00  0.00    -0.322 N 
ATOM      4  C   UNL d   1       0.244  -0.559   0.049  0.00  0.00     0.006 A 
ATOM      5  C   UNL d   1      -1.883  -1.891   0.038  0.00  0.00     0.036 C 
ATOM      6  C   UNL d   1       0.474   0.821   0.053  0.00  0.00     0.046 A 
ATOM      7  O   UNL d   1      -2.984   0.992   0.090  0.00  0.00    -0.267 OA
ATOM      8  C   UNL d   1       1.311  -1.439   0.020  0.00  0.00     0.015 A 
ATOM      9  C   UNL d   1       1.740   1.372   0.037  0.00  0.00     0.030 A 
ATOM     10  C   UNL d   1       2.607  -0.904  -0.003  0.00  0.00     0.001 A 
ATOM     11  C   UNL d   1       2.819   0.487   0.007  0.00  0.00     0.002 A 
ATOM     12  H   UNL d   1      -0.832   2.522   0.070  0.00  0.00     0.169 HD
ENDROOT
BRANCH   5  13
ATOM     13  C   UNL d   1      -3.303  -1.966  -0.002  0.00  0.00     0.006 A 
ATOM     14  S   UNL d   1      -4.106  -2.156  -1.510  0.00  0.00    -0.089 SA
ATOM     15  C   UNL d   1      -5.663  -2.135  -0.789  0.00  0.00     0.022 A 
ATOM     16  C   UNL d   1      -5.562  -2.031   0.586  0.00  0.00     0.021 A 
ATOM     17  C   UNL d   1      -4.213  -1.930   1.036  0.00  0.00     0.020 A 
BRANCH  15  18
ATOM     18  C   UNL d   1      -6.872  -2.214  -1.576  0.00  0.00     0.021 A 
ATOM     19  S   UNL d   1      -8.281  -2.999  -0.979  0.00  0.00    -0.101 SA
ATOM     20  C   UNL d   1      -9.182  -2.618  -2.380  0.00  0.00     0.050 A 
ATOM     21  C   UNL d   1      -8.433  -1.921  -3.299  0.00  0.00     0.008 A 
ATOM     22  C   UNL d   1      -7.100  -1.698  -2.842  0.00  0.00     0.021 A 
ENDBRANCH  15  18
ENDBRANCH   5  13
TORSDOF 2
