REMARK  4 active torsions:
REMARK  status: ('A' for Active; 'I' for Inactive)
REMARK    1  A    between atoms: N_2  and  C_1 
REMARK    2  A    between atoms: N_7  and  C_1 
REMARK    3  A    between atoms: C_3  and  N_2 
REMARK    4  A    between atoms: N_4  and  N_7 
ROOT
ATOM      1  C   UNL d   1       1.126  -0.072   0.193  0.00  0.00     0.186 C 
ATOM      2  S   UNL d   1       2.354  -0.885  -0.589  0.00  0.00    -0.040 SA
ENDROOT
BRANCH   1   3
ATOM      3  N   UNL d   1       0.715   1.220  -0.009  0.00  0.00    -0.361 N 
ATOM      4  H   UNL d   1       0.047   1.491   0.708  0.00  0.00     0.162 HD
BRANCH   3   5
ATOM      5  C   UNL d   1       1.457   2.267  -0.694  0.00  0.00     0.088 C 
ATOM      6  C   UNL d   1       1.558   2.154  -2.234  0.00  0.00     0.009 C 
ATOM      7  C   UNL d   1       2.058   3.559  -2.580  0.00  0.00     0.011 C 
ATOM      8  C   UNL d   1       0.162   2.147  -2.888  0.00  0.00     0.007 C 
ATOM      9  C   UNL d   1       0.847   4.244  -1.950  0.00  0.00    -0.012 C 
ATOM     10  C   UNL d   1       0.842   3.673  -0.516  0.00  0.00     0.030 C 
ATOM     11  C   UNL d   1      -0.304   3.601  -2.737  0.00  0.00     0.005 C 
ENDBRANCH   3   5
ENDBRANCH   1   3
BRANCH   1  12
ATOM     12  N   UNL d   1       0.415  -0.741   1.165  0.00  0.00    -0.277 N 
ATOM     13  H   UNL d   1       0.704  -1.694   1.354  0.00  0.00     0.189 HD
BRANCH  12  14
ATOM     14  N   UNL d   1      -0.456  -0.100   2.001  0.00  0.00    -0.307 N 
ATOM     15  C   UNL d   1      -1.059  -0.836   2.885  0.00  0.00     0.004 C 
ATOM     16  C   UNL d   1      -1.990  -0.214   3.895  0.00  0.00     0.054 C 
ATOM     17  C   UNL d   1      -0.954  -2.330   3.053  0.00  0.00     0.054 C 
ATOM     18  C   UNL d   1      -2.321  -1.397   4.800  0.00  0.00     0.006 C 
ATOM     19  C   UNL d   1      -2.183  -2.622   3.905  0.00  0.00     0.006 C 
ATOM     20  HN  UNL d   1      -0.623   0.904   1.935  1.00  0.00     0.186 HD
ENDBRANCH  12  14
ENDBRANCH   1  12
TORSDOF 4
