REMARK  2 active torsions:
REMARK  status: ('A' for Active; 'I' for Inactive)
REMARK    1  A    between atoms: N_14  and  N_9 
REMARK    2  A    between atoms: C_17  and  C_16 
ROOT
ATOM      1  C   UNL d   1       1.244   0.909  -0.009  0.00  0.00     0.104 A 
ATOM      2  C   UNL d   1       0.789  -0.381  -0.014  0.00  0.00     0.069 A 
ATOM      3  C   UNL d   1       2.636   1.265  -0.004  0.00  0.00     0.286 C 
ATOM      4  S   UNL d   1      -0.013   2.039  -0.009  0.00  0.00    -0.064 SA
ATOM      5  C   UNL d   1      -0.641  -0.488  -0.010  0.00  0.00     0.032 A 
ATOM      6  C   UNL d   1      -1.187   0.798  -0.007  0.00  0.00     0.088 A 
ATOM      7  N   UNL d   1       1.673  -1.474  -0.032  0.00  0.00    -0.349 N 
ATOM      8  HN  UNL d   1       1.356  -2.442  -0.088  1.00  0.00     0.167 HD
ATOM      9  N   UNL d   1       3.463   0.133   0.116  0.00  0.00    -0.215 N 
ATOM     10  C   UNL d   1       2.929  -1.146   0.029  0.00  0.00     0.211 C 
ATOM     11  N   UNL d   1      -2.492   1.131  -0.003  0.00  0.00    -0.354 N 
ATOM     12  HN  UNL d   1      -2.811   2.100   0.001  1.00  0.00     0.166 HD
ATOM     13  C   UNL d   1      -1.563  -1.569  -0.010  0.00  0.00    -0.045 A 
ATOM     14  O   UNL d   1       3.048   2.419  -0.119  0.00  0.00    -0.265 OA
ATOM     15  C   UNL d   1      -2.932  -1.240  -0.007  0.00  0.00     0.032 A 
ATOM     16  C   UNL d   1      -3.340   0.089  -0.005  0.00  0.00     0.006 A 
ATOM     17  C   UNL d   1      -1.196  -3.028  -0.010  0.00  0.00     0.049 C 
ATOM     18  C   UNL d   1      -4.806   0.415  -0.005  0.00  0.00     0.068 C 
ENDROOT
BRANCH   9  19
ATOM     19  N   UNL d   1       4.854   0.203   0.138  0.00  0.00    -0.300 N 
ATOM     20  C   UNL d   1       5.401   1.235   0.704  0.00  0.00     0.126 C 
ATOM     21  HN  UNL d   1       5.425  -0.533  -0.278  1.00  0.00     0.186 HD
BRANCH  20  22
ATOM     22  C   UNL d   1       6.833   1.409   0.704  0.00  0.00     0.021 A 
ATOM     23  S   UNL d   1       7.497   2.766   1.510  0.00  0.00    -0.101 SA
ATOM     24  C   UNL d   1       9.093   2.312   1.099  0.00  0.00     0.050 A 
ATOM     25  C   UNL d   1       9.123   1.150   0.361  0.00  0.00     0.008 A 
ATOM     26  C   UNL d   1       7.816   0.628   0.130  0.00  0.00     0.021 A 
ENDBRANCH  20  22
ENDBRANCH   9  19
TORSDOF 2
