REMARK  2 active torsions:
REMARK  status: ('A' for Active; 'I' for Inactive)
REMARK    1  A    between atoms: C_19  and  N_3 
REMARK    2  A    between atoms: C_12  and  C_8 
ROOT
ATOM      1  C   UNL d   1       1.478  -0.602  -0.128  0.00  0.00     0.137 A 
ATOM      2  C   UNL d   1       1.512   0.774  -0.037  0.00  0.00     0.025 A 
ATOM      3  N   UNL d   1       2.782  -1.051   0.004  0.00  0.00    -0.239 N 
ATOM      4  N   UNL d   1       3.632  -0.005   0.215  0.00  0.00    -0.296 N 
ATOM      5  HN  UNL d   1       4.630  -0.052   0.422  1.00  0.00     0.187 HD
ATOM      6  C   UNL d   1      -0.981   0.703  -0.183  0.00  0.00     0.024 A 
ATOM      7  N   UNL d   1       0.321  -1.312  -0.214  0.00  0.00    -0.343 N 
ATOM      8  C   UNL d   1       0.249   1.598  -0.029  0.00  0.00     0.098 A 
ATOM      9  C   UNL d   1      -0.911  -0.651  -0.249  0.00  0.00     0.022 A 
ATOM     10  C   UNL d   1       2.880   1.095   0.094  0.00  0.00     0.033 A 
ATOM     11  C   UNL d   1      -2.297   1.389  -0.246  0.00  0.00     0.159 C 
ATOM     12  C   UNL d   1      -2.164  -1.494  -0.305  0.00  0.00     0.067 C 
ATOM     13  C   UNL d   1      -3.348  -0.849   0.454  0.00  0.00    -0.036 C 
ATOM     14  C   UNL d   1      -3.566   0.592  -0.039  0.00  0.00     0.092 C 
ATOM     15  O   UNL d   1      -2.353   2.592  -0.501  0.00  0.00    -0.293 OA
ATOM     16  C   UNL d   1       3.525   2.430   0.173  0.00  0.00     0.070 C 
ATOM     17  C   UNL d   1      -3.088  -0.867   1.976  0.00  0.00     0.015 C 
ATOM     18  C   UNL d   1      -4.632  -1.655   0.185  0.00  0.00     0.015 C 
ATOM     19  H   UNL d   1       0.291  -2.326  -0.125  0.00  0.00     0.167 HD
ENDROOT
BRANCH   8  20
ATOM     20  C   UNL d   1       0.259   2.300   1.334  0.00  0.00    -0.023 A 
ATOM     21  C   UNL d   1       0.228   3.699   1.466  0.00  0.00     0.043 A 
ATOM     22  C   UNL d   1       0.238   4.300   2.731  0.00  0.00     0.048 A 
ATOM     23 CL   UNL d   1       0.198   4.763   0.104  0.00  0.00    -0.084 Cl
ATOM     24  C   UNL d   1       0.274   3.512   3.878  0.00  0.00     0.035 A 
ATOM     25  C   UNL d   1       0.290   2.129   3.779  0.00  0.00     0.024 A 
ATOM     26 CL   UNL d   1       0.306   4.256   5.428  0.00  0.00    -0.084 Cl
ATOM     27  C   UNL d   1       0.277   1.528   2.522  0.00  0.00     0.011 A 
ENDBRANCH   8  20
BRANCH   3  28
ATOM     28  C   UNL d   1       3.296  -2.373  -0.043  0.00  0.00     0.058 A 
ATOM     29  C   UNL d   1       2.698  -3.356  -0.836  0.00  0.00     0.031 A 
ATOM     30  C   UNL d   1       3.255  -4.637  -0.887  0.00  0.00     0.002 A 
ATOM     31  C   UNL d   1       4.390  -4.943  -0.135  0.00  0.00     0.000 A 
ATOM     32  C   UNL d   1       4.988  -3.965   0.657  0.00  0.00     0.002 A 
ATOM     33  C   UNL d   1       4.456  -2.675   0.690  0.00  0.00     0.031 A 
ENDBRANCH   3  28
TORSDOF 2
