REMARK  7 active torsions:
REMARK  status: ('A' for Active; 'I' for Inactive)
REMARK    1  A    between atoms: C_14  and  C_1 
REMARK    2  A    between atoms: N_27  and  C_3 
REMARK    3  A    between atoms: C_25  and  N_6 
REMARK    4  A    between atoms: C_18  and  C_9 
REMARK    5  A    between atoms: C_10  and  C_24 
REMARK       I    between atoms: N_26  and  C_14 
REMARK    6  A    between atoms: C_19  and  C_16 
REMARK    7  A    between atoms: N_21  and  N_26 
ROOT
ATOM      1  C   UNL d   1       2.414   0.071  -0.016  0.00  0.00     0.174 A 
ATOM      2  C   UNL d   1       0.294   0.872  -0.012  0.00  0.00     0.058 A 
ATOM      3  C   UNL d   1       1.665   1.228   0.049  0.00  0.00     0.081 A 
ATOM      4  C   UNL d   1       0.287  -0.524  -0.075  0.00  0.00     0.162 A 
ATOM      5  O   UNL d   1       1.573  -1.010  -0.086  0.00  0.00    -0.285 OA
ATOM      6  C   UNL d   1      -0.958   1.521   0.006  0.00  0.00     0.017 A 
ATOM      7  N   UNL d   1      -0.794  -1.334  -0.118  0.00  0.00    -0.335 N 
ATOM      8  HN  UNL d   1      -0.726  -2.351  -0.153  1.00  0.00     0.168 HD
ATOM      9  C   UNL d   1      -1.979  -0.672  -0.109  0.00  0.00     0.052 A 
ATOM     10  C   UNL d   1      -2.098   0.714  -0.035  0.00  0.00     0.046 A 
ENDROOT
BRANCH   1  11
ATOM     11  C   UNL d   1       3.859  -0.071  -0.024  0.00  0.00     0.296 C 
ATOM     12  N   UNL d   1       4.332  -1.377  -0.071  0.00  0.00    -0.264 N 
ATOM     13  H   UNL d   1       3.676  -2.149  -0.116  0.00  0.00     0.190 HD
ATOM     14  O   UNL d   1       4.612   0.905  -0.003  0.00  0.00    -0.264 OA
BRANCH  12  15
ATOM     15  N   UNL d   1       5.686  -1.580  -0.114  0.00  0.00    -0.308 N 
ATOM     16  C   UNL d   1       6.092  -2.806  -0.164  0.00  0.00     0.122 C 
ATOM     17  HN  UNL d   1       6.343  -0.800  -0.106  1.00  0.00     0.186 HD
BRANCH  16  18
ATOM     18  C   UNL d   1       7.510  -3.069  -0.247  0.00  0.00     0.022 A 
ATOM     19  C   UNL d   1       8.537  -2.145  -0.262  0.00  0.00     0.131 A 
ATOM     20  N   UNL d   1       9.717  -2.832  -0.429  0.00  0.00    -0.267 N 
ATOM     21  N   UNL d   1       9.497  -4.174  -0.470  0.00  0.00    -0.298 N 
ATOM     22  C   UNL d   1       8.172  -4.314  -0.355  0.00  0.00     0.035 A 
ATOM     23  HN  UNL d   1      10.192  -4.914  -0.568  1.00  0.00     0.187 HD
ATOM     24  C   UNL d   1       7.559  -5.665  -0.365  0.00  0.00     0.070 C 
BRANCH  20  25
ATOM     25  C   UNL d   1      11.029  -2.296  -0.585  0.00  0.00     0.056 A 
ATOM     26  C   UNL d   1      11.265  -0.918  -0.465  0.00  0.00     0.031 A 
ATOM     27  C   UNL d   1      12.550  -0.405  -0.667  0.00  0.00     0.002 A 
ATOM     28  C   UNL d   1      13.604  -1.257  -0.991  0.00  0.00     0.000 A 
ATOM     29  C   UNL d   1      13.382  -2.628  -1.098  0.00  0.00     0.002 A 
ATOM     30  C   UNL d   1      12.102  -3.150  -0.888  0.00  0.00     0.031 A 
ENDBRANCH  20  25
ENDBRANCH  16  18
ENDBRANCH  12  15
ENDBRANCH   1  11
BRANCH   3  31
ATOM     31  N   UNL d   1       2.185   2.466   0.153  0.00  0.00    -0.396 N 
ATOM     32  H   UNL d   1       1.613   3.280  -0.066  0.00  0.00     0.156 HD
ATOM     33  H   UNL d   1       3.187   2.619   0.014  0.00  0.00     0.156 HD
ENDBRANCH   3  31
BRANCH   6  34
ATOM     34  C   UNL d   1      -1.085   2.967   0.106  0.00  0.00     0.086 A 
ATOM     35  O   UNL d   1      -0.108   3.727  -0.472  0.00  0.00    -0.322 OA
ATOM     36  C   UNL d   1      -0.413   5.030  -0.244  0.00  0.00     0.142 A 
ATOM     37  C   UNL d   1      -1.601   5.130   0.438  0.00  0.00     0.027 A 
ATOM     38  C   UNL d   1      -2.045   3.801   0.648  0.00  0.00     0.040 A 
ENDBRANCH   6  34
BRANCH   9  39
ATOM     39  C   UNL d   1      -3.178  -1.536  -0.158  0.00  0.00     0.031 A 
ATOM     40  S   UNL d   1      -4.640  -0.976  -0.887  0.00  0.00    -0.100 SA
ATOM     41  C   UNL d   1      -5.469  -2.425  -0.543  0.00  0.00     0.050 A 
ATOM     42  C   UNL d   1      -4.662  -3.337   0.097  0.00  0.00     0.008 A 
ATOM     43  C   UNL d   1      -3.345  -2.828   0.312  0.00  0.00     0.021 A 
ENDBRANCH   9  39
TORSDOF 7
