REMARK  5 active torsions:
REMARK  status: ('A' for Active; 'I' for Inactive)
REMARK    1  A    between atoms: C_17  and  N_2 
REMARK       I    between atoms: C_5  and  N_10 
REMARK       I    between atoms: N_6  and  C_5 
REMARK    2  A    between atoms: C_13  and  N_6 
REMARK    3  A    between atoms: C_7  and  C_8 
REMARK    4  A    between atoms: N_10  and  C_19 
REMARK    5  A    between atoms: C_19  and  C_17 
ROOT
ATOM      1  C   UNL d   1      -3.913   4.263   1.179  0.00  0.00     0.320 C 
ATOM      2  N   UNL d   1      -4.920   3.432   0.740  0.00  0.00    -0.309 N 
ATOM      3  O   UNL d   1      -2.796   3.923   1.558  0.00  0.00    -0.247 OA
ATOM      4  N   UNL d   1      -4.305   5.588   1.218  0.00  0.00    -0.341 N 
ATOM      5  H   UNL d   1      -5.807   3.876   0.551  0.00  0.00     0.170 HD
ATOM      6  H   UNL d   1      -4.973   5.902   0.529  0.00  0.00     0.164 HD
ENDROOT
BRANCH   4   7
ATOM      7  C   UNL d   1      -3.324   6.571   1.661  0.00  0.00     0.144 C 
BRANCH   7   8
ATOM      8  C   UNL d   1      -3.862   8.005   1.691  0.00  0.00     0.143 C 
BRANCH   8   9
ATOM      9  N   UNL d   1      -4.354   8.434   0.380  0.00  0.00    -0.368 N 
ATOM     10  C   UNL d   1      -5.211   9.502   0.207  0.00  0.00     0.071 A 
ATOM     11  N   UNL d   1      -5.042  10.234  -0.862  0.00  0.00    -0.379 N 
ATOM     12  C   UNL d   1      -6.340   9.835   1.141  0.00  0.00     0.088 C 
ATOM     13  C   UNL d   1      -3.830   9.689  -1.518  0.00  0.00     0.141 A 
ATOM     14  HN  UNL d   1      -5.621  11.012  -1.177  1.00  0.00     0.160 HD
ATOM     15  C   UNL d   1      -3.409   8.447  -0.730  0.00  0.00     0.143 A 
ENDBRANCH   8   9
ENDBRANCH   7   8
ENDBRANCH   4   7
BRANCH   2  16
ATOM     16  C   UNL d   1      -4.914   2.018   0.774  0.00  0.00     0.036 A 
ATOM     17  C   UNL d   1      -3.801   1.254   1.120  0.00  0.00     0.030 A 
ATOM     18  C   UNL d   1      -3.908  -0.131   1.308  0.00  0.00     0.010 A 
ATOM     19  C   UNL d   1      -5.130  -0.805   1.151  0.00  0.00    -0.051 A 
ATOM     20  C   UNL d   1      -6.216  -0.042   0.694  0.00  0.00     0.010 A 
ATOM     21  C   UNL d   1      -6.110   1.347   0.508  0.00  0.00     0.030 A 
BRANCH  19  22
ATOM     22  C   UNL d   1      -5.248  -2.291   1.540  0.00  0.00    -0.024 C 
ATOM     23  C   UNL d   1      -6.666  -2.872   1.343  0.00  0.00     0.019 C 
ATOM     24  C   UNL d   1      -4.274  -3.156   0.713  0.00  0.00     0.019 C 
ATOM     25  C   UNL d   1      -4.901  -2.453   3.039  0.00  0.00     0.019 C 
ENDBRANCH  19  22
ENDBRANCH   2  16
TORSDOF 5
