REMARK  7 active torsions:
REMARK  status: ('A' for Active; 'I' for Inactive)
REMARK    1  A    between atoms: N_14  and  C_1 
REMARK    2  A    between atoms: C_3  and  C_2 
REMARK    3  A    between atoms: N_15  and  C_3 
REMARK    4  A    between atoms: O_11  and  N_6 
REMARK    5  A    between atoms: C_8  and  O_11 
REMARK       I    between atoms: N_13  and  C_8 
REMARK    6  A    between atoms: C_18  and  N_13 
REMARK    7  A    between atoms: C_19  and  C_18 
ROOT
ATOM      1  C   UNL d   1      -0.077   3.845   0.014  0.00  0.00     0.130 C 
ATOM      2  N   UNL d   1      -1.145   4.580  -0.111  0.00  0.00    -0.240 N 
ATOM      3  HN  UNL d   1      -1.131   5.592  -0.234  1.00  0.00     0.196 HD
ENDROOT
BRANCH   1   4
ATOM      4  C   UNL d   1       1.245   4.566  -0.016  0.00  0.00     0.013 A 
ATOM      5  C   UNL d   1       1.253   5.966  -0.056  0.00  0.00     0.041 A 
ATOM      6  C   UNL d   1       2.460   6.669  -0.093  0.00  0.00     0.057 A 
ATOM      7  C   UNL d   1       3.693   6.001  -0.061  0.00  0.00     0.050 A 
ATOM      8 CL   UNL d   1       2.390   8.399  -0.148  0.00  0.00    -0.082 Cl
ATOM      9  C   UNL d   1       3.666   4.594  -0.058  0.00  0.00     0.057 A 
ATOM     10  C   UNL d   1       2.461   3.880  -0.012  0.00  0.00     0.041 A 
ATOM     11 CL   UNL d   1       5.142   3.687  -0.086  0.00  0.00    -0.082 Cl
BRANCH   7  12
ATOM     12  N   UNL d   1       4.902   6.705  -0.256  0.00  0.00    -0.300 NA
ATOM     13  H   UNL d   1       5.722   6.206   0.081  0.00  0.00     0.124 HD
ATOM     14  H   UNL d   1       4.860   7.675   0.051  0.00  0.00     0.124 HD
ENDBRANCH   7  12
ENDBRANCH   1   4
BRANCH   1  15
ATOM     15  N   UNL d   1      -0.125   2.483   0.178  0.00  0.00    -0.383 N 
ATOM     16  H   UNL d   1       0.622   1.915  -0.196  0.00  0.00     0.157 HD
ATOM     17  H   UNL d   1      -1.044   2.092  -0.018  0.00  0.00     0.157 HD
ENDBRANCH   1  15
BRANCH   2  18
ATOM     18  O   UNL d   1      -2.332   3.800  -0.054  0.00  0.00    -0.179 OA
BRANCH  18  19
ATOM     19  C   UNL d   1      -3.454   4.602   0.057  0.00  0.00     0.382 C 
ATOM     20  O   UNL d   1      -4.571   4.133   0.236  0.00  0.00    -0.236 OA
ATOM     21  N   UNL d   1      -3.180   5.942  -0.031  0.00  0.00    -0.335 N 
ATOM     22  H   UNL d   1      -2.184   6.116  -0.098  0.00  0.00     0.164 HD
BRANCH  21  23
ATOM     23  C   UNL d   1      -4.085   6.983   0.387  0.00  0.00     0.124 C 
BRANCH  23  24
ATOM     24  C   UNL d   1      -3.970   7.271   1.884  0.00  0.00     0.015 C 
ATOM     25  C   UNL d   1      -2.591   7.781   2.285  0.00  0.00     0.006 C 
ENDBRANCH  23  24
ENDBRANCH  21  23
ENDBRANCH  18  19
ENDBRANCH   2  18
TORSDOF 7
