REMARK  2 active torsions:
REMARK  status: ('A' for Active; 'I' for Inactive)
REMARK    1  A    between atoms: C_11  and  N_4 
REMARK    2  A    between atoms: C_14  and  N_7 
ROOT
ATOM      1  C   UNL d   1      -0.251  -0.694   0.034  0.00  0.00     0.148 A 
ATOM      2  C   UNL d   1      -0.261   0.668  -0.002  0.00  0.00     0.095 A 
ATOM      3  N   UNL d   1       0.938  -1.378   0.035  0.00  0.00    -0.292 N 
ATOM      4  N   UNL d   1       2.126   0.710   0.057  0.00  0.00    -0.229 N 
ATOM      5  C   UNL d   1       2.180  -0.682   0.054  0.00  0.00     0.335 A 
ATOM      6  C   UNL d   1       0.939   1.452   0.026  0.00  0.00     0.271 A 
ATOM      7  N   UNL d   1      -1.567  -1.118  -0.039  0.00  0.00    -0.239 N 
ATOM      8  N   UNL d   1      -2.404  -0.056  -0.193  0.00  0.00    -0.302 N 
ATOM      9  HN  UNL d   1      -3.412  -0.075  -0.346  1.00  0.00     0.186 HD
ATOM     10  C   UNL d   1      -1.613   1.017  -0.100  0.00  0.00     0.128 A 
ATOM     11  O   UNL d   1       3.161  -1.406   0.017  0.00  0.00    -0.246 OA
ATOM     12  O   UNL d   1       0.866   2.676   0.047  0.00  0.00    -0.266 OA
ATOM     13  H   UNL d   1       0.983  -2.386  -0.047  0.00  0.00     0.172 HD
ENDROOT
BRANCH   4  14
ATOM     14  C   UNL d   1       3.366   1.419   0.064  0.00  0.00     0.047 A 
ATOM     15  C   UNL d   1       3.631   2.405  -0.898  0.00  0.00     0.032 A 
ATOM     16  C   UNL d   1       4.851   3.087  -0.893  0.00  0.00     0.026 A 
ATOM     17  C   UNL d   1       5.796   2.810   0.090  0.00  0.00     0.034 A 
ATOM     18  C   UNL d   1       5.540   1.844   1.061  0.00  0.00     0.026 A 
ATOM     19 CL   UNL d   1       7.286   3.666   0.111  0.00  0.00    -0.084 Cl
ATOM     20  C   UNL d   1       4.335   1.136   1.038  0.00  0.00     0.032 A 
ENDBRANCH   4  14
BRANCH   7  21
ATOM     21  C   UNL d   1      -2.066  -2.444  -0.007  0.00  0.00     0.058 A 
ATOM     22  C   UNL d   1      -1.378  -3.460   0.666  0.00  0.00     0.031 A 
ATOM     23  C   UNL d   1      -1.883  -4.763   0.656  0.00  0.00     0.002 A 
ATOM     24  C   UNL d   1      -3.063  -5.052  -0.028  0.00  0.00     0.000 A 
ATOM     25  C   UNL d   1      -3.760  -4.037  -0.683  0.00  0.00     0.002 A 
ATOM     26  C   UNL d   1      -3.274  -2.729  -0.659  0.00  0.00     0.031 A 
ENDBRANCH   7  21
TORSDOF 2
