REMARK  4 active torsions:
REMARK  status: ('A' for Active; 'I' for Inactive)
REMARK    1  A    between atoms: C_2  and  CA_1 
REMARK    2  A    between atoms: N_3  and  CA_1 
REMARK    3  A    between atoms: OXT_9  and  C_2 
REMARK       I    between atoms: C_5  and  N_3 
REMARK    4  A    between atoms: C_8  and  C_4 
ROOT
ATOM      1  CA  UNL d   1       0.907  -0.115  -0.064  0.00  0.00     0.110 C 
ATOM      2  C   UNL d   1       2.244  -0.081  -0.249  0.00  0.00     0.048 C 
ENDROOT
BRANCH   1   3
ATOM      3  C   UNL d   1       0.332   1.069   0.646  0.00  0.00     0.193 C 
ATOM      4  O   UNL d   1      -0.383   1.899   0.102  0.00  0.00    -0.645 OA
BRANCH   3   5
ATOM      5  OXT UNL d   1       0.807   1.199   1.906  0.00  0.00    -0.772 OA
ATOM      6  HXT UNL d   1       1.273   0.404   2.223  0.00  0.00     0.167 HD
ENDBRANCH   3   5
ENDBRANCH   1   3
BRANCH   1   7
ATOM      7  N   UNL d   1       0.105  -1.102  -0.602  0.00  0.00    -0.322 N 
ATOM      8  C   UNL d   1      -1.255  -1.240  -0.420  0.00  0.00     0.218 C 
ATOM      9  O   UNL d   1      -1.916  -0.665   0.435  0.00  0.00    -0.274 OA
ATOM     10  C   UNL d   1      -1.884  -2.209  -1.394  0.00  0.00     0.117 C 
ATOM     11  H   UNL d   1       0.561  -1.814  -1.152  0.00  0.00     0.169 HD
ENDBRANCH   1   7
BRANCH   2  12
ATOM     12  C   UNL d   1       3.047  -1.040  -1.020  0.00  0.00    -0.034 A 
ATOM     13  C   UNL d   1       2.726  -1.364  -2.346  0.00  0.00     0.013 A 
ATOM     14  C   UNL d   1       3.510  -2.265  -3.068  0.00  0.00     0.024 A 
ATOM     15  C   UNL d   1       4.644  -2.818  -2.479  0.00  0.00     0.034 A 
ATOM     16  C   UNL d   1       4.997  -2.478  -1.174  0.00  0.00     0.024 A 
ATOM     17 CL   UNL d   1       5.622  -3.913  -3.374  0.00  0.00    -0.084 Cl
ATOM     18  C   UNL d   1       4.199  -1.591  -0.445  0.00  0.00     0.013 A 
ENDBRANCH   2  12
TORSDOF 4
