REMARK  5 active torsions:
REMARK  status: ('A' for Active; 'I' for Inactive)
REMARK    1  A    between atoms: C_3  and  C_1 
REMARK    2  A    between atoms: C_4  and  C_2 
REMARK    3  A    between atoms: C_6  and  C_4 
REMARK    4  A    between atoms: C_5  and  N_11 
REMARK    5  A    between atoms: N_11  and  C_16 
ROOT
ATOM      1  N   UNL d   1      -1.107   0.059  -5.392  0.00  0.00    -0.366 N 
ATOM      2  H   UNL d   1      -1.383   0.968  -5.744  0.00  0.00     0.165 HD
ENDROOT
BRANCH   1   3
ATOM      3  C   UNL d   1      -1.339  -1.021  -6.209  0.00  0.00     0.092 C 
ATOM      4  C   UNL d   1      -1.960  -1.026  -7.395  0.00  0.00     0.072 C 
BRANCH   4   5
ATOM      5  C   UNL d   1      -2.099  -2.313  -8.131  0.00  0.00     0.183 C 
ATOM      6  O   UNL d   1      -1.713  -3.376  -7.654  0.00  0.00    -0.288 OA
BRANCH   5   7
ATOM      7  C   UNL d   1      -2.768  -2.310  -9.460  0.00  0.00     0.014 A 
ATOM      8  C   UNL d   1      -2.746  -1.208 -10.325  0.00  0.00     0.017 A 
ATOM      9  C   UNL d   1      -3.397  -1.277 -11.563  0.00  0.00     0.025 A 
ATOM     10  C   UNL d   1      -4.061  -2.443 -11.940  0.00  0.00     0.034 A 
ATOM     11  C   UNL d   1      -4.072  -3.552 -11.097  0.00  0.00     0.025 A 
ATOM     12 CL   UNL d   1      -4.864  -2.518 -13.460  0.00  0.00    -0.084 Cl
ATOM     13  C   UNL d   1      -3.422  -3.486  -9.862  0.00  0.00     0.017 A 
ENDBRANCH   5   7
ENDBRANCH   4   5
ENDBRANCH   1   3
BRANCH   1  14
ATOM     14  C   UNL d   1      -0.492   0.055  -4.127  0.00  0.00     0.031 A 
ATOM     15  C   UNL d   1       0.157   1.216  -3.683  0.00  0.00     0.030 A 
ATOM     16  C   UNL d   1       0.867   1.234  -2.476  0.00  0.00     0.018 A 
ATOM     17  C   UNL d   1       0.945   0.085  -1.677  0.00  0.00     0.048 A 
ATOM     18  C   UNL d   1       0.290  -1.074  -2.110  0.00  0.00     0.018 A 
ATOM     19  C   UNL d   1      -0.408  -1.088  -3.323  0.00  0.00     0.030 A 
BRANCH  17  20
ATOM     20  C   UNL d   1       1.731   0.105  -0.390  0.00  0.00     0.417 C 
ATOM     21  F   UNL d   1       1.719  -1.082   0.278  0.00  0.00    -0.166 F 
ATOM     22  F   UNL d   1       1.266   1.033   0.491  0.00  0.00    -0.166 F 
ATOM     23  F   UNL d   1       3.045   0.406  -0.588  0.00  0.00    -0.166 F 
ENDBRANCH  17  20
ENDBRANCH   1  14
TORSDOF 5
