REMARK  3 active torsions:
REMARK  status: ('A' for Active; 'I' for Inactive)
REMARK    1  A    between atoms: C_7  and  C_1 
REMARK    2  A    between atoms: C_5  and  C_2 
REMARK       I    between atoms: N_10  and  C_7 
REMARK    3  A    between atoms: N_14  and  N_10 
ROOT
ATOM      1  C   UNL d   1      -1.552   0.710  -0.035  0.00  0.00     0.143 A 
ATOM      2  C   UNL d   1      -1.490  -0.667   0.001  0.00  0.00     0.193 A 
ATOM      3  N   UNL d   1      -0.260   1.232  -0.004  0.00  0.00    -0.334 N 
ATOM      4  HN  UNL d   1       0.021   2.213  -0.007  1.00  0.00     0.168 HD
ATOM      5  O   UNL d   1      -0.158  -1.017   0.038  0.00  0.00    -0.291 OA
ATOM      6  C   UNL d   1       0.515   0.169   0.028  0.00  0.00     0.121 A 
ATOM      7  C   UNL d   1       1.990   0.087   0.042  0.00  0.00     0.098 C 
ENDROOT
BRANCH   1   8
ATOM      8  C   UNL d   1      -2.733   1.558  -0.102  0.00  0.00     0.285 C 
ATOM      9  O   UNL d   1      -3.880   1.132  -0.195  0.00  0.00    -0.265 OA
ATOM     10  N   UNL d   1      -2.429   2.913  -0.055  0.00  0.00    -0.288 N 
ATOM     11  H   UNL d   1      -1.455   3.184   0.090  0.00  0.00     0.183 HD
BRANCH  10  12
ATOM     12  N   UNL d   1      -3.455   3.886  -0.041  0.00  0.00    -0.247 NA
ATOM     13  H   UNL d   1      -4.331   3.399   0.196  0.00  0.00     0.143 HD
ATOM     14  H   UNL d   1      -3.602   4.200  -1.004  0.00  0.00     0.143 HD
ENDBRANCH  10  12
ENDBRANCH   1   8
BRANCH   2  15
ATOM     15  C   UNL d   1      -2.465  -1.776  -0.001  0.00  0.00     0.442 C 
ATOM     16  F   UNL d   1      -3.760  -1.391   0.047  0.00  0.00    -0.164 F 
ATOM     17  F   UNL d   1      -2.331  -2.549  -1.113  0.00  0.00    -0.164 F 
ATOM     18  F   UNL d   1      -2.273  -2.601   1.063  0.00  0.00    -0.164 F 
ENDBRANCH   2  15
TORSDOF 3
