REMARK  14 active torsions:
REMARK  status: ('A' for Active; 'I' for Inactive)
REMARK    1  A    between atoms: C_2  and  C_1 
REMARK    2  A    between atoms: C_3  and  C_1 
REMARK    3  A    between atoms: C_1  and  O_7 
REMARK    4  A    between atoms: C_4  and  C_2 
REMARK    5  A    between atoms: C_2  and  O_6 
REMARK    6  A    between atoms: C_5  and  C_3 
REMARK    7  A    between atoms: C_3  and  O_10 
REMARK    8  A    between atoms: S_8  and  C_4 
REMARK    9  A    between atoms: S_9  and  C_4 
REMARK   10  A    between atoms: C_5  and  O_11 
REMARK   11  A    between atoms: C_13  and  C_5 
REMARK   12  A    between atoms: C_14  and  S_8 
REMARK   13  A    between atoms: C_15  and  S_9 
REMARK   14  A    between atoms: O_12  and  C_13 
ROOT
ATOM      1  C   UNL d   1       0.933  -0.105   0.032  0.00  0.00     0.180 C 
ENDROOT
BRANCH   1   2
ATOM      2  C   UNL d   1       0.478   1.066  -0.871  0.00  0.00     0.173 C 
BRANCH   2   3
ATOM      3  C   UNL d   1      -1.060   1.226  -1.107  0.00  0.00     0.139 C 
BRANCH   3   4
ATOM      4  S   UNL d   1      -1.992   1.318   0.498  0.00  0.00    -0.151 SA
BRANCH   4   5
ATOM      5  C   UNL d   1      -3.720   1.430  -0.103  0.00  0.00     0.070 C 
ATOM      6  C   UNL d   1      -4.671   1.655   1.062  0.00  0.00     0.016 C 
ENDBRANCH   4   5
ENDBRANCH   3   4
BRANCH   3   7
ATOM      7  S   UNL d   1      -1.435   2.783  -2.046  0.00  0.00    -0.151 SA
BRANCH   7   8
ATOM      8  C   UNL d   1      -0.601   2.457  -3.622  0.00  0.00     0.070 C 
ATOM      9  C   UNL d   1      -0.828   3.638  -4.552  0.00  0.00     0.016 C 
ENDBRANCH   7   8
ENDBRANCH   3   7
ENDBRANCH   2   3
BRANCH   2  10
ATOM     10  O   UNL d   1       1.038   2.277  -0.318  0.00  0.00    -0.391 OA
ATOM     11  H   UNL d   1       0.611   2.419   0.549  0.00  0.00     0.210 HD
ENDBRANCH   2  10
ENDBRANCH   1   2
BRANCH   1  12
ATOM     12  C   UNL d   1       0.608  -1.539  -0.433  0.00  0.00     0.180 C 
BRANCH  12  13
ATOM     13  C   UNL d   1       1.151  -1.912  -1.832  0.00  0.00     0.173 C 
BRANCH  13  14
ATOM     14  O   UNL d   1       2.578  -1.776  -1.864  0.00  0.00    -0.391 OA
ATOM     15  H   UNL d   1       2.920  -2.363  -1.163  0.00  0.00     0.210 HD
ENDBRANCH  13  14
BRANCH  13  16
ATOM     16  C   UNL d   1       0.775  -3.349  -2.221  0.00  0.00     0.198 C 
BRANCH  16  17
ATOM     17  O   UNL d   1      -0.634  -3.470  -2.367  0.00  0.00    -0.398 OA
ATOM     18  H   UNL d   1      -0.824  -4.420  -2.470  0.00  0.00     0.209 HD
ENDBRANCH  16  17
ENDBRANCH  13  16
ENDBRANCH  12  13
BRANCH  12  19
ATOM     19  O   UNL d   1       1.236  -2.435   0.518  0.00  0.00    -0.390 OA
ATOM     20  H   UNL d   1       1.990  -1.928   0.893  0.00  0.00     0.210 HD
ENDBRANCH  12  19
ENDBRANCH   1  12
BRANCH   1  21
ATOM     21  O   UNL d   1       2.376  -0.049   0.232  0.00  0.00    -0.390 OA
ATOM     22  H   UNL d   1       2.776   0.109  -0.648  0.00  0.00     0.210 HD
ENDBRANCH   1  21
TORSDOF 14
