REMARK  2 active torsions:
REMARK  status: ('A' for Active; 'I' for Inactive)
REMARK    1  A    between atoms: N_6  and  C_1 
REMARK    2  A    between atoms: O_11  and  C_7 
ROOT
ATOM      1  C   UNL d   1      -0.656   1.179   0.007  0.00  0.00     0.682 A 
ATOM      2  N   UNL d   1       0.494   1.271  -0.676  0.00  0.00    -0.171 N 
ATOM      3  HN  UNL d   1       0.749   2.112  -1.193  1.00  0.00     0.186 HD
ATOM      4  N   UNL d   1      -0.998   0.079   0.702  0.00  0.00    -0.196 N 
ATOM      5  HN  UNL d   1      -1.869   0.052   1.233  1.00  0.00     0.184 HD
ATOM      6  C   UNL d   1       1.287   0.197  -0.638  0.00  0.00     0.157 A 
ATOM      7  C   UNL d   1       1.021  -0.974   0.009  0.00  0.00     0.081 A 
ATOM      8  C   UNL d   1      -0.171  -0.990   0.687  0.00  0.00     0.026 A 
ATOM      9  C   UNL d   1      -0.644  -2.215   1.404  0.00  0.00     0.069 C 
ENDROOT
BRANCH   1  10
ATOM     10  N   UNL d   1      -1.582   2.200  -0.082  0.00  0.00    -0.213 N 
ATOM     11  C   UNL d   1      -2.406   2.439   1.108  0.00  0.00     0.167 C 
ATOM     12  C   UNL d   1      -3.633   3.271   0.701  0.00  0.00     0.188 C 
ATOM     13  O   UNL d   1      -3.252   4.493   0.044  0.00  0.00    -0.388 OA
ATOM     14  C   UNL d   1      -2.480   4.205  -1.135  0.00  0.00     0.188 C 
ATOM     15  C   UNL d   1      -1.202   3.419  -0.795  0.00  0.00     0.167 C 
ENDBRANCH   1  10
BRANCH   6  16
ATOM     16  O   UNL d   1       2.441   0.335  -1.345  0.00  0.00    -0.346 OA
ATOM     17  H   UNL d   1       2.329   1.242  -1.682  0.00  0.00     0.219 HD
ENDBRANCH   6  16
TORSDOF 2
