REMARK  4 active torsions:
REMARK  status: ('A' for Active; 'I' for Inactive)
REMARK    1  A    between atoms: C_11  and  C_1 
REMARK    2  A    between atoms: O_7  and  C_4 
REMARK    3  A    between atoms: C_8  and  O_7 
REMARK    4  A    between atoms: C_12  and  C_8 
ROOT
ATOM      1  C   UNL d   1       2.586  -0.975  -0.074  0.00  0.00     0.077 A 
ATOM      2  N   UNL d   1       0.968   0.873  -0.084  0.00  0.00    -0.312 N 
ATOM      3  C   UNL d   1       2.284   0.524  -0.092  0.00  0.00     0.262 A 
ATOM      4  C   UNL d   1       1.577  -1.903  -0.074  0.00  0.00     0.108 A 
ATOM      5  C   UNL d   1       0.167  -1.426  -0.039  0.00  0.00     0.026 A 
ATOM      6  C   UNL d   1      -0.047  -0.056  -0.055  0.00  0.00     0.057 A 
ATOM      7  C   UNL d   1       0.420   2.225  -0.056  0.00  0.00     0.137 A 
ATOM      8  O   UNL d   1       3.174   1.372  -0.104  0.00  0.00    -0.267 OA
ATOM      9  C   UNL d   1      -1.283   0.579  -0.033  0.00  0.00    -0.029 A 
ATOM     10  C   UNL d   1      -1.115   2.068  -0.076  0.00  0.00     0.061 A 
ATOM     11  C   UNL d   1      -1.000  -2.188   0.026  0.00  0.00     0.017 A 
ATOM     12  C   UNL d   1      -2.277  -1.577   0.035  0.00  0.00     0.002 A 
ATOM     13  C   UNL d   1      -2.428  -0.184   0.003  0.00  0.00     0.009 A 
ENDROOT
BRANCH   4  14
ATOM     14  O   UNL d   1       1.824  -3.318  -0.017  0.00  0.00    -0.273 OA
BRANCH  14  15
ATOM     15  C   UNL d   1       1.376  -4.045  -1.087  0.00  0.00     0.298 C 
ATOM     16  O   UNL d   1       0.834  -3.609  -2.095  0.00  0.00    -0.259 OA
BRANCH  15  17
ATOM     17  C   UNL d   1       1.592  -5.512  -0.972  0.00  0.00     0.040 A 
ATOM     18  C   UNL d   1       2.586  -6.092  -1.779  0.00  0.00     0.019 A 
ATOM     19  C   UNL d   1       2.588  -7.470  -2.032  0.00  0.00     0.025 A 
ATOM     20  C   UNL d   1       1.591  -8.280  -1.486  0.00  0.00     0.034 A 
ATOM     21  C   UNL d   1       0.626  -7.728  -0.644  0.00  0.00     0.025 A 
ATOM     22 CL   UNL d   1       1.511  -9.944  -1.919  0.00  0.00    -0.084 Cl
ATOM     23  C   UNL d   1       0.622  -6.341  -0.387  0.00  0.00     0.019 A 
ENDBRANCH  15  17
ENDBRANCH  14  15
ENDBRANCH   4  14
BRANCH   1  24
ATOM     24  C   UNL d   1       4.032  -1.283  -0.065  0.00  0.00    -0.018 A 
ATOM     25  C   UNL d   1       4.715  -1.468  -1.273  0.00  0.00     0.012 A 
ATOM     26  C   UNL d   1       6.112  -1.426  -1.303  0.00  0.00     0.001 A 
ATOM     27  C   UNL d   1       6.833  -1.202  -0.130  0.00  0.00     0.000 A 
ATOM     28  C   UNL d   1       6.162  -1.034   1.079  0.00  0.00     0.001 A 
ATOM     29  C   UNL d   1       4.767  -1.077   1.114  0.00  0.00     0.012 A 
ENDBRANCH   1  24
TORSDOF 4
