REMARK  4 active torsions:
REMARK  status: ('A' for Active; 'I' for Inactive)
REMARK    1  A    between atoms: C_4  and  C_3 
REMARK    2  A    between atoms: C_17  and  C_5 
REMARK    3  A    between atoms: C_13  and  O_15 
REMARK    4  A    between atoms: O_15  and  C_17 
ROOT
ATOM      1  N   UNL d   1       0.150   0.266   1.094  0.00  0.00    -0.321 N 
ATOM      2  HN  UNL d   1       0.061   0.571   2.063  1.00  0.00     0.169 HD
ATOM      3  C   UNL d   1       0.045  -0.952   0.600  0.00  0.00     0.184 A 
ATOM      4  C   UNL d   1       0.408   1.020  -0.025  0.00  0.00     0.128 A 
ATOM      5  N   UNL d   1       0.415   0.333  -1.175  0.00  0.00    -0.245 N 
ATOM      6  HN  UNL d   1       0.555   0.684  -2.123  1.00  0.00     0.196 HD
ATOM      7  O   UNL d   1       0.185  -0.978  -0.764  0.00  0.00    -0.217 OA
ENDROOT
BRANCH   4   8
ATOM      8  C   UNL d   1       0.633   2.493   0.015  0.00  0.00     0.254 C 
BRANCH   8   9
ATOM      9  O   UNL d   1       2.025   2.800   0.180  0.00  0.00    -0.342 OA
BRANCH   9  10
ATOM     10  C   UNL d   1       2.375   4.125   0.136  0.00  0.00     0.091 A 
ATOM     11  C   UNL d   1       3.483   4.530   0.902  0.00  0.00     0.069 A 
ATOM     12  C   UNL d   1       3.933   5.853   0.864  0.00  0.00     0.050 A 
ATOM     13 CL   UNL d   1       4.321   3.418   1.926  0.00  0.00    -0.081 Cl
ATOM     14  C   UNL d   1       3.285   6.774   0.049  0.00  0.00     0.035 A 
ATOM     15  C   UNL d   1       2.196   6.386  -0.727  0.00  0.00     0.026 A 
ATOM     16 CL   UNL d   1       3.837   8.402  -0.015  0.00  0.00    -0.084 Cl
ATOM     17  C   UNL d   1       1.745   5.063  -0.687  0.00  0.00     0.040 A 
ENDBRANCH   9  10
ENDBRANCH   8   9
ENDBRANCH   4   8
BRANCH   3  18
ATOM     18  C   UNL d   1      -0.192  -2.160   1.420  0.00  0.00     0.041 A 
ATOM     19  C   UNL d   1      -0.267  -3.444   0.933  0.00  0.00     0.157 A 
ATOM     20  O   UNL d   1      -0.477  -4.318   1.954  0.00  0.00    -0.334 OA
ATOM     21  C   UNL d   1      -0.537  -3.584   3.097  0.00  0.00     0.142 A 
ATOM     22  C   UNL d   1      -0.370  -2.246   2.821  0.00  0.00     0.042 A 
ENDBRANCH   3  18
TORSDOF 4
