REMARK  11 active torsions:
REMARK  status: ('A' for Active; 'I' for Inactive)
REMARK    1  A    between atoms: C_13  and  C_1 
REMARK    2  A    between atoms: C_2  and  C_13 
REMARK    3  A    between atoms: N_23  and  C_3 
REMARK    4  A    between atoms: N_22  and  C_4 
REMARK    5  A    between atoms: C_16  and  C_13 
REMARK    6  A    between atoms: S_24  and  C_14 
REMARK    7  A    between atoms: S_25  and  C_15 
REMARK    8  A    between atoms: C_34  and  S_24 
REMARK    9  A    between atoms: C_35  and  S_25 
REMARK   10  A    between atoms: C_27  and  C_34 
REMARK   11  A    between atoms: C_28  and  C_35 
ROOT
ATOM      1  C   UNL d   1       0.059  -2.493  -0.087  0.00  0.00     0.104 C 
ENDROOT
BRANCH   1   2
ATOM      2  C   UNL d   1      -0.729  -2.957  -1.325  0.00  0.00     0.061 C 
ATOM      3  C   UNL d   1      -1.897  -3.654  -1.317  0.00  0.00     0.092 C 
ATOM      4  N   UNL d   1      -2.581  -3.983  -2.466  0.00  0.00    -0.327 N 
ATOM      5  C   UNL d   1      -2.063  -3.655  -3.596  0.00  0.00     0.148 C 
ATOM      6  HN  UNL d   1      -3.474  -4.474  -2.421  1.00  0.00     0.169 HD
ATOM      7  N   UNL d   1      -0.891  -3.008  -3.736  0.00  0.00    -0.303 N 
ATOM      8  C   UNL d   1      -0.237  -2.514  -2.657  0.00  0.00     0.257 C 
ATOM      9  H   UNL d   1      -0.582  -2.727  -4.651  0.00  0.00     0.171 HD
ATOM     10  O   UNL d   1       0.695  -1.746  -2.808  0.00  0.00    -0.267 OA
BRANCH   3  11
ATOM     11  N   UNL d   1      -2.510  -4.048  -0.143  0.00  0.00    -0.288 NA
ATOM     12  H   UNL d   1      -2.505  -3.313   0.561  0.00  0.00     0.125 HD
ATOM     13  H   UNL d   1      -3.478  -4.282  -0.365  0.00  0.00     0.125 HD
ENDBRANCH   3  11
BRANCH   5  14
ATOM     14  S   UNL d   1      -2.804  -3.985  -5.126  0.00  0.00    -0.090 SA
BRANCH  14  15
ATOM     15  C   UNL d   1      -4.547  -3.829  -4.657  0.00  0.00     0.108 C 
BRANCH  15  16
ATOM     16  C   UNL d   1      -5.393  -4.012  -5.883  0.00  0.00    -0.026 C 
ATOM     17  C   UNL d   1      -6.246  -3.099  -6.365  0.00  0.00     0.007 C 
ENDBRANCH  15  16
ENDBRANCH  14  15
ENDBRANCH   5  14
ENDBRANCH   1   2
BRANCH   1  18
ATOM     18  C   UNL d   1       0.241  -0.954  -0.044  0.00  0.00     0.061 C 
ATOM     19  C   UNL d   1       1.356  -0.176  -0.017  0.00  0.00     0.092 C 
ATOM     20  N   UNL d   1       1.305   1.194   0.019  0.00  0.00    -0.327 N 
ATOM     21  C   UNL d   1       0.175   1.780  -0.115  0.00  0.00     0.148 C 
ATOM     22  HN  UNL d   1       2.157   1.739   0.151  1.00  0.00     0.169 HD
ATOM     23  N   UNL d   1      -1.002   1.134  -0.205  0.00  0.00    -0.303 N 
ATOM     24  C   UNL d   1      -1.063  -0.211  -0.057  0.00  0.00     0.257 C 
ATOM     25  H   UNL d   1      -1.861   1.662  -0.244  0.00  0.00     0.171 HD
ATOM     26  O   UNL d   1      -2.145  -0.781   0.055  0.00  0.00    -0.267 OA
BRANCH  19  27
ATOM     27  N   UNL d   1       2.650  -0.630  -0.037  0.00  0.00    -0.288 NA
ATOM     28  H   UNL d   1       2.828  -1.556   0.308  0.00  0.00     0.125 HD
ATOM     29  H   UNL d   1       3.268   0.066   0.369  0.00  0.00     0.125 HD
ENDBRANCH  19  27
BRANCH  21  30
ATOM     30  S   UNL d   1       0.031   3.507  -0.175  0.00  0.00    -0.090 SA
BRANCH  30  31
ATOM     31  C   UNL d   1       1.701   3.901  -0.777  0.00  0.00     0.108 C 
BRANCH  31  32
ATOM     32  C   UNL d   1       1.848   5.387  -0.908  0.00  0.00    -0.026 C 
ATOM     33  C   UNL d   1       2.100   6.024  -2.060  0.00  0.00     0.007 C 
ENDBRANCH  31  32
ENDBRANCH  30  31
ENDBRANCH  21  30
ENDBRANCH   1  18
BRANCH   1  34
ATOM     34  C   UNL d   1       1.336  -3.317   0.213  0.00  0.00    -0.023 A 
ATOM     35  C   UNL d   1       1.809  -3.486   1.536  0.00  0.00     0.043 A 
ATOM     36  C   UNL d   1       3.115  -3.932   1.786  0.00  0.00     0.048 A 
ATOM     37 CL   UNL d   1       0.869  -3.051   2.922  0.00  0.00    -0.084 Cl
ATOM     38  C   UNL d   1       3.959  -4.240   0.725  0.00  0.00     0.035 A 
ATOM     39  C   UNL d   1       3.489  -4.180  -0.579  0.00  0.00     0.024 A 
ATOM     40 CL   UNL d   1       5.607  -4.633   1.019  0.00  0.00    -0.084 Cl
ATOM     41  C   UNL d   1       2.186  -3.743  -0.831  0.00  0.00     0.011 A 
ENDBRANCH   1  34
TORSDOF 11
