REMARK  4 active torsions:
REMARK  status: ('A' for Active; 'I' for Inactive)
REMARK    1  A    between atoms: C_11  and  N_1 
REMARK    2  A    between atoms: C_9  and  C_2 
REMARK    3  A    between atoms: N_14  and  C_10 
REMARK    4  A    between atoms: C_13  and  N_14 
ROOT
ATOM      1  N   UNL d   1       3.727   0.436   0.370  0.00  0.00    -0.223 N 
ATOM      2  C   UNL d   1       3.511  -0.819  -0.223  0.00  0.00     0.145 A 
ATOM      3  N   UNL d   1       5.577  -0.264  -0.487  0.00  0.00    -0.226 N 
ATOM      4  HN  UNL d   1       6.557  -0.313  -0.764  1.00  0.00     0.210 HD
ATOM      5  N   UNL d   1       5.021   0.773   0.109  0.00  0.00    -0.219 N 
ATOM      6  HN  UNL d   1       5.474   1.660   0.333  1.00  0.00     0.210 HD
ATOM      7  N   UNL d   1       4.671  -1.255  -0.682  0.00  0.00    -0.268 N 
ATOM      8  HN  UNL d   1       4.852  -2.166  -1.104  1.00  0.00     0.190 HD
ENDROOT
BRANCH   2   9
ATOM      9  C   UNL d   1       2.246  -1.458  -0.307  0.00  0.00     0.069 C 
ATOM     10  C   UNL d   1       2.135  -2.793  -0.422  0.00  0.00     0.092 C 
BRANCH  10  11
ATOM     11  N   UNL d   1       3.138  -3.716  -0.540  0.00  0.00    -0.365 N 
ATOM     12  H   UNL d   1       4.066  -3.287  -0.543  0.00  0.00     0.165 HD
BRANCH  11  13
ATOM     13  C   UNL d   1       3.183  -5.132  -0.621  0.00  0.00     0.043 C 
ATOM     14  C   UNL d   1       2.078  -6.039  -0.744  0.00  0.00     0.001 C 
ATOM     15  C   UNL d   1       2.326  -7.432  -0.577  0.00  0.00    -0.024 C 
ATOM     16  C   UNL d   1       0.735  -5.697  -1.047  0.00  0.00     0.014 C 
ATOM     17  C   UNL d   1       1.267  -8.354  -0.526  0.00  0.00     0.012 C 
ATOM     18  C   UNL d   1       3.635  -7.916  -0.466  0.00  0.00     0.012 C 
ATOM     19  C   UNL d   1      -0.051  -7.947  -0.697  0.00  0.00     0.001 C 
ATOM     20  C   UNL d   1      -0.313  -6.623  -1.003  0.00  0.00     0.001 C 
ATOM     21  C   UNL d   1       4.713  -7.047  -0.445  0.00  0.00     0.003 C 
ATOM     22  C   UNL d   1       4.482  -5.677  -0.483  0.00  0.00     0.030 C 
ENDBRANCH  11  13
ENDBRANCH  10  11
ENDBRANCH   2   9
BRANCH   1  23
ATOM     23  C   UNL d   1       2.918   1.312   1.154  0.00  0.00     0.060 A 
ATOM     24  C   UNL d   1       1.679   0.944   1.687  0.00  0.00     0.031 A 
ATOM     25  C   UNL d   1       0.927   1.857   2.438  0.00  0.00     0.002 A 
ATOM     26  C   UNL d   1       1.420   3.137   2.695  0.00  0.00     0.000 A 
ATOM     27  C   UNL d   1       2.666   3.502   2.208  0.00  0.00     0.002 A 
ATOM     28  C   UNL d   1       3.413   2.600   1.441  0.00  0.00     0.031 A 
ENDBRANCH   1  23
TORSDOF 4
