REMARK  5 active torsions:
REMARK  status: ('A' for Active; 'I' for Inactive)
REMARK    1  A    between atoms: C_4  and  C_1 
REMARK    2  A    between atoms: C_9  and  C_1 
REMARK    3  A    between atoms: C_2  and  C_8 
REMARK    4  A    between atoms: C_15  and  C_3 
REMARK    5  A    between atoms: N_5  and  C_4 
ROOT
ATOM      1  C   UNL d   1       1.076   0.041  -0.051  0.00  0.00     0.054 C 
ATOM      2  C   UNL d   1       0.424  -1.142  -0.030  0.00  0.00     0.035 C 
ENDROOT
BRANCH   1   3
ATOM      3  C   UNL d   1       2.596   0.041  -0.051  0.00  0.00    -0.035 C 
BRANCH   3   4
ATOM      4  N   UNL d   1       3.857   0.041  -0.051  0.00  0.00    -0.365 N 
ATOM      5  HN2 UNL d   1       2.837   0.041  -0.051  1.00  0.00     0.165 HD
ATOM      6  HN1 UNL d   1       4.877   0.041  -0.051  1.00  0.00     0.165 HD
ENDBRANCH   3   4
ENDBRANCH   1   3
BRANCH   1   7
ATOM      7  C   UNL d   1       0.362   1.343  -0.062  0.00  0.00     0.051 A 
ATOM      8  N   UNL d   1      -0.996   1.291  -0.047  0.00  0.00    -0.365 N 
ATOM      9  C   UNL d   1      -1.677   2.459  -0.036  0.00  0.00     0.088 A 
ATOM     10  HN  UNL d   1      -1.487   0.397  -0.044  1.00  0.00     0.165 HD
ATOM     11  C   UNL d   1      -1.073   3.703  -0.039  0.00  0.00     0.017 A 
ATOM     12  C   UNL d   1       0.312   3.752  -0.058  0.00  0.00     0.004 A 
ATOM     13  C   UNL d   1       1.041   2.563  -0.070  0.00  0.00     0.031 A 
ENDBRANCH   1   7
BRANCH   2  14
ATOM     14  C   UNL d   1       1.067  -2.462   0.033  0.00  0.00    -0.035 A 
ATOM     15  C   UNL d   1       1.343  -3.044   1.275  0.00  0.00     0.012 A 
ATOM     16  C   UNL d   1       1.929  -4.312   1.351  0.00  0.00     0.017 A 
ATOM     17  C   UNL d   1       2.251  -5.021   0.185  0.00  0.00     0.048 A 
ATOM     18  C   UNL d   1       1.992  -4.425  -1.059  0.00  0.00     0.017 A 
ATOM     19  C   UNL d   1       1.406  -3.154  -1.135  0.00  0.00     0.012 A 
BRANCH  17  20
ATOM     20  C   UNL d   1       2.850  -6.406   0.254  0.00  0.00     0.417 C 
ATOM     21  F   UNL d   1       3.052  -6.851   1.526  0.00  0.00    -0.166 F 
ATOM     22  F   UNL d   1       2.059  -7.342  -0.342  0.00  0.00    -0.166 F 
ATOM     23  F   UNL d   1       4.059  -6.490  -0.367  0.00  0.00    -0.166 F 
ENDBRANCH  17  20
ENDBRANCH   2  14
TORSDOF 5
