REMARK  7 active torsions:
REMARK  status: ('A' for Active; 'I' for Inactive)
REMARK    1  A    between atoms: C_7  and  C_1 
REMARK    2  A    between atoms: N_18  and  C_3 
REMARK    3  A    between atoms: C_17  and  C_6 
REMARK       I    between atoms: N_14  and  C_7 
REMARK    4  A    between atoms: C_20  and  C_12 
REMARK    5  A    between atoms: C_13  and  N_15 
REMARK    6  A    between atoms: N_21  and  C_13 
REMARK    7  A    between atoms: N_15  and  N_14 
ROOT
ATOM      1  C   UNL d   1      -2.578  -0.720  -0.013  0.00  0.00     0.103 A 
ATOM      2  C   UNL d   1      -0.209  -0.994  -0.019  0.00  0.00     0.040 A 
ATOM      3  C   UNL d   1      -1.518  -1.610  -0.087  0.00  0.00     0.062 A 
ATOM      4  C   UNL d   1      -0.379   0.384   0.028  0.00  0.00     0.103 A 
ATOM      5  S   UNL d   1      -2.003   0.887   0.046  0.00  0.00    -0.062 SA
ATOM      6  C   UNL d   1       1.147  -1.461   0.009  0.00  0.00     0.018 A 
ATOM      7  N   UNL d   1       1.851   0.866   0.097  0.00  0.00    -0.298 N 
ATOM      8  HN  UNL d   1       2.611   1.546   0.126  1.00  0.00     0.187 HD
ATOM      9  N   UNL d   1       0.606   1.296   0.069  0.00  0.00    -0.292 N 
ATOM     10  HN  UNL d   1       0.396   2.294   0.078  1.00  0.00     0.187 HD
ATOM     11  C   UNL d   1       2.151  -0.461   0.088  0.00  0.00     0.070 A 
ENDROOT
BRANCH   1  12
ATOM     12  C   UNL d   1      -3.998  -1.048   0.001  0.00  0.00     0.279 C 
ATOM     13  N   UNL d   1      -4.906  -0.004   0.003  0.00  0.00    -0.263 N 
ATOM     14  H   UNL d   1      -4.639   0.980  -0.061  0.00  0.00     0.190 HD
ATOM     15  O   UNL d   1      -4.415  -2.211   0.001  0.00  0.00    -0.265 OA
BRANCH  13  16
ATOM     16  N   UNL d   1      -6.270  -0.326  -0.032  0.00  0.00    -0.274 N 
ATOM     17  H   UNL d   1      -6.475  -1.322  -0.018  0.00  0.00     0.189 HD
BRANCH  16  18
ATOM     18  C   UNL d   1      -7.261   0.629  -0.181  0.00  0.00     0.186 C 
ATOM     19  S   UNL d   1      -6.946   2.270  -0.282  0.00  0.00    -0.040 SA
BRANCH  18  20
ATOM     20  N   UNL d   1      -8.511   0.046  -0.221  0.00  0.00    -0.370 N 
ATOM     21  C   UNL d   1      -9.794   0.706  -0.339  0.00  0.00     0.148 C 
ATOM     22  H   UNL d   1      -8.546  -0.963  -0.165  0.00  0.00     0.161 HD
ENDBRANCH  18  20
ENDBRANCH  16  18
ENDBRANCH  13  16
ENDBRANCH   1  12
BRANCH   3  23
ATOM     23  N   UNL d   1      -1.749  -2.941  -0.192  0.00  0.00    -0.397 N 
ATOM     24  H   UNL d   1      -1.068  -3.584  -0.586  0.00  0.00     0.156 HD
ATOM     25  H   UNL d   1      -2.706  -3.300  -0.243  0.00  0.00     0.156 HD
ENDBRANCH   3  23
BRANCH   6  26
ATOM     26  C   UNL d   1       1.435  -2.910  -0.055  0.00  0.00    -0.023 A 
ATOM     27  C   UNL d   1       2.300  -3.444  -1.029  0.00  0.00     0.012 A 
ATOM     28  C   UNL d   1       2.597  -4.809  -1.066  0.00  0.00     0.001 A 
ATOM     29  C   UNL d   1       1.990  -5.681  -0.168  0.00  0.00     0.000 A 
ATOM     30  C   UNL d   1       1.124  -5.181   0.800  0.00  0.00     0.001 A 
ATOM     31  C   UNL d   1       0.885  -3.807   0.879  0.00  0.00     0.012 A 
ENDBRANCH   6  26
BRANCH  11  32
ATOM     32  C   UNL d   1       3.617  -0.724   0.152  0.00  0.00    -0.007 A 
ATOM     33  C   UNL d   1       4.519   0.055  -0.601  0.00  0.00     0.014 A 
ATOM     34  C   UNL d   1       5.891  -0.223  -0.620  0.00  0.00     0.001 A 
ATOM     35  C   UNL d   1       6.396  -1.292   0.114  0.00  0.00     0.000 A 
ATOM     36  C   UNL d   1       5.537  -2.051   0.901  0.00  0.00     0.001 A 
ATOM     37  C   UNL d   1       4.171  -1.750   0.941  0.00  0.00     0.014 A 
ENDBRANCH  11  32
TORSDOF 7
