REMARK  3 active torsions:
REMARK  status: ('A' for Active; 'I' for Inactive)
REMARK    1  A    between atoms: C_3  and  C_1 
REMARK    2  A    between atoms: C_4  and  C_2 
REMARK       I    between atoms: N_8  and  C_4 
REMARK    3  A    between atoms: N_13  and  N_8 
ROOT
ATOM      1  C   UNL d   1      -1.184   0.850   0.389  0.00  0.00     0.068 C 
ATOM      2  C   UNL d   1      -1.391  -0.587   0.176  0.00  0.00     0.069 C 
ATOM      3  N   UNL d   1       0.097   1.180   0.602  0.00  0.00    -0.325 N 
ATOM      4  HN  UNL d   1       0.416   2.107   0.884  1.00  0.00     0.174 HD
ATOM      5  S   UNL d   1       1.085  -0.107   0.351  0.00  0.00    -0.025 SA
ATOM      6  C   UNL d   1      -0.161  -1.232   0.099  0.00  0.00     0.087 C 
ENDROOT
BRANCH   1   7
ATOM      7  C   UNL d   1      -2.190   1.943   0.415  0.00  0.00     0.036 A 
ATOM      8  C   UNL d   1      -3.393   1.842   1.141  0.00  0.00     0.048 A 
ATOM      9 CL   UNL d   1      -3.688   0.604   2.321  0.00  0.00    -0.083 Cl
ATOM     10  C   UNL d   1      -4.394   2.824   1.037  0.00  0.00     0.025 A 
ATOM     11  C   UNL d   1      -4.179   3.982   0.299  0.00  0.00     0.003 A 
ATOM     12  C   UNL d   1      -2.953   4.165  -0.326  0.00  0.00     0.025 A 
ATOM     13  C   UNL d   1      -1.976   3.155  -0.290  0.00  0.00     0.048 A 
ATOM     14 CL   UNL d   1      -0.525   3.529  -1.171  0.00  0.00    -0.083 Cl
ENDBRANCH   1   7
BRANCH   2  15
ATOM     15  C   UNL d   1      -2.652  -1.311   0.003  0.00  0.00     0.268 C 
ATOM     16  N   UNL d   1      -2.650  -2.592   0.583  0.00  0.00    -0.286 N 
ATOM     17  H   UNL d   1      -1.835  -2.881   1.112  0.00  0.00     0.184 HD
ATOM     18  O   UNL d   1      -3.615  -0.807  -0.574  0.00  0.00    -0.266 OA
BRANCH  16  19
ATOM     19  N   UNL d   1      -3.772  -3.445   0.672  0.00  0.00    -0.237 NA
ATOM     20  C   UNL d   1      -4.796  -2.942   1.588  0.00  0.00     0.135 C 
ATOM     21  C   UNL d   1      -4.338  -3.805  -0.625  0.00  0.00     0.135 C 
ENDBRANCH  16  19
ENDBRANCH   2  15
TORSDOF 3
