REMARK  5 active torsions:
REMARK  status: ('A' for Active; 'I' for Inactive)
REMARK    1  A    between atoms: C_6  and  C_1 
REMARK    2  A    between atoms: N_16  and  C_2 
REMARK       I    between atoms: N_11  and  C_6 
REMARK    3  A    between atoms: C_10  and  N_12 
REMARK    4  A    between atoms: N_18  and  C_10 
REMARK    5  A    between atoms: N_12  and  N_11 
ROOT
ATOM      1  C   UNL d   1       2.498  -0.027   0.012  0.00  0.00     0.103 A 
ATOM      2  C   UNL d   1       1.659   1.080   0.013  0.00  0.00     0.062 A 
ATOM      3  C   UNL d   1       0.245   0.745   0.011  0.00  0.00     0.032 A 
ATOM      4  S   UNL d   1       1.595  -1.477   0.015  0.00  0.00    -0.064 SA
ATOM      5  C   UNL d   1       0.115  -0.645   0.012  0.00  0.00     0.088 A 
ATOM      6  N   UNL d   1      -1.023  -1.368   0.012  0.00  0.00    -0.354 N 
ATOM      7  HN  UNL d   1      -1.022  -2.388   0.013  1.00  0.00     0.166 HD
ATOM      8  C   UNL d   1      -0.979   1.481   0.011  0.00  0.00    -0.045 A 
ATOM      9  C   UNL d   1      -2.178   0.737   0.009  0.00  0.00     0.032 A 
ATOM     10  C   UNL d   1      -2.155  -0.649   0.010  0.00  0.00     0.006 A 
ATOM     11  C   UNL d   1      -1.145   2.978   0.012  0.00  0.00     0.049 C 
ATOM     12  C   UNL d   1      -3.445  -1.416   0.010  0.00  0.00     0.068 C 
ENDROOT
BRANCH   1  13
ATOM     13  C   UNL d   1       3.961  -0.051   0.004  0.00  0.00     0.279 C 
ATOM     14  N   UNL d   1       4.554  -1.305   0.017  0.00  0.00    -0.263 N 
ATOM     15  H   UNL d   1       4.011  -2.166   0.030  0.00  0.00     0.190 HD
ATOM     16  O   UNL d   1       4.661   0.965  -0.015  0.00  0.00    -0.265 OA
BRANCH  14  17
ATOM     17  N   UNL d   1       5.952  -1.420   0.009  0.00  0.00    -0.274 N 
ATOM     18  H   UNL d   1       6.463  -0.541  -0.018  0.00  0.00     0.189 HD
BRANCH  17  19
ATOM     19  C   UNL d   1       6.577  -2.659   0.013  0.00  0.00     0.186 C 
ATOM     20  S   UNL d   1       5.735  -4.108   0.030  0.00  0.00    -0.040 SA
BRANCH  19  21
ATOM     21  N   UNL d   1       7.951  -2.534   0.003  0.00  0.00    -0.370 N 
ATOM     22  C   UNL d   1       8.936  -3.603   0.009  0.00  0.00     0.148 C 
ATOM     23  H   UNL d   1       8.328  -1.597   0.002  0.00  0.00     0.161 HD
ENDBRANCH  19  21
ENDBRANCH  17  19
ENDBRANCH  14  17
ENDBRANCH   1  13
BRANCH   2  24
ATOM     24  N   UNL d   1       2.165   2.333   0.017  0.00  0.00    -0.397 N 
ATOM     25  H   UNL d   1       3.176   2.490  -0.015  0.00  0.00     0.156 HD
ATOM     26  H   UNL d   1       1.628   3.185  -0.054  0.00  0.00     0.156 HD
ENDBRANCH   2  24
TORSDOF 5
