REMARK  8 active torsions:
REMARK  status: ('A' for Active; 'I' for Inactive)
REMARK    1  A    between atoms: CA_2  and  C_1 
REMARK    2  A    between atoms: OXT_6  and  C_1 
REMARK    3  A    between atoms: N_3  and  CA_2 
REMARK    4  A    between atoms: CB_5  and  CA_2 
REMARK    5  A    between atoms: C4_16  and  N_3 
REMARK    6  A    between atoms: CG_7  and  CB_5 
REMARK    7  A    between atoms: C3_15  and  C4_16 
REMARK    8  A    between atoms: O3_18  and  C6_17 
ROOT
ATOM      1  CA  PHE d   1       0.389   0.832   0.985  0.00  0.00     0.321 C 
ENDROOT
BRANCH   1   2
ATOM      2  C   PHE d   1       1.194   0.081  -0.099  0.00  0.00     0.174 C 
ATOM      3  O   PHE d   1       2.249  -0.497   0.102  0.00  0.00    -0.648 OA
BRANCH   2   4
ATOM      4  OXT PHE d   1       0.557   0.013  -1.295  0.00  0.00    -0.775 OA
ATOM      5  HXT PHE d   1      -0.336   0.407  -1.283  0.00  0.00     0.167 HD
ENDBRANCH   2   4
ENDBRANCH   1   2
BRANCH   1   6
ATOM      6  N   PHE d   1      -0.477  -0.193   1.631  0.00  0.00     0.102 N 
ATOM      7  H   PHE d   1       0.153  -0.888   2.056  0.00  0.00     0.317 HD
BRANCH   6   8
ATOM      8  C4  <1> d   1      -1.325   0.339   2.711  0.00  0.00     0.312 C 
BRANCH   8   9
ATOM      9  C3  <1> d   1      -2.105  -0.754   3.409  0.00  0.00     0.003 A 
ATOM     10  C6  <1> d   1      -2.615  -1.879   2.748  0.00  0.00     0.073 A 
ATOM     11  C9  <1> d   1      -3.330  -2.860   3.430  0.00  0.00     0.037 A 
ATOM     12  C13 <1> d   1      -3.561  -2.726   4.798  0.00  0.00     0.003 A 
ATOM     13  C12 <1> d   1      -3.090  -1.603   5.473  0.00  0.00     0.001 A 
ATOM     14  C8  <1> d   1      -2.374  -0.622   4.784  0.00  0.00     0.012 A 
BRANCH  10  15
ATOM     15  O3  <1> d   1      -2.418  -2.081   1.411  0.00  0.00    -0.360 OA
ATOM     16  H8  <1> d   1      -1.739  -1.433   1.129  0.00  0.00     0.217 HD
ENDBRANCH  10  15
ENDBRANCH   8   9
ENDBRANCH   6   8
ENDBRANCH   1   6
BRANCH   1  17
ATOM     17  CB  PHE d   1       1.354   1.528   1.968  0.00  0.00     0.085 C 
BRANCH  17  18
ATOM     18  CG  PHE d   1       2.224   2.606   1.370  0.00  0.00    -0.056 A 
ATOM     19  CD1 PHE d   1       1.753   3.921   1.244  0.00  0.00     0.007 A 
ATOM     20  CE1 PHE d   1       2.598   4.928   0.776  0.00  0.00     0.001 A 
ATOM     21  CZ  PHE d   1       3.912   4.630   0.419  0.00  0.00     0.000 A 
ATOM     22  CE2 PHE d   1       4.381   3.323   0.520  0.00  0.00     0.001 A 
ATOM     23  CD2 PHE d   1       3.541   2.316   0.992  0.00  0.00     0.007 A 
ENDBRANCH  17  18
ENDBRANCH   1  17
TORSDOF 8
