REMARK  6 active torsions:
REMARK  status: ('A' for Active; 'I' for Inactive)
REMARK    1  A    between atoms: C_10  and  C_3 
REMARK       I    between atoms: C_4  and  N_9 
REMARK    2  A    between atoms: C_15  and  C_4 
REMARK    3  A    between atoms: O_23  and  C_7 
REMARK    4  A    between atoms: N_9  and  C_19 
REMARK    5  A    between atoms: O_24  and  C_11 
REMARK    6  A    between atoms: C_14  and  C_15 
ROOT
ATOM      1  C   UNL d   1       3.714  -6.634  -0.986  0.00  0.00     0.226 C 
ATOM      2  N   UNL d   1       2.543  -6.978  -0.330  0.00  0.00    -0.327 N 
ATOM      3  O   UNL d   1       4.000  -5.527  -1.438  0.00  0.00    -0.273 OA
ATOM      4  H   UNL d   1       2.458  -7.932  -0.003  0.00  0.00     0.169 HD
ENDROOT
BRANCH   2   5
ATOM      5  C   UNL d   1       1.453  -6.123  -0.054  0.00  0.00     0.034 A 
ATOM      6  C   UNL d   1       1.376  -4.806  -0.506  0.00  0.00     0.030 A 
ATOM      7  C   UNL d   1       0.277  -4.000  -0.184  0.00  0.00     0.016 A 
ATOM      8  C   UNL d   1      -0.774  -4.487   0.600  0.00  0.00    -0.001 A 
ATOM      9  C   UNL d   1      -0.700  -5.814   1.044  0.00  0.00     0.016 A 
ATOM     10  C   UNL d   1       0.398  -6.625   0.716  0.00  0.00     0.030 A 
BRANCH   8  11
ATOM     11  C   UNL d   1      -1.905  -3.638   0.943  0.00  0.00     0.102 A 
ATOM     12  C   UNL d   1      -3.017  -3.744   1.752  0.00  0.00     0.127 A 
ATOM     13  N   UNL d   1      -3.771  -2.598   1.686  0.00  0.00    -0.354 N 
ATOM     14  C   UNL d   1      -3.098  -1.843   0.850  0.00  0.00     0.233 A 
ATOM     15  HN  UNL d   1      -4.643  -2.386   2.171  1.00  0.00     0.166 HD
ATOM     16  O   UNL d   1      -1.959  -2.397   0.358  0.00  0.00    -0.304 OA
ENDBRANCH   8  11
ENDBRANCH   2   5
BRANCH   1  17
ATOM     17  C   UNL d   1       4.693  -7.785  -1.131  0.00  0.00     0.141 C 
BRANCH  17  18
ATOM     18  C   UNL d   1       4.505  -8.630  -2.371  0.00  0.00    -0.047 A 
ATOM     19  C   UNL d   1       5.018  -9.938  -2.383  0.00  0.00     0.047 A 
ATOM     20  C   UNL d   1       4.941 -10.748  -3.528  0.00  0.00     0.102 A 
ATOM     21  C   UNL d   1       4.297 -10.253  -4.671  0.00  0.00     0.101 A 
ATOM     22  C   UNL d   1       3.817  -8.938  -4.673  0.00  0.00     0.040 A 
ATOM     23  C   UNL d   1       3.926  -8.130  -3.540  0.00  0.00     0.010 A 
BRANCH  20  24
ATOM     24  O   UNL d   1       5.463 -12.015  -3.558  0.00  0.00    -0.353 OA
ATOM     25  C   UNL d   1       6.630 -12.228  -2.770  0.00  0.00     0.210 C 
ENDBRANCH  20  24
BRANCH  21  26
ATOM     26  O   UNL d   1       4.130 -10.889  -5.874  0.00  0.00    -0.353 OA
ATOM     27  C   UNL d   1       3.964 -12.300  -5.830  0.00  0.00     0.210 C 
ENDBRANCH  21  26
ENDBRANCH  17  18
ENDBRANCH   1  17
TORSDOF 6
