REMARK  8 active torsions:
REMARK  status: ('A' for Active; 'I' for Inactive)
REMARK    1  A    between atoms: C_2  and  S_1 
REMARK    2  A    between atoms: N_6  and  S_1 
REMARK    3  A    between atoms: C_3  and  O_8 
REMARK    4  A    between atoms: C_26  and  N_6 
REMARK    5  A    between atoms: O_8  and  C_18 
REMARK       I    between atoms: C_12  and  N_22 
REMARK    6  A    between atoms: C_28  and  C_12 
REMARK    7  A    between atoms: C_29  and  C_13 
REMARK    8  A    between atoms: N_22  and  C_29 
ROOT
ATOM      1  N   UNL d   1       0.986  -2.889   3.883  0.00  0.00    -0.344 N 
ATOM      2  HN  UNL d   1       0.545  -3.776   4.125  1.00  0.00     0.167 HD
ATOM      3  C   UNL d   1       2.110  -2.464   4.500  0.00  0.00     0.149 A 
ATOM      4  C   UNL d   1       0.991  -0.828   2.606  0.00  0.00     0.058 A 
ATOM      5  C   UNL d   1       0.477  -2.079   2.929  0.00  0.00     0.120 A 
ATOM      6  C   UNL d   1       2.689  -1.223   4.260  0.00  0.00     0.059 A 
ATOM      7  C   UNL d   1       2.122  -0.393   3.288  0.00  0.00     0.036 A 
ENDROOT
BRANCH   4   8
ATOM      8  N   UNL d   1       0.331  -0.031   1.628  0.00  0.00    -0.279 N 
ATOM      9  H   UNL d   1       0.022   0.898   1.911  0.00  0.00     0.179 HD
BRANCH   8  10
ATOM     10  S   UNL d   1       0.942  -0.040   0.052  0.00  0.00     0.269 S 
ATOM     11  O   UNL d   1       0.118   0.866  -0.720  0.00  0.00    -0.200 OA
ATOM     12  O   UNL d   1       2.376   0.104   0.100  0.00  0.00    -0.200 OA
BRANCH  10  13
ATOM     13  C   UNL d   1       0.649  -1.662  -0.619  0.00  0.00     0.120 A 
ATOM     14  S   UNL d   1      -0.972  -2.214  -0.654  0.00  0.00    -0.080 SA
ATOM     15  C   UNL d   1      -0.513  -3.756  -1.261  0.00  0.00     0.002 A 
ATOM     16  C   UNL d   1       0.856  -3.829  -1.441  0.00  0.00     0.018 A 
ATOM     17  C   UNL d   1       1.518  -2.618  -1.099  0.00  0.00     0.034 A 
BRANCH  15  18
ATOM     18  C   UNL d   1      -1.549  -4.809  -1.534  0.00  0.00     0.169 C 
BRANCH  18  19
ATOM     19  N   UNL d   1      -1.998  -4.663  -2.898  0.00  0.00    -0.352 N 
ATOM     20  C   UNL d   1      -2.936  -5.521  -3.443  0.00  0.00     0.251 C 
ATOM     21  O   UNL d   1      -3.426  -6.466  -2.832  0.00  0.00    -0.268 OA
ATOM     22  H   UNL d   1      -1.875  -3.762  -3.337  0.00  0.00     0.163 HD
BRANCH  20  23
ATOM     23  C   UNL d   1      -3.364  -5.197  -4.833  0.00  0.00     0.032 A 
ATOM     24  C   UNL d   1      -2.487  -4.585  -5.741  0.00  0.00     0.017 A 
ATOM     25  C   UNL d   1      -2.919  -4.262  -7.030  0.00  0.00     0.001 A 
ATOM     26  C   UNL d   1      -4.223  -4.558  -7.422  0.00  0.00     0.000 A 
ATOM     27  C   UNL d   1      -5.094  -5.189  -6.534  0.00  0.00     0.001 A 
ATOM     28  C   UNL d   1      -4.665  -5.515  -5.242  0.00  0.00     0.017 A 
ENDBRANCH  20  23
ENDBRANCH  18  19
ENDBRANCH  15  18
ENDBRANCH  10  13
ENDBRANCH   8  10
ENDBRANCH   4   8
BRANCH   3  29
ATOM     29  O   UNL d   1       2.676  -3.229   5.508  0.00  0.00    -0.276 OA
BRANCH  29  30
ATOM     30  C   UNL d   1       2.613  -4.612   5.366  0.00  0.00     0.163 A 
ATOM     31  C   UNL d   1       2.574  -5.375   6.539  0.00  0.00     0.042 A 
ATOM     32  C   UNL d   1       2.568  -6.760   6.334  0.00  0.00     0.049 A 
ATOM     33  C   UNL d   1       2.539  -4.852   7.854  0.00  0.00     0.020 A 
ATOM     34  C   UNL d   1       2.530  -7.596   7.442  0.00  0.00     0.054 A 
ATOM     35  N   UNL d   1       2.592  -7.308   5.112  0.00  0.00    -0.351 N 
ATOM     36  C   UNL d   1       2.474  -7.082   8.737  0.00  0.00     0.036 A 
ATOM     37  C   UNL d   1       2.479  -5.709   8.951  0.00  0.00     0.025 A 
ATOM     38 CL   UNL d   1       2.392  -8.153  10.081  0.00  0.00    -0.084 Cl
ATOM     39  C   UNL d   1       2.641  -6.468   4.068  0.00  0.00     0.182 A 
ATOM     40  HN  UNL d   1       2.573  -8.319   4.981  1.00  0.00     0.166 HD
ATOM     41  N   UNL d   1       2.698  -5.138   4.128  0.00  0.00    -0.332 N 
ATOM     42  HN  UNL d   1       2.799  -4.558   3.295  1.00  0.00     0.168 HD
ENDBRANCH  29  30
ENDBRANCH   3  29
TORSDOF 8
