REMARK  2 active torsions:
REMARK  status: ('A' for Active; 'I' for Inactive)
REMARK    1  A    between atoms: C_7  and  C_3 
REMARK    2  A    between atoms: C_8  and  C_4 
ROOT
ATOM      1  N   UNL d   1       1.414  -0.602  -0.031  0.00  0.00    -0.349 N 
ATOM      2  HN  UNL d   1       2.298  -1.109  -0.045  1.00  0.00     0.166 HD
ATOM      3  C   UNL d   1       0.223  -1.170  -0.049  0.00  0.00     0.086 A 
ATOM      4  C   UNL d   1       1.297   0.781   0.011  0.00  0.00     0.051 A 
ATOM      5  S   UNL d   1      -1.100  -0.063   0.000  0.00  0.00    -0.081 SA
ATOM      6  C   UNL d   1      -0.001   1.248   0.024  0.00  0.00     0.082 A 
ENDROOT
BRANCH   3   7
ATOM      7  C   UNL d   1      -0.006  -2.620  -0.059  0.00  0.00     0.013 A 
ATOM      8  C   UNL d   1      -1.122  -3.213  -0.648  0.00  0.00     0.101 A 
ATOM      9  N   UNL d   1      -1.367  -4.548  -0.669  0.00  0.00    -0.374 N 
ATOM     10  C   UNL d   1      -0.451  -5.342  -0.078  0.00  0.00     0.087 A 
ATOM     11  HN  UNL d   1      -2.203  -4.932  -1.111  1.00  0.00     0.164 HD
ATOM     12  C   UNL d   1       0.699  -4.864   0.527  0.00  0.00     0.018 A 
ATOM     13  C   UNL d   1       0.922  -3.487   0.530  0.00  0.00     0.017 A 
ENDBRANCH   3   7
BRANCH   4  14
ATOM     14  C   UNL d   1       2.469   1.642   0.002  0.00  0.00     0.006 A 
ATOM     15  C   UNL d   1       2.479   2.896   0.610  0.00  0.00     0.101 A 
ATOM     16  N   UNL d   1       3.537   3.745   0.604  0.00  0.00    -0.374 N 
ATOM     17  C   UNL d   1       4.647   3.320  -0.035  0.00  0.00     0.087 A 
ATOM     18  HN  UNL d   1       3.495   4.657   1.058  1.00  0.00     0.164 HD
ATOM     19  C   UNL d   1       4.751   2.088  -0.659  0.00  0.00     0.018 A 
ATOM     20  C   UNL d   1       3.645   1.238  -0.634  0.00  0.00     0.016 A 
ENDBRANCH   4  14
TORSDOF 2
