REMARK  9 active torsions:
REMARK  status: ('A' for Active; 'I' for Inactive)
REMARK    1  A    between atoms: C_4  and  C_1 
REMARK    2  A    between atoms: C_5  and  C_1 
REMARK    3  A    between atoms: C_2  and  C_6 
REMARK    4  A    between atoms: N_7  and  C_3 
REMARK    5  A    between atoms: O_19  and  C_4 
REMARK    6  A    between atoms: O_18  and  C_5 
REMARK    7  A    between atoms: C_8  and  N_7 
REMARK    8  A    between atoms: C_22  and  O_18 
REMARK    9  A    between atoms: C_21  and  O_19 
ROOT
ATOM      1  N   UNL d   1       0.810   1.643   1.787  0.00  0.00    -0.363 N 
ATOM      2  H   UNL d   1       1.808   1.597   2.023  0.00  0.00     0.165 HD
ENDROOT
BRANCH   1   3
ATOM      3  C   UNL d   1       0.361   0.720   0.875  0.00  0.00     0.112 C 
ATOM      4  C   UNL d   1       1.066  -0.106   0.074  0.00  0.00     0.129 C 
BRANCH   4   5
ATOM      5  C   UNL d   1       0.366  -0.988  -0.885  0.00  0.00     0.300 C 
ATOM      6  O   UNL d   1       0.824  -2.020  -1.342  0.00  0.00    -0.259 OA
BRANCH   5   7
ATOM      7  O   UNL d   1      -0.822  -0.428  -1.246  0.00  0.00    -0.318 OA
BRANCH   7   8
ATOM      8  C   UNL d   1      -1.428  -0.933  -2.443  0.00  0.00     0.174 C 
ATOM      9  C   UNL d   1      -0.993  -0.041  -3.590  0.00  0.00     0.034 C 
ENDBRANCH   7   8
ENDBRANCH   5   7
ENDBRANCH   4   5
BRANCH   4  10
ATOM     10  C   UNL d   1       2.542  -0.017   0.096  0.00  0.00     0.300 C 
ATOM     11  O   UNL d   1       3.186   0.468   1.019  0.00  0.00    -0.259 OA
BRANCH  10  12
ATOM     12  O   UNL d   1       3.040  -0.384  -1.107  0.00  0.00    -0.318 OA
BRANCH  12  13
ATOM     13  C   UNL d   1       4.374   0.049  -1.398  0.00  0.00     0.174 C 
ATOM     14  C   UNL d   1       4.277   1.379  -2.121  0.00  0.00     0.034 C 
ENDBRANCH  12  13
ENDBRANCH  10  12
ENDBRANCH   4  10
ENDBRANCH   1   3
BRANCH   1  15
ATOM     15  C   UNL d   1       0.046   2.549   2.547  0.00  0.00     0.054 A 
ATOM     16  C   UNL d   1      -1.228   2.966   2.127  0.00  0.00     0.047 A 
ATOM     17  C   UNL d   1      -2.041   3.784   2.926  0.00  0.00     0.050 A 
ATOM     18  C   UNL d   1      -1.566   4.194   4.179  0.00  0.00     0.018 A 
ATOM     19  C   UNL d   1      -0.295   3.808   4.610  0.00  0.00     0.027 A 
ATOM     20  C   UNL d   1       0.505   2.998   3.801  0.00  0.00     0.060 A 
ATOM     21 CL   UNL d   1       2.066   2.542   4.388  0.00  0.00    -0.082 Cl
BRANCH  17  22
ATOM     22  C   UNL d   1      -3.412   4.205   2.455  0.00  0.00     0.417 C 
ATOM     23  F   UNL d   1      -3.708   3.782   1.194  0.00  0.00    -0.166 F 
ATOM     24  F   UNL d   1      -4.404   3.721   3.252  0.00  0.00    -0.166 F 
ATOM     25  F   UNL d   1      -3.567   5.557   2.440  0.00  0.00    -0.166 F 
ENDBRANCH  17  22
ENDBRANCH   1  15
TORSDOF 9
