REMARK  7 active torsions:
REMARK  status: ('A' for Active; 'I' for Inactive)
REMARK    1  A    between atoms: C_4  and  C_1 
REMARK    2  A    between atoms: C_3  and  C_2 
REMARK       I    between atoms: N_8  and  C_4 
REMARK    3  A    between atoms: C_14  and  N_8 
REMARK    4  A    between atoms: C_9  and  C_14 
REMARK    5  A    between atoms: O_22  and  C_10 
REMARK    6  A    between atoms: O_23  and  C_12 
REMARK    7  A    between atoms: O_24  and  C_20 
ROOT
ATOM      1  C   UNL d   1       1.410   3.767  -1.258  0.00  0.00     0.254 C 
ATOM      2  N   UNL d   1       0.686   3.855  -0.093  0.00  0.00    -0.352 N 
ATOM      3  O   UNL d   1       0.871   3.822  -2.363  0.00  0.00    -0.268 OA
ATOM      4  H   UNL d   1       1.121   3.737   0.812  0.00  0.00     0.163 HD
ENDROOT
BRANCH   1   5
ATOM      5  C   UNL d   1       2.892   3.643  -1.203  0.00  0.00     0.062 A 
ATOM      6  C   UNL d   1       3.695   2.988  -0.257  0.00  0.00     0.069 A 
ATOM      7  C   UNL d   1       5.093   2.945  -0.489  0.00  0.00     0.073 A 
ATOM      8  C   UNL d   1       5.632   3.538  -1.618  0.00  0.00     0.142 A 
ATOM      9  N   UNL d   1       4.887   4.180  -2.526  0.00  0.00    -0.346 N 
ATOM     10  C   UNL d   1       3.549   4.211  -2.303  0.00  0.00     0.108 A 
ATOM     11  HN  UNL d   1       5.304   4.623  -3.344  1.00  0.00     0.167 HD
BRANCH   6  12
ATOM     12  C   UNL d   1       3.241   2.250   0.969  0.00  0.00     0.418 C 
ATOM     13  F   UNL d   1       1.923   2.344   1.275  0.00  0.00    -0.166 F 
ATOM     14  F   UNL d   1       3.508   0.916   0.896  0.00  0.00    -0.166 F 
ATOM     15  F   UNL d   1       3.888   2.693   2.082  0.00  0.00    -0.166 F 
ENDBRANCH   6  12
BRANCH   8  16
ATOM     16  O   UNL d   1       6.994   3.422  -1.786  0.00  0.00    -0.341 OA
ATOM     17  C   UNL d   1       7.457   4.014  -2.998  0.00  0.00     0.211 C 
ENDBRANCH   8  16
ENDBRANCH   1   5
BRANCH   2  18
ATOM     18  C   UNL d   1      -0.770   3.833  -0.102  0.00  0.00     0.164 C 
BRANCH  18  19
ATOM     19  C   UNL d   1      -1.457   5.175   0.015  0.00  0.00    -0.007 A 
ATOM     20  C   UNL d   1      -2.853   5.292   0.160  0.00  0.00     0.078 A 
ATOM     21  C   UNL d   1      -3.452   6.560   0.300  0.00  0.00     0.074 A 
ATOM     22  C   UNL d   1      -2.690   7.723   0.288  0.00  0.00     0.070 A 
ATOM     23  C   UNL d   1      -1.310   7.617   0.147  0.00  0.00     0.037 A 
ATOM     24  C   UNL d   1      -0.703   6.364   0.003  0.00  0.00     0.014 A 
BRANCH  20  25
ATOM     25  O   UNL d   1      -3.754   4.267   0.317  0.00  0.00    -0.355 OA
ATOM     26  C   UNL d   1      -3.664   3.157  -0.564  0.00  0.00     0.210 C 
ENDBRANCH  20  25
BRANCH  22  27
ATOM     27  O   UNL d   1      -3.160   9.002   0.418  0.00  0.00    -0.356 OA
ATOM     28  C   UNL d   1      -4.570   9.157   0.536  0.00  0.00     0.210 C 
ENDBRANCH  22  27
ENDBRANCH  18  19
ENDBRANCH   2  18
TORSDOF 7
