REMARK  3 active torsions:
REMARK  status: ('A' for Active; 'I' for Inactive)
REMARK    1  A    between atoms: C_2  and  N_1 
REMARK    2  A    between atoms: C_14  and  C_5 
REMARK    3  A    between atoms: C_13  and  C_17 
ROOT
ATOM      1  C   UNL d   1       3.300   0.004  -0.168  0.00  0.00     0.133 A 
ATOM      2  C   UNL d   1       4.206   0.550   0.742  0.00  0.00     0.094 A 
ATOM      3  N   UNL d   1       5.694  -0.315  -0.717  0.00  0.00    -0.268 N 
ATOM      4  HN  UNL d   1       6.599  -0.530  -1.134  1.00  0.00     0.195 HD
ATOM      5  S   UNL d   1       4.240  -0.811  -1.358  0.00  0.00     0.023 SA
ATOM      6  N   UNL d   1       5.548   0.387   0.391  0.00  0.00    -0.291 N 
ATOM      7  HN  UNL d   1       6.327   0.767   0.929  1.00  0.00     0.187 HD
ENDROOT
BRANCH   1   8
ATOM      8  N   UNL d   1       1.921   0.029  -0.297  0.00  0.00    -0.234 N 
ATOM      9  C   UNL d   1       1.145   1.082   0.123  0.00  0.00     0.267 A 
ATOM     10  C   UNL d   1      -0.238   0.717  -0.179  0.00  0.00     0.048 A 
ATOM     11  O   UNL d   1       1.440   2.166   0.586  0.00  0.00    -0.267 OA
ATOM     12  C   UNL d   1      -1.415   1.399   0.063  0.00  0.00     0.018 A 
ATOM     13  C   UNL d   1      -0.222  -0.507  -0.817  0.00  0.00     0.048 A 
ATOM     14  C   UNL d   1      -2.603   0.796  -0.361  0.00  0.00     0.001 A 
ATOM     15  C   UNL d   1      -2.587  -0.457  -1.009  0.00  0.00     0.001 A 
ATOM     16  C   UNL d   1      -1.382  -1.127  -1.243  0.00  0.00     0.018 A 
ATOM     17  C   UNL d   1       1.169  -0.944  -0.910  0.00  0.00     0.267 A 
ATOM     18  O   UNL d   1       1.478  -2.010  -1.410  0.00  0.00    -0.267 OA
ENDBRANCH   1   8
BRANCH   2  19
ATOM     19  C   UNL d   1       3.894   1.161   2.030  0.00  0.00    -0.005 A 
ATOM     20  C   UNL d   1       2.872   0.666   2.852  0.00  0.00     0.014 A 
ATOM     21  C   UNL d   1       2.602   1.257   4.089  0.00  0.00     0.017 A 
ATOM     22  C   UNL d   1       3.379   2.328   4.554  0.00  0.00     0.048 A 
ATOM     23  C   UNL d   1       4.429   2.797   3.753  0.00  0.00     0.017 A 
ATOM     24  C   UNL d   1       4.682   2.220   2.504  0.00  0.00     0.014 A 
BRANCH  22  25
ATOM     25  C   UNL d   1       3.078   2.943   5.899  0.00  0.00     0.417 C 
ATOM     26  F   UNL d   1       3.942   3.933   6.256  0.00  0.00    -0.166 F 
ATOM     27  F   UNL d   1       1.834   3.494   5.952  0.00  0.00    -0.166 F 
ATOM     28  F   UNL d   1       3.122   2.028   6.908  0.00  0.00    -0.166 F 
ENDBRANCH  22  25
ENDBRANCH   2  19
TORSDOF 3
