REMARK  3 active torsions:
REMARK  status: ('A' for Active; 'I' for Inactive)
REMARK    1  A    between atoms: C_11  and  N_4 
REMARK    2  A    between atoms: C_13  and  C_9 
REMARK    3  A    between atoms: C_14  and  C_11 
ROOT
ATOM      1  C   UNL d   1      -0.209   0.633  -0.071  0.00  0.00     0.067 A 
ATOM      2  C   UNL d   1      -0.128  -0.740  -0.100  0.00  0.00     0.091 A 
ATOM      3  C   UNL d   1       1.030   1.388  -0.063  0.00  0.00     0.262 A 
ATOM      4  N   UNL d   1       2.174   0.594  -0.032  0.00  0.00    -0.303 N 
ATOM      5  N   UNL d   1       1.007  -1.482  -0.132  0.00  0.00    -0.346 N 
ATOM      6  HN  UNL d   1       1.001  -2.501  -0.175  1.00  0.00     0.167 HD
ATOM      7  C   UNL d   1      -1.561   1.094  -0.029  0.00  0.00     0.039 A 
ATOM      8  S   UNL d   1      -1.667  -1.463  -0.080  0.00  0.00    -0.071 SA
ATOM      9  C   UNL d   1      -2.478   0.055   0.006  0.00  0.00     0.018 A 
ATOM     10  C   UNL d   1       2.099  -0.786  -0.101  0.00  0.00     0.187 A 
ATOM     11  O   UNL d   1       1.055   2.616  -0.049  0.00  0.00    -0.267 OA
ENDROOT
BRANCH   9  12
ATOM     12  C   UNL d   1      -3.949   0.111   0.082  0.00  0.00    -0.019 A 
ATOM     13  C   UNL d   1      -4.657   1.135  -0.568  0.00  0.00     0.013 A 
ATOM     14  C   UNL d   1      -6.052   1.205  -0.494  0.00  0.00     0.001 A 
ATOM     15  C   UNL d   1      -6.764   0.256   0.234  0.00  0.00     0.000 A 
ATOM     16  C   UNL d   1      -6.082  -0.766   0.888  0.00  0.00     0.001 A 
ATOM     17  C   UNL d   1      -4.688  -0.835   0.815  0.00  0.00     0.013 A 
ENDBRANCH   9  12
BRANCH   4  18
ATOM     18  C   UNL d   1       3.468   1.243   0.106  0.00  0.00     0.211 C 
BRANCH  18  19
ATOM     19  C   UNL d   1       4.072   1.604  -1.244  0.00  0.00     0.141 C 
ATOM     20  O   UNL d   1       3.870   0.929  -2.255  0.00  0.00    -0.297 OA
ATOM     21  C   UNL d   1       5.030   2.769  -1.272  0.00  0.00     0.092 C 
ENDBRANCH  18  19
ENDBRANCH   4  18
TORSDOF 3
