REMARK  3 active torsions:
REMARK  status: ('A' for Active; 'I' for Inactive)
REMARK    1  A    between atoms: N_2  and  S_1 
REMARK    2  A    between atoms: C_4  and  S_1 
REMARK    3  A    between atoms: C_3  and  N_2 
ROOT
ATOM      1  N   UNL d   1       0.462  -0.121  -1.576  0.00  0.00    -0.280 N 
ATOM      2  H   UNL d   1      -0.441  -0.588  -1.637  0.00  0.00     0.179 HD
ENDROOT
BRANCH   1   3
ATOM      3  S   UNL d   1       0.977   0.060   0.031  0.00  0.00     0.263 S 
ATOM      4  O   UNL d   1       2.391   0.356   0.062  0.00  0.00    -0.200 OA
ATOM      5  O   UNL d   1       0.434  -1.079   0.748  0.00  0.00    -0.200 OA
BRANCH   3   6
ATOM      6  C   UNL d   1       0.096   1.503   0.590  0.00  0.00     0.079 A 
ATOM      7  C   UNL d   1      -1.160   1.362   1.184  0.00  0.00     0.026 A 
ATOM      8  C   UNL d   1      -1.887   2.503   1.529  0.00  0.00     0.008 A 
ATOM      9  C   UNL d   1      -1.365   3.781   1.285  0.00  0.00    -0.062 A 
ATOM     10  C   UNL d   1      -0.081   3.906   0.739  0.00  0.00     0.008 A 
ATOM     11  C   UNL d   1      -2.185   4.997   1.606  0.00  0.00     0.048 C 
ATOM     12  C   UNL d   1       0.659   2.770   0.407  0.00  0.00     0.026 A 
ENDBRANCH   3   6
ENDBRANCH   1   3
BRANCH   1  13
ATOM     13  C   UNL d   1       0.707   0.946  -2.500  0.00  0.00     0.053 A 
ATOM     14  C   UNL d   1       1.908   1.004  -3.249  0.00  0.00     0.001 A 
ATOM     15  C   UNL d   1       2.135   2.132  -4.075  0.00  0.00    -0.024 A 
ATOM     16  C   UNL d   1       2.882  -0.020  -3.242  0.00  0.00     0.014 A 
ATOM     17  C   UNL d   1       3.308   2.211  -4.844  0.00  0.00     0.012 A 
ATOM     18  C   UNL d   1       1.183   3.162  -4.126  0.00  0.00     0.012 A 
ATOM     19  C   UNL d   1       4.250   1.184  -4.822  0.00  0.00     0.001 A 
ATOM     20  C   UNL d   1       4.035   0.067  -4.024  0.00  0.00     0.001 A 
ATOM     21  C   UNL d   1      -0.005   3.075  -3.403  0.00  0.00     0.003 A 
ATOM     22  C   UNL d   1      -0.250   1.961  -2.607  0.00  0.00     0.031 A 
ENDBRANCH   1  13
TORSDOF 3
