REMARK  5 active torsions:
REMARK  status: ('A' for Active; 'I' for Inactive)
REMARK    1  A    between atoms: N_2  and  C_1 
REMARK    2  A    between atoms: N_7  and  C_1 
REMARK    3  A    between atoms: C_8  and  N_2 
REMARK    4  A    between atoms: N_3  and  N_7 
REMARK    5  A    between atoms: C_10  and  C_11 
ROOT
ATOM      1  N   UNL d   1       3.164   0.088   1.342  0.00  0.00    -0.309 N 
ATOM      2  HN  UNL d   1       2.702   0.048   2.251  1.00  0.00     0.186 HD
ATOM      3  C   UNL d   1       4.424   0.376   1.202  0.00  0.00     0.119 C 
ENDROOT
BRANCH   1   4
ATOM      4  N   UNL d   1       2.513  -0.155   0.163  0.00  0.00    -0.276 N 
ATOM      5  H   UNL d   1       3.007  -0.062  -0.719  0.00  0.00     0.189 HD
BRANCH   4   6
ATOM      6  C   UNL d   1       1.140  -0.250   0.084  0.00  0.00     0.191 C 
ATOM      7  S   UNL d   1       0.455  -0.308  -1.442  0.00  0.00    -0.039 SA
BRANCH   6   8
ATOM      8  N   UNL d   1       0.507  -0.331   1.303  0.00  0.00    -0.332 N 
ATOM      9  H   UNL d   1       1.121  -0.693   2.026  0.00  0.00     0.168 HD
BRANCH   8  10
ATOM     10  C   UNL d   1      -0.841  -0.096   1.633  0.00  0.00     0.035 A 
ATOM     11  C   UNL d   1      -1.614   0.862   0.973  0.00  0.00     0.053 A 
ATOM     12  C   UNL d   1      -2.921   1.117   1.390  0.00  0.00     0.036 A 
ATOM     13 CL   UNL d   1      -3.844   2.342   0.607  0.00  0.00    -0.084 Cl
ATOM     14  C   UNL d   1      -3.476   0.409   2.453  0.00  0.00     0.024 A 
ATOM     15  C   UNL d   1      -2.710  -0.547   3.118  0.00  0.00     0.004 A 
ATOM     16  C   UNL d   1      -1.388  -0.783   2.723  0.00  0.00     0.029 A 
ENDBRANCH   8  10
ENDBRANCH   6   8
ENDBRANCH   4   6
ENDBRANCH   1   4
BRANCH   3  17
ATOM     17  C   UNL d   1       5.299   0.742   2.345  0.00  0.00    -0.008 A 
ATOM     18  C   UNL d   1       6.696   0.994   2.177  0.00  0.00    -0.014 A 
ATOM     19  C   UNL d   1       7.440   1.369   3.327  0.00  0.00    -0.025 A 
ATOM     20  C   UNL d   1       7.411   0.903   0.954  0.00  0.00     0.013 A 
ATOM     21  C   UNL d   1       8.818   1.633   3.229  0.00  0.00     0.012 A 
ATOM     22  C   UNL d   1       6.806   1.484   4.573  0.00  0.00     0.012 A 
ATOM     23  C   UNL d   1       9.484   1.536   2.010  0.00  0.00     0.001 A 
ATOM     24  C   UNL d   1       8.781   1.172   0.873  0.00  0.00     0.001 A 
ATOM     25  C   UNL d   1       5.444   1.236   4.713  0.00  0.00     0.002 A 
ATOM     26  C   UNL d   1       4.692   0.867   3.604  0.00  0.00     0.014 A 
ENDBRANCH   3  17
TORSDOF 5
