REMARK  6 active torsions:
REMARK  status: ('A' for Active; 'I' for Inactive)
REMARK    1  A    between atoms: N_4  and  C_1 
REMARK    2  A    between atoms: N_7  and  C_1 
REMARK    3  A    between atoms: C_3  and  N_4 
REMARK    4  A    between atoms: C_14  and  N_7 
REMARK    5  A    between atoms: O_11  and  C_15 
REMARK    6  A    between atoms: C_15  and  C_14 
ROOT
ATOM      1  N   UNL d   1       0.403   0.836  -0.982  0.00  0.00    -0.332 N 
ATOM      2  H   UNL d   1      -0.503   1.018  -0.556  0.00  0.00     0.168 HD
ENDROOT
BRANCH   1   3
ATOM      3  C   UNL d   1       0.792   1.757  -1.983  0.00  0.00     0.058 A 
ATOM      4  C   UNL d   1       0.026   2.921  -2.200  0.00  0.00     0.082 A 
ATOM      5  C   UNL d   1       0.377   3.803  -3.232  0.00  0.00     0.058 A 
ATOM      6 CL   UNL d   1      -1.332   3.246  -1.165  0.00  0.00    -0.080 Cl
ATOM      7 CL   UNL d   1      -0.494   5.265  -3.542  0.00  0.00    -0.082 Cl
ATOM      8  C   UNL d   1       1.462   3.514  -4.065  0.00  0.00     0.026 A 
ATOM      9  C   UNL d   1       2.200   2.350  -3.871  0.00  0.00     0.004 A 
ATOM     10  C   UNL d   1       1.867   1.477  -2.836  0.00  0.00     0.031 A 
ENDBRANCH   1   3
BRANCH   1  11
ATOM     11  C   UNL d   1       1.188  -0.006  -0.236  0.00  0.00     0.172 C 
ATOM     12  S   UNL d   1       2.788   0.205   0.185  0.00  0.00    -0.041 SA
BRANCH  11  13
ATOM     13  N   UNL d   1       0.532  -1.108   0.249  0.00  0.00    -0.365 N 
ATOM     14  H   UNL d   1       1.147  -1.729   0.769  0.00  0.00     0.161 HD
BRANCH  13  15
ATOM     15  C   UNL d   1      -0.533  -1.811  -0.464  0.00  0.00     0.148 C 
BRANCH  15  16
ATOM     16  C   UNL d   1       0.052  -2.700  -1.566  0.00  0.00     0.183 C 
BRANCH  16  17
ATOM     17  O   UNL d   1       0.875  -3.704  -0.973  0.00  0.00    -0.399 OA
ATOM     18  H   UNL d   1       1.334  -4.162  -1.698  0.00  0.00     0.209 HD
ENDBRANCH  16  17
ENDBRANCH  15  16
ENDBRANCH  13  15
ENDBRANCH  11  13
ENDBRANCH   1  11
TORSDOF 6
