REMARK  9 active torsions:
REMARK  status: ('A' for Active; 'I' for Inactive)
REMARK    1  A    between atoms: C_9  and  N_1 
REMARK    2  A    between atoms: N_7  and  C_4 
REMARK    3  A    between atoms: S_12  and  C_5 
REMARK    4  A    between atoms: C_10  and  C_6 
REMARK       I    between atoms: C_8  and  N_7 
REMARK    5  A    between atoms: C_11  and  C_8 
REMARK    6  A    between atoms: O_22  and  C_10 
REMARK    7  A    between atoms: C_13  and  C_14 
REMARK    8  A    between atoms: O_23  and  C_16 
REMARK    9  A    between atoms: C_30  and  O_22 
ROOT
ATOM      1  N   UNL d   1      -0.308  -1.222  -0.126  0.00  0.00    -0.281 N 
ATOM      2  N   UNL d   1       0.970   0.618  -0.283  0.00  0.00    -0.320 N 
ATOM      3  HN  UNL d   1       1.790   1.222  -0.343  1.00  0.00     0.169 HD
ATOM      4  C   UNL d   1      -0.310   1.005  -0.063  0.00  0.00     0.144 C 
ATOM      5  C   UNL d   1       0.946  -0.684  -0.404  0.00  0.00     0.153 C 
ATOM      6  C   UNL d   1      -1.173  -0.094  -0.037  0.00  0.00     0.162 C 
ENDROOT
BRANCH   4   7
ATOM      7  N   UNL d   1      -0.638   2.359   0.044  0.00  0.00    -0.307 N 
ATOM      8  C   UNL d   1       0.306   3.386   0.031  0.00  0.00     0.257 C 
ATOM      9  O   UNL d   1       1.522   3.262  -0.070  0.00  0.00    -0.267 OA
ATOM     10  H   UNL d   1      -1.608   2.572   0.220  0.00  0.00     0.170 HD
BRANCH   8  11
ATOM     11  C   UNL d   1      -0.216   4.779   0.201  0.00  0.00     0.032 A 
ATOM     12  C   UNL d   1       0.558   5.695   0.924  0.00  0.00     0.017 A 
ATOM     13  C   UNL d   1       0.109   7.005   1.140  0.00  0.00     0.009 A 
ATOM     14  C   UNL d   1      -1.124   7.452   0.631  0.00  0.00    -0.051 A 
ATOM     15  C   UNL d   1      -1.849   6.541  -0.163  0.00  0.00     0.009 A 
ATOM     16  C   UNL d   1      -1.408   5.220  -0.373  0.00  0.00     0.017 A 
BRANCH  14  17
ATOM     17  C   UNL d   1      -1.653   8.856   1.000  0.00  0.00    -0.024 C 
ATOM     18  C   UNL d   1      -3.027   9.182   0.372  0.00  0.00     0.019 C 
ATOM     19  C   UNL d   1      -1.826   8.937   2.535  0.00  0.00     0.019 C 
ATOM     20  C   UNL d   1      -0.676   9.967   0.558  0.00  0.00     0.019 C 
ENDBRANCH  14  17
ENDBRANCH   8  11
ENDBRANCH   4   7
BRANCH   6  21
ATOM     21  C   UNL d   1      -2.624  -0.094   0.093  0.00  0.00     0.314 C 
ATOM     22  O   UNL d   1      -3.385  -1.014  -0.161  0.00  0.00    -0.257 OA
BRANCH  21  23
ATOM     23  O   UNL d   1      -3.081   1.116   0.551  0.00  0.00    -0.317 OA
BRANCH  23  24
ATOM     24  C   UNL d   1      -4.513   1.180   0.722  0.00  0.00     0.175 C 
ATOM     25  C   UNL d   1      -5.172   1.690  -0.546  0.00  0.00     0.034 C 
ENDBRANCH  23  24
ENDBRANCH  21  23
ENDBRANCH   6  21
BRANCH   1  26
ATOM     26  C   UNL d   1      -0.620  -2.632  -0.037  0.00  0.00     0.075 A 
ATOM     27  C   UNL d   1       0.211  -3.566   0.632  0.00  0.00     0.095 A 
ATOM     28  C   UNL d   1      -0.146  -4.929   0.647  0.00  0.00     0.039 A 
ATOM     29  C   UNL d   1      -1.309  -5.377   0.027  0.00  0.00     0.003 A 
ATOM     30  C   UNL d   1      -2.113  -4.473  -0.643  0.00  0.00     0.002 A 
ATOM     31  C   UNL d   1      -1.750  -3.124  -0.706  0.00  0.00     0.033 A 
BRANCH  27  32
ATOM     32  O   UNL d   1       1.298  -3.133   1.353  0.00  0.00    -0.354 OA
ATOM     33  C   UNL d   1       2.412  -4.035   1.384  0.00  0.00     0.210 C 
ENDBRANCH  27  32
ENDBRANCH   1  26
BRANCH   5  34
ATOM     34  S   UNL d   1       2.256  -1.578  -1.131  0.00  0.00    -0.098 SA
ATOM     35  C   UNL d   1       3.304  -0.246  -1.746  0.00  0.00     0.099 C 
ENDBRANCH   5  34
TORSDOF 9
