REMARK  6 active torsions:
REMARK  status: ('A' for Active; 'I' for Inactive)
REMARK    1  A    between atoms: C_12  and  C_1 
REMARK    2  A    between atoms: C_4  and  C_2 
REMARK    3  A    between atoms: C_6  and  C_9 
REMARK    4  A    between atoms: C_15  and  C_10 
REMARK    5  A    between atoms: O_24  and  C_12 
REMARK    6  A    between atoms: O_25  and  C_15 
ROOT
ATOM      1  C   UNL d   1       2.091  -1.314  -0.124  0.00  0.00     0.054 A 
ATOM      2  C   UNL d   1       0.588  -1.692  -0.134  0.00  0.00     0.122 A 
ATOM      3  C   UNL d   1      -0.327  -0.470  -0.083  0.00  0.00     0.025 A 
ATOM      4  C   UNL d   1       2.480  -0.017  -0.030  0.00  0.00     0.018 A 
ATOM      5  C   UNL d   1       0.163   0.785  -0.035  0.00  0.00     0.020 A 
ATOM      6  N   UNL d   1       1.524   0.988  -0.021  0.00  0.00    -0.362 N 
ATOM      7  C   UNL d   1      -1.807  -0.657  -0.079  0.00  0.00     0.158 C 
ATOM      8  O   UNL d   1      -2.320  -1.730  -0.390  0.00  0.00    -0.293 OA
ATOM      9  C   UNL d   1      -0.697   2.026   0.005  0.00  0.00     0.058 C 
ATOM     10  C   UNL d   1       3.890   0.509   0.094  0.00  0.00     0.069 C 
ATOM     11  C   UNL d   1      -2.657   0.517   0.348  0.00  0.00     0.084 C 
ATOM     12  C   UNL d   1      -2.156   1.767  -0.349  0.00  0.00     0.014 C 
ATOM     13  H   UNL d   1       1.857   1.948   0.030  0.00  0.00     0.165 HD
ENDROOT
BRANCH   2  14
ATOM     14  C   UNL d   1       0.248  -2.710   0.933  0.00  0.00     0.067 A 
ATOM     15  O   UNL d   1       0.972  -2.671   2.086  0.00  0.00    -0.313 OA
ATOM     16  C   UNL d   1       0.577  -3.715   2.867  0.00  0.00     0.087 A 
ATOM     17  C   UNL d   1      -0.439  -4.397   2.222  0.00  0.00     0.040 A 
ATOM     18  C   UNL d   1      -0.634  -3.767   0.974  0.00  0.00     0.036 A 
BRANCH  16  19
ATOM     19  C   UNL d   1       1.199  -4.102   4.171  0.00  0.00     0.021 A 
ATOM     20  C   UNL d   1       2.225  -3.415   4.810  0.00  0.00     0.093 A 
ATOM     21  S   UNL d   1       2.787  -4.298   6.184  0.00  0.00    -0.095 SA
ATOM     22  C   UNL d   1       1.626  -5.525   5.974  0.00  0.00     0.051 A 
ATOM     23  C   UNL d   1       0.834  -5.295   4.874  0.00  0.00     0.023 A 
BRANCH  20  24
ATOM     24  C   UNL d   1       2.877  -2.152   4.533  0.00  0.00     0.300 C 
ATOM     25  O   UNL d   1       4.055  -1.878   4.772  0.00  0.00    -0.259 OA
BRANCH  24  26
ATOM     26  O   UNL d   1       1.980  -1.248   4.051  0.00  0.00    -0.322 OA
ATOM     27  C   UNL d   1       2.535   0.018   3.702  0.00  0.00     0.213 C 
ENDBRANCH  24  26
ENDBRANCH  20  24
ENDBRANCH  16  19
ENDBRANCH   2  14
BRANCH   1  28
ATOM     28  C   UNL d   1       3.054  -2.457  -0.139  0.00  0.00     0.292 C 
ATOM     29  O   UNL d   1       4.186  -2.435   0.319  0.00  0.00    -0.260 OA
BRANCH  28  30
ATOM     30  O   UNL d   1       2.488  -3.532  -0.747  0.00  0.00    -0.323 OA
ATOM     31  C   UNL d   1       3.277  -4.724  -0.754  0.00  0.00     0.213 C 
ENDBRANCH  28  30
ENDBRANCH   1  28
TORSDOF 6
