REMARK  4 active torsions:
REMARK  status: ('A' for Active; 'I' for Inactive)
REMARK    1  A    between atoms: C_5  and  C_1 
REMARK    2  A    between atoms: O_16  and  C_2 
REMARK    3  A    between atoms: O_17  and  C_5 
REMARK    4  A    between atoms: C_19  and  O_17 
ROOT
ATOM      1  C   UNL d   1       2.445  -0.732  -0.094  0.00  0.00     0.088 A 
ATOM      2  C   UNL d   1       1.253  -1.465  -0.055  0.00  0.00     0.097 A 
ATOM      3  C   UNL d   1      -0.016  -0.821  -0.037  0.00  0.00     0.049 A 
ATOM      4  C   UNL d   1      -1.292  -1.462   0.029  0.00  0.00     0.098 A 
ATOM      5  N   UNL d   1       1.155   1.304  -0.130  0.00  0.00    -0.364 N 
ATOM      6  HN  UNL d   1       1.130   2.323  -0.166  1.00  0.00     0.165 HD
ATOM      7  C   UNL d   1       2.336   0.643  -0.130  0.00  0.00     0.108 A 
ATOM      8  C   UNL d   1      -1.455  -2.886   0.108  0.00  0.00     0.103 C 
ATOM      9  N   UNL d   1      -1.635  -4.031   0.182  0.00  0.00    -0.191 NA
ATOM     10  C   UNL d   1       0.019   0.594  -0.082  0.00  0.00     0.046 A 
ATOM     11  C   UNL d   1      -2.459  -0.696   0.033  0.00  0.00     0.138 A 
ATOM     12  C   UNL d   1      -2.406   0.685  -0.020  0.00  0.00     0.046 A 
ATOM     13  C   UNL d   1      -1.166   1.314  -0.073  0.00  0.00     0.033 A 
ATOM     14  F   UNL d   1      -3.663  -1.284   0.091  0.00  0.00    -0.204 F 
ENDROOT
BRANCH   2  15
ATOM     15  O   UNL d   1       1.272  -2.839  -0.027  0.00  0.00    -0.359 OA
ATOM     16  H   UNL d   1       2.197  -3.175  -0.038  0.00  0.00     0.217 HD
ENDBRANCH   2  15
BRANCH   1  17
ATOM     17  C   UNL d   1       3.757  -1.405  -0.042  0.00  0.00     0.297 C 
ATOM     18  O   UNL d   1       3.856  -2.623  -0.018  0.00  0.00    -0.259 OA
BRANCH  17  19
ATOM     19  O   UNL d   1       4.766  -0.510   0.059  0.00  0.00    -0.318 OA
BRANCH  19  20
ATOM     20  C   UNL d   1       6.047  -1.054   0.413  0.00  0.00     0.174 C 
ATOM     21  C   UNL d   1       6.165  -1.058   1.926  0.00  0.00     0.034 C 
ENDBRANCH  19  20
ENDBRANCH  17  19
ENDBRANCH   1  17
TORSDOF 4
