REMARK  6 active torsions:
REMARK  status: ('A' for Active; 'I' for Inactive)
REMARK       I    between atoms: N_3  and  C_1 
REMARK    1  A    between atoms: C_8  and  C_1 
REMARK    2  A    between atoms: S_5  and  C_2 
REMARK    3  A    between atoms: C_4  and  N_3 
REMARK    4  A    between atoms: C_12  and  S_5 
REMARK    5  A    between atoms: C_23  and  C_15 
REMARK    6  A    between atoms: C_25  and  C_23 
ROOT
ATOM      1  C   UNL d   1       1.645  -3.141  -1.474  0.00  0.00     0.101 A 
ATOM      2  C   UNL d   1       1.130  -1.837  -1.558  0.00  0.00     0.069 A 
ATOM      3  N   UNL d   1       2.220  -3.760  -2.539  0.00  0.00    -0.358 N 
ATOM      4  HN  UNL d   1       2.582  -4.711  -2.465  1.00  0.00     0.166 HD
ATOM      5  C   UNL d   1       1.209  -1.165  -2.778  0.00  0.00     0.034 A 
ATOM      6  C   UNL d   1       2.295  -3.071  -3.699  0.00  0.00     0.089 A 
ATOM      7  C   UNL d   1       1.809  -1.785  -3.865  0.00  0.00     0.019 A 
ENDROOT
BRANCH   2   8
ATOM      8  N   UNL d   1       0.470  -1.196  -0.483  0.00  0.00    -0.320 N 
ATOM      9  C   UNL d   1       1.208  -0.417   0.398  0.00  0.00     0.256 C 
ATOM     10  O   UNL d   1       2.434  -0.381   0.427  0.00  0.00    -0.267 OA
ATOM     11  H   UNL d   1      -0.471  -0.890  -0.675  0.00  0.00     0.169 HD
BRANCH   9  12
ATOM     12  C   UNL d   1       0.435   0.448   1.339  0.00  0.00     0.032 A 
ATOM     13  C   UNL d   1       1.022   0.761   2.570  0.00  0.00     0.017 A 
ATOM     14  C   UNL d   1       0.373   1.611   3.471  0.00  0.00     0.008 A 
ATOM     15  C   UNL d   1      -0.872   2.169   3.155  0.00  0.00    -0.058 A 
ATOM     16  C   UNL d   1      -1.458   1.853   1.922  0.00  0.00     0.008 A 
ATOM     17  C   UNL d   1      -0.812   1.000   1.019  0.00  0.00     0.017 A 
BRANCH  15  18
ATOM     18  C   UNL d   1      -1.530   3.149   4.100  0.00  0.00     0.038 C 
BRANCH  18  19
ATOM     19  C   UNL d   1      -2.938   2.767   4.564  0.00  0.00     0.000 C 
ATOM     20  C   UNL d   1      -2.970   1.488   5.387  0.00  0.00     0.005 C 
ENDBRANCH  18  19
ENDBRANCH  15  18
ENDBRANCH   9  12
ENDBRANCH   2   8
BRANCH   1  21
ATOM     21  S   UNL d   1       1.347  -4.186  -0.062  0.00  0.00    -0.070 SA
BRANCH  21  22
ATOM     22  C   UNL d   1       2.827  -4.115   0.929  0.00  0.00     0.007 A 
ATOM     23  C   UNL d   1       3.904  -3.255   0.706  0.00  0.00     0.019 A 
ATOM     24  C   UNL d   1       4.992  -3.227   1.588  0.00  0.00     0.008 A 
ATOM     25  C   UNL d   1       5.024  -4.058   2.712  0.00  0.00    -0.062 A 
ATOM     26  C   UNL d   1       3.966  -4.945   2.921  0.00  0.00     0.008 A 
ATOM     27  C   UNL d   1       6.194  -4.042   3.650  0.00  0.00     0.048 C 
ATOM     28  C   UNL d   1       2.880  -4.968   2.041  0.00  0.00     0.019 A 
ENDBRANCH  21  22
ENDBRANCH   1  21
TORSDOF 6
