REMARK  4 active torsions:
REMARK  status: ('A' for Active; 'I' for Inactive)
REMARK    1  A    between atoms: N_2  and  C_1 
REMARK    2  A    between atoms: N_3  and  C_1 
REMARK    3  A    between atoms: C_4  and  N_2 
REMARK    4  A    between atoms: C_5  and  N_3 
ROOT
ATOM      1  C   UNL d   1       1.120  -0.084   0.027  0.00  0.00     0.177 C 
ATOM      2  S   UNL d   1       2.675   0.388  -0.371  0.00  0.00    -0.040 SA
ENDROOT
BRANCH   1   3
ATOM      3  N   UNL d   1       0.653  -0.412   1.274  0.00  0.00    -0.319 N 
ATOM      4  H   UNL d   1       0.083  -1.250   1.308  0.00  0.00     0.169 HD
BRANCH   3   5
ATOM      5  C   UNL d   1       1.098  -0.017   2.532  0.00  0.00     0.106 A 
ATOM      6  N   UNL d   1       0.902  -0.921   3.511  0.00  0.00    -0.352 N 
ATOM      7  C   UNL d   1       1.282  -0.569   4.759  0.00  0.00     0.089 A 
ATOM      8  HN  UNL d   1       0.486  -1.832   3.319  1.00  0.00     0.166 HD
ATOM      9  C   UNL d   1       1.789   0.677   5.087  0.00  0.00     0.017 A 
ATOM     10  C   UNL d   1       1.923   1.614   4.074  0.00  0.00     0.005 A 
ATOM     11  C   UNL d   1       1.581   1.264   2.771  0.00  0.00     0.048 A 
ENDBRANCH   3   5
ENDBRANCH   1   3
BRANCH   1  12
ATOM     12  N   UNL d   1       0.229  -0.312  -0.996  0.00  0.00    -0.333 N 
ATOM     13  H   UNL d   1       0.646  -0.412  -1.914  0.00  0.00     0.168 HD
BRANCH  12  14
ATOM     14  C   UNL d   1      -1.171  -0.105  -0.970  0.00  0.00     0.040 A 
ATOM     15  C   UNL d   1      -1.986  -0.697  -1.951  0.00  0.00    -0.035 A 
ATOM     16  C   UNL d   1      -1.479  -1.678  -2.973  0.00  0.00     0.050 C 
ATOM     17  C   UNL d   1      -3.358  -0.386  -1.974  0.00  0.00     0.009 A 
ATOM     18  C   UNL d   1      -3.916   0.483  -1.037  0.00  0.00     0.001 A 
ATOM     19  C   UNL d   1      -3.109   1.058  -0.064  0.00  0.00     0.002 A 
ATOM     20  C   UNL d   1      -1.748   0.766  -0.032  0.00  0.00     0.030 A 
ENDBRANCH  12  14
ENDBRANCH   1  12
TORSDOF 4
