REMARK  8 active torsions:
REMARK  status: ('A' for Active; 'I' for Inactive)
REMARK    1  A    between atoms: C_3  and  C_1 
REMARK       I    between atoms: N_9  and  C_1 
REMARK       I    between atoms: C_2  and  N_10 
REMARK    2  A    between atoms: C_4  and  C_2 
REMARK    3  A    between atoms: C_5  and  C_8 
REMARK    4  A    between atoms: O_19  and  C_5 
REMARK    5  A    between atoms: C_6  and  C_7 
REMARK    6  A    between atoms: O_18  and  C_6 
REMARK    7  A    between atoms: C_12  and  N_9 
REMARK    8  A    between atoms: N_10  and  C_13 
ROOT
ATOM      1  C   UNL d   1      -1.892  -0.505   0.230  0.00  0.00     0.059 A 
ATOM      2  C   UNL d   1      -1.254   0.352   1.133  0.00  0.00     0.037 A 
ATOM      3  C   UNL d   1      -3.212  -0.924   0.438  0.00  0.00     0.037 A 
ATOM      4  C   UNL d   1      -3.308   0.469   2.420  0.00  0.00     0.004 A 
ATOM      5  C   UNL d   1      -3.924  -0.405   1.524  0.00  0.00     0.029 A 
ATOM      6  C   UNL d   1      -1.973   0.831   2.234  0.00  0.00     0.029 A 
ENDROOT
BRANCH   2   7
ATOM      7  N   UNL d   1       0.102   0.744   1.026  0.00  0.00    -0.324 N 
ATOM      8  C   UNL d   1       0.998   0.392   0.039  0.00  0.00     0.245 C 
ATOM      9  O   UNL d   1       0.786  -0.268  -0.969  0.00  0.00    -0.268 OA
ATOM     10  H   UNL d   1       0.444   1.325   1.780  0.00  0.00     0.169 HD
BRANCH   8  11
ATOM     11  C   UNL d   1       2.361   0.917   0.307  0.00  0.00     0.081 C 
ATOM     12  C   UNL d   1       3.343   0.642  -0.566  0.00  0.00     0.086 C 
BRANCH  12  13
ATOM     13  C   UNL d   1       4.690   1.164  -0.297  0.00  0.00     0.165 C 
ATOM     14  O   UNL d   1       4.974   1.867   0.657  0.00  0.00    -0.647 OA
BRANCH  13  15
ATOM     15  O   UNL d   1       5.582   0.777  -1.229  0.00  0.00    -0.773 OA
ATOM     16  H   UNL d   1       5.230   0.207  -1.937  0.00  0.00     0.167 HD
ENDBRANCH  13  15
ENDBRANCH  12  13
ENDBRANCH   8  11
ENDBRANCH   2   7
BRANCH   3  17
ATOM     17  N   UNL d   1      -3.868  -1.888  -0.364  0.00  0.00    -0.324 N 
ATOM     18  C   UNL d   1      -3.313  -2.616  -1.395  0.00  0.00     0.245 C 
ATOM     19  O   UNL d   1      -2.184  -2.522  -1.856  0.00  0.00    -0.268 OA
ATOM     20  H   UNL d   1      -4.816  -2.109  -0.092  0.00  0.00     0.169 HD
BRANCH  18  21
ATOM     21  C   UNL d   1      -4.257  -3.613  -1.960  0.00  0.00     0.081 C 
ATOM     22  C   UNL d   1      -3.841  -4.353  -2.998  0.00  0.00     0.086 C 
BRANCH  22  23
ATOM     23  C   UNL d   1      -4.766  -5.318  -3.605  0.00  0.00     0.165 C 
ATOM     24  O   UNL d   1      -5.778  -5.728  -3.069  0.00  0.00    -0.647 OA
BRANCH  23  25
ATOM     25  O   UNL d   1      -4.379  -5.667  -4.848  0.00  0.00    -0.773 OA
ATOM     26  H   UNL d   1      -3.588  -5.204  -5.182  0.00  0.00     0.167 HD
ENDBRANCH  23  25
ENDBRANCH  22  23
ENDBRANCH  18  21
ENDBRANCH   3  17
TORSDOF 8
