REMARK  2 active torsions:
REMARK  status: ('A' for Active; 'I' for Inactive)
REMARK    1  A    between atoms: C_12  and  C_5 
REMARK    2  A    between atoms: O_15  and  C_13 
ROOT
ATOM      1  N   UNL d   1       0.923   0.511  -0.038  0.00  0.00    -0.322 N 
ATOM      2  C   UNL d   1       1.724  -0.608  -0.117  0.00  0.00     0.044 A 
ATOM      3  N   UNL d   1      -0.342  -2.001  -0.026  0.00  0.00    -0.374 N 
ATOM      4  C   UNL d   1      -1.080  -0.821   0.032  0.00  0.00     0.059 A 
ATOM      5  C   UNL d   1       1.080  -1.936  -0.351  0.00  0.00     0.165 C 
ATOM      6  C   UNL d   1      -0.489   0.450  -0.049  0.00  0.00     0.065 A 
ATOM      7  C   UNL d   1      -2.477  -0.896   0.091  0.00  0.00     0.068 A 
ATOM      8  C   UNL d   1       1.739   1.617   0.069  0.00  0.00     0.097 A 
ATOM      9  C   UNL d   1       3.044  -0.208  -0.039  0.00  0.00     0.029 A 
ATOM     10  C   UNL d   1      -1.271   1.609  -0.086  0.00  0.00     0.035 A 
ATOM     11  C   UNL d   1       3.050   1.198   0.085  0.00  0.00     0.020 A 
ATOM     12  C   UNL d   1      -3.273   0.255   0.046  0.00  0.00     0.070 A 
ATOM     13  C   UNL d   1      -2.664   1.506  -0.049  0.00  0.00     0.039 A 
ATOM     14  H   UNL d   1      -0.611  -2.714   0.643  0.00  0.00     0.160 HD
ENDROOT
BRANCH   5  15
ATOM     15  C   UNL d   1       1.798  -3.103   0.315  0.00  0.00    -0.030 A 
ATOM     16  C   UNL d   1       1.983  -3.155   1.706  0.00  0.00     0.009 A 
ATOM     17  C   UNL d   1       2.619  -4.250   2.297  0.00  0.00     0.001 A 
ATOM     18  C   UNL d   1       3.074  -5.306   1.508  0.00  0.00     0.000 A 
ATOM     19  C   UNL d   1       2.897  -5.268   0.127  0.00  0.00     0.001 A 
ATOM     20  C   UNL d   1       2.263  -4.175  -0.466  0.00  0.00     0.009 A 
ENDBRANCH   5  15
BRANCH  12  21
ATOM     21  O   UNL d   1      -4.622   0.024   0.087  0.00  0.00    -0.356 OA
ATOM     22  C   UNL d   1      -5.470   1.164   0.028  0.00  0.00     0.210 C 
ENDBRANCH  12  21
TORSDOF 2
