REMARK  6 active torsions:
REMARK  status: ('A' for Active; 'I' for Inactive)
REMARK    1  A    between atoms: C_2  and  C_1 
REMARK       I    between atoms: N_6  and  C_2 
REMARK    2  A    between atoms: C_12  and  C_5 
REMARK    3  A    between atoms: C_9  and  N_6 
REMARK    4  A    between atoms: C_10  and  N_6 
REMARK    5  A    between atoms: C_18  and  C_9 
REMARK    6  A    between atoms: C_17  and  C_10 
ROOT
ATOM      1  C   UNL d   1       0.113  -2.555  -0.752  0.00  0.00     0.259 C 
ATOM      2  N   UNL d   1      -0.428  -3.779  -0.336  0.00  0.00    -0.337 N 
ATOM      3  O   UNL d   1      -0.626  -1.574  -0.880  0.00  0.00    -0.267 OA
ENDROOT
BRANCH   2   4
ATOM      4  C   UNL d   1       0.294  -5.045  -0.233  0.00  0.00     0.183 C 
BRANCH   4   5
ATOM      5  C   UNL d   1       0.122  -5.901   1.014  0.00  0.00     0.027 A 
ATOM      6  N   UNL d   1      -0.568  -5.434   2.084  0.00  0.00    -0.368 N 
ATOM      7  C   UNL d   1      -0.654  -6.242   3.165  0.00  0.00     0.088 A 
ATOM      8  HN  UNL d   1      -1.002  -4.511   2.074  1.00  0.00     0.165 HD
ATOM      9  C   UNL d   1      -0.067  -7.493   3.248  0.00  0.00     0.017 A 
ATOM     10  C   UNL d   1       0.654  -7.952   2.156  0.00  0.00     0.003 A 
ATOM     11  C   UNL d   1       0.749  -7.151   1.024  0.00  0.00     0.027 A 
ENDBRANCH   4   5
ENDBRANCH   2   4
BRANCH   2  12
ATOM     12  C   UNL d   1      -1.890  -3.827  -0.189  0.00  0.00     0.183 C 
BRANCH  12  13
ATOM     13  C   UNL d   1      -2.694  -4.033  -1.465  0.00  0.00     0.027 A 
ATOM     14  N   UNL d   1      -2.059  -4.292  -2.639  0.00  0.00    -0.368 N 
ATOM     15  C   UNL d   1      -2.836  -4.455  -3.736  0.00  0.00     0.088 A 
ATOM     16  HN  UNL d   1      -1.043  -4.361  -2.691  1.00  0.00     0.165 HD
ATOM     17  C   UNL d   1      -4.224  -4.404  -3.725  0.00  0.00     0.017 A 
ATOM     18  C   UNL d   1      -4.859  -4.165  -2.518  0.00  0.00     0.003 A 
ATOM     19  C   UNL d   1      -4.091  -3.974  -1.374  0.00  0.00     0.027 A 
ENDBRANCH  12  13
ENDBRANCH   2  12
BRANCH   1  20
ATOM     20  C   UNL d   1       1.553  -2.353  -0.933  0.00  0.00     0.092 C 
ATOM     21  C   UNL d   1       2.634  -3.068  -1.559  0.00  0.00     0.083 C 
ATOM     22  N   UNL d   1       3.795  -2.409  -1.389  0.00  0.00    -0.259 N 
ATOM     23  O   UNL d   1       3.493  -1.226  -0.777  0.00  0.00    -0.241 OA
ATOM     24  HN  UNL d   1       4.723  -2.730  -1.665  1.00  0.00     0.195 HD
ATOM     25  C   UNL d   1       2.165  -1.168  -0.540  0.00  0.00     0.090 C 
ATOM     26  C   UNL d   1       1.684   0.101   0.044  0.00  0.00     0.080 C 
BRANCH  21  27
ATOM     27  C   UNL d   1       2.674  -4.317  -2.327  0.00  0.00    -0.006 A 
ATOM     28  C   UNL d   1       3.800  -5.157  -2.225  0.00  0.00     0.014 A 
ATOM     29  C   UNL d   1       3.873  -6.348  -2.946  0.00  0.00     0.001 A 
ATOM     30  C   UNL d   1       2.821  -6.719  -3.776  0.00  0.00     0.000 A 
ATOM     31  C   UNL d   1       1.699  -5.895  -3.889  0.00  0.00     0.001 A 
ATOM     32  C   UNL d   1       1.630  -4.693  -3.177  0.00  0.00     0.014 A 
ENDBRANCH  21  27
ENDBRANCH   1  20
TORSDOF 6
