REMARK  4 active torsions:
REMARK  status: ('A' for Active; 'I' for Inactive)
REMARK    1  A    between atoms: N_2  and  C_11 
REMARK    2  A    between atoms: O_29  and  C_15 
REMARK    3  A    between atoms: O_21  and  C_19 
REMARK    4  A    between atoms: C_25  and  O_21 
ROOT
ATOM      1  C   UNL d   1      -0.733  -0.770  -0.316  0.00  0.00    -0.014 C 
ATOM      2  C   UNL d   1      -0.108   0.226  -1.350  0.00  0.00     0.001 C 
ATOM      3  C   UNL d   1      -0.715   0.070  -2.809  0.00  0.00    -0.001 C 
ATOM      4  C   UNL d   1      -0.187  -1.286  -3.354  0.00  0.00     0.023 C 
ATOM      5  C   UNL d   1      -1.020  -1.992  -4.410  0.00  0.00    -0.047 C 
ATOM      6  C   UNL d   1      -2.407  -1.898  -4.311  0.00  0.00    -0.049 C 
ATOM      7  C   UNL d   1      -1.094  -2.075  -1.068  0.00  0.00     0.013 C 
ATOM      8  C   UNL d   1      -0.047  -2.316  -2.181  0.00  0.00     0.010 C 
ATOM      9  C   UNL d   1      -2.254   0.240  -2.930  0.00  0.00     0.010 C 
ATOM     10  C   UNL d   1      -0.263   1.578  -0.677  0.00  0.00     0.008 C 
ATOM     11  C   UNL d   1      -0.427  -3.084  -5.061  0.00  0.00     0.011 C 
ATOM     12  C   UNL d   1      -1.912   0.056   0.304  0.00  0.00     0.126 C 
ATOM     13  C   UNL d   1      -3.160  -3.069  -4.471  0.00  0.00     0.044 C 
ATOM     14  C   UNL d   1      -2.998  -0.554  -4.009  0.00  0.00     0.039 C 
ATOM     15  C   UNL d   1      -2.515  -4.251  -4.859  0.00  0.00     0.076 C 
ATOM     16  C   UNL d   1      -1.633   1.541  -0.025  0.00  0.00     0.033 C 
ATOM     17  C   UNL d   1      -1.179  -4.230  -5.256  0.00  0.00     0.038 C 
ATOM     18  C   UNL d   1       0.236  -1.204   0.811  0.00  0.00     0.018 C 
ENDROOT
BRANCH  15  19
ATOM     19  O   UNL d   1      -3.027  -5.517  -4.699  0.00  0.00    -0.311 OA
BRANCH  19  20
ATOM     20  C   UNL d   1      -4.324  -5.794  -5.023  0.00  0.00     0.076 A 
ATOM     21  C   UNL d   1      -4.976  -5.229  -6.119  0.00  0.00     0.040 A 
ATOM     22  C   UNL d   1      -6.267  -5.641  -6.440  0.00  0.00     0.039 A 
ATOM     23  C   UNL d   1      -6.891  -6.635  -5.670  0.00  0.00     0.103 A 
ATOM     24  C   UNL d   1      -6.230  -7.216  -4.586  0.00  0.00     0.039 A 
ATOM     25  C   UNL d   1      -4.941  -6.799  -4.264  0.00  0.00     0.040 A 
BRANCH  23  26
ATOM     26  N   UNL d   1      -8.238  -7.066  -6.023  0.00  0.00    -0.116 N 
ATOM     27  O   UNL d   1      -8.819  -6.484  -6.951  0.00  0.00    -0.532 OA
ATOM     28  O   UNL d   1      -8.732  -8.011  -5.377  0.00  0.00    -0.532 OA
ENDBRANCH  23  26
ENDBRANCH  19  20
ENDBRANCH  15  19
BRANCH  12  29
ATOM     29  O   UNL d   1      -2.051  -0.098   1.712  0.00  0.00    -0.395 OA
ATOM     30  H   UNL d   1      -1.359   0.428   2.147  0.00  0.00     0.210 HD
ENDBRANCH  12  29
TORSDOF 4
