REMARK  3 active torsions:
REMARK  status: ('A' for Active; 'I' for Inactive)
REMARK    1  A    between atoms: C_14  and  N_6 
REMARK    2  A    between atoms: C_15  and  C_14 
REMARK    3  A    between atoms: C_20  and  C_15 
ROOT
ATOM      1  C   UNL d   1       1.199   0.891  -0.019  0.00  0.00     0.102 A 
ATOM      2  C   UNL d   1       0.708  -0.385  -0.024  0.00  0.00     0.069 A 
ATOM      3  S   UNL d   1      -0.035   2.050   0.010  0.00  0.00    -0.064 SA
ATOM      4  C   UNL d   1      -0.720  -0.461  -0.009  0.00  0.00     0.032 A 
ATOM      5  C   UNL d   1       2.605   1.188  -0.013  0.00  0.00     0.268 A 
ATOM      6  N   UNL d   1       3.390   0.037  -0.022  0.00  0.00    -0.302 N 
ATOM      7  C   UNL d   1      -1.243   0.834   0.004  0.00  0.00     0.088 A 
ATOM      8  N   UNL d   1       1.555  -1.504  -0.044  0.00  0.00    -0.350 N 
ATOM      9  HN  UNL d   1       1.204  -2.462  -0.052  1.00  0.00     0.166 HD
ATOM     10  C   UNL d   1       2.818  -1.220  -0.051  0.00  0.00     0.187 A 
ATOM     11  N   UNL d   1      -2.548   1.182   0.012  0.00  0.00    -0.354 N 
ATOM     12  HN  UNL d   1      -2.859   2.154   0.024  1.00  0.00     0.166 HD
ATOM     13  C   UNL d   1      -1.651  -1.532  -0.005  0.00  0.00    -0.045 A 
ATOM     14  O   UNL d   1       3.089   2.317   0.044  0.00  0.00    -0.266 OA
ATOM     15  C   UNL d   1      -3.013  -1.190  -0.002  0.00  0.00     0.032 A 
ATOM     16  C   UNL d   1      -3.407   0.143   0.003  0.00  0.00     0.006 A 
ATOM     17  C   UNL d   1      -1.294  -2.992  -0.009  0.00  0.00     0.049 C 
ATOM     18  C   UNL d   1      -4.875   0.464  -0.005  0.00  0.00     0.068 C 
ENDROOT
BRANCH   6  19
ATOM     19  C   UNL d   1       4.835   0.166   0.102  0.00  0.00     0.216 C 
BRANCH  19  20
ATOM     20  C   UNL d   1       5.563   0.241  -1.239  0.00  0.00     0.177 C 
ATOM     21  O   UNL d   1       4.983   0.121  -2.314  0.00  0.00    -0.291 OA
BRANCH  20  22
ATOM     22  C   UNL d   1       7.057   0.393  -1.207  0.00  0.00     0.011 A 
ATOM     23  C   UNL d   1       7.765   0.514  -0.002  0.00  0.00     0.015 A 
ATOM     24  C   UNL d   1       9.159   0.612  -0.005  0.00  0.00     0.001 A 
ATOM     25  C   UNL d   1       9.858   0.596  -1.210  0.00  0.00     0.000 A 
ATOM     26  C   UNL d   1       9.165   0.487  -2.413  0.00  0.00     0.001 A 
ATOM     27  C   UNL d   1       7.769   0.385  -2.414  0.00  0.00     0.015 A 
ENDBRANCH  20  22
ENDBRANCH  19  20
ENDBRANCH   6  19
TORSDOF 3
