REMARK  3 active torsions:
REMARK  status: ('A' for Active; 'I' for Inactive)
REMARK    1  A    between atoms: C_8  and  C_2 
REMARK    2  A    between atoms: O_20  and  C_3 
REMARK    3  A    between atoms: C_18  and  C_6 
ROOT
ATOM      1  C   UNL d   1       0.550   0.028   0.047  0.00  0.00     0.106 A 
ATOM      2  C   UNL d   1      -0.084   1.288   0.051  0.00  0.00     0.001 A 
ATOM      3  C   UNL d   1      -0.245  -1.119   0.067  0.00  0.00     0.164 A 
ATOM      4  N   UNL d   1      -1.596  -1.104   0.040  0.00  0.00    -0.335 N 
ATOM      5  HN  UNL d   1      -2.129  -1.973   0.051  1.00  0.00     0.168 HD
ATOM      6  C   UNL d   1      -2.220   0.090  -0.003  0.00  0.00     0.045 A 
ATOM      7  C   UNL d   1      -1.498   1.281   0.040  0.00  0.00     0.044 A 
ATOM      8  C   UNL d   1       1.972  -0.134  -0.004  0.00  0.00     0.104 C 
ATOM      9  N   UNL d   1       3.129  -0.250  -0.024  0.00  0.00    -0.191 NA
ENDROOT
BRANCH   2  10
ATOM     10  C   UNL d   1       0.622   2.606   0.055  0.00  0.00    -0.021 A 
ATOM     11  C   UNL d   1       0.094   3.702  -0.665  0.00  0.00     0.052 A 
ATOM     12  C   UNL d   1       0.727   4.929  -0.600  0.00  0.00     0.105 A 
ATOM     13  O   UNL d   1       0.300   6.075  -1.197  0.00  0.00    -0.323 OA
ATOM     14  C   UNL d   1       1.884   5.109   0.111  0.00  0.00     0.105 A 
ATOM     15  C   UNL d   1       1.306   7.006  -0.742  0.00  0.00     0.352 A 
ATOM     16  O   UNL d   1       2.345   6.385   0.043  0.00  0.00    -0.323 OA
ATOM     17  C   UNL d   1       2.458   4.077   0.811  0.00  0.00     0.040 A 
ATOM     18  C   UNL d   1       1.806   2.834   0.802  0.00  0.00     0.015 A 
ENDBRANCH   2  10
BRANCH   3  19
ATOM     19  O   UNL d   1       0.386  -2.349   0.114  0.00  0.00    -0.340 OA
ATOM     20  C   UNL d   1      -0.518  -3.452   0.156  0.00  0.00     0.211 C 
ENDBRANCH   3  19
BRANCH   6  21
ATOM     21  C   UNL d   1      -3.692   0.039  -0.124  0.00  0.00    -0.009 A 
ATOM     22  C   UNL d   1      -4.422  -1.033   0.423  0.00  0.00     0.013 A 
ATOM     23  C   UNL d   1      -5.812  -1.108   0.299  0.00  0.00     0.001 A 
ATOM     24  C   UNL d   1      -6.505  -0.112  -0.382  0.00  0.00     0.000 A 
ATOM     25  C   UNL d   1      -5.808   0.954  -0.942  0.00  0.00     0.001 A 
ATOM     26  C   UNL d   1      -4.417   1.026  -0.817  0.00  0.00     0.013 A 
ENDBRANCH   6  21
TORSDOF 3
