REMARK  5 active torsions:
REMARK  status: ('A' for Active; 'I' for Inactive)
REMARK    1  A    between atoms: C_3  and  C_6 
REMARK    2  A    between atoms: C_4  and  C_3 
REMARK    3  A    between atoms: C_7  and  C_4 
REMARK    4  A    between atoms: N_8  and  C_5 
REMARK    5  A    between atoms: C_20  and  C_17 
ROOT
ATOM      1  C   UNL d   1      -5.819  -1.426   0.164  0.00  0.00     0.072 C 
ENDROOT
BRANCH   1   2
ATOM      2  C   UNL d   1      -6.206  -0.152   0.302  0.00  0.00     0.093 C 
ATOM      3  N   UNL d   1      -7.449   0.359   0.543  0.00  0.00    -0.352 N 
ATOM      4  H   UNL d   1      -8.219  -0.310   0.598  0.00  0.00     0.166 HD
BRANCH   3   5
ATOM      5  C   UNL d   1      -7.851   1.668   0.810  0.00  0.00     0.104 A 
ATOM      6  N   UNL d   1      -9.159   1.839   1.099  0.00  0.00    -0.351 N 
ATOM      7  C   UNL d   1      -9.593   3.091   1.396  0.00  0.00     0.113 A 
ATOM      8  HN  UNL d   1      -9.804   1.048   1.094  1.00  0.00     0.166 HD
ATOM      9  C   UNL d   1      -8.777   4.207   1.419  0.00  0.00     0.049 A 
ATOM     10 CL   UNL d   1      -9.393   5.756   1.820  0.00  0.00    -0.083 Cl
ATOM     11  C   UNL d   1      -7.438   4.034   1.112  0.00  0.00     0.029 A 
ATOM     12  C   UNL d   1      -6.972   2.754   0.803  0.00  0.00     0.050 A 
ENDBRANCH   3   5
ENDBRANCH   1   2
BRANCH   1  13
ATOM     13  C   UNL d   1      -6.726  -2.604   0.258  0.00  0.00     0.183 C 
ATOM     14  O   UNL d   1      -7.946  -2.503   0.224  0.00  0.00    -0.288 OA
BRANCH  13  15
ATOM     15  C   UNL d   1      -6.063  -3.936   0.334  0.00  0.00     0.014 A 
ATOM     16  C   UNL d   1      -4.868  -4.113   1.045  0.00  0.00     0.016 A 
ATOM     17  C   UNL d   1      -4.221  -5.351   1.039  0.00  0.00     0.008 A 
ATOM     18  C   UNL d   1      -4.769  -6.434   0.339  0.00  0.00    -0.059 A 
ATOM     19  C   UNL d   1      -5.985  -6.264  -0.334  0.00  0.00     0.008 A 
ATOM     20  C   UNL d   1      -6.636  -5.024  -0.331  0.00  0.00     0.016 A 
BRANCH  18  21
ATOM     21  C   UNL d   1      -4.033  -7.751   0.289  0.00  0.00     0.034 C 
ATOM     22  C   UNL d   1      -3.078  -7.819  -0.893  0.00  0.00     0.010 C 
ENDBRANCH  18  21
ENDBRANCH  13  15
ENDBRANCH   1  13
TORSDOF 5
