REMARK  11 active torsions:
REMARK  status: ('A' for Active; 'I' for Inactive)
REMARK    1  A    between atoms: C_2  and  N_1 
REMARK    2  A    between atoms: O_9  and  C_6 
REMARK    3  A    between atoms: C_7  and  O_9 
REMARK    4  A    between atoms: N_8  and  C_7 
REMARK    5  A    between atoms: C_14  and  N_8 
REMARK    6  A    between atoms: O_11  and  C_15 
REMARK    7  A    between atoms: C_16  and  C_14 
REMARK    8  A    between atoms: C_15  and  C_17 
REMARK    9  A    between atoms: C_19  and  C_16 
REMARK   10  A    between atoms: C_17  and  C_18 
REMARK   11  A    between atoms: C_18  and  C_19 
ROOT
ATOM      1  C   UNL d   1       1.585  -1.866   4.590  0.00  0.00     0.444 C 
ENDROOT
BRANCH   1   2
ATOM      2  O   UNL d   1       0.393  -2.473   4.099  0.00  0.00    -0.322 OA
BRANCH   2   3
ATOM      3  C   UNL d   1       0.040  -2.168   2.810  0.00  0.00     0.073 A 
ATOM      4  C   UNL d   1       0.776  -1.375   1.928  0.00  0.00     0.072 A 
ATOM      5  C   UNL d   1       0.292  -1.149   0.630  0.00  0.00     0.105 A 
ATOM      6  C   UNL d   1      -0.919  -1.708   0.206  0.00  0.00     0.036 A 
ATOM      7  C   UNL d   1      -1.649  -2.500   1.092  0.00  0.00     0.005 A 
ATOM      8  C   UNL d   1      -1.169  -2.727   2.385  0.00  0.00     0.037 A 
BRANCH   5   9
ATOM      9  N   UNL d   1       1.071  -0.314  -0.293  0.00  0.00    -0.116 N 
ATOM     10  O   UNL d   1       2.129   0.176   0.127  0.00  0.00    -0.532 OA
ATOM     11  O   UNL d   1       0.627  -0.150  -1.438  0.00  0.00    -0.532 OA
ENDBRANCH   5   9
ENDBRANCH   2   3
ENDBRANCH   1   2
BRANCH   1  12
ATOM     12  N   UNL d   1       1.795  -2.233   5.985  0.00  0.00     0.106 N 
ATOM     13  H   UNL d   1       1.800  -3.249   6.046  0.00  0.00     0.318 HD
BRANCH  12  14
ATOM     14  C   UNL d   1       3.064  -1.685   6.462  0.00  0.00     0.272 C 
BRANCH  14  15
ATOM     15  C   UNL d   1       3.302  -2.070   7.921  0.00  0.00     0.030 C 
BRANCH  15  16
ATOM     16  C   UNL d   1       4.616  -1.469   8.426  0.00  0.00     0.002 C 
BRANCH  16  17
ATOM     17  C   UNL d   1       4.877  -1.839   9.885  0.00  0.00     0.002 C 
BRANCH  17  18
ATOM     18  C   UNL d   1       6.189  -1.236  10.382  0.00  0.00     0.026 C 
BRANCH  18  19
ATOM     19  C   UNL d   1       6.457  -1.601  11.835  0.00  0.00     0.164 C 
BRANCH  19  20
ATOM     20  O   UNL d   1       7.688  -1.016  12.235  0.00  0.00    -0.401 OA
ATOM     21  H   UNL d   1       7.830  -1.260  13.166  0.00  0.00     0.209 HD
ENDBRANCH  19  20
ENDBRANCH  18  19
ENDBRANCH  17  18
ENDBRANCH  16  17
ENDBRANCH  15  16
ENDBRANCH  14  15
ENDBRANCH  12  14
ENDBRANCH   1  12
TORSDOF 11
