REMARK  4 active torsions:
REMARK  status: ('A' for Active; 'I' for Inactive)
REMARK    1  A    between atoms: C_7  and  N_1 
REMARK    2  A    between atoms: C_2  and  C_8 
REMARK    3  A    between atoms: C_10  and  C_3 
REMARK       I    between atoms: C_4  and  N_13 
REMARK       I    between atoms: N_22  and  C_4 
REMARK    4  A    between atoms: N_13  and  N_5 
ROOT
ATOM      1  N   UNL d   1      -0.279  -1.146  -0.031  0.00  0.00    -0.321 N 
ATOM      2  C   UNL d   1       1.054  -0.740   0.014  0.00  0.00     0.056 A 
ATOM      3  C   UNL d   1      -1.057  -0.004  -0.148  0.00  0.00     0.097 A 
ATOM      4  C   UNL d   1      -0.257   1.109  -0.063  0.00  0.00     0.020 A 
ATOM      5  C   UNL d   1       1.065   0.650   0.054  0.00  0.00     0.033 A 
ENDROOT
BRANCH   1   6
ATOM      6  C   UNL d   1      -0.816  -2.466   0.095  0.00  0.00     0.039 A 
ATOM      7  C   UNL d   1      -0.136  -3.461   0.807  0.00  0.00     0.031 A 
ATOM      8  C   UNL d   1      -0.721  -4.720   0.994  0.00  0.00     0.018 A 
ATOM      9  C   UNL d   1      -1.996  -5.004   0.483  0.00  0.00     0.048 A 
ATOM     10  C   UNL d   1      -2.666  -4.011  -0.241  0.00  0.00     0.018 A 
ATOM     11  C   UNL d   1      -2.084  -2.753  -0.431  0.00  0.00     0.031 A 
BRANCH   9  12
ATOM     12  C   UNL d   1      -2.635  -6.347   0.743  0.00  0.00     0.417 C 
ATOM     13  F   UNL d   1      -3.884  -6.467   0.211  0.00  0.00    -0.166 F 
ATOM     14  F   UNL d   1      -1.909  -7.378   0.230  0.00  0.00    -0.166 F 
ATOM     15  F   UNL d   1      -2.771  -6.608   2.072  0.00  0.00    -0.166 F 
ENDBRANCH   9  12
ENDBRANCH   1   6
BRANCH   2  16
ATOM     16  C   UNL d   1       2.223  -1.581  -0.028  0.00  0.00     0.137 C 
ATOM     17  N   UNL d   1       3.329  -1.150   0.488  0.00  0.00    -0.306 N 
ATOM     18  HN  UNL d   1       3.401  -0.231   0.925  1.00  0.00     0.186 HD
BRANCH  17  19
ATOM     19  N   UNL d   1       4.394  -2.003   0.413  0.00  0.00    -0.252 N 
ATOM     20  C   UNL d   1       5.587  -1.708   1.027  0.00  0.00     0.332 C 
ATOM     21  O   UNL d   1       6.578  -2.422   0.938  0.00  0.00    -0.246 OA
ATOM     22  N   UNL d   1       5.567  -0.564   1.756  0.00  0.00    -0.351 N 
ATOM     23  H   UNL d   1       4.789   0.055   1.568  0.00  0.00     0.160 HD
ATOM     24  H   UNL d   1       6.435  -0.204   2.118  0.00  0.00     0.160 HD
ATOM     25  H   UNL d   1       4.354  -2.860  -0.127  0.00  0.00     0.191 HD
ENDBRANCH  17  19
ENDBRANCH   2  16
TORSDOF 4
