REMARK  3 active torsions:
REMARK  status: ('A' for Active; 'I' for Inactive)
REMARK    1  A    between atoms: C_11  and  C_3 
REMARK    2  A    between atoms: O_16  and  C_11 
REMARK    3  A    between atoms: C_19  and  O_16 
ROOT
ATOM      1  C   UNL d   1       1.349   0.773  -0.053  0.00  0.00     0.084 C 
ATOM      2  C   UNL d   1       0.731  -0.430   0.011  0.00  0.00     0.067 C 
ATOM      3  C   UNL d   1       2.792   0.866   0.062  0.00  0.00     0.063 C 
ATOM      4  C   UNL d   1       0.565   2.013  -0.282  0.00  0.00     0.302 C 
ATOM      5  N   UNL d   1       1.528  -1.594   0.160  0.00  0.00    -0.317 N 
ATOM      6  C   UNL d   1       2.927  -1.551   0.134  0.00  0.00     0.248 C 
ATOM      7  C   UNL d   1       3.557  -0.228   0.147  0.00  0.00     0.093 C 
ATOM      8  C   UNL d   1      -0.762  -0.415  -0.053  0.00  0.00     0.026 A 
ATOM      9  O   UNL d   1      -0.700   2.014   0.262  0.00  0.00    -0.274 OA
ATOM     10  C   UNL d   1      -1.409   0.812   0.160  0.00  0.00     0.092 A 
ATOM     11  O   UNL d   1       1.019   2.987  -0.869  0.00  0.00    -0.259 OA
ATOM     12  O   UNL d   1       3.667  -2.534   0.131  0.00  0.00    -0.268 OA
ATOM     13  C   UNL d   1       0.994  -2.935   0.292  0.00  0.00     0.159 C 
ATOM     14  C   UNL d   1      -1.613  -1.502  -0.306  0.00  0.00     0.016 A 
ATOM     15  C   UNL d   1      -2.802   0.950   0.217  0.00  0.00     0.038 A 
ATOM     16  C   UNL d   1      -3.011  -1.388  -0.235  0.00  0.00     0.001 A 
ATOM     17  C   UNL d   1      -3.607  -0.164   0.039  0.00  0.00     0.003 A 
ENDROOT
BRANCH   3  18
ATOM     18  C   UNL d   1       3.523   2.153   0.142  0.00  0.00     0.294 C 
ATOM     19  O   UNL d   1       3.279   3.033   0.948  0.00  0.00    -0.259 OA
BRANCH  18  20
ATOM     20  O   UNL d   1       4.484   2.140  -0.811  0.00  0.00    -0.318 OA
BRANCH  20  21
ATOM     21  C   UNL d   1       5.215   3.350  -1.036  0.00  0.00     0.174 C 
ATOM     22  C   UNL d   1       5.031   3.695  -2.501  0.00  0.00     0.034 C 
ENDBRANCH  20  21
ENDBRANCH  18  20
ENDBRANCH   3  18
TORSDOF 3
