REMARK  3 active torsions:
REMARK  status: ('A' for Active; 'I' for Inactive)
REMARK    1  A    between atoms: C_12  and  N_1 
REMARK    2  A    between atoms: C_9  and  C_2 
REMARK    3  A    between atoms: C_6  and  C_14 
ROOT
ATOM      1  N   UNL d   1      -0.629  -1.214   0.188  0.00  0.00    -0.299 N 
ATOM      2  C   UNL d   1       0.762  -1.393  -0.210  0.00  0.00     0.190 C 
ATOM      3  S   UNL d   1       1.541   0.241  -0.193  0.00  0.00    -0.129 SA
ATOM      4  C   UNL d   1      -1.090   0.103   0.253  0.00  0.00     0.235 C 
ATOM      5  C   UNL d   1      -0.033   1.105  -0.148  0.00  0.00     0.179 C 
ATOM      6  O   UNL d   1      -2.232   0.462   0.525  0.00  0.00    -0.272 OA
ENDROOT
BRANCH   1   7
ATOM      7  C   UNL d   1      -1.473  -2.340   0.422  0.00  0.00     0.038 A 
ATOM      8  C   UNL d   1      -1.290  -3.536  -0.285  0.00  0.00     0.031 A 
ATOM      9  C   UNL d   1      -2.059  -4.668   0.007  0.00  0.00     0.016 A 
ATOM     10  C   UNL d   1      -3.010  -4.639   1.030  0.00  0.00    -0.008 A 
ATOM     11  C   UNL d   1      -3.215  -3.442   1.723  0.00  0.00     0.016 A 
ATOM     12  C   UNL d   1      -2.462  -2.301   1.413  0.00  0.00     0.031 A 
BRANCH  10  13
ATOM     13  C   UNL d   1      -3.758  -5.845   1.341  0.00  0.00     0.063 A 
ATOM     14  N   UNL d   1      -4.095  -6.761   0.350  0.00  0.00    -0.292 N 
ATOM     15  N   UNL d   1      -4.750  -7.800   0.835  0.00  0.00    -0.061 NA
ATOM     16  HN  UNL d   1      -3.863  -6.643  -0.637  1.00  0.00     0.183 HD
ATOM     17  S   UNL d   1      -4.960  -7.718   2.492  0.00  0.00    -0.010 SA
ATOM     18  C   UNL d   1      -4.148  -6.213   2.619  0.00  0.00     0.096 A 
ENDBRANCH  10  13
ENDBRANCH   1   7
BRANCH   2  19
ATOM     19  C   UNL d   1       1.529  -2.365   0.664  0.00  0.00    -0.010 A 
ATOM     20  C   UNL d   1       2.273  -3.390   0.085  0.00  0.00     0.097 A 
ATOM     21  N   UNL d   1       2.915  -4.355   0.780  0.00  0.00    -0.375 N 
ATOM     22  C   UNL d   1       2.828  -4.296   2.126  0.00  0.00     0.087 A 
ATOM     23  HN  UNL d   1       3.440  -5.093   0.311  1.00  0.00     0.164 HD
ATOM     24  C   UNL d   1       2.141  -3.306   2.808  0.00  0.00     0.018 A 
ATOM     25  C   UNL d   1       1.490  -2.325   2.065  0.00  0.00     0.013 A 
ENDBRANCH   2  19
TORSDOF 3
