REMARK  6 active torsions:
REMARK  status: ('A' for Active; 'I' for Inactive)
REMARK    1  A    between atoms: C_5  and  C_1 
REMARK    2  A    between atoms: O_6  and  C_2 
REMARK    3  A    between atoms: C_3  and  C_4 
REMARK       I    between atoms: N_9  and  C_5 
REMARK    4  A    between atoms: C_18  and  O_6 
REMARK    5  A    between atoms: C_20  and  N_9 
REMARK    6  A    between atoms: C_19  and  C_20 
ROOT
ATOM      1  C   UNL d   1       0.683   1.232   0.435  0.00  0.00     0.098 A 
ATOM      2  C   UNL d   1      -0.654   0.862   0.362  0.00  0.00     0.164 A 
ATOM      3  C   UNL d   1       1.651   0.215   0.420  0.00  0.00     0.069 A 
ATOM      4  N   UNL d   1      -1.074  -0.431   0.388  0.00  0.00    -0.346 N 
ATOM      5  HN  UNL d   1      -2.067  -0.662   0.413  1.00  0.00     0.167 HD
ATOM      6  C   UNL d   1      -0.136  -1.393   0.381  0.00  0.00     0.091 A 
ATOM      7  C   UNL d   1       1.218  -1.123   0.376  0.00  0.00     0.034 A 
ENDROOT
BRANCH   1   8
ATOM      8  C   UNL d   1       1.081   2.648   0.413  0.00  0.00     0.257 C 
ATOM      9  N   UNL d   1       0.606   3.457   1.426  0.00  0.00    -0.352 N 
ATOM     10  H   UNL d   1      -0.186   3.151   1.976  0.00  0.00     0.163 HD
ATOM     11  O   UNL d   1       1.840   3.027  -0.472  0.00  0.00    -0.267 OA
BRANCH   9  12
ATOM     12  C   UNL d   1       1.008   4.848   1.450  0.00  0.00     0.161 C 
BRANCH  12  13
ATOM     13  C   UNL d   1       0.590   5.678   2.645  0.00  0.00    -0.039 A 
ATOM     14  C   UNL d   1      -0.023   5.175   3.800  0.00  0.00     0.034 A 
ATOM     15  C   UNL d   1      -0.368   6.031   4.861  0.00  0.00     0.056 A 
ATOM     16 CL   UNL d   1      -1.145   5.326   6.237  0.00  0.00    -0.083 Cl
ATOM     17  C   UNL d   1      -0.089   7.400   4.786  0.00  0.00     0.055 A 
ATOM     18  C   UNL d   1       0.541   7.910   3.653  0.00  0.00     0.026 A 
ATOM     19 CL   UNL d   1      -0.485   8.503   6.056  0.00  0.00    -0.083 Cl
ATOM     20  C   UNL d   1       0.872   7.057   2.596  0.00  0.00     0.010 A 
ENDBRANCH  12  13
ENDBRANCH   9  12
ENDBRANCH   1   8
BRANCH   2  21
ATOM     21  O   UNL d   1      -1.622   1.847   0.205  0.00  0.00    -0.293 OA
BRANCH  21  22
ATOM     22  C   UNL d   1      -2.709   1.491  -0.567  0.00  0.00     0.077 A 
ATOM     23  C   UNL d   1      -3.981   1.711  -0.039  0.00  0.00     0.039 A 
ATOM     24  C   UNL d   1      -5.110   1.321  -0.764  0.00  0.00     0.026 A 
ATOM     25  C   UNL d   1      -4.960   0.730  -2.019  0.00  0.00     0.034 A 
ATOM     26  C   UNL d   1      -3.693   0.547  -2.568  0.00  0.00     0.026 A 
ATOM     27 CL   UNL d   1      -6.350   0.215  -2.893  0.00  0.00    -0.084 Cl
ATOM     28  C   UNL d   1      -2.564   0.944  -1.849  0.00  0.00     0.039 A 
ENDBRANCH  21  22
ENDBRANCH   2  21
BRANCH   3  29
ATOM     29  C   UNL d   1       3.133   0.484   0.392  0.00  0.00     0.418 C 
ATOM     30  F   UNL d   1       3.528   1.635   0.991  0.00  0.00    -0.166 F 
ATOM     31  F   UNL d   1       3.824  -0.499   1.048  0.00  0.00    -0.166 F 
ATOM     32  F   UNL d   1       3.637   0.488  -0.872  0.00  0.00    -0.166 F 
ENDBRANCH   3  29
TORSDOF 6
