REMARK  6 active torsions:
REMARK  status: ('A' for Active; 'I' for Inactive)
REMARK    1  A    between atoms: N_12  and  N_5 
REMARK    2  A    between atoms: C_18  and  N_7 
REMARK    3  A    between atoms: O_23  and  C_14 
REMARK    4  A    between atoms: O_24  and  C_15 
REMARK    5  A    between atoms: O_25  and  C_16 
REMARK    6  A    between atoms: C_20  and  C_19 
ROOT
ATOM      1  C   UNL d   1       0.276  -0.468   0.463  0.00  0.00     0.147 A 
ATOM      2  C   UNL d   1      -0.596  -0.462   1.524  0.00  0.00     0.149 A 
ATOM      3  N   UNL d   1       0.041  -0.012  -0.789  0.00  0.00    -0.328 N 
ATOM      4  HN  UNL d   1       0.749  -0.016  -1.523  1.00  0.00     0.169 HD
ATOM      5  N   UNL d   1      -2.181   0.465   0.004  0.00  0.00    -0.206 N 
ATOM      6  C   UNL d   1      -1.907   0.132   1.361  0.00  0.00     0.298 C 
ATOM      7  N   UNL d   1       1.411  -1.117   0.921  0.00  0.00    -0.292 N 
ATOM      8  N   UNL d   1      -0.070  -1.087   2.622  0.00  0.00    -0.344 N 
ATOM      9  HN  UNL d   1      -0.502  -1.217   3.536  1.00  0.00     0.167 HD
ATOM     10  C   UNL d   1      -1.173   0.433  -0.977  0.00  0.00     0.104 C 
ATOM     11  C   UNL d   1       1.121  -1.483   2.225  0.00  0.00     0.191 A 
ATOM     12  O   UNL d   1      -2.645   0.344   2.320  0.00  0.00    -0.263 OA
ATOM     13  C   UNL d   1      -1.502   0.911  -2.378  0.00  0.00     0.091 C 
ENDROOT
BRANCH   5  14
ATOM     14  N   UNL d   1      -3.398   1.028  -0.374  0.00  0.00    -0.300 N 
ATOM     15  C   UNL d   1      -4.457   0.776   0.328  0.00  0.00     0.119 C 
ATOM     16  HN  UNL d   1      -3.455   1.632  -1.194  1.00  0.00     0.186 HD
BRANCH  15  17
ATOM     17  C   UNL d   1      -5.730   1.462   0.048  0.00  0.00    -0.014 A 
ATOM     18  C   UNL d   1      -5.940   2.085  -1.175  0.00  0.00     0.052 A 
ATOM     19  C   UNL d   1      -7.136   2.766  -1.429  0.00  0.00     0.105 A 
ATOM     20  C   UNL d   1      -8.155   2.808  -0.440  0.00  0.00     0.135 A 
ATOM     21  C   UNL d   1      -7.921   2.166   0.801  0.00  0.00     0.105 A 
ATOM     22  C   UNL d   1      -6.711   1.496   1.029  0.00  0.00     0.052 A 
BRANCH  19  23
ATOM     23  O   UNL d   1      -7.351   3.340  -2.659  0.00  0.00    -0.353 OA
ATOM     24  C   UNL d   1      -6.201   3.814  -3.357  0.00  0.00     0.210 C 
ENDBRANCH  19  23
BRANCH  20  25
ATOM     25  O   UNL d   1      -9.368   3.434  -0.571  0.00  0.00    -0.351 OA
ATOM     26  C   UNL d   1      -9.717   4.069  -1.791  0.00  0.00     0.210 C 
ENDBRANCH  20  25
BRANCH  21  27
ATOM     27  O   UNL d   1      -8.736   2.066   1.900  0.00  0.00    -0.353 OA
ATOM     28  C   UNL d   1      -9.961   2.775   1.955  0.00  0.00     0.210 C 
ENDBRANCH  21  27
ENDBRANCH  15  17
ENDBRANCH   5  14
BRANCH   7  29
ATOM     29  C   UNL d   1       2.615  -1.375   0.222  0.00  0.00     0.042 A 
ATOM     30  C   UNL d   1       3.017  -0.547  -0.833  0.00  0.00     0.030 A 
ATOM     31  C   UNL d   1       4.206  -0.806  -1.516  0.00  0.00     0.002 A 
ATOM     32  C   UNL d   1       4.988  -1.901  -1.162  0.00  0.00     0.000 A 
ATOM     33  C   UNL d   1       4.593  -2.732  -0.114  0.00  0.00     0.002 A 
ATOM     34  C   UNL d   1       3.419  -2.467   0.591  0.00  0.00     0.030 A 
ENDBRANCH   7  29
TORSDOF 6
