REMARK  4 active torsions:
REMARK  status: ('A' for Active; 'I' for Inactive)
REMARK    1  A    between atoms: C_2  and  C_1 
REMARK    2  A    between atoms: C_5  and  O_9 
REMARK    3  A    between atoms: C_12  and  C_5 
REMARK    4  A    between atoms: O_9  and  C_8 
ROOT
ATOM      1  C   UNL d   1      -0.661  -2.567   0.350  0.00  0.00     0.051 A 
ATOM      2  C   UNL d   1      -1.489  -2.762  -0.776  0.00  0.00     0.094 A 
ATOM      3  C   UNL d   1      -0.312  -3.694   1.118  0.00  0.00     0.018 A 
ATOM      4  C   UNL d   1      -1.919  -4.044  -1.132  0.00  0.00     0.038 A 
ATOM      5  C   UNL d   1      -0.752  -4.972   0.770  0.00  0.00     0.001 A 
ATOM      6  C   UNL d   1      -1.545  -5.146  -0.360  0.00  0.00     0.003 A 
ENDROOT
BRANCH   2   7
ATOM      7  O   UNL d   1      -1.923  -1.597  -1.480  0.00  0.00    -0.274 OA
BRANCH   7   8
ATOM      8  C   UNL d   1      -2.677  -1.527  -2.650  0.00  0.00     0.298 C 
ATOM      9  O   UNL d   1      -3.046  -2.461  -3.343  0.00  0.00    -0.259 OA
BRANCH   8  10
ATOM     10  C   UNL d   1      -3.003  -0.104  -2.967  0.00  0.00     0.040 A 
ATOM     11  C   UNL d   1      -3.707   0.169  -4.152  0.00  0.00     0.019 A 
ATOM     12  C   UNL d   1      -4.036   1.485  -4.497  0.00  0.00     0.025 A 
ATOM     13  C   UNL d   1      -3.666   2.534  -3.657  0.00  0.00     0.034 A 
ATOM     14  C   UNL d   1      -2.977   2.276  -2.474  0.00  0.00     0.025 A 
ATOM     15 CL   UNL d   1      -4.062   4.152  -4.082  0.00  0.00    -0.084 Cl
ATOM     16  C   UNL d   1      -2.647   0.961  -2.128  0.00  0.00     0.019 A 
ENDBRANCH   8  10
ENDBRANCH   7   8
ENDBRANCH   2   7
BRANCH   1  17
ATOM     17  C   UNL d   1      -0.151  -1.252   0.726  0.00  0.00     0.176 A 
ATOM     18  N   UNL d   1      -0.049  -0.130   0.039  0.00  0.00    -0.278 N 
ATOM     19  N   UNL d   1       0.526   0.802   0.879  0.00  0.00    -0.288 N 
ATOM     20  HN  UNL d   1      -0.339   0.019  -0.927  1.00  0.00     0.189 HD
ATOM     21  C   UNL d   1       0.738   0.182   2.015  0.00  0.00     0.251 A 
ATOM     22  HN  UNL d   1       0.743   1.775   0.661  1.00  0.00     0.188 HD
ATOM     23  O   UNL d   1       0.339  -1.117   2.005  0.00  0.00    -0.285 OA
ENDBRANCH   1  17
TORSDOF 4
