REMARK  2 active torsions:
REMARK  status: ('A' for Active; 'I' for Inactive)
REMARK    1  A    between atoms: C_9  and  C_2 
REMARK    2  A    between atoms: C_5  and  C_8 
ROOT
ATOM      1  C   UNL d   1       4.765  -3.271  -0.016  0.00  0.00     0.048 A 
ATOM      2  C   UNL d   1       2.429  -1.679  -0.013  0.00  0.00    -0.008 A 
ATOM      3  C   UNL d   1       4.542  -2.335   1.002  0.00  0.00     0.017 A 
ATOM      4  C   UNL d   1       3.809  -3.401  -1.035  0.00  0.00     0.017 A 
ATOM      5  C   UNL d   1       3.388  -1.544   1.000  0.00  0.00     0.014 A 
ATOM      6  C   UNL d   1       2.652  -2.614  -1.032  0.00  0.00     0.014 A 
ENDROOT
BRANCH   2   7
ATOM      7  C   UNL d   1       1.240  -0.837   0.007  0.00  0.00     0.063 A 
ATOM      8  N   UNL d   1       1.272   0.440   0.561  0.00  0.00    -0.292 N 
ATOM      9  N   UNL d   1       0.099   1.045   0.480  0.00  0.00    -0.061 NA
ATOM     10  HN  UNL d   1       2.102   0.859   0.980  1.00  0.00     0.183 HD
ATOM     11  S   UNL d   1      -1.073   0.095  -0.241  0.00  0.00    -0.010 SA
ATOM     12  C   UNL d   1       0.004  -1.219  -0.485  0.00  0.00     0.096 A 
ENDBRANCH   2   7
BRANCH   1  13
ATOM     13  C   UNL d   1       6.009  -4.126  -0.033  0.00  0.00     0.417 C 
ATOM     14  F   UNL d   1       6.851  -3.887   1.010  0.00  0.00    -0.166 F 
ATOM     15  F   UNL d   1       5.724  -5.457   0.015  0.00  0.00    -0.166 F 
ATOM     16  F   UNL d   1       6.751  -3.944  -1.161  0.00  0.00    -0.166 F 
ENDBRANCH   1  13
TORSDOF 2
