REMARK  2 active torsions:
REMARK  status: ('A' for Active; 'I' for Inactive)
REMARK    1  A    between atoms: N_7  and  C_2 
REMARK    2  A    between atoms: C_9  and  N_7 
ROOT
ATOM      1  N   UNL d   1       3.308  -0.666  -0.108  0.00  0.00    -0.336 N 
ATOM      2  H   UNL d   1       3.343  -0.223   0.799  0.00  0.00     0.168 HD
ENDROOT
BRANCH   1   3
ATOM      3  C   UNL d   1       3.017   0.151  -1.160  0.00  0.00     0.166 A 
ATOM      4  S   UNL d   1       2.589   1.800  -0.719  0.00  0.00    -0.022 SA
ATOM      5  C   UNL d   1       2.422   2.164  -2.412  0.00  0.00     0.160 A 
ATOM      6  N   UNL d   1       2.698   1.034  -3.128  0.00  0.00    -0.282 N 
ATOM      7  S   UNL d   1       2.006   3.618  -3.083  0.00  0.00    -0.051 SA
ATOM      8  N   UNL d   1       3.030  -0.090  -2.434  0.00  0.00    -0.278 N 
ATOM      9  H   UNL d   1       2.687   1.006  -4.142  0.00  0.00     0.188 HD
ATOM     10  HN  UNL d   1       3.256  -0.991  -2.856  1.00  0.00     0.189 HD
ENDBRANCH   1   3
BRANCH   1  11
ATOM     11  C   UNL d   1       3.577  -2.042  -0.128  0.00  0.00     0.034 A 
ATOM     12  C   UNL d   1       4.332  -2.600   0.916  0.00  0.00     0.031 A 
ATOM     13  C   UNL d   1       4.687  -3.954   0.912  0.00  0.00     0.020 A 
ATOM     14  C   UNL d   1       4.285  -4.770  -0.140  0.00  0.00     0.006 A 
ATOM     15  C   UNL d   1       3.537  -4.240  -1.187  0.00  0.00     0.020 A 
ATOM     16  I   UNL d   1       4.811  -6.779  -0.157  0.00  0.00    -0.045 I 
ATOM     17  C   UNL d   1       3.197  -2.882  -1.182  0.00  0.00     0.031 A 
ENDBRANCH   1  11
TORSDOF 2
