REMARK  5 active torsions:
REMARK  status: ('A' for Active; 'I' for Inactive)
REMARK    1  A    between atoms: C_2  and  C_1 
REMARK       I    between atoms: N_3  and  C_1 
REMARK    2  A    between atoms: N_7  and  N_3 
REMARK       I    between atoms: C_6  and  N_7 
REMARK    3  A    between atoms: C_18  and  C_6 
REMARK    4  A    between atoms: C_17  and  C_18 
REMARK    5  A    between atoms: O_21  and  C_20 
ROOT
ATOM      1  C   UNL d   1       0.849   0.392  -0.400  0.00  0.00     0.270 C 
ATOM      2  N   UNL d   1       0.239   1.147   0.581  0.00  0.00    -0.263 N 
ATOM      3  O   UNL d   1       0.245  -0.353  -1.161  0.00  0.00    -0.266 OA
ATOM      4  H   UNL d   1       0.737   1.768   1.211  0.00  0.00     0.190 HD
ENDROOT
BRANCH   2   5
ATOM      5  N   UNL d   1      -1.155   1.191   0.668  0.00  0.00    -0.267 N 
ATOM      6  C   UNL d   1      -1.717   2.385   1.079  0.00  0.00     0.240 C 
ATOM      7  O   UNL d   1      -1.035   3.348   1.436  0.00  0.00    -0.272 OA
ATOM      8  H   UNL d   1      -1.672   0.479   0.154  0.00  0.00     0.190 HD
BRANCH   6   9
ATOM      9  C   UNL d   1      -3.234   2.411   1.082  0.00  0.00     0.143 C 
BRANCH   9  10
ATOM     10  C   UNL d   1      -3.800   2.851  -0.245  0.00  0.00    -0.047 A 
ATOM     11  C   UNL d   1      -3.550   4.149  -0.725  0.00  0.00     0.044 A 
ATOM     12  C   UNL d   1      -3.985   4.534  -1.994  0.00  0.00     0.068 A 
ATOM     13  C   UNL d   1      -4.701   3.623  -2.774  0.00  0.00     0.037 A 
ATOM     14  C   UNL d   1      -4.992   2.348  -2.290  0.00  0.00     0.003 A 
ATOM     15  C   UNL d   1      -4.546   1.962  -1.028  0.00  0.00     0.007 A 
BRANCH  12  16
ATOM     16  O   UNL d   1      -3.765   5.746  -2.587  0.00  0.00    -0.356 OA
ATOM     17  C   UNL d   1      -3.017   6.700  -1.843  0.00  0.00     0.210 C 
ENDBRANCH  12  16
ENDBRANCH   9  10
ENDBRANCH   6   9
ENDBRANCH   2   5
BRANCH   1  18
ATOM     18  C   UNL d   1       2.338   0.489  -0.430  0.00  0.00     0.035 A 
ATOM     19  C   UNL d   1       3.083  -0.639  -0.782  0.00  0.00     0.049 A 
ATOM     20  C   UNL d   1       4.470  -0.639  -0.693  0.00  0.00     0.060 A 
ATOM     21  N   UNL d   1       5.159  -1.763  -0.971  0.00  0.00    -0.363 N 
ATOM     22  C   UNL d   1       5.142   0.542  -0.278  0.00  0.00     0.059 A 
ATOM     23  C   UNL d   1       6.500  -1.704  -0.816  0.00  0.00     0.105 A 
ATOM     24  HN  UNL d   1       4.692  -2.615  -1.283  1.00  0.00     0.165 HD
ATOM     25  C   UNL d   1       7.145  -0.557  -0.406  0.00  0.00     0.105 A 
ATOM     26  N   UNL d   1       6.479   0.585  -0.139  0.00  0.00    -0.363 N 
ATOM     27  HN  UNL d   1       6.962   1.435   0.153  1.00  0.00     0.165 HD
ATOM     28  C   UNL d   1       4.394   1.677   0.007  0.00  0.00     0.033 A 
ATOM     29  C   UNL d   1       3.000   1.665  -0.065  0.00  0.00     0.019 A 
ENDBRANCH   1  18
TORSDOF 5
