REMARK  3 active torsions:
REMARK  status: ('A' for Active; 'I' for Inactive)
REMARK    1  A    between atoms: N_17  and  C_2 
REMARK    2  A    between atoms: C_13  and  C_4 
REMARK    3  A    between atoms: C_11  and  C_5 
ROOT
ATOM      1  C   UNL d   1      -2.705  -0.783  -0.013  0.00  0.00     0.058 A 
ATOM      2  C   UNL d   1      -4.123  -0.663  -0.093  0.00  0.00     0.079 A 
ATOM      3  C   UNL d   1      -2.235   0.527  -0.018  0.00  0.00     0.162 A 
ATOM      4  C   UNL d   1      -4.440   0.682  -0.077  0.00  0.00     0.150 A 
ATOM      5  C   UNL d   1      -1.735  -1.810   0.040  0.00  0.00     0.023 A 
ATOM      6  C   UNL d   1      -0.035  -0.065   0.003  0.00  0.00     0.052 A 
ATOM      7  N   UNL d   1      -0.955   0.933  -0.007  0.00  0.00    -0.335 N 
ATOM      8  HN  UNL d   1      -0.693   1.919  -0.006  1.00  0.00     0.168 HD
ATOM      9  O   UNL d   1      -3.281   1.409  -0.039  0.00  0.00    -0.287 OA
ATOM     10  C   UNL d   1      -0.368  -1.429   0.024  0.00  0.00    -0.016 A 
ATOM     11  C   UNL d   1       1.387   0.372  -0.004  0.00  0.00    -0.003 A 
ATOM     12  C   UNL d   1       0.710  -2.482   0.030  0.00  0.00     0.046 A 
ATOM     13  C   UNL d   1       2.433  -0.571   0.013  0.00  0.00    -0.045 A 
ATOM     14  C   UNL d   1       2.169  -2.044   0.045  0.00  0.00     0.044 A 
ATOM     15  C   UNL d   1       1.755   1.732  -0.026  0.00  0.00     0.014 A 
ATOM     16  C   UNL d   1       3.780  -0.160   0.003  0.00  0.00     0.008 A 
ATOM     17  C   UNL d   1       3.097   2.136  -0.031  0.00  0.00     0.001 A 
ATOM     18  C   UNL d   1       4.111   1.188  -0.018  0.00  0.00     0.001 A 
ENDROOT
BRANCH   5  19
ATOM     19  C   UNL d   1      -2.184  -3.200   0.119  0.00  0.00     0.086 A 
ATOM     20  O   UNL d   1      -3.207  -3.451   0.996  0.00  0.00    -0.322 OA
ATOM     21  C   UNL d   1      -3.463  -4.783   0.963  0.00  0.00     0.142 A 
ATOM     22  C   UNL d   1      -2.607  -5.412   0.095  0.00  0.00     0.027 A 
ATOM     23  C   UNL d   1      -1.792  -4.394  -0.458  0.00  0.00     0.040 A 
ENDBRANCH   5  19
BRANCH   2  24
ATOM     24  N   UNL d   1      -5.023  -1.662  -0.182  0.00  0.00    -0.396 N 
ATOM     25  H   UNL d   1      -4.761  -2.609   0.086  0.00  0.00     0.156 HD
ATOM     26  H   UNL d   1      -6.018  -1.468  -0.057  0.00  0.00     0.156 HD
ENDBRANCH   2  24
BRANCH   4  27
ATOM     27  C   UNL d   1      -5.735   1.335  -0.082  0.00  0.00     0.181 C 
ATOM     28  O   UNL d   1      -6.798   0.699  -0.063  0.00  0.00    -0.291 OA
ATOM     29  C   UNL d   1      -5.796   2.838  -0.090  0.00  0.00     0.099 C 
ENDBRANCH   4  27
TORSDOF 3
