REMARK  4 active torsions:
REMARK  status: ('A' for Active; 'I' for Inactive)
REMARK    1  A    between atoms: C_7  and  C_1 
REMARK    2  A    between atoms: C_10  and  C_2 
REMARK    3  A    between atoms: C_9  and  C_7 
REMARK    4  A    between atoms: C_15  and  N_8 
ROOT
ATOM      1  C   UNL d   1       0.008   1.290   0.031  0.00  0.00     0.086 C 
ATOM      2  C   UNL d   1       1.322   0.855  -0.007  0.00  0.00     0.066 C 
ATOM      3  C   UNL d   1       0.312  -1.135   0.032  0.00  0.00     0.150 C 
ATOM      4  N   UNL d   1       1.468  -0.521  -0.024  0.00  0.00    -0.335 N 
ATOM      5  HN  UNL d   1       2.368  -1.000  -0.074  1.00  0.00     0.168 HD
ATOM      6  S   UNL d   1      -1.024  -0.078   0.254  0.00  0.00    -0.048 SA
ATOM      7  N   UNL d   1       0.136  -2.477  -0.040  0.00  0.00    -0.337 N 
ATOM      8  H   UNL d   1      -0.769  -2.865   0.189  0.00  0.00     0.168 HD
ENDROOT
BRANCH   1   9
ATOM      9  C   UNL d   1      -0.530   2.635   0.040  0.00  0.00     0.201 C 
ATOM     10  O   UNL d   1      -0.030   3.543   0.704  0.00  0.00    -0.286 OA
BRANCH   9  11
ATOM     11  C   UNL d   1      -1.712   2.995  -0.812  0.00  0.00     0.016 A 
ATOM     12  C   UNL d   1      -2.114   2.234  -1.922  0.00  0.00     0.018 A 
ATOM     13  C   UNL d   1      -3.245   2.604  -2.658  0.00  0.00     0.043 A 
ATOM     14  C   UNL d   1      -3.949   3.751  -2.311  0.00  0.00     0.116 A 
ATOM     15  C   UNL d   1      -3.538   4.546  -1.248  0.00  0.00     0.043 A 
ATOM     16  F   UNL d   1      -5.033   4.098  -3.015  0.00  0.00    -0.206 F 
ATOM     17  C   UNL d   1      -2.420   4.169  -0.500  0.00  0.00     0.018 A 
ENDBRANCH   9  11
ENDBRANCH   1   9
BRANCH   2  18
ATOM     18  C   UNL d   1       2.526   1.677  -0.067  0.00  0.00    -0.008 A 
ATOM     19  C   UNL d   1       3.672   1.242   0.618  0.00  0.00     0.014 A 
ATOM     20  C   UNL d   1       4.864   1.969   0.555  0.00  0.00     0.001 A 
ATOM     21  C   UNL d   1       4.923   3.139  -0.197  0.00  0.00     0.000 A 
ATOM     22  C   UNL d   1       3.795   3.577  -0.889  0.00  0.00     0.001 A 
ATOM     23  C   UNL d   1       2.604   2.844  -0.832  0.00  0.00     0.014 A 
ENDBRANCH   2  18
BRANCH   7  24
ATOM     24  C   UNL d   1       1.029  -3.384  -0.645  0.00  0.00     0.034 A 
ATOM     25  C   UNL d   1       1.041  -4.719  -0.218  0.00  0.00     0.029 A 
ATOM     26  C   UNL d   1       1.967  -5.631  -0.735  0.00  0.00     0.002 A 
ATOM     27  C   UNL d   1       2.892  -5.223  -1.696  0.00  0.00     0.000 A 
ATOM     28  C   UNL d   1       2.895  -3.904  -2.132  0.00  0.00     0.002 A 
ATOM     29  C   UNL d   1       1.979  -2.993  -1.601  0.00  0.00     0.029 A 
ENDBRANCH   7  24
TORSDOF 4
