REMARK  2 active torsions:
REMARK  status: ('A' for Active; 'I' for Inactive)
REMARK       I    between atoms: N_2  and  C_1 
REMARK    1  A    between atoms: C_7  and  C_1 
REMARK    2  A    between atoms: C_8  and  N_2 
ROOT
ATOM      1  C   UNL d   1       1.009   0.069   0.014  0.00  0.00     0.256 C 
ATOM      2  N   UNL d   1       0.398  -0.045   1.253  0.00  0.00    -0.323 N 
ATOM      3  O   UNL d   1       2.202   0.272  -0.190  0.00  0.00    -0.267 OA
ATOM      4  H   UNL d   1      -0.537  -0.430   1.287  0.00  0.00     0.169 HD
ENDROOT
BRANCH   2   5
ATOM      5  C   UNL d   1       1.038   0.162   2.499  0.00  0.00     0.035 A 
ATOM      6  C   UNL d   1       2.281   0.798   2.610  0.00  0.00     0.043 A 
ATOM      7  C   UNL d   1       2.892   0.952   3.869  0.00  0.00    -0.006 A 
ATOM      8  C   UNL d   1       4.119   1.524   4.299  0.00  0.00     0.030 A 
ATOM      9  C   UNL d   1       2.233   0.475   4.999  0.00  0.00     0.042 A 
ATOM     10  C   UNL d   1       4.190   1.377   5.664  0.00  0.00     0.089 A 
ATOM     11  N   UNL d   1       3.049   0.738   6.077  0.00  0.00    -0.365 N 
ATOM     12  H   UNL d   1       2.834   0.492   7.033  0.00  0.00     0.165 HD
ATOM     13  C   UNL d   1       0.978  -0.141   4.928  0.00  0.00     0.033 A 
ATOM     14  C   UNL d   1       0.391  -0.278   3.659  0.00  0.00     0.032 A 
ENDBRANCH   2   5
BRANCH   1  15
ATOM     15  C   UNL d   1       0.146  -0.125  -1.181  0.00  0.00     0.032 A 
ATOM     16  C   UNL d   1      -1.208   0.234  -1.204  0.00  0.00     0.020 A 
ATOM     17  C   UNL d   1      -1.938   0.098  -2.389  0.00  0.00     0.043 A 
ATOM     18  C   UNL d   1      -1.315  -0.389  -3.537  0.00  0.00     0.116 A 
ATOM     19  C   UNL d   1       0.026  -0.747  -3.527  0.00  0.00     0.043 A 
ATOM     20  F   UNL d   1      -2.017  -0.499  -4.671  0.00  0.00    -0.206 F 
ATOM     21  C   UNL d   1       0.758  -0.612  -2.349  0.00  0.00     0.020 A 
ENDBRANCH   1  15
TORSDOF 2
