REMARK  7 active torsions:
REMARK  status: ('A' for Active; 'I' for Inactive)
REMARK    1  A    between atoms: C_4  and  C_1 
REMARK    2  A    between atoms: N_2  and  C_3 
REMARK    3  A    between atoms: O_5  and  C_4 
REMARK    4  A    between atoms: C_7  and  O_5 
REMARK    5  A    between atoms: C_6  and  C_8 
REMARK    6  A    between atoms: O_22  and  C_6 
REMARK    7  A    between atoms: C_24  and  O_22 
ROOT
ATOM      1  O   UNL d   1       4.698  -1.115  -0.127  0.00  0.00    -0.273 OA
ENDROOT
BRANCH   1   2
ATOM      2  C   UNL d   1       5.816  -0.781   0.619  0.00  0.00     0.301 C 
ATOM      3  O   UNL d   1       6.628  -1.533   1.132  0.00  0.00    -0.259 OA
BRANCH   2   4
ATOM      4  C   UNL d   1       6.031   0.680   0.562  0.00  0.00     0.072 A 
ATOM      5  C   UNL d   1       5.068   1.658   0.835  0.00  0.00     0.120 A 
ATOM      6  C   UNL d   1       5.375   3.026   0.697  0.00  0.00     0.060 A 
ATOM      7  C   UNL d   1       6.667   3.405   0.339  0.00  0.00     0.036 A 
ATOM      8  C   UNL d   1       7.652   2.444   0.124  0.00  0.00     0.025 A 
ATOM      9 CL   UNL d   1       7.059   5.072   0.192  0.00  0.00    -0.084 Cl
ATOM     10  C   UNL d   1       7.335   1.089   0.231  0.00  0.00     0.022 A 
BRANCH   5  11
ATOM     11  N   UNL d   1       3.756   1.317   1.381  0.00  0.00    -0.115 N 
ATOM     12  O   UNL d   1       3.672   0.293   2.072  0.00  0.00    -0.532 OA
ATOM     13  O   UNL d   1       2.827   2.104   1.169  0.00  0.00    -0.532 OA
ENDBRANCH   5  11
ENDBRANCH   2   4
ENDBRANCH   1   2
BRANCH   1  14
ATOM     14  C   UNL d   1       4.197  -2.443  -0.221  0.00  0.00     0.101 A 
ATOM     15  C   UNL d   1       3.314  -2.727  -1.270  0.00  0.00     0.069 A 
ATOM     16  C   UNL d   1       2.674  -3.970  -1.337  0.00  0.00     0.044 A 
ATOM     17 CL   UNL d   1       2.958  -1.552  -2.484  0.00  0.00    -0.081 Cl
ATOM     18  C   UNL d   1       2.910  -4.932  -0.347  0.00  0.00     0.041 A 
ATOM     19  C   UNL d   1       3.835  -4.662   0.670  0.00  0.00     0.020 A 
ATOM     20  C   UNL d   1       4.464  -3.415   0.743  0.00  0.00     0.040 A 
BRANCH  18  21
ATOM     21  C   UNL d   1       2.064  -6.158  -0.339  0.00  0.00     0.293 C 
ATOM     22  O   UNL d   1       1.210  -6.395  -1.172  0.00  0.00    -0.259 OA
BRANCH  21  23
ATOM     23  O   UNL d   1       2.292  -6.855   0.803  0.00  0.00    -0.318 OA
BRANCH  23  24
ATOM     24  C   UNL d   1       1.238  -7.727   1.234  0.00  0.00     0.174 C 
ATOM     25  C   UNL d   1       0.357  -6.947   2.193  0.00  0.00     0.034 C 
ENDBRANCH  23  24
ENDBRANCH  21  23
ENDBRANCH  18  21
ENDBRANCH   1  14
TORSDOF 7
