REMARK  5 active torsions:
REMARK  status: ('A' for Active; 'I' for Inactive)
REMARK    1  A    between atoms: C_4  and  C_1 
REMARK    2  A    between atoms: N_9  and  C_2 
REMARK    3  A    between atoms: C_7  and  C_4 
REMARK    4  A    between atoms: C_16  and  C_6 
REMARK    5  A    between atoms: O_15  and  C_12 
ROOT
ATOM      1  C   UNL d   1       0.055   1.526  -0.052  0.00  0.00     0.049 A 
ATOM      2  C   UNL d   1       0.720   0.397   0.396  0.00  0.00     0.082 A 
ATOM      3  S   UNL d   1      -0.261  -1.002   0.324  0.00  0.00    -0.077 SA
ATOM      4  C   UNL d   1      -1.272   1.189  -0.500  0.00  0.00     0.033 A 
ATOM      5  C   UNL d   1      -1.589  -0.138  -0.308  0.00  0.00    -0.015 A 
ENDROOT
BRANCH   1   6
ATOM      6  C   UNL d   1       0.662   2.865  -0.069  0.00  0.00     0.195 C 
ATOM      7  O   UNL d   1       1.870   3.044  -0.231  0.00  0.00    -0.287 OA
BRANCH   6   8
ATOM      8  C   UNL d   1      -0.221   4.053   0.118  0.00  0.00     0.015 A 
ATOM      9  C   UNL d   1       0.102   5.257  -0.522  0.00  0.00     0.018 A 
ATOM     10  C   UNL d   1      -0.718   6.383  -0.366  0.00  0.00     0.037 A 
ATOM     11  C   UNL d   1      -1.859   6.310   0.434  0.00  0.00     0.068 A 
ATOM     12  C   UNL d   1      -2.178   5.113   1.075  0.00  0.00     0.037 A 
ATOM     13  C   UNL d   1      -1.352   3.997   0.942  0.00  0.00     0.018 A 
BRANCH  11  14
ATOM     14  O   UNL d   1      -2.756   7.323   0.626  0.00  0.00    -0.356 OA
ATOM     15  C   UNL d   1      -2.209   8.636   0.618  0.00  0.00     0.210 C 
ENDBRANCH  11  14
ENDBRANCH   6   8
ENDBRANCH   1   6
BRANCH   2  16
ATOM     16  N   UNL d   1       1.982   0.318   0.874  0.00  0.00    -0.393 N 
ATOM     17  H   UNL d   1       2.622   1.085   0.661  0.00  0.00     0.156 HD
ATOM     18  H   UNL d   1       2.435  -0.591   0.900  0.00  0.00     0.156 HD
ENDBRANCH   2  16
BRANCH   5  19
ATOM     19  C   UNL d   1      -2.890  -0.826  -0.598  0.00  0.00     0.042 C 
ATOM     20  C   UNL d   1      -3.821  -0.807   0.607  0.00  0.00     0.010 C 
ENDBRANCH   5  19
TORSDOF 5
