REMARK  6 active torsions:
REMARK  status: ('A' for Active; 'I' for Inactive)
REMARK    1  A    between atoms: C_7  and  C_1 
REMARK    2  A    between atoms: C_13  and  C_5 
REMARK    3  A    between atoms: S_16  and  C_10 
REMARK    4  A    between atoms: C_11  and  C_17 
REMARK       I    between atoms: N_12  and  C_11 
REMARK    5  A    between atoms: C_19  and  N_12 
REMARK    6  A    between atoms: C_17  and  S_16 
ROOT
ATOM      1  C   UNL d   1      -0.435  -2.609  -0.125  0.00  0.00     0.054 A 
ATOM      2  N   UNL d   1      -0.079  -3.297   0.976  0.00  0.00    -0.336 N 
ATOM      3  HN  UNL d   1       0.372  -2.833   1.765  1.00  0.00     0.168 HD
ATOM      4  C   UNL d   1      -0.337  -4.616   1.002  0.00  0.00     0.145 A 
ATOM      5  N   UNL d   1      -0.918  -5.293  -0.002  0.00  0.00    -0.347 N 
ATOM      6  HN  UNL d   1      -1.106  -6.294   0.059  1.00  0.00     0.167 HD
ATOM      7  C   UNL d   1      -1.019  -3.221  -1.214  0.00  0.00     0.048 A 
ATOM      8  C   UNL d   1      -1.237  -4.574  -1.096  0.00  0.00     0.092 A 
ENDROOT
BRANCH   1   9
ATOM      9  C   UNL d   1      -0.196  -1.163  -0.032  0.00  0.00     0.056 A 
ATOM     10  S   UNL d   1      -1.291  -0.040  -0.745  0.00  0.00    -0.068 SA
ATOM     11  C   UNL d   1      -0.405   1.282  -0.090  0.00  0.00     0.085 A 
ATOM     12  N   UNL d   1       0.667   0.928   0.590  0.00  0.00    -0.352 N 
ATOM     13  C   UNL d   1       0.800  -0.453   0.631  0.00  0.00     0.025 A 
ATOM     14  HN  UNL d   1       1.315   1.583   1.028  1.00  0.00     0.166 HD
ATOM     15  C   UNL d   1       1.966  -1.008   1.371  0.00  0.00     0.070 C 
BRANCH  11  16
ATOM     16  C   UNL d   1      -0.874   2.670  -0.237  0.00  0.00    -0.002 A 
ATOM     17  C   UNL d   1      -0.573   3.601   0.772  0.00  0.00     0.016 A 
ATOM     18  C   UNL d   1      -1.020   4.926   0.692  0.00  0.00     0.024 A 
ATOM     19  C   UNL d   1      -1.765   5.337  -0.409  0.00  0.00     0.034 A 
ATOM     20  C   UNL d   1      -2.060   4.438  -1.431  0.00  0.00     0.024 A 
ATOM     21 CL   UNL d   1      -2.323   6.961  -0.511  0.00  0.00    -0.084 Cl
ATOM     22  C   UNL d   1      -1.616   3.113  -1.346  0.00  0.00     0.016 A 
ENDBRANCH  11  16
ENDBRANCH   1   9
BRANCH   4  23
ATOM     23  S   UNL d   1       0.064  -5.439   2.521  0.00  0.00    -0.085 SA
BRANCH  23  24
ATOM     24  C   UNL d   1      -0.541  -7.123   2.195  0.00  0.00     0.185 C 
BRANCH  24  25
ATOM     25  C   UNL d   1      -0.325  -7.980   3.446  0.00  0.00     0.233 C 
ATOM     26  N   UNL d   1      -1.428  -8.224   4.275  0.00  0.00    -0.322 N 
ATOM     27  C   UNL d   1      -2.719  -7.543   4.156  0.00  0.00     0.159 C 
ATOM     28  O   UNL d   1       0.791  -8.469   3.646  0.00  0.00    -0.272 OA
BRANCH  26  29
ATOM     29  C   UNL d   1      -1.318  -9.079   5.418  0.00  0.00     0.036 A 
ATOM     30  C   UNL d   1      -0.288  -8.914   6.349  0.00  0.00     0.029 A 
ATOM     31  C   UNL d   1      -0.293  -9.642   7.543  0.00  0.00     0.002 A 
ATOM     32  C   UNL d   1      -1.301 -10.572   7.797  0.00  0.00     0.000 A 
ATOM     33  C   UNL d   1      -2.303 -10.781   6.854  0.00  0.00     0.002 A 
ATOM     34  C   UNL d   1      -2.320 -10.028   5.678  0.00  0.00     0.029 A 
ENDBRANCH  26  29
ENDBRANCH  24  25
ENDBRANCH  23  24
ENDBRANCH   4  23
TORSDOF 6
