REMARK  2 active torsions:
REMARK  status: ('A' for Active; 'I' for Inactive)
REMARK    1  A    between atoms: C_7  and  C_1 
REMARK    2  A    between atoms: C_14  and  C_5 
ROOT
ATOM      1  C   UNL d   1       2.439   2.308   0.023  0.00  0.00     0.066 C 
ATOM      2  C   UNL d   1       2.784   3.017  -1.069  0.00  0.00     0.126 C 
ATOM      3  N   UNL d   1       2.261   2.265  -3.484  0.00  0.00    -0.191 NA
ATOM      4  N   UNL d   1       3.951   5.295  -0.711  0.00  0.00    -0.191 NA
ATOM      5  C   UNL d   1       2.514   2.582  -2.398  0.00  0.00     0.111 C 
ATOM      6  C   UNL d   1       3.431   4.275  -0.892  0.00  0.00     0.111 C 
ENDROOT
BRANCH   1   7
ATOM      7  C   UNL d   1       1.868   1.012  -0.031  0.00  0.00     0.066 A 
ATOM      8  C   UNL d   1       2.366  -0.294  -0.075  0.00  0.00     0.071 A 
ATOM      9  N   UNL d   1       1.335  -1.222  -0.099  0.00  0.00    -0.334 N 
ATOM     10  C   UNL d   1       0.256  -0.497  -0.043  0.00  0.00     0.147 A 
ATOM     11  HN  UNL d   1       1.406  -2.238  -0.149  1.00  0.00     0.168 HD
ATOM     12  N   UNL d   1       0.516   0.834  -0.004  0.00  0.00    -0.325 N 
ATOM     13  S   UNL d   1      -1.420  -0.864  -0.039  0.00  0.00    -0.092 SA
ATOM     14  C   UNL d   1      -0.625   1.717   0.098  0.00  0.00     0.142 C 
ATOM     15  C   UNL d   1      -1.855   0.898  -0.313  0.00  0.00     0.102 C 
BRANCH   8  16
ATOM     16  C   UNL d   1       3.767  -0.692  -0.125  0.00  0.00    -0.007 A 
ATOM     17  C   UNL d   1       4.122  -1.880  -0.778  0.00  0.00     0.014 A 
ATOM     18  C   UNL d   1       5.461  -2.270  -0.871  0.00  0.00     0.001 A 
ATOM     19  C   UNL d   1       6.459  -1.477  -0.310  0.00  0.00     0.000 A 
ATOM     20  C   UNL d   1       6.119  -0.307   0.364  0.00  0.00     0.001 A 
ATOM     21  C   UNL d   1       4.780   0.076   0.466  0.00  0.00     0.014 A 
ENDBRANCH   8  16
ENDBRANCH   1   7
TORSDOF 2
