REMARK  5 active torsions:
REMARK  status: ('A' for Active; 'I' for Inactive)
REMARK    1  A    between atoms: C_7  and  N_1 
REMARK    2  A    between atoms: N_6  and  C_9 
REMARK    3  A    between atoms: C_12  and  C_7 
REMARK    4  A    between atoms: C_8  and  N_10 
REMARK       I    between atoms: N_10  and  C_11 
REMARK    5  A    between atoms: C_11  and  C_12 
ROOT
ATOM      1  N   UNL d   1       3.237  -4.982  -0.083  0.00  0.00    -0.325 N 
ATOM      2  C   UNL d   1       3.993  -3.905   0.335  0.00  0.00     0.223 C 
ATOM      3  O   UNL d   1       3.548  -2.825   0.712  0.00  0.00    -0.273 OA
ATOM      4  H   UNL d   1       3.672  -5.683  -0.665  0.00  0.00     0.169 HD
ENDROOT
BRANCH   2   5
ATOM      5  C   UNL d   1       5.480  -4.135   0.178  0.00  0.00     0.123 C 
BRANCH   5   6
ATOM      6  C   UNL d   1       6.220  -3.425   1.305  0.00  0.00     0.144 C 
BRANCH   6   7
ATOM      7  N   UNL d   1       7.645  -3.640   1.249  0.00  0.00    -0.290 N 
ATOM      8  C   UNL d   1       8.345  -4.625   1.923  0.00  0.00     0.372 A 
ATOM      9  O   UNL d   1       9.712  -4.566   1.621  0.00  0.00    -0.259 OA
ATOM     10  O   UNL d   1       7.860  -5.460   2.670  0.00  0.00    -0.237 OA
ATOM     11  C   UNL d   1       9.768  -3.526   0.708  0.00  0.00     0.107 A 
ATOM     12  C   UNL d   1       8.540  -2.953   0.460  0.00  0.00     0.073 A 
ATOM     13  C   UNL d   1      10.915  -3.082   0.075  0.00  0.00     0.040 A 
ATOM     14  C   UNL d   1       8.371  -1.913  -0.429  0.00  0.00     0.039 A 
ATOM     15  C   UNL d   1       9.512  -1.453  -1.107  0.00  0.00    -0.060 A 
ATOM     16  C   UNL d   1      10.776  -2.036  -0.842  0.00  0.00     0.009 A 
ATOM     17  C   UNL d   1       9.406  -0.347  -2.118  0.00  0.00     0.048 C 
ENDBRANCH   6   7
ENDBRANCH   5   6
ENDBRANCH   2   5
BRANCH   1  18
ATOM     18  C   UNL d   1       1.827  -4.992  -0.135  0.00  0.00     0.061 A 
ATOM     19  C   UNL d   1       1.175  -5.595  -1.243  0.00  0.00     0.057 A 
ATOM     20  C   UNL d   1      -0.223  -5.735  -1.132  0.00  0.00     0.031 A 
ATOM     21  C   UNL d   1      -0.930  -5.338   0.010  0.00  0.00     0.002 A 
ATOM     22  C   UNL d   1      -0.263  -4.740   1.069  0.00  0.00     0.002 A 
ATOM     23  C   UNL d   1       1.111  -4.545   0.988  0.00  0.00     0.032 A 
BRANCH  19  24
ATOM     24  N   UNL d   1       1.856  -6.047  -2.372  0.00  0.00    -0.379 N 
ATOM     25  C   UNL d   1       2.942  -5.288  -3.008  0.00  0.00     0.123 C 
ATOM     26  C   UNL d   1       4.106  -6.260  -3.241  0.00  0.00     0.020 C 
ATOM     27  C   UNL d   1       3.658  -7.463  -4.076  0.00  0.00     0.003 C 
ATOM     28  C   UNL d   1       2.388  -8.108  -3.517  0.00  0.00     0.020 C 
ATOM     29  C   UNL d   1       1.292  -7.075  -3.252  0.00  0.00     0.123 C 
ENDBRANCH  19  24
ENDBRANCH   1  18
TORSDOF 5
