REMARK  1 active torsions:
REMARK  status: ('A' for Active; 'I' for Inactive)
REMARK    1  A    between atoms: C_3  and  C_1 
REMARK       I    between atoms: N_8  and  C_3 
ROOT
ATOM      1  C   UNL d   1       0.933   1.008  -0.030  0.00  0.00     0.089 A 
ATOM      2  C   UNL d   1       0.114  -0.103  -0.018  0.00  0.00     0.034 A 
ATOM      3  S   UNL d   1       2.588   0.517  -0.015  0.00  0.00    -0.095 SA
ATOM      4  C   UNL d   1       0.821  -1.337   0.001  0.00  0.00     0.028 A 
ATOM      5  C   UNL d   1       2.183  -1.141   0.004  0.00  0.00     0.052 A 
ATOM      6 BR   UNL d   1      -1.780  -0.122  -0.024  0.00  0.00    -0.049 Br
ENDROOT
BRANCH   1   7
ATOM      7  C   UNL d   1       0.574   2.418  -0.052  0.00  0.00     0.257 C 
ATOM      8  O   UNL d   1      -0.572   2.858  -0.068  0.00  0.00    -0.267 OA
ATOM      9  N   UNL d   1       1.608   3.317  -0.056  0.00  0.00    -0.365 N 
ATOM     10  H   UNL d   1       2.573   3.021  -0.045  0.00  0.00     0.159 HD
ATOM     11  H   UNL d   1       1.381   4.301  -0.073  0.00  0.00     0.159 HD
ENDBRANCH   1   7
TORSDOF 1
