REMARK  4 active torsions:
REMARK  status: ('A' for Active; 'I' for Inactive)
REMARK    1  A    between atoms: C_11  and  N_4 
REMARK    2  A    between atoms: C_7  and  C_11 
REMARK       I    between atoms: N_14  and  C_7 
REMARK    3  A    between atoms: N_8  and  N_14 
REMARK    4  A    between atoms: C_21  and  C_20 
ROOT
ATOM      1  C   UNL d   1       3.236  -1.732  -0.292  0.00  0.00     0.254 C 
ATOM      2  N   UNL d   1       2.254  -2.688  -0.518  0.00  0.00    -0.269 N 
ATOM      3  O   UNL d   1       4.437  -1.980  -0.167  0.00  0.00    -0.270 OA
ATOM      4  H   UNL d   1       1.289  -2.428  -0.693  0.00  0.00     0.190 HD
ENDROOT
BRANCH   2   5
ATOM      5  N   UNL d   1       2.614  -4.003  -0.521  0.00  0.00    -0.308 N 
ATOM      6  C   UNL d   1       1.679  -4.875  -0.710  0.00  0.00     0.118 C 
ATOM      7  HN  UNL d   1       3.583  -4.287  -0.381  1.00  0.00     0.186 HD
BRANCH   6   8
ATOM      8  C   UNL d   1       1.987  -6.323  -0.706  0.00  0.00    -0.018 A 
ATOM      9  C   UNL d   1       0.955  -7.245  -0.890  0.00  0.00     0.038 A 
ATOM     10  C   UNL d   1       1.237  -8.618  -0.871  0.00  0.00     0.056 A 
ATOM     11 CL   UNL d   1      -0.085  -9.708  -1.099  0.00  0.00    -0.083 Cl
ATOM     12  C   UNL d   1       2.549  -9.065  -0.667  0.00  0.00     0.055 A 
ATOM     13  C   UNL d   1       3.578  -8.137  -0.488  0.00  0.00     0.026 A 
ATOM     14 CL   UNL d   1       2.961 -10.742  -0.623  0.00  0.00    -0.083 Cl
ATOM     15  C   UNL d   1       3.299  -6.769  -0.507  0.00  0.00     0.014 A 
ENDBRANCH   6   8
ENDBRANCH   2   5
BRANCH   1  16
ATOM     16  C   UNL d   1       2.714  -0.301  -0.203  0.00  0.00     0.232 C 
BRANCH  16  17
ATOM     17  N   UNL d   1       2.671   0.430  -1.496  0.00  0.00    -0.354 N 
ATOM     18  C   UNL d   1       3.503   0.129  -2.576  0.00  0.00     0.119 A 
ATOM     19  C   UNL d   1       3.539   0.817  -3.728  0.00  0.00     0.101 A 
ATOM     20  C   UNL d   1       2.647   2.007  -3.885  0.00  0.00     0.217 A 
ATOM     21 CL   UNL d   1       4.580   0.381  -5.022  0.00  0.00    -0.079 Cl
ATOM     22  C   UNL d   1       1.888   2.411  -2.662  0.00  0.00     0.101 A 
ATOM     23  O   UNL d   1       2.545   2.616  -4.946  0.00  0.00    -0.285 OA
ATOM     24 CL   UNL d   1       0.985   3.870  -2.679  0.00  0.00    -0.079 Cl
ATOM     25  C   UNL d   1       1.944   1.620  -1.581  0.00  0.00     0.119 A 
ENDBRANCH  16  17
ENDBRANCH   1  16
TORSDOF 4
