REMARK  4 active torsions:
REMARK  status: ('A' for Active; 'I' for Inactive)
REMARK    1  A    between atoms: C_2  and  S_1 
REMARK    2  A    between atoms: N_3  and  S_1 
REMARK    3  A    between atoms: C_14  and  N_3 
REMARK       I    between atoms: C_8  and  N_9 
REMARK    4  A    between atoms: N_9  and  C_15 
ROOT
ATOM      1  N   UNL d   1       0.425  -0.779  -1.348  0.00  0.00    -0.281 N 
ATOM      2  H   UNL d   1       0.103  -1.717  -1.118  0.00  0.00     0.179 HD
ENDROOT
BRANCH   1   3
ATOM      3  S   UNL d   1      -0.028   0.434  -0.286  0.00  0.00     0.263 S 
ATOM      4  O   UNL d   1      -0.535  -0.229   0.896  0.00  0.00    -0.200 OA
ATOM      5  O   UNL d   1       1.038   1.411  -0.201  0.00  0.00    -0.200 OA
BRANCH   3   6
ATOM      6  C   UNL d   1      -1.419   1.220  -1.082  0.00  0.00     0.081 A 
ATOM      7  C   UNL d   1      -2.713   0.729  -0.860  0.00  0.00     0.052 A 
ATOM      8  C   UNL d   1      -3.799   1.383  -1.444  0.00  0.00     0.074 A 
ATOM      9 CL   UNL d   1      -5.390   0.781  -1.179  0.00  0.00    -0.081 Cl
ATOM     10  C   UNL d   1      -3.594   2.518  -2.230  0.00  0.00     0.138 A 
ATOM     11  C   UNL d   1      -2.308   3.013  -2.438  0.00  0.00     0.045 A 
ATOM     12  F   UNL d   1      -4.628   3.157  -2.794  0.00  0.00    -0.204 F 
ATOM     13  C   UNL d   1      -1.215   2.368  -1.856  0.00  0.00     0.028 A 
ENDBRANCH   3   6
ENDBRANCH   1   3
BRANCH   1  14
ATOM     14  C   UNL d   1       0.813  -0.478  -2.673  0.00  0.00     0.042 A 
ATOM     15  C   UNL d   1       2.139  -0.162  -2.958  0.00  0.00     0.032 A 
ATOM     16  C   UNL d   1       2.520   0.126  -4.275  0.00  0.00     0.032 A 
ATOM     17  C   UNL d   1       1.574   0.123  -5.310  0.00  0.00     0.034 A 
ATOM     18  C   UNL d   1       0.250  -0.204  -5.005  0.00  0.00     0.032 A 
ATOM     19  C   UNL d   1      -0.128  -0.513  -3.696  0.00  0.00     0.032 A 
BRANCH  17  20
ATOM     20  N   UNL d   1       2.018   0.458  -6.608  0.00  0.00    -0.328 N 
ATOM     21  C   UNL d   1       1.242   0.582  -7.747  0.00  0.00     0.218 C 
ATOM     22  O   UNL d   1       0.029   0.411  -7.830  0.00  0.00    -0.274 OA
ATOM     23  C   UNL d   1       2.026   0.984  -8.971  0.00  0.00     0.117 C 
ATOM     24  H   UNL d   1       3.007   0.655  -6.701  0.00  0.00     0.169 HD
ENDBRANCH  17  20
ENDBRANCH   1  14
TORSDOF 4
