REMARK  3 active torsions:
REMARK  status: ('A' for Active; 'I' for Inactive)
REMARK    1  A    between atoms: C_8  and  C_3 
REMARK    2  A    between atoms: N_14  and  C_8 
REMARK    3  A    between atoms: O_16  and  N_11 
ROOT
ATOM      1  N   UNL d   1      -0.147  -0.681   0.064  0.00  0.00    -0.293 N 
ATOM      2  C   UNL d   1       1.085  -1.287   0.097  0.00  0.00     0.264 A 
ATOM      3  C   UNL d   1       2.256  -0.368   0.072  0.00  0.00     0.087 A 
ATOM      4  C   UNL d   1      -0.259   0.671  -0.072  0.00  0.00     0.149 A 
ATOM      5  N   UNL d   1       0.726   1.497  -0.136  0.00  0.00    -0.345 N 
ATOM      6  HN  UNL d   1       0.585   2.503  -0.226  1.00  0.00     0.167 HD
ATOM      7  C   UNL d   1       1.980   0.938  -0.074  0.00  0.00     0.110 A 
ATOM      8  S   UNL d   1      -1.916   1.173  -0.179  0.00  0.00    -0.092 SA
ATOM      9  O   UNL d   1       1.234  -2.509   0.115  0.00  0.00    -0.267 OA
ATOM     10  C   UNL d   1      -1.373  -1.437  -0.020  0.00  0.00     0.145 C 
ATOM     11  C   UNL d   1      -2.567  -0.500   0.054  0.00  0.00     0.103 C 
ENDROOT
BRANCH   3  12
ATOM     12  C   UNL d   1       3.667  -0.894   0.038  0.00  0.00     0.115 C 
ATOM     13  N   UNL d   1       4.728  -0.337   0.565  0.00  0.00    -0.257 N 
ATOM     14  HN  UNL d   1       5.668  -0.720   0.461  1.00  0.00     0.195 HD
BRANCH  13  15
ATOM     15  O   UNL d   1       4.453   0.828   1.282  0.00  0.00    -0.289 OA
ATOM     16  H   UNL d   1       5.345   1.137   1.527  0.00  0.00     0.244 HD
ENDBRANCH  13  15
BRANCH  12  17
ATOM     17  N   UNL d   1       3.920  -2.102  -0.573  0.00  0.00    -0.286 NA
ATOM     18  H   UNL d   1       3.160  -2.780  -0.491  0.00  0.00     0.125 HD
ATOM     19  H   UNL d   1       4.813  -2.487  -0.286  0.00  0.00     0.125 HD
ENDBRANCH  12  17
ENDBRANCH   3  12
TORSDOF 3
