REMARK  3 active torsions:
REMARK  status: ('A' for Active; 'I' for Inactive)
REMARK    1  A    between atoms: C_6  and  C_1 
REMARK    2  A    between atoms: C_7  and  N_3 
REMARK    3  A    between atoms: O_12  and  C_6 
ROOT
ATOM      1  C   UNL d   1      -0.389  -1.197  -0.036  0.00  0.00     0.062 A 
ATOM      2  C   UNL d   1       0.933  -0.745  -0.005  0.00  0.00     0.030 A 
ATOM      3  N   UNL d   1       0.944   0.658   0.004  0.00  0.00    -0.319 N 
ATOM      4  C   UNL d   1      -1.196  -0.033   0.013  0.00  0.00     0.045 A 
ATOM      5  C   UNL d   1      -0.385   1.082   0.023  0.00  0.00     0.014 A 
ATOM      6  C   UNL d   1       2.174  -1.583   0.092  0.00  0.00     0.070 C 
ATOM      7  C   UNL d   1      -0.851   2.498  -0.059  0.00  0.00     0.068 C 
ENDROOT
BRANCH   3   8
ATOM      8  C   UNL d   1       2.102   1.508  -0.017  0.00  0.00     0.039 A 
ATOM      9  C   UNL d   1       3.229   1.166  -0.778  0.00  0.00     0.031 A 
ATOM     10  C   UNL d   1       4.359   1.994  -0.791  0.00  0.00     0.026 A 
ATOM     11  C   UNL d   1       4.360   3.179  -0.061  0.00  0.00     0.034 A 
ATOM     12  C   UNL d   1       3.245   3.538   0.690  0.00  0.00     0.026 A 
ATOM     13 CL   UNL d   1       5.742   4.202  -0.087  0.00  0.00    -0.084 Cl
ATOM     14  C   UNL d   1       2.125   2.700   0.722  0.00  0.00     0.031 A 
ENDBRANCH   3   8
BRANCH   1  15
ATOM     15  C   UNL d   1      -0.817  -2.602  -0.103  0.00  0.00     0.178 C 
ATOM     16  O   UNL d   1      -0.062  -3.548  -0.264  0.00  0.00    -0.646 OA
BRANCH  15  17
ATOM     17  O   UNL d   1      -2.156  -2.807   0.026  0.00  0.00    -0.773 OA
ATOM     18  H   UNL d   1      -2.660  -1.990   0.172  0.00  0.00     0.167 HD
ENDBRANCH  15  17
ENDBRANCH   1  15
TORSDOF 3
