REMARK  1 active torsions:
REMARK  status: ('A' for Active; 'I' for Inactive)
REMARK    1  A    between atoms: O_10  and  N_6 
ROOT
ATOM      1  C   UNL d   1      -1.210  -0.727  -0.524  0.00  0.00     0.026 C 
ATOM      2  C   UNL d   1       0.004  -1.137   0.311  0.00  0.00    -0.002 C 
ATOM      3  C   UNL d   1      -1.308   0.803  -0.571  0.00  0.00    -0.003 C 
ATOM      4  C   UNL d   1      -0.017   1.109   0.274  0.00  0.00     0.000 C 
ATOM      5  C   UNL d   1      -0.014  -0.001   1.338  0.00  0.00     0.021 C 
ATOM      6  N   UNL d   1      -1.977  -1.614  -1.081  0.00  0.00    -0.276 N 
ATOM      7  HN  UNL d   1      -1.830  -2.621  -1.012  1.00  0.00     0.193 HD
ATOM      8  C   UNL d   1       1.238  -0.795  -0.542  0.00  0.00     0.015 C 
ATOM      9  C   UNL d   1       1.282   0.744  -0.481  0.00  0.00     0.007 C 
ATOM     10  C   UNL d   1      -0.019  -2.531   0.888  0.00  0.00     0.021 C 
ATOM     11  C   UNL d   1      -1.241   1.378  -1.987  0.00  0.00     0.021 C 
ATOM     12  C   UNL d   1      -2.563   1.322   0.142  0.00  0.00     0.021 C 
ENDROOT
BRANCH   6  13
ATOM     13  O   UNL d   1      -3.025  -1.025  -1.787  0.00  0.00    -0.290 OA
ATOM     14  H   UNL d   1      -3.506  -1.800  -2.134  0.00  0.00     0.244 HD
ENDBRANCH   6  13
TORSDOF 1
