REMARK  7 active torsions:
REMARK  status: ('A' for Active; 'I' for Inactive)
REMARK    1  A    between atoms: O_14  and  C_2 
REMARK    2  A    between atoms: C_8  and  C_3 
REMARK    3  A    between atoms: C_9  and  C_6 
REMARK    4  A    between atoms: C_22  and  O_14 
REMARK    5  A    between atoms: C_15  and  C_22 
REMARK    6  A    between atoms: C_16  and  C_15 
REMARK    7  A    between atoms: C_30  and  C_19 
ROOT
ATOM      1  C   UNL d   1      -1.451  -0.669   0.200  0.00  0.00     0.107 A 
ATOM      2  C   UNL d   1      -0.089  -0.989   0.191  0.00  0.00     0.165 A 
ATOM      3  C   UNL d   1      -1.819   0.683   0.063  0.00  0.00     0.008 A 
ATOM      4  N   UNL d   1       0.896  -0.067   0.090  0.00  0.00    -0.335 N 
ATOM      5  HN  UNL d   1       1.878  -0.344   0.105  1.00  0.00     0.168 HD
ATOM      6  C   UNL d   1       0.542   1.228  -0.031  0.00  0.00     0.052 A 
ATOM      7  C   UNL d   1      -0.785   1.628  -0.071  0.00  0.00     0.045 A 
ATOM      8  C   UNL d   1      -2.410  -1.717   0.368  0.00  0.00     0.104 C 
ATOM      9  N   UNL d   1      -3.208  -2.556   0.482  0.00  0.00    -0.191 NA
ENDROOT
BRANCH   2  10
ATOM     10  O   UNL d   1       0.288  -2.322   0.275  0.00  0.00    -0.327 OA
BRANCH  10  11
ATOM     11  C   UNL d   1       1.704  -2.493   0.287  0.00  0.00     0.261 C 
BRANCH  11  12
ATOM     12  C   UNL d   1       2.127  -3.954   0.396  0.00  0.00     0.183 C 
ATOM     13  O   UNL d   1       2.404  -4.479   1.473  0.00  0.00    -0.290 OA
BRANCH  12  14
ATOM     14  C   UNL d   1       2.300  -4.732  -0.860  0.00  0.00     0.012 A 
ATOM     15  C   UNL d   1       3.293  -5.714  -0.924  0.00  0.00     0.016 A 
ATOM     16  C   UNL d   1       3.512  -6.420  -2.115  0.00  0.00     0.013 A 
ATOM     17  C   UNL d   1       2.731  -6.188  -3.263  0.00  0.00    -0.026 A 
ATOM     18  C   UNL d   1       1.714  -5.219  -3.156  0.00  0.00     0.013 A 
ATOM     19  C   UNL d   1       1.505  -4.490  -1.978  0.00  0.00     0.016 A 
BRANCH  17  20
ATOM     20  C   UNL d   1       2.967  -6.918  -4.535  0.00  0.00    -0.026 A 
ATOM     21  C   UNL d   1       2.726  -6.310  -5.783  0.00  0.00     0.012 A 
ATOM     22  C   UNL d   1       2.947  -6.987  -6.987  0.00  0.00     0.001 A 
ATOM     23  C   UNL d   1       3.433  -8.289  -6.974  0.00  0.00     0.000 A 
ATOM     24  C   UNL d   1       3.685  -8.916  -5.758  0.00  0.00     0.001 A 
ATOM     25  C   UNL d   1       3.447  -8.241  -4.555  0.00  0.00     0.012 A 
ENDBRANCH  17  20
ENDBRANCH  12  14
ENDBRANCH  11  12
ENDBRANCH  10  11
ENDBRANCH   2  10
BRANCH   3  26
ATOM     26  C   UNL d   1      -3.224   1.168   0.050  0.00  0.00     0.016 A 
ATOM     27  S   UNL d   1      -3.617   2.684   0.788  0.00  0.00    -0.101 SA
ATOM     28  C   UNL d   1      -5.249   2.595   0.311  0.00  0.00     0.050 A 
ATOM     29  C   UNL d   1      -5.529   1.414  -0.332  0.00  0.00     0.008 A 
ATOM     30  C   UNL d   1      -4.366   0.599  -0.489  0.00  0.00     0.020 A 
ENDBRANCH   3  26
BRANCH   6  31
ATOM     31  C   UNL d   1       1.663   2.175  -0.017  0.00  0.00     0.031 A 
ATOM     32  S   UNL d   1       1.560   3.698  -0.809  0.00  0.00    -0.100 SA
ATOM     33  C   UNL d   1       3.094   4.185  -0.239  0.00  0.00     0.050 A 
ATOM     34  C   UNL d   1       3.710   3.195   0.491  0.00  0.00     0.008 A 
ATOM     35  C   UNL d   1       2.896   2.030   0.597  0.00  0.00     0.021 A 
ENDBRANCH   6  31
TORSDOF 7
