REMARK  7 active torsions:
REMARK  status: ('A' for Active; 'I' for Inactive)
REMARK    1  A    between atoms: S_2  and  C_1 
REMARK    2  A    between atoms: C_3  and  C_1 
REMARK    3  A    between atoms: C_4  and  C_1 
REMARK    4  A    between atoms: C_7  and  S_2 
REMARK    5  A    between atoms: C_5  and  C_4 
REMARK    6  A    between atoms: C_8  and  C_5 
REMARK    7  A    between atoms: N_14  and  C_9 
ROOT
ATOM      1  C   UNL d   1       1.043   0.469  -0.378  0.00  0.00     0.093 C 
ENDROOT
BRANCH   1   2
ATOM      2  S   UNL d   1       0.492   2.010   0.476  0.00  0.00    -0.118 SA
BRANCH   2   3
ATOM      3  C   UNL d   1      -0.317   3.202  -0.601  0.00  0.00     0.022 A 
ATOM      4  C   UNL d   1      -1.133   4.167   0.064  0.00  0.00     0.022 A 
ATOM      5  C   UNL d   1      -1.733   5.211  -0.655  0.00  0.00     0.024 A 
ATOM      6  C   UNL d   1      -1.478   5.365  -2.011  0.00  0.00     0.002 A 
ATOM      7  C   UNL d   1      -0.667   4.439  -2.666  0.00  0.00     0.001 A 
ATOM      8  C   UNL d   1      -0.094   3.361  -1.969  0.00  0.00     0.020 A 
BRANCH   4   9
ATOM      9  N   UNL d   1      -1.519   3.990   1.417  0.00  0.00    -0.302 NA
ATOM     10  H   UNL d   1      -0.852   3.384   1.892  0.00  0.00     0.124 HD
ATOM     11  H   UNL d   1      -1.668   4.867   1.905  0.00  0.00     0.124 HD
ENDBRANCH   4   9
ENDBRANCH   2   3
ENDBRANCH   1   2
BRANCH   1  12
ATOM     12  C   UNL d   1       0.414  -0.085  -1.668  0.00  0.00    -0.033 A 
ATOM     13  C   UNL d   1      -0.999  -0.215  -1.882  0.00  0.00    -0.018 A 
ATOM     14  C   UNL d   1      -1.468  -0.820  -3.088  0.00  0.00    -0.025 A 
ATOM     15  C   UNL d   1      -2.002   0.186  -0.969  0.00  0.00     0.013 A 
ATOM     16  C   UNL d   1      -2.839  -0.907  -3.368  0.00  0.00     0.012 A 
ATOM     17  C   UNL d   1      -0.568  -1.369  -4.007  0.00  0.00     0.012 A 
ATOM     18  C   UNL d   1      -3.788  -0.438  -2.470  0.00  0.00     0.001 A 
ATOM     19  C   UNL d   1      -3.369   0.092  -1.259  0.00  0.00     0.001 A 
ATOM     20  C   UNL d   1       0.791  -1.319  -3.770  0.00  0.00     0.002 A 
ATOM     21  C   UNL d   1       1.269  -0.678  -2.631  0.00  0.00     0.009 A 
ENDBRANCH   1  12
BRANCH   1  22
ATOM     22  C   UNL d   1       2.594   0.382  -0.217  0.00  0.00     0.104 C 
BRANCH  22  23
ATOM     23  C   UNL d   1       3.385   1.315  -1.121  0.00  0.00     0.161 C 
ATOM     24  O   UNL d   1       2.849   2.172  -1.823  0.00  0.00    -0.292 OA
BRANCH  23  25
ATOM     25  C   UNL d   1       4.874   1.181  -1.211  0.00  0.00     0.010 A 
ATOM     26  C   UNL d   1       5.604   0.195  -0.533  0.00  0.00     0.018 A 
ATOM     27  C   UNL d   1       6.989   0.100  -0.721  0.00  0.00     0.043 A 
ATOM     28  C   UNL d   1       7.639   0.988  -1.573  0.00  0.00     0.116 A 
ATOM     29  C   UNL d   1       6.934   1.981  -2.238  0.00  0.00     0.043 A 
ATOM     30  F   UNL d   1       8.960   0.881  -1.758  0.00  0.00    -0.206 F 
ATOM     31  C   UNL d   1       5.555   2.077  -2.055  0.00  0.00     0.018 A 
ENDBRANCH  23  25
ENDBRANCH  22  23
ENDBRANCH   1  22
TORSDOF 7
