REMARK  3 active torsions:
REMARK  status: ('A' for Active; 'I' for Inactive)
REMARK    1  A    between atoms: C_6  and  N_1 
REMARK    2  A    between atoms: C_7  and  C_6 
REMARK    3  A    between atoms: C_11  and  C_7 
ROOT
ATOM      1  N   UNL d   1       1.866   0.128  -0.118  0.00  0.00    -0.273 N 
ATOM      2  C   UNL d   1       1.111   0.078  -1.256  0.00  0.00     0.262 A 
ATOM      3  C   UNL d   1       1.093   0.137   1.008  0.00  0.00     0.262 A 
ATOM      4  C   UNL d   1      -0.286   0.097  -0.827  0.00  0.00     0.048 A 
ATOM      5  C   UNL d   1      -0.298   0.142   0.556  0.00  0.00     0.048 A 
ATOM      6  O   UNL d   1       1.436   0.081   2.175  0.00  0.00    -0.267 OA
ATOM      7  O   UNL d   1       1.477  -0.020  -2.412  0.00  0.00    -0.267 OA
ATOM      8  C   UNL d   1      -1.452   0.040  -1.566  0.00  0.00     0.018 A 
ATOM      9  C   UNL d   1      -1.476   0.140   1.277  0.00  0.00     0.018 A 
ATOM     10  C   UNL d   1      -2.671   0.094   0.551  0.00  0.00     0.001 A 
ATOM     11  C   UNL d   1      -2.659   0.042  -0.859  0.00  0.00     0.001 A 
ENDROOT
BRANCH   1  12
ATOM     12  C   UNL d   1       3.312   0.066  -0.108  0.00  0.00     0.219 C 
BRANCH  12  13
ATOM     13  C   UNL d   1       3.942   1.450  -0.216  0.00  0.00     0.177 C 
ATOM     14  O   UNL d   1       3.298   2.491  -0.087  0.00  0.00    -0.291 OA
BRANCH  13  15
ATOM     15  C   UNL d   1       5.414   1.522  -0.492  0.00  0.00     0.011 A 
ATOM     16  C   UNL d   1       6.232   0.384  -0.460  0.00  0.00     0.015 A 
ATOM     17  C   UNL d   1       7.586   0.479  -0.788  0.00  0.00     0.001 A 
ATOM     18  C   UNL d   1       8.137   1.710  -1.138  0.00  0.00     0.000 A 
ATOM     19  C   UNL d   1       7.339   2.853  -1.142  0.00  0.00     0.001 A 
ATOM     20  C   UNL d   1       5.982   2.761  -0.816  0.00  0.00     0.015 A 
ENDBRANCH  13  15
ENDBRANCH  12  13
ENDBRANCH   1  12
TORSDOF 3
