REMARK  4 active torsions:
REMARK  status: ('A' for Active; 'I' for Inactive)
REMARK    1  A    between atoms: N_2  and  S_1 
REMARK    2  A    between atoms: C_9  and  S_1 
REMARK    3  A    between atoms: C_3  and  C_4 
REMARK    4  A    between atoms: C_6  and  N_5 
ROOT
ATOM      1  C   UNL d   1       2.834   0.237   0.342  0.00  0.00     0.074 A 
ATOM      2  N   UNL d   1       8.199   0.410   0.935  0.00  0.00    -0.191 NA
ATOM      3  C   UNL d   1       7.048   0.372   0.812  0.00  0.00     0.099 C 
ATOM      4  C   UNL d   1       3.426  -0.338   1.472  0.00  0.00     0.026 A 
ATOM      5  C   UNL d   1       3.623   0.856  -0.632  0.00  0.00     0.026 A 
ATOM      6  C   UNL d   1       5.617   0.330   0.658  0.00  0.00     0.044 A 
ATOM      7  C   UNL d   1       5.016   0.893  -0.475  0.00  0.00     0.024 A 
ATOM      8  C   UNL d   1       4.816  -0.278   1.634  0.00  0.00     0.024 A 
ENDROOT
BRANCH   1   9
ATOM      9  S   UNL d   1       1.063   0.110   0.132  0.00  0.00     0.243 S 
ATOM     10  O   UNL d   1       0.697   0.807  -1.084  0.00  0.00    -0.206 OA
ATOM     11  O   UNL d   1       0.729  -1.284   0.327  0.00  0.00    -0.206 OA
BRANCH   9  12
ATOM     12  N   UNL d   1       0.448   1.026   1.470  0.00  0.00    -0.205 NA
ATOM     13  C   UNL d   1       0.656   2.516   1.261  0.00  0.00     0.127 C 
ATOM     14  C   UNL d   1       0.449   3.357   2.531  0.00  0.00     0.140 C 
ATOM     15  N   UNL d   1      -0.905   3.178   3.051  0.00  0.00    -0.366 N 
ATOM     16  C   UNL d   1      -1.099   2.091   3.991  0.00  0.00     0.125 C 
ATOM     17  C   UNL d   1      -1.271   0.748   3.291  0.00  0.00     0.035 C 
ATOM     18  C   UNL d   1      -0.987   0.699   1.787  0.00  0.00     0.109 C 
BRANCH  15  19
ATOM     19  C   UNL d   1      -1.858   4.157   2.876  0.00  0.00     0.102 A 
ATOM     20  N   UNL d   1      -1.462   5.439   2.742  0.00  0.00    -0.352 N 
ATOM     21  C   UNL d   1      -2.404   6.404   2.603  0.00  0.00     0.106 A 
ATOM     22  HN  UNL d   1      -0.470   5.679   2.746  1.00  0.00     0.166 HD
ATOM     23  C   UNL d   1      -3.765   6.161   2.544  0.00  0.00     0.063 A 
ATOM     24  C   UNL d   1      -4.171   4.833   2.644  0.00  0.00     0.021 A 
ATOM     25  C   UNL d   1      -3.214   3.833   2.820  0.00  0.00     0.049 A 
BRANCH  23  26
ATOM     26  C   UNL d   1      -4.745   7.277   2.368  0.00  0.00     0.418 C 
ATOM     27  F   UNL d   1      -4.166   8.508   2.305  0.00  0.00    -0.166 F 
ATOM     28  F   UNL d   1      -5.477   7.152   1.227  0.00  0.00    -0.166 F 
ATOM     29  F   UNL d   1      -5.648   7.342   3.385  0.00  0.00    -0.166 F 
ENDBRANCH  23  26
ENDBRANCH  15  19
ENDBRANCH   9  12
ENDBRANCH   1   9
TORSDOF 4
