REMARK  4 active torsions:
REMARK  status: ('A' for Active; 'I' for Inactive)
REMARK    1  A    between atoms: C_2  and  C_1 
REMARK       I    between atoms: N_9  and  C_2 
REMARK    2  A    between atoms: C_12  and  N_9 
REMARK    3  A    between atoms: O_11  and  C_13 
REMARK    4  A    between atoms: C_14  and  O_11 
ROOT
ATOM      1  C   UNL d   1       2.099  -3.051   0.096  0.00  0.00     0.035 C 
ATOM      2  C   UNL d   1       4.766  -2.193   0.288  0.00  0.00     0.076 C 
ATOM      3  C   UNL d   1       2.489  -2.144   1.086  0.00  0.00     0.032 C 
ATOM      4  C   UNL d   1       3.086  -3.627  -0.712  0.00  0.00     0.032 C 
ATOM      5  C   UNL d   1       3.818  -1.733   1.197  0.00  0.00     0.039 C 
ATOM      6  C   UNL d   1       4.416  -3.191  -0.622  0.00  0.00     0.039 C 
ENDROOT
BRANCH   1   7
ATOM      7  N   UNL d   1       0.747  -3.394  -0.142  0.00  0.00    -0.322 N 
ATOM      8  C   UNL d   1      -0.356  -2.655   0.279  0.00  0.00     0.266 C 
ATOM      9  O   UNL d   1      -0.253  -1.608   0.916  0.00  0.00    -0.267 OA
ATOM     10  H   UNL d   1       0.577  -4.142  -0.803  0.00  0.00     0.169 HD
BRANCH   8  11
ATOM     11  C   UNL d   1      -1.663  -3.145  -0.109  0.00  0.00     0.114 A 
ATOM     12  C   UNL d   1      -2.913  -2.559   0.068  0.00  0.00     0.046 A 
ATOM     13  N   UNL d   1      -3.977  -3.311  -0.425  0.00  0.00    -0.298 N 
ATOM     14  C   UNL d   1      -3.256  -1.258   0.705  0.00  0.00     0.071 C 
ATOM     15  N   UNL d   1      -3.574  -4.445  -0.966  0.00  0.00    -0.269 N 
ATOM     16  HN  UNL d   1      -4.953  -3.020  -0.374  1.00  0.00     0.187 HD
ATOM     17  S   UNL d   1      -1.920  -4.643  -0.898  0.00  0.00     0.009 SA
ATOM     18  HN  UNL d   1      -4.207  -5.128  -1.382  1.00  0.00     0.195 HD
ENDBRANCH   8  11
ENDBRANCH   1   7
BRANCH   2  19
ATOM     19  O   UNL d   1       6.063  -1.732   0.258  0.00  0.00    -0.311 OA
BRANCH  19  20
ATOM     20  C   UNL d   1       6.291  -0.379   0.426  0.00  0.00     0.076 A 
ATOM     21  C   UNL d   1       7.519  -0.028   0.990  0.00  0.00     0.037 A 
ATOM     22  C   UNL d   1       7.830   1.316   1.218  0.00  0.00     0.003 A 
ATOM     23  C   UNL d   1       6.914   2.312   0.881  0.00  0.00     0.000 A 
ATOM     24  C   UNL d   1       5.702   1.970   0.285  0.00  0.00     0.003 A 
ATOM     25  C   UNL d   1       5.402   0.629   0.034  0.00  0.00     0.037 A 
ENDBRANCH  19  20
ENDBRANCH   2  19
TORSDOF 4
