REMARK  4 active torsions:
REMARK  status: ('A' for Active; 'I' for Inactive)
REMARK    1  A    between atoms: C_2  and  S_1 
REMARK    2  A    between atoms: N_6  and  S_1 
REMARK    3  A    between atoms: C_4  and  C_17 
REMARK    4  A    between atoms: C_19  and  N_6 
ROOT
ATOM      1  N   UNL d   1       0.646  -0.065  -1.555  0.00  0.00    -0.281 N 
ATOM      2  H   UNL d   1       0.493   0.365  -0.644  0.00  0.00     0.179 HD
ENDROOT
BRANCH   1   3
ATOM      3  S   UNL d   1       0.594  -1.731  -1.633  0.00  0.00     0.265 S 
ATOM      4  O   UNL d   1       0.265  -2.221  -0.313  0.00  0.00    -0.200 OA
ATOM      5  O   UNL d   1      -0.212  -2.106  -2.778  0.00  0.00    -0.200 OA
BRANCH   3   6
ATOM      6  C   UNL d   1       2.270  -2.206  -1.971  0.00  0.00     0.103 A 
ATOM      7  C   UNL d   1       2.527  -2.932  -3.144  0.00  0.00     0.052 A 
ATOM      8  C   UNL d   1       3.821  -3.378  -3.429  0.00  0.00     0.057 A 
ATOM      9 CL   UNL d   1       4.060  -4.274  -4.886  0.00  0.00    -0.083 Cl
ATOM     10  C   UNL d   1       4.862  -3.098  -2.541  0.00  0.00     0.057 A 
ATOM     11  C   UNL d   1       4.606  -2.369  -1.375  0.00  0.00     0.051 A 
ATOM     12 CL   UNL d   1       6.483  -3.627  -2.819  0.00  0.00    -0.082 Cl
ATOM     13  C   UNL d   1       3.310  -1.923  -1.083  0.00  0.00     0.059 A 
ATOM     14 CL   UNL d   1       3.116  -1.018   0.374  0.00  0.00    -0.083 Cl
ENDBRANCH   3   6
ENDBRANCH   1   3
BRANCH   1  15
ATOM     15  C   UNL d   1       0.904   0.730  -2.693  0.00  0.00     0.043 A 
ATOM     16  C   UNL d   1       2.159   1.316  -2.845  0.00  0.00     0.046 A 
ATOM     17  C   UNL d   1       2.418   2.178  -3.923  0.00  0.00     0.019 A 
ATOM     18  C   UNL d   1       1.387   2.441  -4.837  0.00  0.00     0.016 A 
ATOM     19  C   UNL d   1       0.126   1.858  -4.676  0.00  0.00     0.003 A 
ATOM     20  C   UNL d   1      -0.115   1.002  -3.601  0.00  0.00     0.030 A 
BRANCH  17  21
ATOM     21  C   UNL d   1       3.734   2.790  -4.044  0.00  0.00     0.173 A 
ATOM     22  N   UNL d   1       4.798   2.663  -3.274  0.00  0.00    -0.278 N 
ATOM     23  N   UNL d   1       5.773   3.476  -3.814  0.00  0.00    -0.288 N 
ATOM     24  HN  UNL d   1       4.882   2.079  -2.442  1.00  0.00     0.189 HD
ATOM     25  C   UNL d   1       5.234   4.033  -4.871  0.00  0.00     0.251 A 
ATOM     26  HN  UNL d   1       6.721   3.615  -3.462  1.00  0.00     0.188 HD
ATOM     27  O   UNL d   1       3.946   3.651  -5.091  0.00  0.00    -0.286 OA
ENDBRANCH  17  21
ENDBRANCH   1  15
TORSDOF 4
