REMARK  1 active torsions:
REMARK  status: ('A' for Active; 'I' for Inactive)
REMARK    1  A    between atoms: O_12  and  C_7 
ROOT
ATOM      1  C   UNL d   1      -1.092   0.921  -0.001  0.00  0.00     0.009 A 
ATOM      2  C   UNL d   1      -0.038  -0.054  -0.000  0.00  0.00     0.001 A 
ATOM      3  C   UNL d   1      -2.464   0.377  -0.002  0.00  0.00     0.019 A 
ATOM      4  C   UNL d   1      -0.281  -1.446  -0.000  0.00  0.00     0.026 A 
ATOM      5  C   UNL d   1      -2.740  -0.933  -0.002  0.00  0.00     0.056 A 
ATOM      6  C   UNL d   1      -1.671  -1.943  -0.000  0.00  0.00     0.183 A 
ATOM      7  C   UNL d   1      -0.751   2.292  -0.001  0.00  0.00     0.079 A 
ATOM      8  C   UNL d   1       1.320   0.354  -0.000  0.00  0.00    -0.024 A 
ATOM      9  O   UNL d   1      -1.946  -3.136   0.001  0.00  0.00    -0.288 OA
ATOM     10  C   UNL d   1       0.606   2.657  -0.000  0.00  0.00     0.038 A 
ATOM     11  C   UNL d   1       1.626   1.711  -0.000  0.00  0.00     0.015 A 
ATOM     12  C   UNL d   1       0.758  -2.389  -0.000  0.00  0.00     0.016 A 
ATOM     13  C   UNL d   1       2.078  -1.961  -0.001  0.00  0.00     0.002 A 
ATOM     14  C   UNL d   1       2.355  -0.597  -0.001  0.00  0.00     0.012 A 
ENDROOT
BRANCH   7  15
ATOM     15  O   UNL d   1      -1.518   3.423  -0.000  0.00  0.00    -0.355 OA
ATOM     16  C   UNL d   1      -2.928   3.390   0.001  0.00  0.00     0.210 C 
ENDBRANCH   7  15
TORSDOF 1
