REMARK  7 active torsions:
REMARK  status: ('A' for Active; 'I' for Inactive)
REMARK    1  A    between atoms: C_2  and  C_1 
REMARK    2  A    between atoms: C_16  and  N_3 
REMARK    3  A    between atoms: N_20  and  C_4 
REMARK    4  A    between atoms: S_17  and  C_10 
REMARK    5  A    between atoms: C_24  and  C_16 
REMARK    6  A    between atoms: C_23  and  S_17 
REMARK    7  A    between atoms: C_22  and  C_23 
ROOT
ATOM      1  C   UNL d   1       4.013   0.192  -0.070  0.00  0.00     0.144 A 
ATOM      2  N   UNL d   1       4.625   0.706   1.059  0.00  0.00    -0.306 N 
ATOM      3  N   UNL d   1       4.944  -0.360  -0.834  0.00  0.00    -0.282 N 
ATOM      4  HN  UNL d   1       4.776  -0.868  -1.702  1.00  0.00     0.188 HD
ATOM      5  C   UNL d   1       5.971   0.514   0.854  0.00  0.00     0.163 A 
ATOM      6  N   UNL d   1       6.171  -0.136  -0.266  0.00  0.00    -0.278 N 
ATOM      7  HN  UNL d   1       7.074  -0.423  -0.645  1.00  0.00     0.189 HD
ENDROOT
BRANCH   1   8
ATOM      8  C   UNL d   1       2.624   0.213  -0.473  0.00  0.00     0.079 A 
ATOM      9  C   UNL d   1       1.975  -0.722  -1.278  0.00  0.00     0.060 A 
ATOM     10  C   UNL d   1       0.645  -0.312  -1.695  0.00  0.00     0.031 A 
ATOM     11  C   UNL d   1      -0.365  -0.841  -2.558  0.00  0.00    -0.045 A 
ATOM     12  C   UNL d   1       0.344   0.907  -1.089  0.00  0.00     0.088 A 
ATOM     13  C   UNL d   1      -1.543  -0.079  -2.711  0.00  0.00     0.032 A 
ATOM     14  C   UNL d   1      -0.303  -2.112  -3.365  0.00  0.00     0.049 C 
ATOM     15  C   UNL d   1      -1.703   1.125  -2.041  0.00  0.00     0.006 A 
ATOM     16  N   UNL d   1      -0.782   1.638  -1.214  0.00  0.00    -0.354 N 
ATOM     17  C   UNL d   1      -2.944   1.940  -2.258  0.00  0.00     0.068 C 
ATOM     18  HN  UNL d   1      -0.922   2.518  -0.717  1.00  0.00     0.166 HD
ATOM     19  S   UNL d   1       1.591   1.522  -0.120  0.00  0.00    -0.065 SA
BRANCH   9  20
ATOM     20  N   UNL d   1       2.588  -1.877  -1.653  0.00  0.00    -0.397 N 
ATOM     21  H   UNL d   1       3.598  -1.953  -1.504  0.00  0.00     0.156 HD
ATOM     22  H   UNL d   1       2.309  -2.388  -2.478  0.00  0.00     0.156 HD
ENDBRANCH   9  20
ENDBRANCH   1   8
BRANCH   2  23
ATOM     23  C   UNL d   1       4.018   1.365   2.202  0.00  0.00     0.171 C 
BRANCH  23  24
ATOM     24  C   UNL d   1       3.076   0.505   3.018  0.00  0.00    -0.040 A 
ATOM     25  C   UNL d   1       3.200  -0.890   3.132  0.00  0.00     0.009 A 
ATOM     26  C   UNL d   1       2.322  -1.617   3.939  0.00  0.00     0.001 A 
ATOM     27  C   UNL d   1       1.326  -0.966   4.662  0.00  0.00     0.000 A 
ATOM     28  C   UNL d   1       1.206   0.418   4.582  0.00  0.00     0.001 A 
ATOM     29  C   UNL d   1       2.076   1.148   3.770  0.00  0.00     0.009 A 
ENDBRANCH  23  24
ENDBRANCH   2  23
BRANCH   5  30
ATOM     30  S   UNL d   1       7.223   1.031   1.927  0.00  0.00    -0.085 SA
BRANCH  30  31
ATOM     31  C   UNL d   1       8.234   2.025   0.795  0.00  0.00     0.160 C 
BRANCH  31  32
ATOM     32  C   UNL d   1       7.579   3.351   0.427  0.00  0.00     0.132 C 
ATOM     33  O   UNL d   1       6.428   3.657   0.726  0.00  0.00    -0.298 OA
ATOM     34  C   UNL d   1       8.456   4.322  -0.331  0.00  0.00     0.091 C 
ENDBRANCH  31  32
ENDBRANCH  30  31
ENDBRANCH   5  30
TORSDOF 7
