REMARK  5 active torsions:
REMARK  status: ('A' for Active; 'I' for Inactive)
REMARK    1  A    between atoms: C_5  and  C_1 
REMARK    2  A    between atoms: N_9  and  C_2 
REMARK    3  A    between atoms: N_8  and  C_12 
REMARK       I    between atoms: C_11  and  N_9 
REMARK    4  A    between atoms: C_10  and  N_13 
REMARK       I    between atoms: N_14  and  C_11 
REMARK    5  A    between atoms: N_13  and  N_14 
ROOT
ATOM      1  N   UNL d   1       0.492  -2.158  -0.009  0.00  0.00    -0.304 N 
ATOM      2  C   UNL d   1       1.418  -3.004   0.565  0.00  0.00     0.335 C 
ATOM      3  N   UNL d   1       2.658  -2.380   0.647  0.00  0.00    -0.267 N 
ATOM      4  O   UNL d   1       1.218  -4.181   0.850  0.00  0.00    -0.246 OA
ATOM      5  H   UNL d   1       0.914  -1.592  -0.735  0.00  0.00     0.171 HD
ATOM      6  H   UNL d   1       2.695  -1.419   0.992  0.00  0.00     0.186 HD
ENDROOT
BRANCH   1   7
ATOM      7  C   UNL d   1      -0.807  -2.575  -0.264  0.00  0.00     0.097 C 
ATOM      8  C   UNL d   1      -1.487  -2.665  -1.522  0.00  0.00     0.097 C 
ATOM      9  N   UNL d   1      -2.789  -2.926  -1.316  0.00  0.00    -0.258 N 
ATOM     10  O   UNL d   1      -2.933  -3.155   0.036  0.00  0.00    -0.240 OA
ATOM     11  HN  UNL d   1      -3.525  -2.950  -2.021  1.00  0.00     0.195 HD
ATOM     12  C   UNL d   1      -1.741  -2.974   0.664  0.00  0.00     0.101 C 
ATOM     13  C   UNL d   1      -1.757  -3.166   2.126  0.00  0.00     0.081 C 
BRANCH   8  14
ATOM     14  C   UNL d   1      -0.932  -2.627  -2.883  0.00  0.00     0.038 A 
ATOM     15  C   UNL d   1      -1.175  -3.693  -3.782  0.00  0.00     0.048 A 
ATOM     16 CL   UNL d   1      -2.113  -5.098  -3.379  0.00  0.00    -0.083 Cl
ATOM     17  C   UNL d   1      -0.620  -3.700  -5.071  0.00  0.00     0.025 A 
ATOM     18  C   UNL d   1       0.214  -2.668  -5.483  0.00  0.00     0.003 A 
ATOM     19  C   UNL d   1       0.476  -1.616  -4.613  0.00  0.00     0.025 A 
ATOM     20  C   UNL d   1      -0.104  -1.581  -3.334  0.00  0.00     0.048 A 
ATOM     21 CL   UNL d   1       0.251  -0.172  -2.391  0.00  0.00    -0.083 Cl
ENDBRANCH   8  14
ENDBRANCH   1   7
BRANCH   3  22
ATOM     22  N   UNL d   1       3.720  -3.174   1.117  0.00  0.00    -0.184 NA
ATOM     23  H   UNL d   1       3.932  -3.909   0.440  0.00  0.00     0.154 HD
BRANCH  22  24
ATOM     24  C   UNL d   1       4.880  -2.430   1.440  0.00  0.00     0.126 A 
ATOM     25  C   UNL d   1       6.119  -3.064   1.648  0.00  0.00     0.078 A 
ATOM     26  C   UNL d   1       7.245  -2.267   1.897  0.00  0.00     0.035 A 
ATOM     27  C   UNL d   1       7.109  -0.888   1.993  0.00  0.00     0.019 A 
ATOM     28  C   UNL d   1       5.849  -0.347   1.817  0.00  0.00     0.089 A 
ATOM     29  N   UNL d   1       4.746  -1.080   1.540  0.00  0.00    -0.354 N 
ATOM     30  HN  UNL d   1       3.839  -0.632   1.409  1.00  0.00     0.166 HD
BRANCH  25  31
ATOM     31  N   UNL d   1       6.277  -4.480   1.599  0.00  0.00    -0.330 N 
ATOM     32  C   UNL d   1       7.424  -5.152   1.205  0.00  0.00     0.097 A 
ATOM     33  C   UNL d   1       7.181  -6.508   1.220  0.00  0.00     0.019 A 
ATOM     34  C   UNL d   1       5.863  -6.691   1.682  0.00  0.00     0.019 A 
ATOM     35  C   UNL d   1       5.344  -5.441   1.932  0.00  0.00     0.097 A 
ENDBRANCH  25  31
ENDBRANCH  22  24
ENDBRANCH   3  22
TORSDOF 5
