REMARK  4 active torsions:
REMARK  status: ('A' for Active; 'I' for Inactive)
REMARK    1  A    between atoms: C_18  and  N_6 
REMARK    2  A    between atoms: O_11  and  C_8 
REMARK    3  A    between atoms: C_12  and  O_11 
REMARK    4  A    between atoms: C_26  and  C_18 
ROOT
ATOM      1  C   UNL d   1      -0.201  -0.796  -0.063  0.00  0.00     0.147 A 
ATOM      2  C   UNL d   1      -0.473   0.542  -0.047  0.00  0.00     0.151 A 
ATOM      3  N   UNL d   1      -1.327  -1.544  -0.085  0.00  0.00    -0.305 N 
ATOM      4  HN  UNL d   1      -1.396  -2.559  -0.142  1.00  0.00     0.171 HD
ATOM      5  N   UNL d   1       1.077  -1.289  -0.044  0.00  0.00    -0.287 N 
ATOM      6  N   UNL d   1      -1.847   0.625  -0.015  0.00  0.00    -0.300 N 
ATOM      7  N   UNL d   1       1.851   0.969  -0.020  0.00  0.00    -0.269 N 
ATOM      8  C   UNL d   1      -2.314  -0.674  -0.015  0.00  0.00     0.234 A 
ATOM      9  C   UNL d   1       2.153  -0.405  -0.011  0.00  0.00     0.332 A 
ATOM     10  C   UNL d   1       0.562   1.519  -0.054  0.00  0.00     0.282 A 
ATOM     11  O   UNL d   1       3.315  -0.818   0.022  0.00  0.00    -0.246 OA
ATOM     12  O   UNL d   1       0.345   2.731  -0.093  0.00  0.00    -0.265 OA
ATOM     13  C   UNL d   1       1.345  -2.716  -0.021  0.00  0.00     0.163 C 
ATOM     14  C   UNL d   1       2.954   1.908  -0.001  0.00  0.00     0.164 C 
ENDROOT
BRANCH   8  15
ATOM     15  O   UNL d   1      -3.602  -1.013   0.091  0.00  0.00    -0.277 OA
BRANCH  15  16
ATOM     16  C   UNL d   1      -3.916  -2.277   0.565  0.00  0.00     0.102 A 
ATOM     17  C   UNL d   1      -3.227  -2.822   1.660  0.00  0.00     0.064 A 
ATOM     18  C   UNL d   1      -3.529  -4.099   2.132  0.00  0.00     0.058 A 
ATOM     19 CL   UNL d   1      -2.591  -4.708   3.448  0.00  0.00    -0.082 Cl
ATOM     20  C   UNL d   1      -4.558  -4.832   1.534  0.00  0.00     0.057 A 
ATOM     21  C   UNL d   1      -5.273  -4.284   0.463  0.00  0.00     0.052 A 
ATOM     22 CL   UNL d   1      -5.000  -6.411   2.081  0.00  0.00    -0.082 Cl
ATOM     23  C   UNL d   1      -4.953  -3.010  -0.021  0.00  0.00     0.069 A 
ATOM     24 CL   UNL d   1      -5.859  -2.386  -1.349  0.00  0.00    -0.081 Cl
ENDBRANCH  15  16
ENDBRANCH   8  15
BRANCH   6  25
ATOM     25  C   UNL d   1      -2.663   1.831  -0.033  0.00  0.00     0.171 C 
BRANCH  25  26
ATOM     26  C   UNL d   1      -3.008   2.330   1.352  0.00  0.00    -0.040 A 
ATOM     27  C   UNL d   1      -2.153   3.207   2.037  0.00  0.00     0.009 A 
ATOM     28  C   UNL d   1      -2.472   3.669   3.317  0.00  0.00     0.001 A 
ATOM     29  C   UNL d   1      -3.657   3.268   3.926  0.00  0.00     0.000 A 
ATOM     30  C   UNL d   1      -4.528   2.417   3.252  0.00  0.00     0.001 A 
ATOM     31  C   UNL d   1      -4.206   1.948   1.975  0.00  0.00     0.009 A 
ENDBRANCH  25  26
ENDBRANCH   6  25
TORSDOF 4
