REMARK  13 active torsions:
REMARK  status: ('A' for Active; 'I' for Inactive)
REMARK    1  A    between atoms: S_8  and  C_1 
REMARK    2  A    between atoms: C_16  and  N_2 
REMARK    3  A    between atoms: C_10  and  S_8 
REMARK    4  A    between atoms: C_17  and  C_11 
REMARK    5  A    between atoms: C_21  and  C_15 
REMARK    6  A    between atoms: C_31  and  C_17 
REMARK       I    between atoms: C_18  and  N_20 
REMARK    7  A    between atoms: C_33  and  C_18 
REMARK    8  A    between atoms: N_20  and  C_24 
REMARK    9  A    between atoms: C_32  and  C_21 
REMARK   10  A    between atoms: C_22  and  O_30 
REMARK   11  A    between atoms: O_30  and  C_40 
REMARK   12  A    between atoms: C_41  and  C_33 
REMARK   13  A    between atoms: C_40  and  C_41 
ROOT
ATOM      1  C   UNL d   1       8.954  -4.279   2.962  0.00  0.00     0.222 C 
ATOM      2  N   UNL d   1      10.017  -4.555   2.114  0.00  0.00    -0.327 N 
ATOM      3  O   UNL d   1       8.316  -5.108   3.610  0.00  0.00    -0.273 OA
ATOM      4  H   UNL d   1      10.356  -3.802   1.524  0.00  0.00     0.169 HD
ENDROOT
BRANCH   2   5
ATOM      5  C   UNL d   1      10.490  -5.857   1.814  0.00  0.00     0.035 C 
ATOM      6  C   UNL d   1      10.117  -6.972   2.562  0.00  0.00     0.045 C 
ATOM      7  C   UNL d   1      10.409  -8.223   2.058  0.00  0.00     0.019 C 
ATOM      8  C   UNL d   1       9.959  -9.506   2.575  0.00  0.00     0.174 C 
ATOM      9  C   UNL d   1      11.108  -8.426   0.881  0.00  0.00    -0.043 C 
ATOM     10  C   UNL d   1      10.312 -10.598   1.583  0.00  0.00     0.134 C 
ATOM     11  O   UNL d   1       9.352  -9.633   3.626  0.00  0.00    -0.291 OA
ATOM     12  C   UNL d   1      11.180  -9.879   0.515  0.00  0.00     0.063 C 
ATOM     13  C   UNL d   1      11.614  -7.329   0.202  0.00  0.00     0.010 C 
ATOM     14  C   UNL d   1      11.301  -6.039   0.672  0.00  0.00     0.030 C 
BRANCH  10  15
ATOM     15  S   UNL d   1       8.741 -11.259   0.920  0.00  0.00    -0.078 SA
BRANCH  15  16
ATOM     16  C   UNL d   1       9.229 -12.787   0.275  0.00  0.00     0.178 A 
ATOM     17  N   UNL d   1       8.435 -13.924   0.137  0.00  0.00    -0.219 N 
ATOM     18  N   UNL d   1       9.270 -14.943  -0.212  0.00  0.00     0.001 NA
ATOM     19  N   UNL d   1      10.471 -14.411  -0.372  0.00  0.00    -0.006 NA
ATOM     20  N   UNL d   1      10.469 -13.083  -0.061  0.00  0.00    -0.264 N 
ATOM     21  HN  UNL d   1      11.266 -12.447  -0.085  1.00  0.00     0.186 HD
BRANCH  17  22
ATOM     22  C   UNL d   1       7.039 -14.162   0.279  0.00  0.00     0.056 A 
ATOM     23  C   UNL d   1       6.097 -13.129   0.234  0.00  0.00     0.031 A 
ATOM     24  C   UNL d   1       4.735 -13.404   0.389  0.00  0.00     0.002 A 
ATOM     25  C   UNL d   1       4.296 -14.708   0.585  0.00  0.00     0.000 A 
ATOM     26  C   UNL d   1       5.222 -15.754   0.611  0.00  0.00     0.002 A 
ATOM     27  C   UNL d   1       6.584 -15.484   0.449  0.00  0.00     0.031 A 
ENDBRANCH  17  22
ENDBRANCH  15  16
ENDBRANCH  10  15
ENDBRANCH   2   5
BRANCH   1  28
ATOM     28  C   UNL d   1       8.558  -2.820   3.040  0.00  0.00     0.105 C 
BRANCH  28  29
ATOM     29  C   UNL d   1       8.352  -2.402   4.499  0.00  0.00     0.036 C 
BRANCH  29  30
ATOM     30  C   UNL d   1       9.681  -2.285   5.251  0.00  0.00     0.176 C 
BRANCH  30  31
ATOM     31  O   UNL d   1       9.447  -1.969   6.629  0.00  0.00    -0.351 OA
BRANCH  31  32
ATOM     32  C   UNL d   1       9.740  -2.944   7.549  0.00  0.00     0.075 A 
ATOM     33  C   UNL d   1      10.222  -2.572   8.824  0.00  0.00    -0.016 A 
ATOM     34  C   UNL d   1      10.574  -3.637   9.697  0.00  0.00     0.018 A 
ATOM     35  C   UNL d   1      10.461  -5.006   9.370  0.00  0.00    -0.050 A 
ATOM     36  C   UNL d   1       9.892  -5.309   8.135  0.00  0.00     0.011 A 
ATOM     37  C   UNL d   1       9.526  -4.297   7.249  0.00  0.00     0.038 A 
BRANCH  33  38
ATOM     38  C   UNL d   1      10.478  -1.116   9.300  0.00  0.00    -0.018 C 
ATOM     39  C   UNL d   1       9.550  -0.072   8.621  0.00  0.00     0.020 C 
ATOM     40  C   UNL d   1      10.202  -0.916  10.820  0.00  0.00     0.020 C 
BRANCH  38  41
ATOM     41  C   UNL d   1      11.951  -0.702   8.986  0.00  0.00     0.009 C 
ATOM     42  C   UNL d   1      13.050  -1.531   9.647  0.00  0.00     0.006 C 
ENDBRANCH  38  41
ENDBRANCH  33  38
BRANCH  35  43
ATOM     43  C   UNL d   1      10.960  -6.082  10.349  0.00  0.00    -0.021 C 
ATOM     44  C   UNL d   1      10.916  -7.515   9.765  0.00  0.00     0.020 C 
ATOM     45  C   UNL d   1      12.452  -5.811  10.683  0.00  0.00     0.020 C 
BRANCH  43  46
ATOM     46  C   UNL d   1      10.152  -6.040  11.680  0.00  0.00     0.009 C 
ATOM     47  C   UNL d   1       8.658  -6.318  11.544  0.00  0.00     0.006 C 
ENDBRANCH  43  46
ENDBRANCH  35  43
ENDBRANCH  31  32
ENDBRANCH  30  31
ENDBRANCH  29  30
ENDBRANCH  28  29
ENDBRANCH   1  28
TORSDOF 13
