REMARK  5 active torsions:
REMARK  status: ('A' for Active; 'I' for Inactive)
REMARK    1  A    between atoms: N_6  and  C_1 
REMARK       I    between atoms: C_8  and  N_6 
REMARK    2  A    between atoms: C_13  and  C_8 
REMARK    3  A    between atoms: N_14  and  C_13 
REMARK    4  A    between atoms: C_17  and  N_14 
REMARK    5  A    between atoms: C_18  and  N_14 
ROOT
ATOM      1  C   UNL d   1       2.597  -0.749   0.006  0.00  0.00     0.098 A 
ATOM      2  C   UNL d   1       1.349  -1.210  -0.365  0.00  0.00     0.085 A 
ATOM      3  C   UNL d   1       0.342  -0.194  -0.173  0.00  0.00    -0.021 A 
ATOM      4  C   UNL d   1       0.883   0.946   0.396  0.00  0.00    -0.007 A 
ATOM      5  S   UNL d   1       2.574   0.866   0.541  0.00  0.00    -0.075 SA
ATOM      6  C   UNL d   1       1.097  -2.489  -0.965  0.00  0.00     0.103 C 
ATOM      7  N   UNL d   1       0.848  -3.485  -1.510  0.00  0.00    -0.191 NA
ATOM      8  C   UNL d   1      -1.124  -0.297  -0.498  0.00  0.00     0.042 C 
ATOM      9  C   UNL d   1       0.113   2.174   0.782  0.00  0.00     0.051 C 
ATOM     10  C   UNL d   1      -1.849   1.057  -0.370  0.00  0.00     0.009 C 
ATOM     11  C   UNL d   1      -1.401   1.882   0.857  0.00  0.00    -0.014 C 
ATOM     12  C   UNL d   1      -1.790   1.199   2.173  0.00  0.00     0.010 C 
ENDROOT
BRANCH   1  13
ATOM     13  N   UNL d   1       3.858  -1.305   0.020  0.00  0.00    -0.319 N 
ATOM     14  C   UNL d   1       4.082  -2.554   0.566  0.00  0.00     0.251 C 
ATOM     15  O   UNL d   1       3.200  -3.318   0.967  0.00  0.00    -0.271 OA
ATOM     16  H   UNL d   1       4.652  -0.673   0.093  0.00  0.00     0.169 HD
BRANCH  14  17
ATOM     17  C   UNL d   1       5.561  -2.952   0.630  0.00  0.00     0.374 C 
BRANCH  17  18
ATOM     18  N   UNL d   1       6.503  -1.804   0.806  0.00  0.00     0.096 N 
BRANCH  18  19
ATOM     19  C   UNL d   1       6.313  -1.074   2.077  0.00  0.00     0.268 C 
ATOM     20  C   UNL d   1       6.571  -1.832   3.373  0.00  0.00     0.037 C 
ENDBRANCH  18  19
BRANCH  18  21
ATOM     21  C   UNL d   1       7.881  -2.333   0.655  0.00  0.00     0.268 C 
ATOM     22  C   UNL d   1       8.990  -1.288   0.734  0.00  0.00     0.037 C 
ENDBRANCH  18  21
ENDBRANCH  17  18
ENDBRANCH  14  17
ENDBRANCH   1  13
TORSDOF 5
