REMARK  6 active torsions:
REMARK  status: ('A' for Active; 'I' for Inactive)
REMARK    1  A    between atoms: C_15  and  C_3 
REMARK    2  A    between atoms: C_8  and  C_4 
REMARK    3  A    between atoms: C_7  and  C_12 
REMARK    4  A    between atoms: C_10  and  C_8 
REMARK       I    between atoms: C_9  and  N_11 
REMARK    5  A    between atoms: C_14  and  C_9 
REMARK       I    between atoms: N_13  and  C_10 
REMARK    6  A    between atoms: N_11  and  N_13 
ROOT
ATOM      1  C   UNL d   1       1.980  -2.692  -0.612  0.00  0.00     0.241 C 
ATOM      2  N   UNL d   1       2.842  -1.903   0.116  0.00  0.00    -0.267 N 
ATOM      3  O   UNL d   1       2.392  -3.450  -1.496  0.00  0.00    -0.271 OA
ATOM      4  H   UNL d   1       2.525  -1.308   0.889  0.00  0.00     0.190 HD
ENDROOT
BRANCH   1   5
ATOM      5  C   UNL d   1       0.513  -2.658  -0.215  0.00  0.00     0.162 C 
BRANCH   5   6
ATOM      6  C   UNL d   1       0.028  -1.334   0.287  0.00  0.00     0.031 A 
ATOM      7  N   UNL d   1       0.600  -0.834   1.451  0.00  0.00    -0.352 N 
ATOM      8  C   UNL d   1       0.043   0.311   1.798  0.00  0.00     0.085 A 
ATOM      9  HN  UNL d   1       1.351  -1.291   1.969  1.00  0.00     0.166 HD
ATOM     10  S   UNL d   1      -1.205   0.842   0.741  0.00  0.00    -0.075 SA
ATOM     11  C   UNL d   1      -0.961  -0.529  -0.257  0.00  0.00     0.004 A 
ATOM     12  C   UNL d   1      -1.776  -0.706  -1.490  0.00  0.00     0.058 C 
BRANCH   8  13
ATOM     13  C   UNL d   1       0.489   1.147   2.922  0.00  0.00    -0.002 A 
ATOM     14  C   UNL d   1       1.847   1.136   3.278  0.00  0.00     0.014 A 
ATOM     15  C   UNL d   1       2.331   1.967   4.291  0.00  0.00     0.001 A 
ATOM     16  C   UNL d   1       1.460   2.811   4.975  0.00  0.00     0.000 A 
ATOM     17  C   UNL d   1       0.103   2.810   4.660  0.00  0.00     0.001 A 
ATOM     18  C   UNL d   1      -0.381   1.981   3.644  0.00  0.00     0.014 A 
ENDBRANCH   8  13
ENDBRANCH   5   6
ENDBRANCH   1   5
BRANCH   2  19
ATOM     19  N   UNL d   1       4.215  -1.958  -0.162  0.00  0.00    -0.263 N 
ATOM     20  C   UNL d   1       5.086  -1.267   0.660  0.00  0.00     0.270 C 
ATOM     21  O   UNL d   1       4.691  -0.577   1.596  0.00  0.00    -0.266 OA
ATOM     22  H   UNL d   1       4.479  -2.553  -0.940  0.00  0.00     0.190 HD
BRANCH  20  23
ATOM     23  C   UNL d   1       6.557  -1.379   0.382  0.00  0.00     0.033 A 
ATOM     24  C   UNL d   1       7.106  -2.201  -0.611  0.00  0.00     0.018 A 
ATOM     25  C   UNL d   1       8.496  -2.266  -0.790  0.00  0.00     0.017 A 
ATOM     26  C   UNL d   1       9.365  -1.515   0.016  0.00  0.00     0.048 A 
ATOM     27  C   UNL d   1       8.814  -0.686   1.001  0.00  0.00     0.017 A 
ATOM     28  C   UNL d   1       7.427  -0.621   1.181  0.00  0.00     0.018 A 
BRANCH  26  29
ATOM     29  C   UNL d   1      10.866  -1.592  -0.152  0.00  0.00     0.417 C 
ATOM     30  F   UNL d   1      11.261  -2.463  -1.122  0.00  0.00    -0.166 F 
ATOM     31  F   UNL d   1      11.417  -0.391  -0.481  0.00  0.00    -0.166 F 
ATOM     32  F   UNL d   1      11.496  -1.993   0.987  0.00  0.00    -0.166 F 
ENDBRANCH  26  29
ENDBRANCH  20  23
ENDBRANCH   2  19
TORSDOF 6
