REMARK  2 active torsions:
REMARK  status: ('A' for Active; 'I' for Inactive)
REMARK    1  A    between atoms: C_4  and  C_1 
REMARK       I    between atoms: C_14  and  N_5 
REMARK    2  A    between atoms: C_17  and  N_15 
ROOT
ATOM      1  N   UNL d   1      -1.547   3.298   0.848  0.00  0.00    -0.320 N 
ATOM      2  HN  UNL d   1      -1.924   2.876   1.697  1.00  0.00     0.169 HD
ATOM      3  C   UNL d   1      -0.745   2.649  -0.080  0.00  0.00     0.127 A 
ATOM      4  C   UNL d   1      -1.748   4.540   0.464  0.00  0.00     0.167 A 
ATOM      5  N   UNL d   1      -0.301   3.318  -1.146  0.00  0.00    -0.309 N 
ATOM      6  HN  UNL d   1       0.308   2.960  -1.882  1.00  0.00     0.176 HD
ATOM      7  S   UNL d   1      -0.937   4.853  -1.038  0.00  0.00     0.024 SA
ATOM      8  N   UNL d   1      -2.480   5.507   1.069  0.00  0.00    -0.335 N 
ATOM      9  H   UNL d   1      -2.568   6.386   0.573  0.00  0.00     0.168 HD
ENDROOT
BRANCH   3  10
ATOM     10  C   UNL d   1      -0.399   1.244   0.146  0.00  0.00     0.050 A 
ATOM     11  C   UNL d   1       0.433   0.444  -0.603  0.00  0.00     0.137 A 
ATOM     12  N   UNL d   1       0.471  -0.789   0.013  0.00  0.00    -0.235 N 
ATOM     13  C   UNL d   1       1.216  -1.914  -0.388  0.00  0.00     0.238 C 
ATOM     14  N   UNL d   1      -0.325  -0.820   1.112  0.00  0.00    -0.295 N 
ATOM     15  O   UNL d   1       1.915  -1.843  -1.397  0.00  0.00    -0.272 OA
ATOM     16  C   UNL d   1       1.120  -3.129   0.486  0.00  0.00     0.119 C 
ATOM     17  C   UNL d   1      -0.857   0.408   1.192  0.00  0.00     0.038 A 
ATOM     18  HN  UNL d   1      -0.484  -1.607   1.742  1.00  0.00     0.187 HD
ATOM     19  C   UNL d   1      -1.797   0.720   2.298  0.00  0.00     0.070 C 
ENDBRANCH   3  10
BRANCH   8  20
ATOM     20  C   UNL d   1      -2.891   5.589   2.414  0.00  0.00     0.034 A 
ATOM     21  C   UNL d   1      -2.575   4.638   3.391  0.00  0.00     0.029 A 
ATOM     22  C   UNL d   1      -3.014   4.779   4.712  0.00  0.00     0.002 A 
ATOM     23  C   UNL d   1      -3.795   5.871   5.077  0.00  0.00     0.000 A 
ATOM     24  C   UNL d   1      -4.149   6.813   4.118  0.00  0.00     0.002 A 
ATOM     25  C   UNL d   1      -3.708   6.667   2.798  0.00  0.00     0.029 A 
ENDBRANCH   8  20
TORSDOF 2
