REMARK  3 active torsions:
REMARK  status: ('A' for Active; 'I' for Inactive)
REMARK    1  A    between atoms: C_2  and  S_1 
REMARK    2  A    between atoms: C_6  and  S_1 
REMARK    3  A    between atoms: C_4  and  C_3 
ROOT
ATOM      1  C   UNL d   1       0.480  -1.314   0.933  0.00  0.00     0.148 C 
ATOM      2  C   UNL d   1      -0.405  -1.089   1.929  0.00  0.00     0.072 C 
ATOM      3  C   UNL d   1       0.976  -0.296   0.075  0.00  0.00     0.112 C 
ATOM      4  N   UNL d   1       1.335   0.560  -0.624  0.00  0.00    -0.191 NA
ENDROOT
BRANCH   1   5
ATOM      5  S   UNL d   1       0.889  -2.969   0.592  0.00  0.00     0.232 S 
ATOM      6  O   UNL d   1       0.149  -3.392  -0.589  0.00  0.00    -0.215 OA
ATOM      7  O   UNL d   1       0.783  -3.755   1.812  0.00  0.00    -0.215 OA
BRANCH   5   8
ATOM      8  C   UNL d   1       2.621  -3.025   0.145  0.00  0.00     0.134 A 
ATOM      9  N   UNL d   1       3.276  -1.844   0.219  0.00  0.00    -0.356 N 
ATOM     10  C   UNL d   1       4.550  -1.840  -0.224  0.00  0.00     0.089 A 
ATOM     11  HN  UNL d   1       2.832  -1.003   0.588  1.00  0.00     0.166 HD
ATOM     12  C   UNL d   1       5.202  -2.970  -0.693  0.00  0.00     0.017 A 
ATOM     13  C   UNL d   1       4.512  -4.181  -0.708  0.00  0.00     0.004 A 
ATOM     14  C   UNL d   1       3.186  -4.218  -0.285  0.00  0.00     0.042 A 
ENDBRANCH   5   8
ENDBRANCH   1   5
BRANCH   2  15
ATOM     15  C   UNL d   1      -0.755   0.228   2.331  0.00  0.00     0.079 A 
ATOM     16  O   UNL d   1       0.176   1.236   2.404  0.00  0.00    -0.310 OA
ATOM     17  C   UNL d   1      -0.438   2.371   2.809  0.00  0.00     0.086 A 
ATOM     18  C   UNL d   1       0.189   3.601   2.980  0.00  0.00     0.038 A 
ATOM     19  C   UNL d   1      -1.784   2.134   3.030  0.00  0.00     0.000 A 
ATOM     20  C   UNL d   1      -0.622   4.655   3.409  0.00  0.00     0.003 A 
ATOM     21  C   UNL d   1      -1.987   4.464   3.642  0.00  0.00     0.001 A 
ATOM     22  C   UNL d   1      -2.587   3.208   3.455  0.00  0.00     0.014 A 
ATOM     23  C   UNL d   1      -1.978   0.754   2.736  0.00  0.00     0.051 A 
ENDBRANCH   2  15
TORSDOF 3
