REMARK  8 active torsions:
REMARK  status: ('A' for Active; 'I' for Inactive)
REMARK    1  A    between atoms: C_6  and  S_1 
REMARK    2  A    between atoms: C_7  and  S_1 
REMARK    3  A    between atoms: C_2  and  O_9 
REMARK    4  A    between atoms: C_12  and  C_2 
REMARK    5  A    between atoms: O_9  and  N_3 
REMARK    6  A    between atoms: C_5  and  C_8 
REMARK    7  A    between atoms: N_18  and  C_5 
REMARK    8  A    between atoms: C_8  and  C_7 
ROOT
ATOM      1  N   UNL d   1       0.797   1.874   3.611  0.00  0.00    -0.251 N 
ATOM      2  HN  UNL d   1       1.353   2.408   4.280  1.00  0.00     0.196 HD
ATOM      3  C   UNL d   1       0.343   0.681   3.837  0.00  0.00     0.076 C 
ENDROOT
BRANCH   3   4
ATOM      4  C   UNL d   1       0.680   0.056   5.183  0.00  0.00     0.087 C 
BRANCH   4   5
ATOM      5  C   UNL d   1       0.157   0.876   6.354  0.00  0.00     0.153 C 
BRANCH   5   6
ATOM      6  S   UNL d   1      -1.624   0.953   6.376  0.00  0.00     0.175 S 
ATOM      7  O   UNL d   1      -2.096   1.742   5.255  0.00  0.00    -0.223 OA
ATOM      8  O   UNL d   1      -2.128  -0.394   6.578  0.00  0.00    -0.223 OA
BRANCH   6   9
ATOM      9  C   UNL d   1      -1.972   1.881   7.856  0.00  0.00     0.059 A 
ATOM     10  C   UNL d   1      -2.069   3.275   7.786  0.00  0.00     0.025 A 
ATOM     11  C   UNL d   1      -2.366   4.003   8.941  0.00  0.00     0.025 A 
ATOM     12  C   UNL d   1      -2.570   3.336  10.150  0.00  0.00     0.034 A 
ATOM     13  C   UNL d   1      -2.484   1.944  10.215  0.00  0.00     0.025 A 
ATOM     14 CL   UNL d   1      -2.936   4.236  11.570  0.00  0.00    -0.084 Cl
ATOM     15  C   UNL d   1      -2.190   1.209   9.064  0.00  0.00     0.025 A 
ENDBRANCH   6   9
ENDBRANCH   5   6
ENDBRANCH   4   5
ENDBRANCH   3   4
BRANCH   3  16
ATOM     16  N   UNL d   1      -0.412  -0.063   2.968  0.00  0.00    -0.291 NA
ATOM     17  H   UNL d   1      -0.878   0.501   2.266  0.00  0.00     0.125 HD
ATOM     18  H   UNL d   1      -1.031  -0.755   3.380  0.00  0.00     0.125 HD
ENDBRANCH   3  16
BRANCH   1  19
ATOM     19  O   UNL d   1       0.431   2.350   2.326  0.00  0.00    -0.194 OA
BRANCH  19  20
ATOM     20  C   UNL d   1       0.867   3.644   2.196  0.00  0.00     0.315 C 
ATOM     21  O   UNL d   1       1.420   4.326   3.048  0.00  0.00    -0.257 OA
BRANCH  20  22
ATOM     22  C   UNL d   1       0.621   4.176   0.817  0.00  0.00     0.041 A 
ATOM     23  C   UNL d   1       1.108   5.463   0.528  0.00  0.00     0.019 A 
ATOM     24  C   UNL d   1       0.945   6.024  -0.742  0.00  0.00     0.025 A 
ATOM     25  C   UNL d   1       0.291   5.300  -1.734  0.00  0.00     0.034 A 
ATOM     26  C   UNL d   1      -0.211   4.027  -1.459  0.00  0.00     0.025 A 
ATOM     27 CL   UNL d   1       0.109   5.975  -3.305  0.00  0.00    -0.084 Cl
ATOM     28  C   UNL d   1      -0.048   3.463  -0.184  0.00  0.00     0.019 A 
ENDBRANCH  20  22
ENDBRANCH  19  20
ENDBRANCH   1  19
TORSDOF 8
