REMARK  4 active torsions:
REMARK  status: ('A' for Active; 'I' for Inactive)
REMARK    1  A    between atoms: C_13  and  N_3 
REMARK    2  A    between atoms: S_11  and  C_4 
REMARK    3  A    between atoms: C_18  and  S_11 
REMARK    4  A    between atoms: C_16  and  C_18 
REMARK       I    between atoms: N_19  and  C_16 
ROOT
ATOM      1  C   UNL d   1       0.794   0.406  -0.054  0.00  0.00     0.074 A 
ATOM      2  C   UNL d   1       1.365  -0.840  -0.137  0.00  0.00     0.092 A 
ATOM      3  N   UNL d   1       3.038   1.250   0.028  0.00  0.00    -0.258 N 
ATOM      4  C   UNL d   1       3.478  -0.083  -0.095  0.00  0.00     0.155 A 
ATOM      5  N   UNL d   1       2.691  -1.118  -0.175  0.00  0.00    -0.330 N 
ATOM      6  HN  UNL d   1       3.047  -2.070  -0.261  1.00  0.00     0.168 HD
ATOM      7  C   UNL d   1       1.665   1.556   0.045  0.00  0.00     0.268 A 
ATOM      8  C   UNL d   1      -0.634   0.373  -0.086  0.00  0.00    -0.026 A 
ATOM      9  C   UNL d   1      -1.092  -0.928  -0.076  0.00  0.00    -0.008 A 
ATOM     10  S   UNL d   1       0.174  -2.067  -0.155  0.00  0.00    -0.075 SA
ATOM     11  C   UNL d   1      -1.558   1.558  -0.064  0.00  0.00     0.041 C 
ATOM     12  O   UNL d   1       1.188   2.685   0.102  0.00  0.00    -0.267 OA
ATOM     13  C   UNL d   1      -2.538  -1.325  -0.021  0.00  0.00     0.051 C 
ATOM     14  C   UNL d   1      -3.016   1.150  -0.326  0.00  0.00     0.009 C 
ATOM     15  C   UNL d   1      -3.417  -0.133   0.432  0.00  0.00    -0.014 C 
ATOM     16  C   UNL d   1      -3.358   0.075   1.952  0.00  0.00     0.010 C 
ENDROOT
BRANCH   4  17
ATOM     17  S   UNL d   1       5.213  -0.394  -0.011  0.00  0.00    -0.084 SA
BRANCH  17  18
ATOM     18  C   UNL d   1       5.366  -2.055  -0.710  0.00  0.00     0.184 C 
BRANCH  18  19
ATOM     19  C   UNL d   1       5.037  -2.071  -2.189  0.00  0.00     0.225 C 
ATOM     20  O   UNL d   1       5.798  -1.671  -3.064  0.00  0.00    -0.273 OA
ATOM     21  N   UNL d   1       3.812  -2.582  -2.515  0.00  0.00    -0.369 N 
ATOM     22  H   UNL d   1       3.071  -2.598  -1.819  0.00  0.00     0.159 HD
ATOM     23  H   UNL d   1       3.536  -2.523  -3.486  0.00  0.00     0.159 HD
ENDBRANCH  18  19
ENDBRANCH  17  18
ENDBRANCH   4  17
BRANCH   3  24
ATOM     24  C   UNL d   1       3.905   2.389   0.047  0.00  0.00     0.044 A 
ATOM     25  C   UNL d   1       3.774   3.345   1.069  0.00  0.00     0.030 A 
ATOM     26  C   UNL d   1       4.456   4.560   1.002  0.00  0.00     0.002 A 
ATOM     27  C   UNL d   1       5.272   4.832  -0.092  0.00  0.00     0.000 A 
ATOM     28  C   UNL d   1       5.434   3.881  -1.099  0.00  0.00     0.002 A 
ATOM     29  C   UNL d   1       4.756   2.661  -1.032  0.00  0.00     0.030 A 
ENDBRANCH   3  24
TORSDOF 4
