REMARK  2 active torsions:
REMARK  status: ('A' for Active; 'I' for Inactive)
REMARK    1  A    between atoms: C_4  and  C_1 
REMARK    2  A    between atoms: O_11  and  C_3 
REMARK       I    between atoms: N_10  and  C_4 
ROOT
ATOM      1  C   UNL d   1      -1.192  -0.801  -0.593  0.00  0.00     0.111 C 
ATOM      2  C   UNL d   1       0.071  -1.131   0.242  0.00  0.00     0.001 C 
ATOM      3  C   UNL d   1      -1.190   0.741  -0.595  0.00  0.00     0.135 C 
ATOM      4  C   UNL d   1      -0.012   1.096   0.336  0.00  0.00     0.015 C 
ATOM      5  C   UNL d   1      -0.015  -0.064   1.336  0.00  0.00     0.012 C 
ATOM      6  C   UNL d   1       1.362  -0.695  -0.480  0.00  0.00     0.006 C 
ATOM      7  C   UNL d   1       1.292   0.838  -0.434  0.00  0.00     0.007 C 
ENDROOT
BRANCH   1   8
ATOM      8  C   UNL d   1      -1.202  -1.438  -1.970  0.00  0.00     0.222 C 
ATOM      9  O   UNL d   1      -0.559  -2.441  -2.263  0.00  0.00    -0.273 OA
ATOM     10  N   UNL d   1      -2.064  -0.891  -2.873  0.00  0.00    -0.370 N 
ATOM     11  H   UNL d   1      -2.688  -0.126  -2.649  0.00  0.00     0.159 HD
ATOM     12  H   UNL d   1      -2.123  -1.319  -3.788  0.00  0.00     0.159 HD
ENDBRANCH   1   8
BRANCH   3  13
ATOM     13  O   UNL d   1      -2.422   1.243  -0.086  0.00  0.00    -0.394 OA
ATOM     14  H   UNL d   1      -2.471   1.046   0.865  0.00  0.00     0.210 HD
ENDBRANCH   3  13
TORSDOF 2
