REMARK  2 active torsions:
REMARK  status: ('A' for Active; 'I' for Inactive)
REMARK    1  A    between atoms: C_2  and  C_1 
REMARK       I    between atoms: N_6  and  C_2 
REMARK    2  A    between atoms: O_11  and  C_8 
ROOT
ATOM      1  C   UNL d   1       0.895  -1.198  -0.014  0.00  0.00     0.051 A 
ATOM      2  C   UNL d   1       0.268   0.058  -0.020  0.00  0.00     0.026 A 
ATOM      3  C   UNL d   1       2.308  -1.248   0.006  0.00  0.00     0.055 A 
ATOM      4  C   UNL d   1       1.044   1.226  -0.012  0.00  0.00     0.023 A 
ATOM      5  C   UNL d   1       3.078  -0.084   0.013  0.00  0.00     0.069 A 
ATOM      6 BR   UNL d   1      -1.613   0.330   0.005  0.00  0.00    -0.050 Br
ATOM      7  C   UNL d   1       2.437   1.153   0.003  0.00  0.00     0.038 A 
ENDROOT
BRANCH   1   8
ATOM      8  C   UNL d   1       0.214  -2.532  -0.001  0.00  0.00     0.252 C 
ATOM      9  O   UNL d   1       0.779  -3.493   0.524  0.00  0.00    -0.268 OA
ATOM     10  N   UNL d   1      -1.002  -2.646  -0.637  0.00  0.00    -0.361 N 
ATOM     11  C   UNL d   1      -1.744  -3.884  -0.706  0.00  0.00     0.149 C 
ATOM     12  H   UNL d   1      -1.422  -1.823  -1.054  0.00  0.00     0.162 HD
ENDBRANCH   1   8
BRANCH   5  13
ATOM     13  O   UNL d   1       4.442  -0.013   0.030  0.00  0.00    -0.356 OA
ATOM     14  C   UNL d   1       5.154  -1.245   0.044  0.00  0.00     0.210 C 
ENDBRANCH   5  13
TORSDOF 2
