REMARK  4 active torsions:
REMARK  status: ('A' for Active; 'I' for Inactive)
REMARK    1  A    between atoms: C_7  and  C_1 
REMARK    2  A    between atoms: C_13  and  C_2 
REMARK    3  A    between atoms: C_11  and  C_7 
REMARK    4  A    between atoms: C_14  and  N_8 
ROOT
ATOM      1  C   UNL d   1      -0.002   1.280   0.049  0.00  0.00     0.086 C 
ATOM      2  C   UNL d   1       1.313   0.853  -0.000  0.00  0.00     0.066 C 
ATOM      3  C   UNL d   1       0.315  -1.144   0.057  0.00  0.00     0.150 C 
ATOM      4  N   UNL d   1       1.465  -0.522  -0.012  0.00  0.00    -0.335 N 
ATOM      5  HN  UNL d   1       2.367  -0.996  -0.068  1.00  0.00     0.168 HD
ATOM      6  S   UNL d   1      -1.027  -0.093   0.278  0.00  0.00    -0.048 SA
ATOM      7  N   UNL d   1       0.151  -2.487  -0.009  0.00  0.00    -0.336 N 
ATOM      8  H   UNL d   1      -0.741  -2.888   0.246  0.00  0.00     0.168 HD
ENDROOT
BRANCH   7   9
ATOM      9  C   UNL d   1       1.078  -3.393  -0.562  0.00  0.00     0.036 A 
ATOM     10  C   UNL d   1       1.103  -4.719  -0.105  0.00  0.00     0.069 A 
ATOM     11  C   UNL d   1       2.085  -5.607  -0.555  0.00  0.00     0.104 A 
ATOM     12  O   UNL d   1       2.068  -6.871  -0.016  0.00  0.00    -0.346 OA
ATOM     13  C   UNL d   1       3.032  -5.198  -1.498  0.00  0.00     0.102 A 
ATOM     14  C   UNL d   1       3.317  -7.538  -0.236  0.00  0.00     0.202 C 
ATOM     15  C   UNL d   1       3.758  -7.390  -1.683  0.00  0.00     0.202 C 
ATOM     16  O   UNL d   1       4.011  -6.017  -1.996  0.00  0.00    -0.346 OA
ATOM     17  C   UNL d   1       3.023  -3.890  -1.960  0.00  0.00     0.042 A 
ATOM     18  C   UNL d   1       2.061  -2.998  -1.487  0.00  0.00     0.032 A 
ENDBRANCH   7   9
BRANCH   1  19
ATOM     19  C   UNL d   1      -0.547   2.622   0.068  0.00  0.00     0.201 C 
ATOM     20  O   UNL d   1      -0.058   3.523   0.748  0.00  0.00    -0.286 OA
BRANCH  19  21
ATOM     21  C   UNL d   1      -1.725   2.982  -0.790  0.00  0.00     0.016 A 
ATOM     22  C   UNL d   1      -2.116   2.228  -1.908  0.00  0.00     0.018 A 
ATOM     23  C   UNL d   1      -3.237   2.605  -2.656  0.00  0.00     0.043 A 
ATOM     24  C   UNL d   1      -3.943   3.751  -2.310  0.00  0.00     0.116 A 
ATOM     25  C   UNL d   1      -3.545   4.536  -1.236  0.00  0.00     0.043 A 
ATOM     26  F   UNL d   1      -5.014   4.107  -3.029  0.00  0.00    -0.206 F 
ATOM     27  C   UNL d   1      -2.438   4.153  -0.476  0.00  0.00     0.018 A 
ENDBRANCH  19  21
ENDBRANCH   1  19
BRANCH   2  28
ATOM     28  C   UNL d   1       2.514   1.679  -0.071  0.00  0.00    -0.008 A 
ATOM     29  C   UNL d   1       3.664   1.247   0.615  0.00  0.00     0.014 A 
ATOM     30  C   UNL d   1       4.855   1.974   0.548  0.00  0.00     0.001 A 
ATOM     31  C   UNL d   1       4.912   3.139  -0.210  0.00  0.00     0.000 A 
ATOM     32  C   UNL d   1       3.784   3.572  -0.904  0.00  0.00     0.001 A 
ATOM     33  C   UNL d   1       2.592   2.843  -0.841  0.00  0.00     0.014 A 
ENDBRANCH   2  28
TORSDOF 4
