REMARK  3 active torsions:
REMARK  status: ('A' for Active; 'I' for Inactive)
REMARK    1  A    between atoms: C_3  and  C_1 
REMARK    2  A    between atoms: C_6  and  C_2 
REMARK       I    between atoms: N_7  and  C_3 
REMARK    3  A    between atoms: C_13  and  N_7 
ROOT
ATOM      1  C   UNL d   1      -0.324  -1.352  -0.085  0.00  0.00     0.093 C 
ATOM      2  C   UNL d   1      -0.056  -0.200   0.757  0.00  0.00     0.088 C 
ATOM      3  N   UNL d   1      -0.862   0.811   0.383  0.00  0.00    -0.259 N 
ATOM      4  HN  UNL d   1      -0.976   1.702   0.868  1.00  0.00     0.195 HD
ATOM      5  O   UNL d   1      -1.497   0.429  -0.757  0.00  0.00    -0.241 OA
ATOM      6  C   UNL d   1      -1.161  -0.841  -1.067  0.00  0.00     0.090 C 
ATOM      7  C   UNL d   1      -1.751  -1.326  -2.333  0.00  0.00     0.080 C 
ENDROOT
BRANCH   1   8
ATOM      8  C   UNL d   1       0.244  -2.698  -0.042  0.00  0.00     0.258 C 
ATOM      9  N   UNL d   1      -0.602  -3.828  -0.153  0.00  0.00    -0.347 N 
ATOM     10  C   UNL d   1      -2.060  -3.777  -0.242  0.00  0.00     0.153 C 
ATOM     11  O   UNL d   1       1.466  -2.818   0.088  0.00  0.00    -0.267 OA
BRANCH   9  12
ATOM     12  C   UNL d   1       0.024  -5.171  -0.126  0.00  0.00     0.087 C 
ATOM     13  C   UNL d   1      -0.731  -6.200   0.737  0.00  0.00     0.025 C 
ATOM     14  C   UNL d   1       0.100  -7.468   0.909  0.00  0.00     0.002 C 
ATOM     15  C   UNL d   1       0.499  -8.079  -0.433  0.00  0.00     0.000 C 
ATOM     16  C   UNL d   1       1.080  -7.058  -1.414  0.00  0.00     0.002 C 
ATOM     17  C   UNL d   1       0.232  -5.781  -1.522  0.00  0.00     0.025 C 
ENDBRANCH   9  12
ENDBRANCH   1   8
BRANCH   2  18
ATOM     18  C   UNL d   1       0.810   0.020   1.930  0.00  0.00     0.054 A 
ATOM     19  C   UNL d   1       0.978  -0.980   2.899  0.00  0.00     0.130 A 
ATOM     20  F   UNL d   1       0.439  -2.196   2.727  0.00  0.00    -0.205 F 
ATOM     21  C   UNL d   1       1.655  -0.744   4.101  0.00  0.00     0.043 A 
ATOM     22  C   UNL d   1       2.165   0.514   4.390  0.00  0.00     0.005 A 
ATOM     23  C   UNL d   1       2.046   1.526   3.443  0.00  0.00     0.025 A 
ATOM     24  C   UNL d   1       1.402   1.277   2.216  0.00  0.00     0.049 A 
ATOM     25 CL   UNL d   1       1.427   2.610   1.101  0.00  0.00    -0.083 Cl
ENDBRANCH   2  18
TORSDOF 3
