REMARK  0 active torsions:
REMARK  status: ('A' for Active; 'I' for Inactive)
ROOT
ATOM      1  O   UNL d   1      -1.189   1.436  -0.281  0.00  0.00    -0.274 OA
ATOM      2  C   UNL d   1      -2.392   0.753  -0.255  0.00  0.00     0.288 C 
ATOM      3  O   UNL d   1      -1.168  -1.438  -0.109  0.00  0.00    -0.339 OA
ATOM      4  C   UNL d   1      -0.018   0.690  -0.110  0.00  0.00     0.112 A 
ATOM      5  C   UNL d   1      -0.024  -0.700  -0.058  0.00  0.00     0.103 A 
ATOM      6  O   UNL d   1      -3.453   1.301  -0.538  0.00  0.00    -0.262 OA
ATOM      7  C   UNL d   1      -2.299  -0.671   0.262  0.00  0.00     0.287 C 
ATOM      8  C   UNL d   1       1.179   1.402  -0.054  0.00  0.00     0.040 A 
ATOM      9  C   UNL d   1       1.182  -1.393   0.016  0.00  0.00     0.040 A 
ATOM     10  C   UNL d   1       2.385   0.708   0.041  0.00  0.00     0.003 A 
ATOM     11  C   UNL d   1       2.387  -0.689   0.069  0.00  0.00     0.003 A 
ENDROOT
TORSDOF 0
