REMARK  3 active torsions:
REMARK  status: ('A' for Active; 'I' for Inactive)
REMARK       I    between atoms: C_9  and  N_13 
REMARK       I    between atoms: N_16  and  C_9 
REMARK    1  A    between atoms: N_13  and  C_10 
REMARK    2  A    between atoms: C_11  and  C_17 
REMARK    3  A    between atoms: C_24  and  N_16 
ROOT
ATOM      1  C   UNL d   1      -4.665  -0.547  -0.094  0.00  0.00     0.325 C 
ATOM      2  N   UNL d   1      -5.821  -1.231   0.246  0.00  0.00    -0.309 N 
ATOM      3  N   UNL d   1      -4.862   0.826  -0.093  0.00  0.00    -0.309 N 
ATOM      4  O   UNL d   1      -3.596  -1.083  -0.362  0.00  0.00    -0.247 OA
ATOM      5  H   UNL d   1      -6.644  -0.671   0.404  0.00  0.00     0.170 HD
ATOM      6  H   UNL d   1      -5.618   1.182   0.470  0.00  0.00     0.170 HD
ENDROOT
BRANCH   2   7
ATOM      7  C   UNL d   1      -5.969  -2.637   0.358  0.00  0.00     0.038 A 
ATOM      8  C   UNL d   1      -4.924  -3.536   0.061  0.00  0.00     0.062 A 
ATOM      9  C   UNL d   1      -5.176  -4.914   0.275  0.00  0.00     0.069 A 
ATOM     10  C   UNL d   1      -6.510  -5.382   0.778  0.00  0.00     0.067 A 
ATOM     11  N   UNL d   1      -4.305  -5.916   0.072  0.00  0.00    -0.310 N 
ATOM     12  N   UNL d   1      -6.577  -6.712   0.946  0.00  0.00    -0.310 N 
ATOM     13  C   UNL d   1      -7.547  -4.457   1.033  0.00  0.00     0.035 A 
ATOM     14  S   UNL d   1      -5.091  -7.313   0.504  0.00  0.00     0.068 SA
ATOM     15  HN  UNL d   1      -7.380  -7.246   1.278  1.00  0.00     0.176 HD
ATOM     16  C   UNL d   1      -7.237  -3.099   0.808  0.00  0.00     0.032 A 
ATOM     17  HN  UNL d   1      -3.351  -5.835  -0.277  1.00  0.00     0.176 HD
ENDBRANCH   2   7
BRANCH   3  18
ATOM     18  C   UNL d   1      -3.972   1.778  -0.639  0.00  0.00     0.036 A 
ATOM     19  C   UNL d   1      -2.931   1.436  -1.503  0.00  0.00     0.030 A 
ATOM     20  C   UNL d   1      -2.131   2.421  -2.089  0.00  0.00     0.015 A 
ATOM     21  C   UNL d   1      -2.352   3.778  -1.831  0.00  0.00    -0.019 A 
ATOM     22  C   UNL d   1      -3.376   4.117  -0.935  0.00  0.00     0.015 A 
ATOM     23  C   UNL d   1      -4.182   3.129  -0.349  0.00  0.00     0.030 A 
BRANCH  21  24
ATOM     24  C   UNL d   1      -1.603   4.821  -2.553  0.00  0.00     0.015 A 
ATOM     25  S   UNL d   1       0.056   4.608  -2.958  0.00  0.00    -0.101 SA
ATOM     26  C   UNL d   1       0.110   6.072  -3.835  0.00  0.00     0.050 A 
ATOM     27  C   UNL d   1      -1.086   6.750  -3.778  0.00  0.00     0.008 A 
ATOM     28  C   UNL d   1      -2.065   6.038  -3.025  0.00  0.00     0.020 A 
ENDBRANCH  21  24
ENDBRANCH   3  18
TORSDOF 3
