REMARK  4 active torsions:
REMARK  status: ('A' for Active; 'I' for Inactive)
REMARK    1  A    between atoms: C_8  and  N_3 
REMARK    2  A    between atoms: C_9  and  C_6 
REMARK    3  A    between atoms: C_10  and  C_8 
REMARK    4  A    between atoms: O_14  and  C_10 
ROOT
ATOM      1  N   UNL d   1      -0.429  -0.873   0.791  0.00  0.00    -0.268 N 
ATOM      2  HN  UNL d   1      -0.662  -1.558   1.510  1.00  0.00     0.190 HD
ATOM      3  N   UNL d   1       0.776  -0.413   0.389  0.00  0.00    -0.206 N 
ATOM      4  N   UNL d   1      -0.522   0.587  -0.935  0.00  0.00    -0.266 N 
ATOM      5  HN  UNL d   1      -0.911   1.170  -1.677  1.00  0.00     0.186 HD
ATOM      6  C   UNL d   1      -1.236  -0.169  -0.031  0.00  0.00     0.144 A 
ATOM      7  N   UNL d   1       0.762   0.414  -0.663  0.00  0.00    -0.002 NA
ENDROOT
BRANCH   6   8
ATOM      8  C   UNL d   1      -2.694  -0.196  -0.007  0.00  0.00     0.010 A 
ATOM      9  C   UNL d   1      -3.427   0.434  -1.023  0.00  0.00     0.016 A 
ATOM     10  C   UNL d   1      -4.825   0.400  -1.023  0.00  0.00     0.007 A 
ATOM     11  C   UNL d   1      -5.519  -0.260  -0.003  0.00  0.00    -0.062 A 
ATOM     12  C   UNL d   1      -4.793  -0.873   1.023  0.00  0.00     0.007 A 
ATOM     13  C   UNL d   1      -7.018  -0.315  -0.034  0.00  0.00     0.048 C 
ATOM     14  C   UNL d   1      -3.393  -0.841   1.023  0.00  0.00     0.016 A 
ENDBRANCH   6   8
BRANCH   3  15
ATOM     15  C   UNL d   1       1.998  -0.863   1.004  0.00  0.00     0.276 C 
BRANCH  15  16
ATOM     16  C   UNL d   1       2.404  -2.221   0.513  0.00  0.00     0.161 C 
ATOM     17  O   UNL d   1       3.577  -2.544   0.381  0.00  0.00    -0.649 OA
BRANCH  16  18
ATOM     18  O   UNL d   1       1.406  -3.116   0.324  0.00  0.00    -0.775 OA
ATOM     19  H   UNL d   1       0.494  -2.783   0.494  0.00  0.00     0.167 HD
ENDBRANCH  16  18
ENDBRANCH  15  16
ENDBRANCH   3  15
TORSDOF 4
