REMARK  9 active torsions:
REMARK  status: ('A' for Active; 'I' for Inactive)
REMARK    1  A    between atoms: C_2  and  S_1 
REMARK    2  A    between atoms: C_3  and  S_1 
REMARK    3  A    between atoms: C_10  and  C_3 
REMARK    4  A    between atoms: O_17  and  C_7 
REMARK    5  A    between atoms: O_8  and  C_14 
REMARK    6  A    between atoms: C_9  and  O_8 
REMARK    7  A    between atoms: C_14  and  C_10 
REMARK    8  A    between atoms: O_18  and  C_10 
REMARK    9  A    between atoms: O_19  and  C_13 
ROOT
ATOM      1  S   UNL d   1       0.703   0.114  -0.043  0.00  0.00     0.180 S 
ATOM      2  O   UNL d   1       2.110  -0.206   0.112  0.00  0.00    -0.222 OA
ATOM      3  O   UNL d   1       0.252   1.479   0.165  0.00  0.00    -0.222 OA
ENDROOT
BRANCH   1   4
ATOM      4  C   UNL d   1      -0.185  -0.897   1.147  0.00  0.00     0.095 A 
ATOM      5  C   UNL d   1       0.607  -1.781   1.923  0.00  0.00     0.063 A 
ATOM      6  C   UNL d   1       0.084  -2.429   3.045  0.00  0.00     0.069 A 
ATOM      7  C   UNL d   1      -1.260  -2.259   3.362  0.00  0.00     0.039 A 
ATOM      8  C   UNL d   1      -2.052  -1.393   2.609  0.00  0.00     0.041 A 
ATOM      9  C   UNL d   1      -1.522  -0.686   1.515  0.00  0.00     0.089 A 
BRANCH   6  10
ATOM     10  O   UNL d   1       0.778  -3.215   3.921  0.00  0.00    -0.356 OA
ATOM     11  C   UNL d   1       2.199  -3.163   3.848  0.00  0.00     0.210 C 
ENDBRANCH   6  10
BRANCH   9  12
ATOM     12  O   UNL d   1      -2.364   0.296   1.075  0.00  0.00    -0.354 OA
ATOM     13  C   UNL d   1      -2.724   0.265  -0.295  0.00  0.00     0.210 C 
ENDBRANCH   9  12
ENDBRANCH   1   4
BRANCH   1  14
ATOM     14  C   UNL d   1       0.242  -0.426  -1.685  0.00  0.00     0.179 C 
BRANCH  14  15
ATOM     15  C   UNL d   1       1.105   0.240  -2.765  0.00  0.00     0.156 C 
BRANCH  15  16
ATOM     16  C   UNL d   1       0.627  -0.129  -4.183  0.00  0.00     0.208 C 
BRANCH  16  17
ATOM     17  O   UNL d   1       0.722  -1.530  -4.419  0.00  0.00    -0.347 OA
BRANCH  17  18
ATOM     18  C   UNL d   1       0.305  -1.943  -5.665  0.00  0.00     0.090 A 
ATOM     19  C   UNL d   1       0.991  -3.006  -6.273  0.00  0.00     0.067 A 
ATOM     20 CL   UNL d   1       2.393  -3.703  -5.541  0.00  0.00    -0.081 Cl
ATOM     21  C   UNL d   1       0.565  -3.521  -7.503  0.00  0.00     0.026 A 
ATOM     22  C   UNL d   1      -0.556  -2.986  -8.136  0.00  0.00     0.002 A 
ATOM     23  C   UNL d   1      -1.246  -1.933  -7.542  0.00  0.00     0.003 A 
ATOM     24  C   UNL d   1      -0.821  -1.415  -6.312  0.00  0.00     0.038 A 
ENDBRANCH  17  18
ENDBRANCH  16  17
ENDBRANCH  15  16
BRANCH  15  25
ATOM     25  O   UNL d   1       0.984   1.661  -2.676  0.00  0.00    -0.392 OA
ATOM     26  H   UNL d   1       1.807   2.059  -3.013  0.00  0.00     0.210 HD
ENDBRANCH  15  25
ENDBRANCH  14  15
ENDBRANCH   1  14
TORSDOF 9
