REMARK  6 active torsions:
REMARK  status: ('A' for Active; 'I' for Inactive)
REMARK    1  A    between atoms: N_2  and  S_1 
REMARK    2  A    between atoms: C_7  and  S_1 
REMARK    3  A    between atoms: C_3  and  N_2 
REMARK    4  A    between atoms: C_4  and  C_3 
REMARK    5  A    between atoms: C_9  and  C_3 
REMARK    6  A    between atoms: O_10  and  C_4 
ROOT
ATOM      1  N   UNL d   1       0.731  -0.874  -1.421  0.00  0.00    -0.201 NA
ATOM      2  H   UNL d   1      -0.267  -1.082  -1.334  0.00  0.00     0.141 HD
ENDROOT
BRANCH   1   3
ATOM      3  S   UNL d   1       1.255  -0.165   0.050  0.00  0.00     0.242 S 
ATOM      4  O   UNL d   1       2.430   0.623  -0.214  0.00  0.00    -0.206 OA
ATOM      5  O   UNL d   1       1.256  -1.246   1.007  0.00  0.00    -0.206 OA
BRANCH   3   6
ATOM      6  C   UNL d   1      -0.068   0.934   0.484  0.00  0.00     0.074 A 
ATOM      7  C   UNL d   1      -1.094   0.479   1.317  0.00  0.00     0.025 A 
ATOM      8  C   UNL d   1      -2.085   1.367   1.738  0.00  0.00     0.002 A 
ATOM      9  C   UNL d   1      -2.041   2.703   1.337  0.00  0.00     0.000 A 
ATOM     10  C   UNL d   1      -1.002   3.158   0.522  0.00  0.00     0.002 A 
ATOM     11  C   UNL d   1      -0.006   2.277   0.099  0.00  0.00     0.025 A 
ENDBRANCH   3   6
ENDBRANCH   1   3
BRANCH   1  12
ATOM     12  C   UNL d   1       1.038  -0.117  -2.684  0.00  0.00     0.172 C 
BRANCH  12  13
ATOM     13  C   UNL d   1       2.545  -0.096  -2.962  0.00  0.00     0.159 C 
ATOM     14  O   UNL d   1       3.094   0.720  -3.688  0.00  0.00    -0.649 OA
BRANCH  13  15
ATOM     15  O   UNL d   1       3.192  -1.161  -2.423  0.00  0.00    -0.775 OA
ATOM     16  H   UNL d   1       2.571  -1.678  -1.866  0.00  0.00     0.167 HD
ENDBRANCH  13  15
ENDBRANCH  12  13
BRANCH  12  17
ATOM     17  C   UNL d   1       0.342  -0.775  -3.910  0.00  0.00     0.006 C 
ATOM     18  C   UNL d   1       0.759  -2.232  -4.153  0.00  0.00     0.011 C 
ATOM     19  C   UNL d   1      -1.185  -0.687  -3.840  0.00  0.00     0.011 C 
ENDBRANCH  12  17
ENDBRANCH   1  12
TORSDOF 6
