REMARK  4 active torsions:
REMARK  status: ('A' for Active; 'I' for Inactive)
REMARK    1  A    between atoms: C_9  and  C_1 
REMARK    2  A    between atoms: O_8  and  C_2 
REMARK    3  A    between atoms: C_12  and  C_9 
REMARK    4  A    between atoms: C_13  and  C_12 
ROOT
ATOM      1  C   UNL d   1       1.800  -0.824   0.047  0.00  0.00     0.051 C 
ATOM      2  C   UNL d   1       0.572  -1.378   0.064  0.00  0.00     0.091 C 
ATOM      3  C   UNL d   1       1.940   0.661  -0.038  0.00  0.00     0.297 C 
ATOM      4  O   UNL d   1       0.791   1.429   0.051  0.00  0.00    -0.274 OA
ATOM      5  C   UNL d   1      -0.630  -0.539   0.036  0.00  0.00     0.032 A 
ATOM      6  C   UNL d   1      -0.482   0.842   0.052  0.00  0.00     0.092 A 
ATOM      7  O   UNL d   1       3.037   1.196  -0.172  0.00  0.00    -0.259 OA
ATOM      8  C   UNL d   1      -1.931  -1.058  -0.004  0.00  0.00     0.017 A 
ATOM      9  C   UNL d   1      -1.577   1.708   0.047  0.00  0.00     0.038 A 
ATOM     10  C   UNL d   1      -3.041  -0.206  -0.018  0.00  0.00     0.001 A 
ATOM     11  C   UNL d   1      -2.864   1.177   0.012  0.00  0.00     0.003 A 
ENDROOT
BRANCH   1  12
ATOM     12  C   UNL d   1       3.111  -1.582   0.046  0.00  0.00     0.048 C 
BRANCH  12  13
ATOM     13  C   UNL d   1       4.023  -1.355   1.262  0.00  0.00     0.004 C 
BRANCH  13  14
ATOM     14  C   UNL d   1       3.369  -1.677   2.606  0.00  0.00    -0.004 C 
ATOM     15  C   UNL d   1       4.352  -1.476   3.750  0.00  0.00     0.005 C 
ENDBRANCH  13  14
ENDBRANCH  12  13
ENDBRANCH   1  12
BRANCH   2  16
ATOM     16  O   UNL d   1       0.316  -2.731   0.107  0.00  0.00    -0.359 OA
ATOM     17  H   UNL d   1       1.141  -3.237   0.128  0.00  0.00     0.217 HD
ENDBRANCH   2  16
TORSDOF 4
