REMARK  4 active torsions:
REMARK  status: ('A' for Active; 'I' for Inactive)
REMARK    1  A    between atoms: C_2  and  C_1 
REMARK    2  A    between atoms: N_6  and  C_3 
REMARK       I    between atoms: C_8  and  N_6 
REMARK       I    between atoms: N_10  and  C_8 
REMARK    3  A    between atoms: C_9  and  N_10 
REMARK    4  A    between atoms: O_23  and  C_17 
ROOT
ATOM      1  C   UNL d   1      -5.746  -0.897  -0.652  0.00  0.00     0.032 A 
ATOM      2  C   UNL d   1      -4.491  -0.597  -1.167  0.00  0.00     0.090 A 
ATOM      3  S   UNL d   1      -3.266  -0.990  -0.041  0.00  0.00    -0.083 SA
ATOM      4  C   UNL d   1      -5.664  -1.421   0.682  0.00  0.00     0.024 A 
ATOM      5  C   UNL d   1      -4.369  -1.533   1.128  0.00  0.00     0.053 A 
ENDROOT
BRANCH   2   6
ATOM      6  N   UNL d   1      -4.189  -0.038  -2.404  0.00  0.00    -0.302 N 
ATOM      7  C   UNL d   1      -3.010   0.401  -2.972  0.00  0.00     0.325 C 
ATOM      8  N   UNL d   1      -1.865   0.185  -2.262  0.00  0.00    -0.306 N 
ATOM      9  O   UNL d   1      -3.064   0.929  -4.080  0.00  0.00    -0.247 OA
ATOM     10  H   UNL d   1      -1.958  -0.592  -1.625  0.00  0.00     0.171 HD
ATOM     11  H   UNL d   1      -4.993   0.143  -3.004  0.00  0.00     0.171 HD
BRANCH   8  12
ATOM     12  C   UNL d   1      -0.541   0.603  -2.519  0.00  0.00     0.071 A 
ATOM     13  C   UNL d   1       0.455  -0.258  -2.023  0.00  0.00     0.056 A 
ATOM     14  C   UNL d   1       1.808   0.006  -2.237  0.00  0.00     0.036 A 
ATOM     15 CL   UNL d   1       2.993  -1.104  -1.667  0.00  0.00    -0.084 Cl
ATOM     16  C   UNL d   1       2.199   1.149  -2.923  0.00  0.00     0.026 A 
ATOM     17  C   UNL d   1       1.224   2.032  -3.387  0.00  0.00     0.041 A 
ATOM     18  C   UNL d   1      -0.141   1.778  -3.174  0.00  0.00     0.095 A 
BRANCH  18  19
ATOM     19  O   UNL d   1      -0.977   2.751  -3.646  0.00  0.00    -0.354 OA
ATOM     20  C   UNL d   1      -1.702   3.416  -2.614  0.00  0.00     0.210 C 
ENDBRANCH  18  19
ENDBRANCH   8  12
ENDBRANCH   2   6
BRANCH   1  21
ATOM     21  C   UNL d   1      -7.056  -0.703  -1.383  0.00  0.00     0.088 A 
ATOM     22  N   UNL d   1      -7.129  -0.441  -2.671  0.00  0.00    -0.349 N 
ATOM     23  C   UNL d   1      -8.466  -0.420  -3.072  0.00  0.00     0.050 A 
ATOM     24  HN  UNL d   1      -6.330  -0.277  -3.283  1.00  0.00     0.166 HD
ATOM     25  C   UNL d   1      -8.948  -0.256  -4.388  0.00  0.00     0.031 A 
ATOM     26  C   UNL d   1      -9.400  -0.588  -2.048  0.00  0.00     0.033 A 
ATOM     27  C   UNL d   1     -10.328  -0.254  -4.634  0.00  0.00     0.002 A 
ATOM     28  C   UNL d   1     -11.235  -0.399  -3.588  0.00  0.00     0.002 A 
ATOM     29  C   UNL d   1     -10.787  -0.565  -2.277  0.00  0.00     0.021 A 
ATOM     30  S   UNL d   1      -8.569  -0.832  -0.571  0.00  0.00    -0.069 SA
ENDBRANCH   1  21
TORSDOF 4
