REMARK  14 active torsions:
REMARK  status: ('A' for Active; 'I' for Inactive)
REMARK    1  A    between atoms: C_4  and  C_1 
REMARK    2  A    between atoms: C_2  and  C_3 
REMARK    3  A    between atoms: C_5  and  C_9 
REMARK    4  A    between atoms: C_13  and  C_5 
REMARK    5  A    between atoms: C_6  and  C_14 
REMARK    6  A    between atoms: C_10  and  C_6 
REMARK    7  A    between atoms: C_7  and  C_35 
REMARK    8  A    between atoms: O_12  and  C_7 
REMARK    9  A    between atoms: C_8  and  O_11 
REMARK   10  A    between atoms: C_34  and  C_8 
REMARK   11  A    between atoms: O_11  and  C_13 
REMARK   12  A    between atoms: C_14  and  O_12 
REMARK   13  A    between atoms: O_33  and  C_34 
REMARK   14  A    between atoms: C_35  and  O_33 
ROOT
ATOM      1  O   UNL d   1       3.210   7.747  -2.784  0.00  0.00    -0.372 OA
ENDROOT
BRANCH   1   2
ATOM      2  C   UNL d   1       2.539   6.708  -2.070  0.00  0.00     0.279 C 
BRANCH   2   3
ATOM      3  C   UNL d   1       1.438   7.281  -1.173  0.00  0.00     0.283 C 
ATOM      4  O   UNL d   1       1.139   8.467  -1.092  0.00  0.00    -0.263 OA
BRANCH   3   5
ATOM      5  O   UNL d   1       0.845   6.289  -0.447  0.00  0.00    -0.312 OA
BRANCH   5   6
ATOM      6  C   UNL d   1      -0.223   6.692   0.426  0.00  0.00     0.262 C 
BRANCH   6   7
ATOM      7  C   UNL d   1      -1.548   6.052   0.020  0.00  0.00     0.183 C 
ATOM      8  O   UNL d   1      -1.645   5.314  -0.956  0.00  0.00    -0.290 OA
BRANCH   7   9
ATOM      9  C   UNL d   1      -2.770   6.324   0.854  0.00  0.00     0.012 A 
ATOM     10  C   UNL d   1      -2.754   7.147   1.985  0.00  0.00     0.016 A 
ATOM     11  C   UNL d   1      -3.927   7.356   2.726  0.00  0.00     0.017 A 
ATOM     12  C   UNL d   1      -5.137   6.752   2.350  0.00  0.00     0.048 A 
ATOM     13  C   UNL d   1      -5.150   5.931   1.215  0.00  0.00     0.017 A 
ATOM     14  C   UNL d   1      -3.979   5.721   0.476  0.00  0.00     0.016 A 
BRANCH  12  15
ATOM     15  C   UNL d   1      -6.392   6.986   3.162  0.00  0.00     0.417 C 
ATOM     16  F   UNL d   1      -7.497   6.376   2.651  0.00  0.00    -0.166 F 
ATOM     17  F   UNL d   1      -6.707   8.307   3.261  0.00  0.00    -0.166 F 
ATOM     18  F   UNL d   1      -6.273   6.534   4.441  0.00  0.00    -0.166 F 
ENDBRANCH  12  15
ENDBRANCH   7   9
ENDBRANCH   6   7
ENDBRANCH   5   6
ENDBRANCH   3   5
ENDBRANCH   2   3
ENDBRANCH   1   2
BRANCH   1  19
ATOM     19  C   UNL d   1       4.215   7.267  -3.666  0.00  0.00     0.279 C 
BRANCH  19  20
ATOM     20  C   UNL d   1       4.962   8.375  -4.416  0.00  0.00     0.283 C 
ATOM     21  O   UNL d   1       6.143   8.290  -4.734  0.00  0.00    -0.263 OA
BRANCH  20  22
ATOM     22  O   UNL d   1       4.154   9.431  -4.700  0.00  0.00    -0.312 OA
BRANCH  22  23
ATOM     23  C   UNL d   1       4.760  10.568  -5.328  0.00  0.00     0.262 C 
BRANCH  23  24
ATOM     24  C   UNL d   1       4.118  10.894  -6.675  0.00  0.00     0.183 C 
ATOM     25  O   UNL d   1       3.220  10.216  -7.172  0.00  0.00    -0.290 OA
BRANCH  24  26
ATOM     26  C   UNL d   1       4.645  12.065  -7.444  0.00  0.00     0.012 A 
ATOM     27  C   UNL d   1       4.509  12.060  -8.839  0.00  0.00     0.016 A 
ATOM     28  C   UNL d   1       5.006  13.119  -9.607  0.00  0.00     0.017 A 
ATOM     29  C   UNL d   1       5.636  14.211  -8.993  0.00  0.00     0.048 A 
ATOM     30  C   UNL d   1       5.749  14.222  -7.594  0.00  0.00     0.017 A 
ATOM     31  C   UNL d   1       5.262  13.158  -6.823  0.00  0.00     0.016 A 
BRANCH  29  32
ATOM     32  C   UNL d   1       6.180  15.348  -9.827  0.00  0.00     0.417 C 
ATOM     33  F   UNL d   1       6.748  16.340  -9.085  0.00  0.00    -0.166 F 
ATOM     34  F   UNL d   1       7.143  14.939 -10.698  0.00  0.00    -0.166 F 
ATOM     35  F   UNL d   1       5.221  15.951 -10.582  0.00  0.00    -0.166 F 
ENDBRANCH  29  32
ENDBRANCH  24  26
ENDBRANCH  23  24
ENDBRANCH  22  23
ENDBRANCH  20  22
ENDBRANCH  19  20
ENDBRANCH   1  19
TORSDOF 14
