REMARK  6 active torsions:
REMARK  status: ('A' for Active; 'I' for Inactive)
REMARK    1  A    between atoms: C_16  and  N_1 
REMARK    2  A    between atoms: C_13  and  C_7 
REMARK    3  A    between atoms: N_9  and  C_20 
REMARK    4  A    between atoms: C_27  and  C_16 
REMARK    5  A    between atoms: C_20  and  C_28 
REMARK    6  A    between atoms: C_28  and  C_27 
ROOT
ATOM      1  C   UNL d   1       3.478  -2.411   1.445  0.00  0.00     0.135 C 
ENDROOT
BRANCH   1   2
ATOM      2  N   UNL d   1       2.033  -2.424   1.267  0.00  0.00    -0.280 N 
ATOM      3  C   UNL d   1       1.481  -3.494   0.564  0.00  0.00     0.261 A 
ATOM      4  C   UNL d   1       0.005  -3.583   0.539  0.00  0.00     0.044 A 
ATOM      5  O   UNL d   1       2.137  -4.360  -0.007  0.00  0.00    -0.267 OA
ATOM      6  C   UNL d   1      -0.607  -4.708  -0.027  0.00  0.00     0.018 A 
ATOM      7  C   UNL d   1      -0.760  -2.556   1.104  0.00  0.00     0.005 A 
ATOM      8  C   UNL d   1      -1.994  -4.818  -0.025  0.00  0.00     0.002 A 
ATOM      9  C   UNL d   1      -2.770  -3.799   0.526  0.00  0.00     0.012 A 
ATOM     10  C   UNL d   1      -2.171  -2.660   1.086  0.00  0.00    -0.024 A 
ATOM     11  C   UNL d   1      -2.943  -1.624   1.635  0.00  0.00     0.012 A 
ATOM     12  C   UNL d   1      -2.337  -0.501   2.198  0.00  0.00     0.002 A 
ATOM     13  C   UNL d   1      -0.948  -0.406   2.233  0.00  0.00     0.018 A 
ATOM     14  C   UNL d   1      -0.164  -1.437   1.696  0.00  0.00     0.044 A 
ATOM     15  C   UNL d   1       1.309  -1.355   1.794  0.00  0.00     0.261 A 
ATOM     16  O   UNL d   1       1.824  -0.381   2.338  0.00  0.00    -0.267 OA
ENDBRANCH   1   2
BRANCH   1  17
ATOM     17  C   UNL d   1       4.198  -1.557   0.402  0.00  0.00     0.022 C 
BRANCH  17  18
ATOM     18  C   UNL d   1       5.716  -1.543   0.620  0.00  0.00     0.032 C 
BRANCH  18  19
ATOM     19  C   UNL d   1       6.380  -2.924   0.511  0.00  0.00     0.273 C 
BRANCH  19  20
ATOM     20  N   UNL d   1       6.119  -3.583  -0.776  0.00  0.00     0.092 N 
ATOM     21  C   UNL d   1       6.781  -2.873  -1.883  0.00  0.00     0.300 C 
ATOM     22  C   UNL d   1       6.971  -3.670  -3.139  0.00  0.00     0.011 C 
ATOM     23  C   UNL d   1       6.700  -4.982  -3.220  0.00  0.00    -0.048 C 
ATOM     24  C   UNL d   1       6.179  -5.738  -2.033  0.00  0.00     0.069 C 
ATOM     25  C   UNL d   1       6.500  -5.003  -0.721  0.00  0.00     0.277 C 
BRANCH  23  26
ATOM     26  C   UNL d   1       6.975  -5.727  -4.449  0.00  0.00    -0.030 A 
ATOM     27  C   UNL d   1       8.240  -6.290  -4.652  0.00  0.00     0.012 A 
ATOM     28  C   UNL d   1       8.514  -7.000  -5.821  0.00  0.00     0.001 A 
ATOM     29  C   UNL d   1       7.526  -7.144  -6.794  0.00  0.00     0.000 A 
ATOM     30  C   UNL d   1       6.267  -6.576  -6.601  0.00  0.00     0.001 A 
ATOM     31  C   UNL d   1       5.991  -5.866  -5.431  0.00  0.00     0.012 A 
ENDBRANCH  23  26
ENDBRANCH  19  20
ENDBRANCH  18  19
ENDBRANCH  17  18
ENDBRANCH   1  17
TORSDOF 6
