REMARK  4 active torsions:
REMARK  status: ('A' for Active; 'I' for Inactive)
REMARK    1  A    between atoms: C_2  and  S_1 
REMARK    2  A    between atoms: C_9  and  S_1 
REMARK    3  A    between atoms: N_4  and  C_3 
REMARK    4  A    between atoms: C_8  and  C_6 
ROOT
ATOM      1  C   UNL d   1       0.509  -0.999   1.269  0.00  0.00     0.146 C 
ATOM      2  C   UNL d   1      -0.337  -0.517   2.201  0.00  0.00     0.047 C 
ATOM      3  C   UNL d   1       1.044  -0.221   0.218  0.00  0.00     0.112 C 
ATOM      4  N   UNL d   1       1.463   0.431  -0.647  0.00  0.00    -0.191 NA
ENDROOT
BRANCH   1   5
ATOM      5  S   UNL d   1       0.881  -2.689   1.283  0.00  0.00     0.232 S 
ATOM      6  O   UNL d   1       0.060  -3.331   0.267  0.00  0.00    -0.215 OA
ATOM      7  O   UNL d   1       0.852  -3.202   2.643  0.00  0.00    -0.215 OA
BRANCH   5   8
ATOM      8  C   UNL d   1       2.579  -2.776   0.725  0.00  0.00     0.134 A 
ATOM      9  N   UNL d   1       3.448  -2.057   1.484  0.00  0.00    -0.356 N 
ATOM     10  C   UNL d   1       4.742  -2.113   1.101  0.00  0.00     0.089 A 
ATOM     11  HN  UNL d   1       3.142  -1.511   2.290  1.00  0.00     0.166 HD
ATOM     12  C   UNL d   1       5.190  -2.824  -0.004  0.00  0.00     0.017 A 
ATOM     13  C   UNL d   1       4.261  -3.526  -0.770  0.00  0.00     0.004 A 
ATOM     14  C   UNL d   1       2.920  -3.510  -0.401  0.00  0.00     0.042 A 
ENDBRANCH   5   8
ENDBRANCH   1   5
BRANCH   2  15
ATOM     15  C   UNL d   1      -0.764   0.846   2.267  0.00  0.00    -0.025 A 
ATOM     16  C   UNL d   1      -1.844   1.405   1.518  0.00  0.00     0.055 A 
ATOM     17  C   UNL d   1      -1.944   2.766   1.727  0.00  0.00     0.144 A 
ATOM     18  S   UNL d   1      -0.806   3.347   2.848  0.00  0.00    -0.077 SA
ATOM     19  C   UNL d   1      -0.130   1.784   3.053  0.00  0.00     0.063 A 
BRANCH  17  20
ATOM     20  N   UNL d   1      -2.877   3.663   1.096  0.00  0.00    -0.108 N 
ATOM     21  O   UNL d   1      -3.693   3.147   0.320  0.00  0.00    -0.531 OA
ATOM     22  O   UNL d   1      -2.805   4.870   1.361  0.00  0.00    -0.531 OA
ENDBRANCH  17  20
ENDBRANCH   2  15
TORSDOF 4
