REMARK  3 active torsions:
REMARK  status: ('A' for Active; 'I' for Inactive)
REMARK    1  A    between atoms: C_7  and  C_1 
REMARK    2  A    between atoms: C_13  and  C_8 
REMARK    3  A    between atoms: C_9  and  C_10 
ROOT
ATOM      1  C   UNL d   1      -0.214  -1.035   0.081  0.00  0.00     0.176 A 
ATOM      2  O   UNL d   1      -1.150  -0.030   0.007  0.00  0.00    -0.277 OA
ATOM      3  N   UNL d   1       1.014  -0.571   0.113  0.00  0.00    -0.277 N 
ATOM      4  HN  UNL d   1       1.871  -1.123   0.154  1.00  0.00     0.189 HD
ATOM      5  N   UNL d   1       0.924   0.800   0.079  0.00  0.00    -0.281 N 
ATOM      6  HN  UNL d   1       1.697   1.465   0.108  1.00  0.00     0.189 HD
ATOM      7  C   UNL d   1      -0.358   1.085   0.000  0.00  0.00     0.144 A 
ENDROOT
BRANCH   1   8
ATOM      8  C   UNL d   1      -0.720  -2.394   0.026  0.00  0.00     0.047 A 
ATOM      9  C   UNL d   1      -0.101  -3.513   0.610  0.00  0.00     0.065 A 
ATOM     10  C   UNL d   1      -0.696  -4.782   0.427  0.00  0.00     0.034 A 
ATOM     11  C   UNL d   1      -1.865  -4.894  -0.309  0.00  0.00     0.088 A 
ATOM     12  N   UNL d   1      -2.480  -3.844  -0.870  0.00  0.00    -0.374 N 
ATOM     13  C   UNL d   1      -1.895  -2.634  -0.695  0.00  0.00     0.104 A 
ATOM     14  HN  UNL d   1      -3.345  -3.950  -1.401  1.00  0.00     0.164 HD
BRANCH   9  15
ATOM     15  C   UNL d   1       1.150  -3.491   1.454  0.00  0.00     0.418 C 
ATOM     16  F   UNL d   1       1.672  -2.280   1.752  0.00  0.00    -0.166 F 
ATOM     17  F   UNL d   1       0.931  -4.084   2.666  0.00  0.00    -0.166 F 
ATOM     18  F   UNL d   1       2.157  -4.210   0.882  0.00  0.00    -0.166 F 
ENDBRANCH   9  15
ENDBRANCH   1   8
BRANCH   7  19
ATOM     19  C   UNL d   1      -0.997   2.405  -0.225  0.00  0.00     0.062 C 
ATOM     20  C   UNL d   1      -1.676   2.462  -1.599  0.00  0.00     0.013 C 
ATOM     21  C   UNL d   1      -2.159   3.879  -1.889  0.00  0.00     0.001 C 
ATOM     22  C   UNL d   1      -3.079   4.408  -0.789  0.00  0.00     0.000 C 
ATOM     23  C   UNL d   1      -2.501   4.224   0.615  0.00  0.00     0.001 C 
ATOM     24  C   UNL d   1      -2.002   2.796   0.860  0.00  0.00     0.013 C 
ENDBRANCH   7  19
TORSDOF 3
