REMARK  4 active torsions:
REMARK  status: ('A' for Active; 'I' for Inactive)
REMARK    1  A    between atoms: C_2  and  C_1 
REMARK    2  A    between atoms: C_3  and  C_2 
REMARK    3  A    between atoms: O_7  and  C_2 
REMARK    4  A    between atoms: O_6  and  C_3 
ROOT
ATOM      1  C   UNL d   1       0.298   1.194  -0.063  0.00  0.00     0.002 A 
ATOM      2  C   UNL d   1      -0.376  -0.030  -0.196  0.00  0.00     0.043 A 
ATOM      3 CL   UNL d   1      -2.078  -0.113  -0.483  0.00  0.00    -0.084 Cl
ATOM      4  C   UNL d   1       1.694   1.157   0.127  0.00  0.00     0.012 A 
ATOM      5  C   UNL d   1       0.316  -1.244  -0.103  0.00  0.00     0.024 A 
ATOM      6  C   UNL d   1       2.385  -0.054   0.204  0.00  0.00     0.001 A 
ATOM      7  C   UNL d   1       1.694  -1.256   0.097  0.00  0.00     0.002 A 
ENDROOT
BRANCH   1   8
ATOM      8  C   UNL d   1      -0.358   2.556  -0.186  0.00  0.00     0.250 C 
BRANCH   8   9
ATOM      9  C   UNL d   1      -0.559   2.994  -1.646  0.00  0.00     0.174 C 
ATOM     10  O   UNL d   1       0.206   2.778  -2.575  0.00  0.00    -0.648 OA
BRANCH   9  11
ATOM     11  O   UNL d   1      -1.697   3.730  -1.788  0.00  0.00    -0.774 OA
ATOM     12  H   UNL d   1      -2.149   3.773  -0.913  0.00  0.00     0.167 HD
ENDBRANCH   9  11
ENDBRANCH   8   9
BRANCH   8  13
ATOM     13  O   UNL d   1      -1.613   2.674   0.510  0.00  0.00    -0.380 OA
ATOM     14  H   UNL d   1      -2.042   1.796   0.480  0.00  0.00     0.211 HD
ENDBRANCH   8  13
ENDBRANCH   1   8
TORSDOF 4
