REMARK  0 active torsions:
REMARK  status: ('A' for Active; 'I' for Inactive)
ROOT
ATOM      1  N   UNL d   1      -1.203   0.711   0.003  0.00  0.00    -0.202 N 
ATOM      2  C   UNL d   1      -1.306  -0.680   0.001  0.00  0.00     0.153 A 
ATOM      3  C   UNL d   1       0.009   1.432   0.003  0.00  0.00     0.276 A 
ATOM      4  C   UNL d   1       1.197   0.558  -0.001  0.00  0.00     0.034 A 
ATOM      5  N   UNL d   1      -0.159  -1.415  -0.001  0.00  0.00    -0.342 N 
ATOM      6  N   UNL d   1      -2.423   1.317   0.003  0.00  0.00    -0.299 N 
ATOM      7  HN  UNL d   1      -2.629   2.316   0.005  1.00  0.00     0.186 HD
ATOM      8  C   UNL d   1      -2.653  -0.959   0.001  0.00  0.00     0.107 A 
ATOM      9  C   UNL d   1       1.058  -0.774  -0.003  0.00  0.00     0.022 A 
ATOM     10  C   UNL d   1      -3.286   0.298   0.002  0.00  0.00     0.134 A 
ATOM     11  C   UNL d   1      -3.286  -2.231  -0.000  0.00  0.00     0.105 C 
ATOM     12  N   UNL d   1      -3.816  -3.263  -0.001  0.00  0.00    -0.191 NA
ATOM     13  O   UNL d   1       0.049   2.655   0.005  0.00  0.00    -0.266 OA
ATOM     14  C   UNL d   1       2.598   1.022  -0.007  0.00  0.00     0.046 A 
ATOM     15  C   UNL d   1       2.385  -1.456  -0.012  0.00  0.00     0.058 A 
ATOM     16  C   UNL d   1       3.392  -0.291   0.006  0.00  0.00     0.011 A 
ATOM     17  H   UNL d   1      -0.147  -2.436  -0.004  0.00  0.00     0.167 HD
ENDROOT
TORSDOF 0
