REMARK  5 active torsions:
REMARK  status: ('A' for Active; 'I' for Inactive)
REMARK    1  A    between atoms: N_2  and  C_1 
REMARK    2  A    between atoms: N_3  and  C_1 
REMARK    3  A    between atoms: N_6  and  N_2 
REMARK    4  A    between atoms: C_9  and  N_3 
REMARK    5  A    between atoms: C_10  and  C_5 
ROOT
ATOM      1  C   UNL d   1      -4.023  -0.795  -1.128  0.00  0.00    -0.055 A 
ATOM      2  C   UNL d   1      -3.269  -1.973  -1.069  0.00  0.00     0.010 A 
ATOM      3  C   UNL d   1      -3.337   0.424  -1.104  0.00  0.00     0.010 A 
ATOM      4  C   UNL d   1      -1.184  -0.700  -0.976  0.00  0.00     0.034 A 
ATOM      5  C   UNL d   1      -1.870  -1.924  -0.982  0.00  0.00     0.030 A 
ATOM      6  C   UNL d   1      -1.935   0.467  -1.037  0.00  0.00     0.030 A 
ENDROOT
BRANCH   4   7
ATOM      7  N   UNL d   1       0.227  -0.776  -0.945  0.00  0.00    -0.332 N 
ATOM      8  H   UNL d   1       0.581  -1.704  -0.755  0.00  0.00     0.168 HD
BRANCH   7   9
ATOM      9  C   UNL d   1       1.246   0.175  -1.035  0.00  0.00     0.186 C 
ATOM     10  S   UNL d   1       1.134   1.844  -0.984  0.00  0.00    -0.040 SA
BRANCH   9  11
ATOM     11  N   UNL d   1       2.470  -0.513  -1.179  0.00  0.00    -0.296 N 
ATOM     12  H   UNL d   1       2.444  -1.361  -1.738  0.00  0.00     0.183 HD
BRANCH  11  13
ATOM     13  N   UNL d   1       3.716   0.130  -1.025  0.00  0.00    -0.238 NA
ATOM     14  C   UNL d   1       4.525  -0.559  -0.021  0.00  0.00     0.135 C 
ATOM     15  C   UNL d   1       4.433   0.246  -2.295  0.00  0.00     0.135 C 
ENDBRANCH  11  13
ENDBRANCH   9  11
ENDBRANCH   7   9
ENDBRANCH   4   7
BRANCH   1  16
ATOM     16  C   UNL d   1      -5.536  -0.806  -1.178  0.00  0.00     0.010 C 
ATOM     17  C   UNL d   1      -6.056  -1.474  -2.455  0.00  0.00     0.015 C 
ATOM     18  C   UNL d   1      -6.135  -1.464   0.067  0.00  0.00     0.015 C 
ENDBRANCH   1  16
TORSDOF 5
