REMARK  2 active torsions:
REMARK  status: ('A' for Active; 'I' for Inactive)
REMARK    1  A    between atoms: C_2  and  C_1 
REMARK    2  A    between atoms: N_9  and  C_3 
ROOT
ATOM      1  C   UNL d   1       0.511   0.593  -1.362  0.00  0.00     0.071 A 
ATOM      2  C   UNL d   1      -0.100  -0.126  -2.397  0.00  0.00     0.036 A 
ATOM      3  N   UNL d   1      -0.257   1.934  -3.711  0.00  0.00    -0.373 N 
ATOM      4  HN  UNL d   1      -0.540   2.410  -4.567  1.00  0.00     0.164 HD
ATOM      5  C   UNL d   1       0.692   1.982  -1.509  0.00  0.00     0.035 A 
ATOM      6  C   UNL d   1      -0.413   0.599  -3.553  0.00  0.00     0.111 A 
ATOM      7  C   UNL d   1       0.293   2.599  -2.680  0.00  0.00     0.088 A 
ENDROOT
BRANCH   1   8
ATOM      8  C   UNL d   1       0.974  -0.035  -0.076  0.00  0.00     0.419 C 
ATOM      9  F   UNL d   1       0.722  -1.371   0.034  0.00  0.00    -0.166 F 
ATOM     10  F   UNL d   1       0.376   0.532   1.012  0.00  0.00    -0.166 F 
ATOM     11  F   UNL d   1       2.313   0.112   0.127  0.00  0.00    -0.166 F 
ENDBRANCH   1   8
BRANCH   2  12
ATOM     12  N   UNL d   1      -0.181  -1.523  -2.409  0.00  0.00    -0.301 NA
ATOM     13  H   UNL d   1      -0.190  -1.975  -1.495  0.00  0.00     0.124 HD
ATOM     14  H   UNL d   1      -0.890  -1.905  -3.030  0.00  0.00     0.124 HD
ENDBRANCH   2  12
TORSDOF 2
