REMARK  4 active torsions:
REMARK  status: ('A' for Active; 'I' for Inactive)
REMARK    1  A    between atoms: C_2  and  S_1 
REMARK    2  A    between atoms: C_5  and  S_1 
REMARK    3  A    between atoms: C_10  and  C_3 
REMARK    4  A    between atoms: C_4  and  C_6 
ROOT
ATOM      1  C   UNL d   1       0.427   0.699  -1.327  0.00  0.00     0.146 C 
ATOM      2  C   UNL d   1       0.717   1.935  -1.777  0.00  0.00     0.054 C 
ATOM      3  C   UNL d   1      -0.445  -0.121  -2.078  0.00  0.00     0.112 C 
ATOM      4  N   UNL d   1      -1.180  -0.772  -2.698  0.00  0.00    -0.191 NA
ENDROOT
BRANCH   1   5
ATOM      5  S   UNL d   1       1.038   0.076   0.171  0.00  0.00     0.232 S 
ATOM      6  O   UNL d   1       0.380   0.765   1.271  0.00  0.00    -0.215 OA
ATOM      7  O   UNL d   1       2.489   0.004   0.129  0.00  0.00    -0.215 OA
BRANCH   5   8
ATOM      8  C   UNL d   1       0.423  -1.620   0.243  0.00  0.00     0.134 A 
ATOM      9  N   UNL d   1       1.175  -2.526  -0.434  0.00  0.00    -0.356 N 
ATOM     10  C   UNL d   1       0.712  -3.799  -0.440  0.00  0.00     0.105 A 
ATOM     11  HN  UNL d   1       2.037  -2.263  -0.910  1.00  0.00     0.166 HD
ATOM     12  C   UNL d   1      -0.475  -4.200   0.164  0.00  0.00     0.063 A 
ATOM     13  C   UNL d   1      -1.212  -3.230   0.860  0.00  0.00     0.020 A 
ATOM     14  C   UNL d   1      -0.755  -1.916   0.914  0.00  0.00     0.043 A 
BRANCH  12  15
ATOM     15  C   UNL d   1      -0.960  -5.614   0.045  0.00  0.00     0.418 C 
ATOM     16  F   UNL d   1      -0.119  -6.424  -0.655  0.00  0.00    -0.166 F 
ATOM     17  F   UNL d   1      -1.133  -6.212   1.255  0.00  0.00    -0.166 F 
ATOM     18  F   UNL d   1      -2.165  -5.694  -0.585  0.00  0.00    -0.166 F 
ENDBRANCH  12  15
ENDBRANCH   5   8
ENDBRANCH   1   5
BRANCH   2  19
ATOM     19  C   UNL d   1       1.585   2.866  -1.149  0.00  0.00     0.006 A 
ATOM     20  S   UNL d   1       1.011   3.920   0.081  0.00  0.00    -0.102 SA
ATOM     21  C   UNL d   1       2.523   4.706   0.214  0.00  0.00     0.050 A 
ATOM     22  C   UNL d   1       3.442   4.208  -0.680  0.00  0.00     0.008 A 
ATOM     23  C   UNL d   1       2.898   3.155  -1.470  0.00  0.00     0.019 A 
ENDBRANCH   2  19
TORSDOF 4
