REMARK  3 active torsions:
REMARK  status: ('A' for Active; 'I' for Inactive)
REMARK    1  A    between atoms: N_2  and  C_1 
REMARK    2  A    between atoms: C_9  and  N_2 
REMARK    3  A    between atoms: C_14  and  N_8 
ROOT
ATOM      1  C   UNL d   1       0.948   0.175  -0.014  0.00  0.00     0.181 C 
ATOM      2  N   UNL d   1       2.303   0.044  -0.086  0.00  0.00    -0.352 N 
ATOM      3  H   UNL d   1       2.793   0.283   0.765  0.00  0.00     0.166 HD
ENDROOT
BRANCH   1   4
ATOM      4  N   UNL d   1       0.309   0.577   1.037  0.00  0.00    -0.352 N 
ATOM      5  HN  UNL d   1       0.807   0.881   1.874  1.00  0.00     0.166 HD
BRANCH   4   6
ATOM      6  C   UNL d   1      -1.100   0.580   0.984  0.00  0.00     0.033 A 
ATOM      7  C   UNL d   1      -1.801   1.649   1.551  0.00  0.00     0.041 A 
ATOM      8  C   UNL d   1      -3.211   1.666   1.592  0.00  0.00    -0.024 A 
ATOM      9  C   UNL d   1      -3.925   2.722   2.184  0.00  0.00     0.012 A 
ATOM     10  C   UNL d   1      -3.931   0.584   1.036  0.00  0.00    -0.026 A 
ATOM     11  C   UNL d   1      -5.322   2.705   2.231  0.00  0.00     0.001 A 
ATOM     12  C   UNL d   1      -6.025   1.639   1.678  0.00  0.00     0.001 A 
ATOM     13  C   UNL d   1      -5.334   0.586   1.080  0.00  0.00     0.012 A 
ATOM     14  C   UNL d   1      -3.228  -0.484   0.466  0.00  0.00     0.014 A 
ATOM     15  C   UNL d   1      -1.832  -0.493   0.460  0.00  0.00     0.030 A 
ENDBRANCH   4   6
ENDBRANCH   1   4
BRANCH   2  16
ATOM     16  C   UNL d   1       3.052  -0.631  -1.067  0.00  0.00     0.033 A 
ATOM     17  C   UNL d   1       4.449  -0.711  -0.929  0.00  0.00     0.041 A 
ATOM     18  C   UNL d   1       5.260  -1.348  -1.892  0.00  0.00    -0.024 A 
ATOM     19  C   UNL d   1       6.657  -1.437  -1.750  0.00  0.00     0.012 A 
ATOM     20  C   UNL d   1       4.657  -1.913  -3.035  0.00  0.00    -0.026 A 
ATOM     21  C   UNL d   1       7.438  -2.066  -2.722  0.00  0.00     0.001 A 
ATOM     22  C   UNL d   1       6.837  -2.616  -3.850  0.00  0.00     0.001 A 
ATOM     23  C   UNL d   1       5.453  -2.542  -4.006  0.00  0.00     0.012 A 
ATOM     24  C   UNL d   1       3.270  -1.832  -3.182  0.00  0.00     0.014 A 
ATOM     25  C   UNL d   1       2.483  -1.197  -2.214  0.00  0.00     0.030 A 
ENDBRANCH   2  16
TORSDOF 3
