REMARK  4 active torsions:
REMARK  status: ('A' for Active; 'I' for Inactive)
REMARK    1  A    between atoms: C_5  and  C_1 
REMARK    2  A    between atoms: S_2  and  C_9 
REMARK    3  A    between atoms: C_16  and  S_2 
REMARK    4  A    between atoms: C_9  and  C_6 
ROOT
ATOM      1  C   UNL d   1       0.441  -1.131  -0.086  0.00  0.00     0.186 A 
ATOM      2  N   UNL d   1       1.217  -0.073   0.051  0.00  0.00    -0.322 N 
ATOM      3  HN  UNL d   1       2.231  -0.038   0.151  1.00  0.00     0.169 HD
ATOM      4  C   UNL d   1       0.326   0.970   0.026  0.00  0.00     0.118 A 
ATOM      5  N   UNL d   1      -0.949   0.603  -0.152  0.00  0.00    -0.246 N 
ATOM      6  HN  UNL d   1      -1.774   1.199  -0.227  1.00  0.00     0.196 HD
ATOM      7  O   UNL d   1      -0.880  -0.787  -0.212  0.00  0.00    -0.217 OA
ENDROOT
BRANCH   4   8
ATOM      8  C   UNL d   1       0.742   2.381   0.018  0.00  0.00     0.224 C 
BRANCH   8   9
ATOM      9  S   UNL d   1       1.520   2.894   1.518  0.00  0.00     0.182 S 
ATOM     10  O   UNL d   1       1.986   4.259   1.324  0.00  0.00    -0.222 OA
ATOM     11  O   UNL d   1       0.644   2.582   2.632  0.00  0.00    -0.222 OA
BRANCH   9  12
ATOM     12  C   UNL d   1       3.000   1.919   1.705  0.00  0.00     0.059 A 
ATOM     13  C   UNL d   1       4.004   1.994   0.733  0.00  0.00     0.025 A 
ATOM     14  C   UNL d   1       5.204   1.305   0.931  0.00  0.00     0.025 A 
ATOM     15  C   UNL d   1       5.398   0.568   2.101  0.00  0.00     0.034 A 
ATOM     16  C   UNL d   1       4.394   0.491   3.066  0.00  0.00     0.025 A 
ATOM     17 CL   UNL d   1       6.891  -0.246   2.358  0.00  0.00    -0.084 Cl
ATOM     18  C   UNL d   1       3.185   1.163   2.868  0.00  0.00     0.025 A 
ENDBRANCH   9  12
ENDBRANCH   8   9
ENDBRANCH   4   8
BRANCH   1  19
ATOM     19  C   UNL d   1       0.931  -2.527  -0.121  0.00  0.00     0.073 A 
ATOM     20  C   UNL d   1       2.230  -2.943   0.047  0.00  0.00     0.089 A 
ATOM     21  O   UNL d   1       2.273  -4.299  -0.048  0.00  0.00    -0.242 OA
ATOM     22  C   UNL d   1       3.520  -2.269   0.279  0.00  0.00     0.080 C 
ATOM     23  N   UNL d   1       1.006  -4.787  -0.303  0.00  0.00    -0.265 N 
ATOM     24  C   UNL d   1       0.204  -3.716  -0.362  0.00  0.00     0.045 A 
ATOM     25  HN  UNL d   1       0.736  -5.764  -0.423  1.00  0.00     0.194 HD
ATOM     26  C   UNL d   1      -1.230  -3.888  -0.692  0.00  0.00     0.071 C 
ENDBRANCH   1  19
TORSDOF 4
