REMARK  5 active torsions:
REMARK  status: ('A' for Active; 'I' for Inactive)
REMARK    1  A    between atoms: C_2  and  C_1 
REMARK       I    between atoms: N_5  and  C_1 
REMARK       I    between atoms: C_3  and  N_6 
REMARK    2  A    between atoms: O_7  and  C_3 
REMARK    3  A    between atoms: O_8  and  C_4 
REMARK    4  A    between atoms: C_15  and  O_7 
REMARK    5  A    between atoms: C_16  and  O_8 
ROOT
ATOM      1  C   UNL d   1       1.000   0.494  -0.127  0.00  0.00     0.258 C 
ATOM      2  C   UNL d   1      -2.454  -3.049  -2.823  0.00  0.00     0.363 C 
ATOM      3  N   UNL d   1       0.323  -0.540  -0.817  0.00  0.00    -0.346 N 
ATOM      4  N   UNL d   1      -1.986  -2.303  -1.749  0.00  0.00    -0.326 N 
ATOM      5  O   UNL d   1       0.443   1.538   0.203  0.00  0.00    -0.267 OA
ATOM      6  O   UNL d   1      -2.434  -4.272  -2.852  0.00  0.00    -0.238 OA
ATOM      7  C   UNL d   1      -2.085  -0.847  -1.648  0.00  0.00     0.148 C 
ATOM      8  C   UNL d   1      -0.744  -0.112  -1.740  0.00  0.00     0.146 C 
ATOM      9  C   UNL d   1       0.023  -3.049  -0.455  0.00  0.00     0.040 C 
ATOM     10  C   UNL d   1      -1.492  -2.982  -0.566  0.00  0.00     0.129 C 
ATOM     11  C   UNL d   1       0.850  -1.895  -1.020  0.00  0.00     0.127 C 
ENDROOT
BRANCH   1  12
ATOM     12  C   UNL d   1       2.469   0.397   0.078  0.00  0.00     0.083 C 
ATOM     13  C   UNL d   1       3.112   0.732   1.270  0.00  0.00     0.163 C 
ATOM     14  N   UNL d   1       4.447   0.541   1.438  0.00  0.00    -0.346 N 
ATOM     15  C   UNL d   1       5.182   0.159   0.372  0.00  0.00     0.090 C 
ATOM     16  HN  UNL d   1       4.884   0.683   2.348  1.00  0.00     0.167 HD
ATOM     17  C   UNL d   1       4.646  -0.071  -0.877  0.00  0.00     0.018 C 
ATOM     18  C   UNL d   1       3.271   0.056  -1.025  0.00  0.00     0.023 C 
BRANCH  13  19
ATOM     19  O   UNL d   1       2.362   1.200   2.338  0.00  0.00    -0.293 OA
BRANCH  19  20
ATOM     20  C   UNL d   1       2.871   2.070   3.287  0.00  0.00     0.077 A 
ATOM     21  C   UNL d   1       1.903   2.575   4.170  0.00  0.00     0.039 A 
ATOM     22  C   UNL d   1       2.249   3.456   5.204  0.00  0.00     0.026 A 
ATOM     23  C   UNL d   1       3.575   3.838   5.372  0.00  0.00     0.034 A 
ATOM     24  C   UNL d   1       4.549   3.358   4.504  0.00  0.00     0.026 A 
ATOM     25 CL   UNL d   1       4.015   4.903   6.649  0.00  0.00    -0.084 Cl
ATOM     26  C   UNL d   1       4.194   2.487   3.463  0.00  0.00     0.039 A 
ENDBRANCH  19  20
ENDBRANCH  13  19
ENDBRANCH   1  12
BRANCH   2  27
ATOM     27  O   UNL d   1      -2.952  -2.271  -3.824  0.00  0.00    -0.294 OA
BRANCH  27  28
ATOM     28  C   UNL d   1      -3.668  -2.857  -4.949  0.00  0.00     0.061 C 
ATOM     29  C   UNL d   1      -4.984  -3.491  -4.483  0.00  0.00     0.046 C 
ATOM     30  C   UNL d   1      -4.000  -1.667  -5.866  0.00  0.00     0.046 C 
ATOM     31  C   UNL d   1      -2.814  -3.851  -5.745  0.00  0.00     0.046 C 
ENDBRANCH  27  28
ENDBRANCH   2  27
TORSDOF 5
