REMARK  3 active torsions:
REMARK  status: ('A' for Active; 'I' for Inactive)
REMARK    1  A    between atoms: O_12  and  C_5 
REMARK    2  A    between atoms: C_11  and  O_12 
REMARK    3  A    between atoms: C_13  and  C_11 
ROOT
ATOM      1  C   UNL d   1       1.305   0.845   0.036  0.00  0.00     0.101 A 
ATOM      2  C   UNL d   1       0.500   2.143  -0.022  0.00  0.00     0.264 A 
ATOM      3  N   UNL d   1      -0.872   1.991  -0.053  0.00  0.00    -0.312 N 
ATOM      4  C   UNL d   1       0.646  -0.338  -0.006  0.00  0.00     0.110 A 
ATOM      5  C   UNL d   1       2.758   0.795   0.213  0.00  0.00     0.104 A 
ATOM      6  C   UNL d   1      -0.809  -0.434  -0.079  0.00  0.00     0.026 A 
ATOM      7  C   UNL d   1      -1.495   0.755  -0.075  0.00  0.00     0.057 A 
ATOM      8  C   UNL d   1       3.349  -0.396   0.407  0.00  0.00     0.121 A 
ATOM      9  O   UNL d   1       1.283  -1.587   0.097  0.00  0.00    -0.273 OA
ATOM     10  C   UNL d   1       2.611  -1.659   0.350  0.00  0.00     0.290 A 
ATOM     11  C   UNL d   1      -1.905   3.033  -0.046  0.00  0.00     0.137 A 
ATOM     12  O   UNL d   1       1.042   3.245  -0.021  0.00  0.00    -0.267 OA
ATOM     13  C   UNL d   1      -2.876   0.861  -0.064  0.00  0.00    -0.029 A 
ATOM     14  O   UNL d   1       3.191  -2.732   0.497  0.00  0.00    -0.260 OA
ATOM     15  C   UNL d   1      -3.277   2.302  -0.029  0.00  0.00     0.061 A 
ATOM     16  C   UNL d   1      -1.576  -1.602  -0.084  0.00  0.00     0.017 A 
ATOM     17  C   UNL d   1      -2.984  -1.527  -0.071  0.00  0.00     0.002 A 
ATOM     18  C   UNL d   1      -3.643  -0.289  -0.054  0.00  0.00     0.009 A 
ENDROOT
BRANCH   5  19
ATOM     19  O   UNL d   1       3.464   2.040   0.138  0.00  0.00    -0.272 OA
BRANCH  19  20
ATOM     20  C   UNL d   1       4.829   2.149   0.328  0.00  0.00     0.322 C 
ATOM     21  O   UNL d   1       5.563   1.247   0.713  0.00  0.00    -0.257 OA
BRANCH  20  22
ATOM     22  C   UNL d   1       5.306   3.468  -0.017  0.00  0.00     0.150 A 
ATOM     23  O   UNL d   1       6.662   3.684   0.076  0.00  0.00    -0.317 OA
ATOM     24  C   UNL d   1       6.907   4.958  -0.314  0.00  0.00     0.143 A 
ATOM     25  C   UNL d   1       5.733   5.584  -0.659  0.00  0.00     0.027 A 
ATOM     26  C   UNL d   1       4.702   4.630  -0.463  0.00  0.00     0.045 A 
ENDBRANCH  20  22
ENDBRANCH  19  20
ENDBRANCH   5  19
TORSDOF 3
