REMARK  1 active torsions:
REMARK  status: ('A' for Active; 'I' for Inactive)
REMARK    1  A    between atoms: S_18  and  C_9 
ROOT
ATOM      1  N   UNL d   1      -3.335   0.955  -0.131  0.00  0.00    -0.060 N 
ATOM      2  C   UNL d   1      -2.751   1.904  -0.958  0.00  0.00     0.721 C 
ATOM      3  C   UNL d   1      -1.452  -0.215   0.057  0.00  0.00     0.088 C 
ATOM      4  N   UNL d   1      -2.723  -0.178   0.351  0.00  0.00    -0.275 N 
ATOM      5  HN  UNL d   1      -3.207  -0.906   0.878  1.00  0.00     0.188 HD
ATOM      6  C   UNL d   1      -0.744   0.992  -0.551  0.00  0.00     0.089 C 
ATOM      7  N   UNL d   1      -1.405   1.959  -1.115  0.00  0.00    -0.185 N 
ATOM      8  HN  UNL d   1      -0.945   2.704  -1.639  1.00  0.00     0.184 HD
ATOM      9  C   UNL d   1      -4.614   1.411   0.058  0.00  0.00     0.196 C 
ATOM     10  N   UNL d   1      -3.689   2.723  -1.397  0.00  0.00    -0.128 N 
ATOM     11  HN  UNL d   1      -3.567   3.450  -2.102  1.00  0.00     0.205 HD
ATOM     12  N   UNL d   1      -4.862   2.425  -0.737  0.00  0.00    -0.264 N 
ATOM     13  HN  UNL d   1      -5.756   2.903  -0.847  1.00  0.00     0.189 HD
ATOM     14  C   UNL d   1      -0.648  -1.446   0.235  0.00  0.00     0.005 A 
ATOM     15  C   UNL d   1       0.721   1.072  -0.400  0.00  0.00     0.005 A 
ATOM     16  C   UNL d   1       0.754  -1.381   0.103  0.00  0.00    -0.012 A 
ATOM     17  C   UNL d   1       1.441  -0.077  -0.037  0.00  0.00    -0.012 A 
ATOM     18  C   UNL d   1      -1.312  -2.670   0.413  0.00  0.00     0.014 A 
ATOM     19  C   UNL d   1       1.337   2.328  -0.519  0.00  0.00     0.014 A 
ATOM     20  C   UNL d   1       1.453  -2.604   0.094  0.00  0.00     0.013 A 
ATOM     21  C   UNL d   1       2.815   0.095   0.218  0.00  0.00     0.013 A 
ATOM     22  C   UNL d   1       3.434   1.347   0.109  0.00  0.00     0.001 A 
ATOM     23  C   UNL d   1      -0.589  -3.858   0.420  0.00  0.00     0.001 A 
ATOM     24  C   UNL d   1       0.794  -3.822   0.243  0.00  0.00     0.001 A 
ATOM     25  C   UNL d   1       2.696   2.464  -0.261  0.00  0.00     0.001 A 
ENDROOT
BRANCH   9  26
ATOM     26  S   UNL d   1      -5.669   0.830   1.291  0.00  0.00    -0.103 SA
ATOM     27  H   UNL d   1      -6.385   1.961   1.397  0.00  0.00     0.110 HD
ENDBRANCH   9  26
TORSDOF 1
