REMARK  3 active torsions:
REMARK  status: ('A' for Active; 'I' for Inactive)
REMARK    1  A    between atoms: C_3  and  N_1 
REMARK    2  A    between atoms: N_4  and  C_3 
REMARK    3  A    between atoms: N_7  and  C_5 
ROOT
ATOM      1  C   UNL d   1       0.465  -0.456   0.965  0.00  0.00     0.174 C 
ATOM      2  S   UNL d   1       1.060   1.057   0.468  0.00  0.00    -0.041 SA
ENDROOT
BRANCH   1   3
ATOM      3  N   UNL d   1      -0.560  -1.129   0.333  0.00  0.00    -0.329 N 
ATOM      4  C   UNL d   1      -1.598  -0.464  -0.064  0.00  0.00     0.179 C 
ATOM      5  HN  UNL d   1      -0.502  -2.136   0.180  1.00  0.00     0.169 HD
BRANCH   4   6
ATOM      6  N   UNL d   1      -2.692  -0.965  -0.734  0.00  0.00    -0.386 N 
ATOM      7  C   UNL d   1      -2.727  -2.352  -1.176  0.00  0.00     0.149 C 
ATOM      8  C   UNL d   1      -3.576  -0.065  -1.464  0.00  0.00     0.149 C 
ENDBRANCH   4   6
ENDBRANCH   1   3
BRANCH   1   9
ATOM      9  N   UNL d   1       1.051  -1.177   2.013  0.00  0.00    -0.354 N 
ATOM     10  C   UNL d   1       2.187  -0.713   2.831  0.00  0.00     0.151 C 
ATOM     11  C   UNL d   1       3.294  -1.772   2.858  0.00  0.00     0.187 C 
ATOM     12  O   UNL d   1       2.791  -3.026   3.344  0.00  0.00    -0.388 OA
ATOM     13  C   UNL d   1       1.734  -3.506   2.497  0.00  0.00     0.187 C 
ATOM     14  C   UNL d   1       0.571  -2.506   2.428  0.00  0.00     0.151 C 
ENDBRANCH   1   9
TORSDOF 3
