REMARK  3 active torsions:
REMARK  status: ('A' for Active; 'I' for Inactive)
REMARK    1  A    between atoms: N_11  and  N_6 
REMARK    2  A    between atoms: C_16  and  C_9 
REMARK    3  A    between atoms: C_14  and  C_13 
ROOT
ATOM      1  C   UNL d   1      -0.257   0.651  -0.033  0.00  0.00     0.069 A 
ATOM      2  C   UNL d   1      -0.114  -0.716  -0.045  0.00  0.00     0.091 A 
ATOM      3  C   UNL d   1       0.935   1.479  -0.036  0.00  0.00     0.280 C 
ATOM      4  N   UNL d   1       1.054  -1.407  -0.056  0.00  0.00    -0.344 N 
ATOM      5  HN  UNL d   1       1.098  -2.425  -0.108  1.00  0.00     0.167 HD
ATOM      6  N   UNL d   1       2.124   0.734   0.083  0.00  0.00    -0.215 N 
ATOM      7  C   UNL d   1      -1.624   1.056  -0.022  0.00  0.00     0.040 A 
ATOM      8  S   UNL d   1      -1.624  -1.504  -0.049  0.00  0.00    -0.071 SA
ATOM      9  C   UNL d   1      -2.495  -0.019   0.005  0.00  0.00     0.018 A 
ATOM     10  C   UNL d   1       2.108  -0.654   0.005  0.00  0.00     0.211 C 
ATOM     11  O   UNL d   1       0.856   2.699  -0.165  0.00  0.00    -0.265 OA
ENDROOT
BRANCH   6  12
ATOM     12  N   UNL d   1       3.388   1.308   0.079  0.00  0.00    -0.301 N 
ATOM     13  C   UNL d   1       3.532   2.477   0.626  0.00  0.00     0.120 C 
ATOM     14  HN  UNL d   1       4.181   0.826  -0.342  1.00  0.00     0.186 HD
BRANCH  13  15
ATOM     15  C   UNL d   1       4.830   3.192   0.581  0.00  0.00     0.002 A 
ATOM     16  C   UNL d   1       5.003   4.441   1.191  0.00  0.00     0.045 A 
ATOM     17 CL   UNL d   1       3.749   5.251   2.061  0.00  0.00    -0.083 Cl
ATOM     18  C   UNL d   1       6.242   5.088   1.111  0.00  0.00     0.024 A 
ATOM     19  C   UNL d   1       7.305   4.495   0.428  0.00  0.00     0.002 A 
ATOM     20  C   UNL d   1       7.137   3.252  -0.177  0.00  0.00     0.001 A 
ATOM     21  C   UNL d   1       5.905   2.601  -0.102  0.00  0.00     0.014 A 
ENDBRANCH  13  15
ENDBRANCH   6  12
BRANCH   9  22
ATOM     22  C   UNL d   1      -3.966  -0.004   0.051  0.00  0.00    -0.019 A 
ATOM     23  C   UNL d   1      -4.681   1.004  -0.617  0.00  0.00     0.013 A 
ATOM     24  C   UNL d   1      -6.076   1.056  -0.556  0.00  0.00     0.001 A 
ATOM     25  C   UNL d   1      -6.779   0.101   0.174  0.00  0.00     0.000 A 
ATOM     26  C   UNL d   1      -6.088  -0.905   0.843  0.00  0.00     0.001 A 
ATOM     27  C   UNL d   1      -4.693  -0.956   0.784  0.00  0.00     0.013 A 
ENDBRANCH   9  22
TORSDOF 3
