REMARK  4 active torsions:
REMARK  status: ('A' for Active; 'I' for Inactive)
REMARK    1  A    between atoms: C_4  and  C_3 
REMARK    2  A    between atoms: C_17  and  C_5 
REMARK    3  A    between atoms: C_14  and  O_15 
REMARK    4  A    between atoms: O_15  and  C_17 
ROOT
ATOM      1  N   UNL d   1       0.142   0.290   1.098  0.00  0.00    -0.321 N 
ATOM      2  HN  UNL d   1       0.055   0.599   2.066  1.00  0.00     0.169 HD
ATOM      3  C   UNL d   1       0.032  -0.929   0.609  0.00  0.00     0.182 A 
ATOM      4  C   UNL d   1       0.403   1.038  -0.023  0.00  0.00     0.128 A 
ATOM      5  N   UNL d   1       0.401   0.348  -1.172  0.00  0.00    -0.245 N 
ATOM      6  HN  UNL d   1       0.538   0.696  -2.121  1.00  0.00     0.196 HD
ATOM      7  O   UNL d   1       0.166  -0.961  -0.755  0.00  0.00    -0.217 OA
ENDROOT
BRANCH   4   8
ATOM      8  C   UNL d   1       0.640   2.509   0.013  0.00  0.00     0.254 C 
BRANCH   8   9
ATOM      9  O   UNL d   1       2.030   2.807   0.194  0.00  0.00    -0.342 OA
BRANCH   9  10
ATOM     10  C   UNL d   1       2.392   4.128   0.141  0.00  0.00     0.091 A 
ATOM     11  C   UNL d   1       3.504   4.529   0.901  0.00  0.00     0.069 A 
ATOM     12  C   UNL d   1       3.962   5.850   0.859  0.00  0.00     0.050 A 
ATOM     13 CL   UNL d   1       4.343   3.417   1.924  0.00  0.00    -0.081 Cl
ATOM     14  C   UNL d   1       3.317   6.773   0.042  0.00  0.00     0.035 A 
ATOM     15  C   UNL d   1       2.223   6.386  -0.729  0.00  0.00     0.026 A 
ATOM     16 CL   UNL d   1       3.874   8.397  -0.026  0.00  0.00    -0.084 Cl
ATOM     17  C   UNL d   1       1.765   5.068  -0.684  0.00  0.00     0.040 A 
ENDBRANCH   9  10
ENDBRANCH   8   9
ENDBRANCH   4   8
BRANCH   3  18
ATOM     18  C   UNL d   1      -0.200  -2.142   1.444  0.00  0.00     0.024 A 
ATOM     19  C   UNL d   1      -0.261  -3.412   0.913  0.00  0.00     0.065 A 
ATOM     20  S   UNL d   1      -0.509  -4.599   2.124  0.00  0.00    -0.113 SA
ATOM     21  C   UNL d   1      -0.545  -3.413   3.358  0.00  0.00     0.050 A 
ATOM     22  C   UNL d   1      -0.370  -2.140   2.859  0.00  0.00     0.023 A 
ENDBRANCH   3  18
TORSDOF 4
