REMARK  2 active torsions:
REMARK  status: ('A' for Active; 'I' for Inactive)
REMARK    1  A    between atoms: N_5  and  C_1 
REMARK       I    between atoms: C_2  and  N_5 
REMARK       I    between atoms: N_8  and  C_2 
REMARK    2  A    between atoms: C_12  and  N_8 
ROOT
ATOM      1  C   UNL d   1       0.272  -3.944   0.619  0.00  0.00     0.325 C 
ATOM      2  N   UNL d   1       1.008  -2.807   0.598  0.00  0.00    -0.307 N 
ATOM      3  N   UNL d   1      -0.839  -4.021  -0.169  0.00  0.00    -0.309 N 
ATOM      4  O   UNL d   1       0.744  -4.876   1.271  0.00  0.00    -0.247 OA
ATOM      5  H   UNL d   1       1.931  -3.008   0.975  0.00  0.00     0.170 HD
ATOM      6  H   UNL d   1      -0.922  -3.298  -0.871  0.00  0.00     0.170 HD
ENDROOT
BRANCH   2   7
ATOM      7  C   UNL d   1       0.793  -1.475   0.268  0.00  0.00     0.054 A 
ATOM      8  C   UNL d   1      -0.418  -0.688   0.114  0.00  0.00     0.008 A 
ATOM      9  C   UNL d   1      -0.107   0.656  -0.162  0.00  0.00     0.017 A 
ATOM     10  C   UNL d   1      -1.798  -0.993   0.263  0.00  0.00     0.015 A 
ATOM     11  C   UNL d   1      -1.096   1.648  -0.326  0.00  0.00     0.020 A 
ATOM     12  S   UNL d   1       1.586   0.929  -0.241  0.00  0.00    -0.099 SA
ATOM     13  C   UNL d   1      -2.435   1.299  -0.205  0.00  0.00     0.001 A 
ATOM     14  C   UNL d   1      -2.785  -0.009   0.088  0.00  0.00     0.001 A 
ATOM     15  C   UNL d   1       1.921  -0.687   0.134  0.00  0.00     0.081 A 
ENDBRANCH   2   7
BRANCH   3  16
ATOM     16  C   UNL d   1      -1.663  -5.169  -0.311  0.00  0.00     0.038 A 
ATOM     17  C   UNL d   1      -1.634  -6.249   0.572  0.00  0.00     0.046 A 
ATOM     18  C   UNL d   1      -2.439  -7.349   0.315  0.00  0.00     0.090 A 
ATOM     19  N   UNL d   1      -3.273  -7.436  -0.739  0.00  0.00    -0.375 N 
ATOM     20  C   UNL d   1      -3.306  -6.373  -1.568  0.00  0.00     0.090 A 
ATOM     21  HN  UNL d   1      -3.849  -8.262  -0.901  1.00  0.00     0.164 HD
ATOM     22  C   UNL d   1      -2.538  -5.227  -1.395  0.00  0.00     0.046 A 
ENDBRANCH   3  16
TORSDOF 2
