REMARK  4 active torsions:
REMARK  status: ('A' for Active; 'I' for Inactive)
REMARK    1  A    between atoms: C_3  and  C_1 
REMARK    2  A    between atoms: C_16  and  N_2 
REMARK    3  A    between atoms: C_11  and  C_4 
REMARK    4  A    between atoms: C_17  and  C_12 
ROOT
ATOM      1  C   UNL d   1      -0.347  -2.764  -0.022  0.00  0.00     0.058 A 
ATOM      2  C   UNL d   1      -0.010  -3.547   1.075  0.00  0.00     0.133 A 
ATOM      3  N   UNL d   1      -0.210  -4.905   1.067  0.00  0.00    -0.337 N 
ATOM      4  HN  UNL d   1       0.029  -5.467   1.885  1.00  0.00     0.167 HD
ATOM      5  C   UNL d   1      -0.724  -5.487  -0.030  0.00  0.00     0.116 A 
ATOM      6  N   UNL d   1      -1.058  -4.805  -1.132  0.00  0.00    -0.351 N 
ATOM      7  HN  UNL d   1      -1.456  -5.268  -1.949  1.00  0.00     0.166 HD
ATOM      8  C   UNL d   1      -0.840  -3.478  -1.108  0.00  0.00     0.107 A 
ENDROOT
BRANCH   1   9
ATOM      9  C   UNL d   1      -0.154  -1.321  -0.138  0.00  0.00     0.152 A 
ATOM     10  N   UNL d   1      -1.004  -0.401  -0.760  0.00  0.00    -0.224 N 
ATOM     11  N   UNL d   1      -0.310   0.745  -0.952  0.00  0.00     0.001 NA
ATOM     12  N   UNL d   1       0.850   0.579  -0.340  0.00  0.00    -0.007 NA
ATOM     13  N   UNL d   1       0.970  -0.691   0.148  0.00  0.00    -0.269 N 
ATOM     14  HN  UNL d   1       1.776  -1.079   0.639  1.00  0.00     0.185 HD
BRANCH  10  15
ATOM     15  C   UNL d   1      -2.325  -0.550  -1.250  0.00  0.00     0.056 A 
ATOM     16  C   UNL d   1      -3.228  -1.439  -0.650  0.00  0.00     0.031 A 
ATOM     17  C   UNL d   1      -4.477  -1.660  -1.233  0.00  0.00     0.002 A 
ATOM     18  C   UNL d   1      -4.831  -0.994  -2.405  0.00  0.00     0.000 A 
ATOM     19  C   UNL d   1      -3.954  -0.074  -2.978  0.00  0.00     0.002 A 
ATOM     20  C   UNL d   1      -2.710   0.167  -2.393  0.00  0.00     0.031 A 
ENDBRANCH  10  15
ENDBRANCH   1   9
BRANCH   2  21
ATOM     21  C   UNL d   1       0.610  -3.002   2.353  0.00  0.00     0.433 C 
ATOM     22  F   UNL d   1       0.614  -1.649   2.485  0.00  0.00    -0.165 F 
ATOM     23  F   UNL d   1      -0.049  -3.448   3.466  0.00  0.00    -0.165 F 
ATOM     24  F   UNL d   1       1.905  -3.401   2.514  0.00  0.00    -0.165 F 
ENDBRANCH   2  21
BRANCH   5  25
ATOM     25  C   UNL d   1      -0.888  -6.951  -0.042  0.00  0.00     0.008 A 
ATOM     26  C   UNL d   1      -1.477  -7.614  -1.137  0.00  0.00     0.015 A 
ATOM     27  C   UNL d   1      -1.599  -9.006  -1.172  0.00  0.00     0.001 A 
ATOM     28  C   UNL d   1      -1.131  -9.770  -0.104  0.00  0.00     0.000 A 
ATOM     29  C   UNL d   1      -0.557  -9.145   0.994  0.00  0.00     0.001 A 
ATOM     30  C   UNL d   1      -0.438  -7.750   1.025  0.00  0.00     0.015 A 
ENDBRANCH   5  25
TORSDOF 4
