REMARK  3 active torsions:
REMARK  status: ('A' for Active; 'I' for Inactive)
REMARK    1  A    between atoms: N_7  and  C_1 
REMARK    2  A    between atoms: C_13  and  C_6 
REMARK       I    between atoms: C_8  and  N_7 
REMARK    3  A    between atoms: C_9  and  C_8 
ROOT
ATOM      1  C   UNL d   1       0.081  -1.037   0.172  0.00  0.00     0.126 A 
ATOM      2  N   UNL d   1       0.300   1.221   0.257  0.00  0.00    -0.296 N 
ATOM      3  HN  UNL d   1       0.065   2.209   0.347  1.00  0.00     0.187 HD
ATOM      4  C   UNL d   1       1.418  -0.737   0.021  0.00  0.00     0.082 A 
ATOM      5  N   UNL d   1      -0.536   0.179   0.317  0.00  0.00    -0.281 N 
ATOM      6  C   UNL d   1       1.513   0.686   0.052  0.00  0.00     0.062 A 
ATOM      7  C   UNL d   1      -1.948   0.446   0.456  0.00  0.00     0.179 C 
ENDROOT
BRANCH   1   8
ATOM      8  N   UNL d   1      -0.551  -2.275   0.148  0.00  0.00    -0.307 N 
ATOM      9  C   UNL d   1       0.122  -3.539   0.005  0.00  0.00     0.264 C 
ATOM     10  O   UNL d   1       1.341  -3.597  -0.023  0.00  0.00    -0.267 OA
ATOM     11  H   UNL d   1      -1.560  -2.306   0.213  0.00  0.00     0.170 HD
BRANCH   9  12
ATOM     12  C   UNL d   1      -0.762  -4.687  -0.101  0.00  0.00     0.072 A 
ATOM     13  S   UNL d   1      -2.469  -4.522  -0.079  0.00  0.00    -0.097 SA
ATOM     14  C   UNL d   1      -2.706  -6.203  -0.278  0.00  0.00     0.050 A 
ATOM     15  C   UNL d   1      -1.513  -6.886  -0.349  0.00  0.00     0.009 A 
ATOM     16  C   UNL d   1      -0.392  -6.013  -0.244  0.00  0.00     0.025 A 
ENDBRANCH   9  12
ENDBRANCH   1   8
BRANCH   6  17
ATOM     17  C   UNL d   1       2.690   1.544  -0.141  0.00  0.00    -0.008 A 
ATOM     18  C   UNL d   1       3.970   1.014  -0.357  0.00  0.00     0.014 A 
ATOM     19  C   UNL d   1       5.061   1.860  -0.591  0.00  0.00     0.001 A 
ATOM     20  C   UNL d   1       4.887   3.243  -0.609  0.00  0.00     0.000 A 
ATOM     21  C   UNL d   1       3.627   3.786  -0.382  0.00  0.00     0.001 A 
ATOM     22  C   UNL d   1       2.539   2.942  -0.148  0.00  0.00     0.014 A 
ENDBRANCH   6  17
TORSDOF 3
