REMARK  4 active torsions:
REMARK  status: ('A' for Active; 'I' for Inactive)
REMARK    1  A    between atoms: C_13  and  C_3 
REMARK    2  A    between atoms: C_15  and  N_5 
REMARK    3  A    between atoms: C_16  and  N_9 
REMARK    4  A    between atoms: C_18  and  C_13 
ROOT
ATOM      1  C   UNL d   1      -1.370  -0.079  -0.060  0.00  0.00     0.117 C 
ATOM      2  C   UNL d   1      -2.598  -0.040  -0.616  0.00  0.00     0.093 C 
ATOM      3  C   UNL d   1       0.573   0.473   1.266  0.00  0.00     0.142 C 
ATOM      4  C   UNL d   1      -3.432  -1.209  -1.010  0.00  0.00     0.282 C 
ATOM      5  N   UNL d   1      -0.566  -1.160   0.354  0.00  0.00    -0.248 N 
ATOM      6  S   UNL d   1      -0.533   1.436   0.350  0.00  0.00    -0.046 SA
ATOM      7  N   UNL d   1       0.508  -0.817   1.194  0.00  0.00    -0.282 N 
ATOM      8  HN  UNL d   1       1.129  -1.474   1.667  1.00  0.00     0.188 HD
ATOM      9  N   UNL d   1      -4.346  -0.647  -1.911  0.00  0.00    -0.220 N 
ATOM     10  N   UNL d   1      -4.367   0.737  -1.893  0.00  0.00    -0.294 N 
ATOM     11  HN  UNL d   1      -4.999   1.346  -2.412  1.00  0.00     0.187 HD
ATOM     12  C   UNL d   1      -3.415   1.107  -1.080  0.00  0.00     0.041 C 
ATOM     13  O   UNL d   1      -3.333  -2.351  -0.597  0.00  0.00    -0.265 OA
ATOM     14  C   UNL d   1      -3.280   2.537  -0.665  0.00  0.00     0.071 C 
ENDROOT
BRANCH   5  15
ATOM     15  C   UNL d   1      -0.433  -2.443  -0.253  0.00  0.00     0.057 A 
ATOM     16  C   UNL d   1      -0.613  -2.658  -1.629  0.00  0.00     0.031 A 
ATOM     17  C   UNL d   1      -0.506  -3.942  -2.179  0.00  0.00     0.002 A 
ATOM     18  C   UNL d   1      -0.187  -5.027  -1.366  0.00  0.00     0.000 A 
ATOM     19  C   UNL d   1       0.037  -4.831  -0.007  0.00  0.00     0.002 A 
ATOM     20  C   UNL d   1      -0.077  -3.550   0.540  0.00  0.00     0.031 A 
ENDBRANCH   5  15
BRANCH   3  21
ATOM     21  C   UNL d   1       1.469   1.347   2.081  0.00  0.00     0.217 C 
ATOM     22  O   UNL d   1       1.034   2.384   2.571  0.00  0.00    -0.284 OA
BRANCH  21  23
ATOM     23  C   UNL d   1       2.858   0.926   2.383  0.00  0.00     0.017 A 
ATOM     24  C   UNL d   1       3.573   0.039   1.573  0.00  0.00     0.015 A 
ATOM     25  C   UNL d   1       4.878  -0.320   1.925  0.00  0.00     0.001 A 
ATOM     26  C   UNL d   1       5.465   0.201   3.079  0.00  0.00     0.000 A 
ATOM     27  C   UNL d   1       4.759   1.092   3.883  0.00  0.00     0.001 A 
ATOM     28  C   UNL d   1       3.462   1.460   3.532  0.00  0.00     0.015 A 
ENDBRANCH  21  23
ENDBRANCH   3  21
BRANCH   9  29
ATOM     29  C   UNL d   1      -5.249  -1.317  -2.773  0.00  0.00     0.060 A 
ATOM     30  C   UNL d   1      -5.363  -2.712  -2.791  0.00  0.00     0.031 A 
ATOM     31  C   UNL d   1      -6.228  -3.348  -3.690  0.00  0.00     0.002 A 
ATOM     32  C   UNL d   1      -6.982  -2.599  -4.590  0.00  0.00     0.000 A 
ATOM     33  C   UNL d   1      -6.880  -1.212  -4.588  0.00  0.00     0.002 A 
ATOM     34  C   UNL d   1      -6.025  -0.578  -3.683  0.00  0.00     0.031 A 
ENDBRANCH   9  29
TORSDOF 4
