REMARK  2 active torsions:
REMARK  status: ('A' for Active; 'I' for Inactive)
REMARK    1  A    between atoms: C_3  and  C_4 
REMARK    2  A    between atoms: C_12  and  C_7 
ROOT
ATOM      1  N   UNL d   1       0.257  -0.401   0.955  0.00  0.00    -0.348 N 
ATOM      2  HN  UNL d   1       0.199  -0.720   1.922  1.00  0.00     0.166 HD
ATOM      3  C   UNL d   1       0.413   0.923   0.564  0.00  0.00     0.057 A 
ATOM      4  C   UNL d   1       0.194  -1.187  -0.107  0.00  0.00     0.084 A 
ATOM      5  S   UNL d   1       0.431  -0.378  -1.616  0.00  0.00    -0.081 SA
ATOM      6  C   UNL d   1       0.529   1.116  -0.799  0.00  0.00     0.082 A 
ENDROOT
BRANCH   3   7
ATOM      7  C   UNL d   1       0.437   2.049   1.554  0.00  0.00     0.035 A 
ATOM      8  S   UNL d   1       0.552   3.706   1.133  0.00  0.00    -0.074 SA
ATOM      9  C   UNL d   1       0.471   4.182   2.755  0.00  0.00     0.097 A 
ATOM     10 CL   UNL d   1       0.511   5.862   3.125  0.00  0.00    -0.074 Cl
ATOM     11  C   UNL d   1       0.377   3.123   3.622  0.00  0.00     0.064 A 
ATOM     12  C   UNL d   1       0.354   1.878   2.922  0.00  0.00     0.047 A 
ATOM     13 CL   UNL d   1       0.288   3.215   5.328  0.00  0.00    -0.082 Cl
ENDBRANCH   3   7
BRANCH   4  14
ATOM     14  C   UNL d   1      -0.012  -2.647  -0.083  0.00  0.00    -0.002 A 
ATOM     15  C   UNL d   1      -0.708  -3.311  -1.108  0.00  0.00     0.015 A 
ATOM     16  C   UNL d   1      -0.862  -4.700  -1.095  0.00  0.00     0.007 A 
ATOM     17  C   UNL d   1      -0.330  -5.461  -0.052  0.00  0.00    -0.062 A 
ATOM     18  C   UNL d   1       0.339  -4.808   0.989  0.00  0.00     0.007 A 
ATOM     19  C   UNL d   1      -0.480  -6.953  -0.075  0.00  0.00     0.048 C 
ATOM     20  C   UNL d   1       0.491  -3.415   0.976  0.00  0.00     0.015 A 
ENDBRANCH   4  14
TORSDOF 2
