REMARK  4 active torsions:
REMARK  status: ('A' for Active; 'I' for Inactive)
REMARK       I    between atoms: C_4  and  N_1 
REMARK    1  A    between atoms: C_9  and  C_3 
REMARK    2  A    between atoms: C_7  and  C_4 
REMARK    3  A    between atoms: C_13  and  C_8 
REMARK    4  A    between atoms: O_22  and  C_13 
ROOT
ATOM      1  N   UNL d   1       3.320  -0.221  -0.229  0.00  0.00    -0.328 N 
ATOM      2  C   UNL d   1       0.990  -0.810   0.106  0.00  0.00     0.049 A 
ATOM      3  C   UNL d   1       2.392  -1.351   0.115  0.00  0.00     0.245 C 
ATOM      4  C   UNL d   1       4.630  -0.398  -0.696  0.00  0.00     0.272 C 
ATOM      5  C   UNL d   1       0.596   0.505  -0.011  0.00  0.00    -0.019 A 
ATOM      6  N   UNL d   1      -0.132  -1.593   0.143  0.00  0.00    -0.356 N 
ATOM      7  C   UNL d   1      -0.823   0.529  -0.002  0.00  0.00    -0.001 A 
ATOM      8  C   UNL d   1      -1.252  -0.799   0.086  0.00  0.00     0.043 A 
ATOM      9  C   UNL d   1       2.968   1.108   0.330  0.00  0.00     0.132 C 
ATOM     10  C   UNL d   1       1.593   1.600  -0.154  0.00  0.00     0.061 C 
ATOM     11  O   UNL d   1       5.424   0.544  -0.717  0.00  0.00    -0.266 OA
ATOM     12  C   UNL d   1      -1.791   1.547  -0.075  0.00  0.00     0.014 A 
ATOM     13  C   UNL d   1      -2.603  -1.159   0.096  0.00  0.00     0.030 A 
ATOM     14  C   UNL d   1      -3.150   1.206  -0.052  0.00  0.00     0.001 A 
ATOM     15  C   UNL d   1      -3.544  -0.131   0.030  0.00  0.00     0.002 A 
ATOM     16  H   UNL d   1      -0.157  -2.602   0.197  0.00  0.00     0.166 HD
ENDROOT
BRANCH   3  17
ATOM     17  C   UNL d   1       2.771  -2.120   1.414  0.00  0.00     0.413 C 
ATOM     18  F   UNL d   1       3.908  -1.642   1.976  0.00  0.00    -0.168 F 
ATOM     19  F   UNL d   1       1.806  -2.067   2.363  0.00  0.00    -0.168 F 
ATOM     20  F   UNL d   1       2.983  -3.435   1.151  0.00  0.00    -0.168 F 
ENDBRANCH   3  17
BRANCH   4  21
ATOM     21  C   UNL d   1       5.162  -1.737  -1.115  0.00  0.00     0.117 A 
ATOM     22  C   UNL d   1       6.520  -2.039  -1.071  0.00  0.00     0.070 A 
ATOM     23  C   UNL d   1       6.913  -3.309  -1.530  0.00  0.00     0.022 A 
ATOM     24  C   UNL d   1       5.970  -4.225  -1.983  0.00  0.00     0.018 A 
ATOM     25  C   UNL d   1       4.648  -3.840  -1.983  0.00  0.00     0.088 A 
ATOM     26  N   UNL d   1       4.233  -2.623  -1.575  0.00  0.00    -0.361 N 
ATOM     27  HN  UNL d   1       3.245  -2.370  -1.610  1.00  0.00     0.165 HD
BRANCH  22  28
ATOM     28  C   UNL d   1       7.615  -1.178  -0.565  0.00  0.00     0.178 C 
ATOM     29  O   UNL d   1       8.745  -1.266  -1.013  0.00  0.00    -0.646 OA
BRANCH  28  30
ATOM     30  O   UNL d   1       7.346  -0.503   0.574  0.00  0.00    -0.773 OA
ATOM     31  H   UNL d   1       6.515   0.019   0.519  0.00  0.00     0.167 HD
ENDBRANCH  28  30
ENDBRANCH  22  28
ENDBRANCH   4  21
TORSDOF 4
