REMARK  4 active torsions:
REMARK  status: ('A' for Active; 'I' for Inactive)
REMARK    1  A    between atoms: C_7  and  C_3 
REMARK    2  A    between atoms: C_18  and  C_4 
REMARK    3  A    between atoms: C_10  and  C_9 
REMARK    4  A    between atoms: C_11  and  C_17 
ROOT
ATOM      1  N   UNL d   1       1.245   0.197  -0.228  0.00  0.00    -0.318 N 
ATOM      2  HN  UNL d   1       2.213   0.338  -0.517  1.00  0.00     0.169 HD
ATOM      3  C   UNL d   1       0.281   1.139   0.039  0.00  0.00     0.145 A 
ATOM      4  C   UNL d   1       0.606  -0.931  -0.017  0.00  0.00     0.182 A 
ATOM      5  N   UNL d   1      -0.915   0.631   0.373  0.00  0.00    -0.241 N 
ATOM      6  HN  UNL d   1      -1.774   1.132   0.601  1.00  0.00     0.196 HD
ATOM      7  O   UNL d   1      -0.702  -0.749   0.335  0.00  0.00    -0.217 OA
ENDROOT
BRANCH   3   8
ATOM      8  C   UNL d   1       0.581   2.602  -0.003  0.00  0.00     0.051 A 
ATOM      9  S   UNL d   1      -0.522   3.830   0.417  0.00  0.00    -0.084 SA
ATOM     10  C   UNL d   1       0.643   5.064   0.172  0.00  0.00     0.041 A 
ATOM     11  C   UNL d   1       1.841   4.537  -0.270  0.00  0.00     0.023 A 
ATOM     12  C   UNL d   1       1.807   3.115  -0.370  0.00  0.00     0.024 A 
BRANCH  10  13
ATOM     13  C   UNL d   1       0.361   6.452   0.417  0.00  0.00     0.117 A 
ATOM     14  O   UNL d   1       1.307   7.431   0.245  0.00  0.00    -0.237 OA
ATOM     15  N   UNL d   1       0.780   8.670   0.563  0.00  0.00    -0.272 N 
ATOM     16  C   UNL d   1      -0.480   8.433   0.923  0.00  0.00     0.117 A 
ATOM     17  HN  UNL d   1       1.254   9.573   0.528  1.00  0.00     0.194 HD
ATOM     18  C   UNL d   1      -0.798   7.067   0.850  0.00  0.00     0.059 A 
ENDBRANCH  10  13
ENDBRANCH   3   8
BRANCH   4  19
ATOM     19  C   UNL d   1       1.109  -2.297  -0.067  0.00  0.00     0.018 A 
ATOM     20  C   UNL d   1       2.474  -2.511  -0.325  0.00  0.00     0.032 A 
ATOM     21  C   UNL d   1       3.019  -3.804  -0.362  0.00  0.00     0.048 A 
ATOM     22  C   UNL d   1       2.172  -4.899  -0.137  0.00  0.00     0.016 A 
ATOM     23  C   UNL d   1       0.815  -4.703   0.116  0.00  0.00     0.002 A 
ATOM     24  C   UNL d   1       0.286  -3.410   0.151  0.00  0.00     0.016 A 
BRANCH  21  25
ATOM     25  C   UNL d   1       4.488  -4.024  -0.631  0.00  0.00     0.417 C 
ATOM     26  F   UNL d   1       5.183  -2.871  -0.837  0.00  0.00    -0.166 F 
ATOM     27  F   UNL d   1       5.115  -4.660   0.396  0.00  0.00    -0.166 F 
ATOM     28  F   UNL d   1       4.704  -4.791  -1.735  0.00  0.00    -0.166 F 
ENDBRANCH  21  25
ENDBRANCH   4  19
TORSDOF 4
