REMARK  5 active torsions:
REMARK  status: ('A' for Active; 'I' for Inactive)
REMARK    1  A    between atoms: C_7  and  N_1 
REMARK    2  A    between atoms: C_8  and  C_5 
REMARK    3  A    between atoms: N_15  and  C_7 
REMARK    4  A    between atoms: C_21  and  N_15 
REMARK    5  A    between atoms: C_16  and  C_21 
ROOT
ATOM      1  N   UNL d   1      -3.041   1.100  -0.163  0.00  0.00    -0.257 N 
ATOM      2  N   UNL d   1      -1.717   1.479  -0.308  0.00  0.00    -0.298 N 
ATOM      3  HN  UNL d   1      -1.372   2.378  -0.642  1.00  0.00     0.187 HD
ATOM      4  C   UNL d   1      -1.007   0.467   0.066  0.00  0.00     0.043 C 
ATOM      5  C   UNL d   1      -3.179  -0.341   0.187  0.00  0.00     0.155 C 
ATOM      6  C   UNL d   1      -1.760  -0.696   0.650  0.00  0.00     0.068 C 
ATOM      7  C   UNL d   1       0.451   0.404   0.017  0.00  0.00    -0.005 A 
ATOM      8  C   UNL d   1      -1.138  -2.064   0.380  0.00  0.00     0.018 C 
ATOM      9  C   UNL d   1       1.022  -0.858  -0.183  0.00  0.00    -0.046 A 
ATOM     10  C   UNL d   1       0.128  -2.033  -0.489  0.00  0.00     0.040 C 
ATOM     11  C   UNL d   1       1.228   1.552   0.174  0.00  0.00     0.014 A 
ATOM     12  C   UNL d   1       2.416  -0.959  -0.202  0.00  0.00     0.008 A 
ATOM     13  C   UNL d   1       2.615   1.435   0.165  0.00  0.00     0.001 A 
ATOM     14  C   UNL d   1       3.206   0.180  -0.013  0.00  0.00     0.001 A 
ENDROOT
BRANCH   1  15
ATOM     15  C   UNL d   1      -4.063   2.008  -0.348  0.00  0.00     0.189 C 
ATOM     16  S   UNL d   1      -5.553   1.938   0.417  0.00  0.00    -0.039 SA
BRANCH  15  17
ATOM     17  N   UNL d   1      -3.858   3.043  -1.220  0.00  0.00    -0.362 N 
ATOM     18  H   UNL d   1      -4.605   3.723  -1.249  0.00  0.00     0.162 HD
BRANCH  17  19
ATOM     19  C   UNL d   1      -2.963   3.010  -2.357  0.00  0.00     0.148 C 
BRANCH  19  20
ATOM     20  C   UNL d   1      -3.771   3.295  -3.584  0.00  0.00    -0.018 C 
ATOM     21  C   UNL d   1      -3.501   4.275  -4.455  0.00  0.00     0.008 C 
ENDBRANCH  19  20
ENDBRANCH  17  19
ENDBRANCH  15  17
ENDBRANCH   1  15
BRANCH   5  22
ATOM     22  C   UNL d   1      -3.759  -1.098  -1.006  0.00  0.00    -0.011 A 
ATOM     23  C   UNL d   1      -4.928  -1.875  -0.900  0.00  0.00     0.042 A 
ATOM     24 CL   UNL d   1      -5.678  -2.224   0.619  0.00  0.00    -0.084 Cl
ATOM     25  C   UNL d   1      -5.542  -2.407  -2.041  0.00  0.00     0.024 A 
ATOM     26  C   UNL d   1      -4.992  -2.195  -3.304  0.00  0.00     0.002 A 
ATOM     27  C   UNL d   1      -3.808  -1.476  -3.425  0.00  0.00     0.001 A 
ATOM     28  C   UNL d   1      -3.196  -0.941  -2.289  0.00  0.00     0.011 A 
ENDBRANCH   5  22
TORSDOF 5
