REMARK  4 active torsions:
REMARK  status: ('A' for Active; 'I' for Inactive)
REMARK    1  A    between atoms: N_7  and  C_1 
REMARK    2  A    between atoms: N_14  and  N_7 
REMARK    3  A    between atoms: C_9  and  N_14 
REMARK    4  A    between atoms: C_15  and  C_10 
ROOT
ATOM      1  N   UNL d   1      -2.929   2.232   0.077  0.00  0.00    -0.279 N 
ATOM      2  H   UNL d   1      -3.442   1.456   0.507  0.00  0.00     0.189 HD
ENDROOT
BRANCH   1   3
ATOM      3  C   UNL d   1      -3.546   3.442   0.142  0.00  0.00     0.163 A 
ATOM      4  N   UNL d   1      -3.086   4.580  -0.334  0.00  0.00    -0.334 N 
ATOM      5  C   UNL d   1      -3.962   5.617  -0.062  0.00  0.00     0.051 A 
ATOM      6  HN  UNL d   1      -2.204   4.684  -0.836  1.00  0.00     0.168 HD
ATOM      7  C   UNL d   1      -5.055   5.259   0.701  0.00  0.00     0.083 A 
ATOM      8  S   UNL d   1      -5.057   3.568   0.966  0.00  0.00    -0.062 SA
BRANCH   5   9
ATOM      9  C   UNL d   1      -3.710   6.967  -0.554  0.00  0.00    -0.009 A 
ATOM     10  C   UNL d   1      -4.758   7.873  -0.777  0.00  0.00     0.015 A 
ATOM     11  C   UNL d   1      -4.502   9.151  -1.284  0.00  0.00     0.024 A 
ATOM     12  C   UNL d   1      -3.194   9.531  -1.573  0.00  0.00     0.034 A 
ATOM     13  C   UNL d   1      -2.140   8.646  -1.361  0.00  0.00     0.024 A 
ATOM     14 CL   UNL d   1      -2.884  11.100  -2.209  0.00  0.00    -0.084 Cl
ATOM     15  C   UNL d   1      -2.399   7.367  -0.857  0.00  0.00     0.015 A 
ENDBRANCH   5   9
ENDBRANCH   1   3
BRANCH   1  16
ATOM     16  N   UNL d   1      -1.572   2.128  -0.043  0.00  0.00    -0.293 N 
ATOM     17  HN  UNL d   1      -1.012   2.869  -0.463  1.00  0.00     0.187 HD
BRANCH  16  18
ATOM     18  C   UNL d   1      -1.034   1.039   0.403  0.00  0.00     0.129 A 
ATOM     19  C   UNL d   1      -1.716  -0.181   1.029  0.00  0.00     0.275 A 
ATOM     20  N   UNL d   1      -0.693  -1.032   1.388  0.00  0.00    -0.321 N 
ATOM     21  O   UNL d   1      -2.912  -0.313   1.177  0.00  0.00    -0.266 OA
ATOM     22  C   UNL d   1       0.543  -0.474   1.070  0.00  0.00     0.047 A 
ATOM     23  H   UNL d   1      -0.842  -1.918   1.847  0.00  0.00     0.169 HD
ATOM     24  C   UNL d   1       0.395   0.770   0.460  0.00  0.00     0.024 A 
ATOM     25  C   UNL d   1       1.792  -1.001   1.315  0.00  0.00     0.030 A 
ATOM     26  C   UNL d   1       1.468   1.548   0.077  0.00  0.00     0.016 A 
ATOM     27  C   UNL d   1       2.740   1.029   0.323  0.00  0.00     0.001 A 
ATOM     28  C   UNL d   1       2.900  -0.232   0.935  0.00  0.00     0.002 A 
ENDBRANCH  16  18
ENDBRANCH   1  16
TORSDOF 4
