REMARK  2 active torsions:
REMARK  status: ('A' for Active; 'I' for Inactive)
REMARK    1  A    between atoms: N_8  and  S_1 
REMARK    2  A    between atoms: C_13  and  N_8 
ROOT
ATOM      1  C   UNL d   1       3.959   3.663   2.802  0.00  0.00     0.198 A 
ATOM      2  C   UNL d   1       2.578   3.554   2.314  0.00  0.00     0.051 A 
ATOM      3  C   UNL d   1       4.240   4.750   3.749  0.00  0.00     0.049 A 
ATOM      4  O   UNL d   1       1.882   5.384   3.772  0.00  0.00    -0.309 OA
ATOM      5  C   UNL d   1       1.616   4.420   2.830  0.00  0.00     0.090 A 
ATOM      6  C   UNL d   1       3.185   5.553   4.176  0.00  0.00     0.090 A 
ATOM      7  C   UNL d   1       2.244   2.603   1.345  0.00  0.00     0.042 A 
ATOM      8  O   UNL d   1       4.829   2.886   2.438  0.00  0.00    -0.286 OA
ATOM      9  C   UNL d   1       0.926   2.521   0.900  0.00  0.00     0.023 A 
ATOM     10  C   UNL d   1       0.298   4.331   2.378  0.00  0.00     0.040 A 
ATOM     11  C   UNL d   1      -0.045   3.388   1.404  0.00  0.00     0.027 A 
ATOM     12  C   UNL d   1       5.542   4.976   4.205  0.00  0.00     0.018 A 
ATOM     13  C   UNL d   1       3.435   6.597   5.068  0.00  0.00     0.038 A 
ATOM     14  C   UNL d   1       5.787   6.024   5.093  0.00  0.00     0.001 A 
ATOM     15  C   UNL d   1       4.735   6.833   5.523  0.00  0.00     0.003 A 
ENDROOT
BRANCH   9  16
ATOM     16  N   UNL d   1       0.578   1.593  -0.125  0.00  0.00    -0.186 NA
ATOM     17  H   UNL d   1       1.038   0.682  -0.047  0.00  0.00     0.145 HD
BRANCH  16  18
ATOM     18  S   UNL d   1       0.748   2.121  -1.729  0.00  0.00     0.210 S 
ATOM     19  O   UNL d   1       1.141   0.943  -2.473  0.00  0.00    -0.211 OA
ATOM     20  O   UNL d   1       1.521   3.341  -1.779  0.00  0.00    -0.211 OA
ATOM     21  C   UNL d   1      -0.940   2.486  -2.153  0.00  0.00     0.180 C 
ENDBRANCH  16  18
ENDBRANCH   9  16
TORSDOF 2
