REMARK  4 active torsions:
REMARK  status: ('A' for Active; 'I' for Inactive)
REMARK    1  A    between atoms: C_7  and  C_1 
REMARK    2  A    between atoms: C_8  and  C_2 
REMARK    3  A    between atoms: O_11  and  C_7 
REMARK    4  A    between atoms: O_12  and  C_8 
ROOT
ATOM      1  C   UNL d   1      -0.147  -1.341   0.021  0.00  0.00     0.155 A 
ATOM      2  C   UNL d   1       1.137  -0.811  -0.011  0.00  0.00     0.155 A 
ATOM      3  N   UNL d   1      -0.378   0.849   0.028  0.00  0.00    -0.021 NA
ATOM      4  N   UNL d   1      -1.048  -0.291   0.041  0.00  0.00    -0.276 N 
ATOM      5  HN  UNL d   1      -2.063  -0.381   0.062  1.00  0.00     0.184 HD
ATOM      6  N   UNL d   1       0.920   0.542   0.001  0.00  0.00    -0.276 N 
ATOM      7  H   UNL d   1       1.607   1.289  -0.010  0.00  0.00     0.184 HD
ENDROOT
BRANCH   1   8
ATOM      8  C   UNL d   1      -0.612  -2.724   0.034  0.00  0.00     0.313 C 
ATOM      9  O   UNL d   1       0.110  -3.713   0.021  0.00  0.00    -0.258 OA
BRANCH   8  10
ATOM     10  O   UNL d   1      -1.978  -2.799   0.064  0.00  0.00    -0.321 OA
ATOM     11  C   UNL d   1      -2.508  -4.124   0.083  0.00  0.00     0.213 C 
ENDBRANCH   8  10
ENDBRANCH   1   8
BRANCH   2  12
ATOM     12  C   UNL d   1       2.470  -1.323  -0.049  0.00  0.00     0.313 C 
ATOM     13  O   UNL d   1       3.466  -0.609  -0.067  0.00  0.00    -0.258 OA
BRANCH  12  14
ATOM     14  O   UNL d   1       2.486  -2.673  -0.069  0.00  0.00    -0.321 OA
ATOM     15  C   UNL d   1       3.782  -3.269  -0.118  0.00  0.00     0.213 C 
ENDBRANCH  12  14
ENDBRANCH   2  12
TORSDOF 4
