REMARK  6 active torsions:
REMARK  status: ('A' for Active; 'I' for Inactive)
REMARK    1  A    between atoms: C_2  and  N_1 
REMARK    2  A    between atoms: C_10  and  C_3 
REMARK    3  A    between atoms: O_15  and  C_5 
REMARK    4  A    between atoms: O_16  and  C_7 
REMARK    5  A    between atoms: C_8  and  C_10 
REMARK       I    between atoms: N_13  and  C_8 
REMARK    6  A    between atoms: N_14  and  N_13 
ROOT
ATOM      1  C   UNL d   1       0.172   1.021  -0.816  0.00  0.00     0.112 A 
ATOM      2  C   UNL d   1       0.571   1.096  -2.161  0.00  0.00    -0.013 A 
ATOM      3  C   UNL d   1      -0.956   1.700  -0.345  0.00  0.00     0.076 A 
ATOM      4  C   UNL d   1      -1.706   2.497  -1.215  0.00  0.00     0.103 A 
ATOM      5  C   UNL d   1      -0.193   1.911  -3.019  0.00  0.00     0.049 A 
ATOM      6  C   UNL d   1      -1.310   2.633  -2.558  0.00  0.00     0.102 A 
ENDROOT
BRANCH   2   7
ATOM      7  C   UNL d   1       1.786   0.383  -2.722  0.00  0.00     0.145 C 
BRANCH   7   8
ATOM      8  C   UNL d   1       1.726  -1.130  -2.588  0.00  0.00     0.235 C 
ATOM      9  O   UNL d   1       0.741  -1.790  -2.909  0.00  0.00    -0.272 OA
ATOM     10  N   UNL d   1       2.880  -1.692  -2.054  0.00  0.00    -0.294 N 
ATOM     11  H   UNL d   1       3.697  -1.122  -1.842  0.00  0.00     0.183 HD
BRANCH  10  12
ATOM     12  N   UNL d   1       2.968  -3.091  -1.900  0.00  0.00    -0.247 NA
ATOM     13  H   UNL d   1       2.076  -3.490  -2.230  0.00  0.00     0.143 HD
ATOM     14  H   UNL d   1       2.983  -3.304  -0.898  0.00  0.00     0.143 HD
ENDBRANCH  10  12
ENDBRANCH   7   8
ENDBRANCH   2   7
BRANCH   1  15
ATOM     15  N   UNL d   1       0.947   0.271   0.161  0.00  0.00    -0.115 N 
ATOM     16  O   UNL d   1       2.152   0.553   0.257  0.00  0.00    -0.532 OA
ATOM     17  O   UNL d   1       0.356  -0.588   0.823  0.00  0.00    -0.532 OA
ENDBRANCH   1  15
BRANCH   6  18
ATOM     18  O   UNL d   1      -2.019   3.504  -3.341  0.00  0.00    -0.353 OA
ATOM     19  C   UNL d   1      -1.582   3.725  -4.676  0.00  0.00     0.210 C 
ENDBRANCH   6  18
BRANCH   4  20
ATOM     20  O   UNL d   1      -2.751   3.134  -0.596  0.00  0.00    -0.353 OA
ATOM     21  C   UNL d   1      -3.913   3.370  -1.383  0.00  0.00     0.210 C 
ENDBRANCH   4  20
TORSDOF 6
