REMARK  4 active torsions:
REMARK  status: ('A' for Active; 'I' for Inactive)
REMARK    1  A    between atoms: C_7  and  C_1 
REMARK    2  A    between atoms: C_8  and  C_3 
REMARK    3  A    between atoms: C_9  and  C_7 
REMARK    4  A    between atoms: O_19  and  C_8 
ROOT
ATOM      1  C   UNL d   1       0.070   1.838  -0.127  0.00  0.00     0.066 A 
ATOM      2  C   UNL d   1      -0.499   0.618  -0.066  0.00  0.00     0.090 A 
ATOM      3  C   UNL d   1       1.532   1.901  -0.106  0.00  0.00     0.061 A 
ATOM      4  N   UNL d   1       0.267  -0.533  -0.086  0.00  0.00    -0.307 N 
ATOM      5  C   UNL d   1       1.644  -0.542  -0.087  0.00  0.00     0.249 A 
ATOM      6  C   UNL d   1       2.285   0.786  -0.104  0.00  0.00     0.093 A 
ATOM      7  S   UNL d   1      -2.180   0.225   0.100  0.00  0.00    -0.109 SA
ATOM      8  O   UNL d   1       2.336  -1.554  -0.067  0.00  0.00    -0.268 OA
ATOM      9  C   UNL d   1      -0.481  -1.774   0.067  0.00  0.00     0.143 C 
ATOM     10  C   UNL d   1      -1.917  -1.516  -0.345  0.00  0.00     0.101 C 
ENDROOT
BRANCH   1  11
ATOM     11  C   UNL d   1      -0.736   3.107  -0.040  0.00  0.00     0.203 C 
ATOM     12  O   UNL d   1      -0.443   3.883   0.873  0.00  0.00    -0.286 OA
BRANCH  11  13
ATOM     13  C   UNL d   1      -1.822   3.346  -0.994  0.00  0.00     0.055 A 
ATOM     14  S   UNL d   1      -3.012   4.526  -0.606  0.00  0.00    -0.098 SA
ATOM     15  C   UNL d   1      -3.938   4.162  -1.994  0.00  0.00     0.050 A 
ATOM     16  C   UNL d   1      -3.341   3.197  -2.772  0.00  0.00     0.009 A 
ATOM     17  C   UNL d   1      -2.104   2.751  -2.214  0.00  0.00     0.023 A 
ENDBRANCH  11  13
ENDBRANCH   1  11
BRANCH   3  18
ATOM     18  C   UNL d   1       2.275   3.183  -0.103  0.00  0.00     0.294 C 
ATOM     19  O   UNL d   1       2.074   4.085  -0.903  0.00  0.00    -0.259 OA
BRANCH  18  20
ATOM     20  O   UNL d   1       3.232   3.146   0.863  0.00  0.00    -0.322 OA
ATOM     21  C   UNL d   1       4.104   4.274   0.896  0.00  0.00     0.213 C 
ENDBRANCH  18  20
ENDBRANCH   3  18
TORSDOF 4
