REMARK  6 active torsions:
REMARK  status: ('A' for Active; 'I' for Inactive)
REMARK    1  A    between atoms: N_10  and  C_1 
REMARK    2  A    between atoms: C_11  and  N_2 
REMARK    3  A    between atoms: C_19  and  N_10 
REMARK    4  A    between atoms: C_20  and  N_10 
REMARK    5  A    between atoms: C_15  and  C_20 
REMARK    6  A    between atoms: C_16  and  C_19 
ROOT
ATOM      1  N   UNL d   1       0.598  -3.618   1.202  0.00  0.00    -0.197 NA
ATOM      2  C   UNL d   1       1.564  -3.023   0.974  0.00  0.00     0.060 C 
ATOM      3  C   UNL d   1       2.827  -2.329   0.675  0.00  0.00     0.143 C 
ENDROOT
BRANCH   3   4
ATOM      4  C   UNL d   1       2.805  -0.815   0.930  0.00  0.00     0.139 C 
BRANCH   4   5
ATOM      5  N   UNL d   1       2.119   0.027  -0.083  0.00  0.00    -0.356 N 
BRANCH   5   6
ATOM      6  C   UNL d   1       0.795  -0.159  -0.437  0.00  0.00     0.174 C 
ATOM      7  N   UNL d   1      -0.143  -0.517   0.480  0.00  0.00    -0.333 N 
ATOM      8  H   UNL d   1      -0.943  -0.961   0.033  0.00  0.00     0.168 HD
ATOM      9  S   UNL d   1       0.256  -0.132  -2.033  0.00  0.00    -0.041 SA
BRANCH   7  10
ATOM     10  C   UNL d   1      -0.305  -0.311   1.864  0.00  0.00     0.035 A 
ATOM     11  C   UNL d   1       0.411   0.616   2.617  0.00  0.00     0.055 A 
ATOM     12  C   UNL d   1       0.250   0.668   4.011  0.00  0.00     0.058 A 
ATOM     13 CL   UNL d   1       1.236   1.784   4.890  0.00  0.00    -0.082 Cl
ATOM     14  C   UNL d   1      -0.664  -0.178   4.651  0.00  0.00     0.055 A 
ATOM     15  C   UNL d   1      -1.448  -1.041   3.888  0.00  0.00     0.028 A 
ATOM     16 CL   UNL d   1      -0.858  -0.220   6.366  0.00  0.00    -0.083 Cl
ATOM     17  C   UNL d   1      -1.278  -1.094   2.502  0.00  0.00     0.031 A 
ENDBRANCH   7  10
ENDBRANCH   5   6
BRANCH   5  18
ATOM     18  C   UNL d   1       2.977   0.985  -0.843  0.00  0.00     0.139 C 
BRANCH  18  19
ATOM     19  C   UNL d   1       3.944   0.343  -1.847  0.00  0.00     0.143 C 
ATOM     20  C   UNL d   1       4.804   1.355  -2.491  0.00  0.00     0.060 C 
ATOM     21  N   UNL d   1       5.501   2.135  -2.993  0.00  0.00    -0.197 NA
ENDBRANCH  18  19
ENDBRANCH   5  18
ENDBRANCH   4   5
ENDBRANCH   3   4
TORSDOF 6
