REMARK  3 active torsions:
REMARK  status: ('A' for Active; 'I' for Inactive)
REMARK    1  A    between atoms: C_2  and  C_1 
REMARK    2  A    between atoms: C_6  and  C_1 
REMARK    3  A    between atoms: N_4  and  C_3 
ROOT
ATOM      1  C   UNL d   1       0.175  -1.338  -0.037  0.00  0.00     0.015 A 
ATOM      2  C   UNL d   1      -1.405  -3.718   0.013  0.00  0.00     0.029 A 
ATOM      3  C   UNL d   1       0.357  -2.289   0.967  0.00  0.00     0.018 A 
ATOM      4  C   UNL d   1      -0.764  -1.584  -1.035  0.00  0.00     0.018 A 
ATOM      5  C   UNL d   1      -0.429  -3.452   0.989  0.00  0.00     0.030 A 
ATOM      6  C   UNL d   1      -1.543  -2.749  -0.998  0.00  0.00     0.030 A 
ENDROOT
BRANCH   1   7
ATOM      7  C   UNL d   1       0.969  -0.077  -0.094  0.00  0.00     0.192 C 
ATOM      8  O   UNL d   1       1.239   0.408  -1.192  0.00  0.00    -0.287 OA
BRANCH   7   9
ATOM      9  C   UNL d   1       1.438   0.602   1.139  0.00  0.00     0.015 A 
ATOM     10  C   UNL d   1       0.693   0.588   2.324  0.00  0.00     0.015 A 
ATOM     11  C   UNL d   1       1.186   1.216   3.470  0.00  0.00     0.001 A 
ATOM     12  C   UNL d   1       2.410   1.882   3.429  0.00  0.00     0.000 A 
ATOM     13  C   UNL d   1       3.139   1.935   2.240  0.00  0.00     0.001 A 
ATOM     14  C   UNL d   1       2.650   1.302   1.095  0.00  0.00     0.015 A 
ENDBRANCH   7   9
ENDBRANCH   1   7
BRANCH   2  15
ATOM     15  N   UNL d   1      -2.231  -4.834   0.058  0.00  0.00    -0.390 N 
ATOM     16  C   UNL d   1      -2.642  -5.497  -1.181  0.00  0.00     0.149 C 
ATOM     17  C   UNL d   1      -2.337  -5.669   1.251  0.00  0.00     0.149 C 
ENDBRANCH   2  15
TORSDOF 3
