REMARK  4 active torsions:
REMARK  status: ('A' for Active; 'I' for Inactive)
REMARK    1  A    between atoms: O_11  and  C_3 
REMARK    2  A    between atoms: S_9  and  C_4 
REMARK    3  A    between atoms: C_13  and  C_5 
REMARK    4  A    between atoms: C_10  and  C_13 
ROOT
ATOM      1  N   UNL d   1      -0.593   1.280  -0.023  0.00  0.00    -0.317 N 
ATOM      2  HN  UNL d   1      -1.057   2.188  -0.030  1.00  0.00     0.170 HD
ATOM      3  C   UNL d   1      -1.270   0.128  -0.008  0.00  0.00     0.150 A 
ATOM      4  C   UNL d   1       0.740   1.154  -0.026  0.00  0.00     0.146 A 
ATOM      5  C   UNL d   1      -0.725  -1.138   0.007  0.00  0.00     0.018 A 
ATOM      6  N   UNL d   1       1.395  -0.016  -0.026  0.00  0.00    -0.340 N 
ATOM      7  HN  UNL d   1       2.414  -0.049  -0.036  1.00  0.00     0.167 HD
ATOM      8  C   UNL d   1       0.659  -1.151  -0.014  0.00  0.00     0.018 A 
ATOM      9  C   UNL d   1       1.452  -2.426  -0.013  0.00  0.00     0.069 C 
ENDROOT
BRANCH   5  10
ATOM     10  C   UNL d   1      -1.574  -2.375   0.038  0.00  0.00     0.071 C 
BRANCH  10  11
ATOM     11  C   UNL d   1      -1.902  -3.019  -1.285  0.00  0.00    -0.032 C 
ATOM     12  C   UNL d   1      -1.613  -2.580  -2.517  0.00  0.00     0.007 C 
ENDBRANCH  10  11
ENDBRANCH   5  10
BRANCH   3  13
ATOM     13  O   UNL d   1      -2.616   0.313   0.003  0.00  0.00    -0.346 OA
ATOM     14  H   UNL d   1      -2.660   1.287  -0.021  0.00  0.00     0.219 HD
ENDBRANCH   3  13
BRANCH   4  15
ATOM     15  S   UNL d   1       1.683   2.660  -0.019  0.00  0.00    -0.098 SA
ATOM     16  C   UNL d   1       3.361   1.978  -0.001  0.00  0.00     0.099 C 
ENDBRANCH   4  15
TORSDOF 4
