REMARK  3 active torsions:
REMARK  status: ('A' for Active; 'I' for Inactive)
REMARK    1  A    between atoms: N_2  and  S_1 
REMARK    2  A    between atoms: C_10  and  S_1 
REMARK    3  A    between atoms: C_6  and  C_13 
ROOT
ATOM      1  N   UNL d   1       0.172  -1.417   0.869  0.00  0.00    -0.265 N 
ATOM      2  C   UNL d   1       0.806  -2.687   1.042  0.00  0.00     0.072 A 
ATOM      3  C   UNL d   1      -1.304  -1.394   0.843  0.00  0.00     0.107 C 
ATOM      4  N   UNL d   1      -0.354  -3.823  -0.865  0.00  0.00    -0.325 N 
ATOM      5  C   UNL d   1      -1.544  -3.192  -1.024  0.00  0.00     0.224 C 
ATOM      6  C   UNL d   1      -1.873  -1.828  -0.484  0.00  0.00     0.129 C 
ATOM      7  C   UNL d   1       0.572  -3.775   0.191  0.00  0.00     0.062 A 
ATOM      8  O   UNL d   1      -2.376  -3.767  -1.739  0.00  0.00    -0.273 OA
ATOM      9  C   UNL d   1       1.636  -2.840   2.160  0.00  0.00     0.033 A 
ATOM     10  C   UNL d   1      -1.890  -2.187   2.020  0.00  0.00     0.034 C 
ATOM     11  C   UNL d   1       1.220  -4.989   0.459  0.00  0.00     0.032 A 
ATOM     12  C   UNL d   1       2.214  -4.072   2.451  0.00  0.00     0.002 A 
ATOM     13  C   UNL d   1       2.010  -5.149   1.594  0.00  0.00     0.002 A 
ATOM     14  H   UNL d   1      -0.363  -4.686  -1.398  0.00  0.00     0.169 HD
ENDROOT
BRANCH   1  15
ATOM     15  S   UNL d   1       1.077  -0.151   0.151  0.00  0.00     0.265 S 
ATOM     16  O   UNL d   1       2.350  -0.051   0.836  0.00  0.00    -0.200 OA
ATOM     17  O   UNL d   1       0.211   1.008   0.039  0.00  0.00    -0.200 OA
BRANCH  15  18
ATOM     18  C   UNL d   1       1.413  -0.725  -1.496  0.00  0.00     0.080 A 
ATOM     19  C   UNL d   1       0.564  -0.383  -2.551  0.00  0.00     0.026 A 
ATOM     20  C   UNL d   1       0.799  -0.908  -3.823  0.00  0.00     0.018 A 
ATOM     21  C   UNL d   1       1.913  -1.729  -4.062  0.00  0.00     0.048 A 
ATOM     22  C   UNL d   1       2.814  -1.976  -3.014  0.00  0.00     0.018 A 
ATOM     23  C   UNL d   1       2.569  -1.471  -1.735  0.00  0.00     0.026 A 
BRANCH  21  24
ATOM     24  C   UNL d   1       2.115  -2.349  -5.425  0.00  0.00     0.417 C 
ATOM     25  F   UNL d   1       3.272  -3.059  -5.534  0.00  0.00    -0.166 F 
ATOM     26  F   UNL d   1       1.116  -3.218  -5.744  0.00  0.00    -0.166 F 
ATOM     27  F   UNL d   1       2.144  -1.426  -6.425  0.00  0.00    -0.166 F 
ENDBRANCH  21  24
ENDBRANCH  15  18
ENDBRANCH   1  15
TORSDOF 3
