REMARK  4 active torsions:
REMARK  status: ('A' for Active; 'I' for Inactive)
REMARK    1  A    between atoms: N_4  and  C_1 
REMARK    2  A    between atoms: S_12  and  C_3 
REMARK       I    between atoms: C_9  and  N_4 
REMARK    3  A    between atoms: C_11  and  C_9 
REMARK    4  A    between atoms: C_13  and  S_12 
ROOT
ATOM      1  C   UNL d   1      -0.747   0.982  -0.389  0.00  0.00     0.168 A 
ATOM      2  S   UNL d   1      -0.551  -0.396  -1.377  0.00  0.00    -0.026 SA
ATOM      3  C   UNL d   1      -0.097  -1.257   0.027  0.00  0.00     0.135 A 
ATOM      4  N   UNL d   1      -0.405   0.793   0.868  0.00  0.00    -0.278 N 
ATOM      5  HN  UNL d   1      -0.402   1.529   1.575  1.00  0.00     0.189 HD
ATOM      6  N   UNL d   1      -0.049  -0.522   1.118  0.00  0.00    -0.286 N 
ATOM      7  HN  UNL d   1       0.218  -0.878   2.036  1.00  0.00     0.188 HD
ENDROOT
BRANCH   3   8
ATOM      8  S   UNL d   1       0.143  -2.988   0.047  0.00  0.00    -0.063 SA
BRANCH   8   9
ATOM      9  C   UNL d   1       1.940  -3.075   0.050  0.00  0.00     0.021 A 
ATOM     10  C   UNL d   1       2.656  -3.831  -0.920  0.00  0.00     0.008 A 
ATOM     11  C   UNL d   1       4.057  -3.935  -0.747  0.00  0.00     0.045 A 
ATOM     12  C   UNL d   1       2.071  -4.494  -2.030  0.00  0.00     0.017 A 
ATOM     13  C   UNL d   1       4.804  -4.694  -1.634  0.00  0.00     0.054 A 
ATOM     14  N   UNL d   1       4.710  -3.346   0.266  0.00  0.00    -0.365 N 
ATOM     15  C   UNL d   1       4.208  -5.351  -2.707  0.00  0.00     0.036 A 
ATOM     16  C   UNL d   1       2.841  -5.250  -2.915  0.00  0.00     0.025 A 
ATOM     17 CL   UNL d   1       5.168  -6.303  -3.770  0.00  0.00    -0.084 Cl
ATOM     18  C   UNL d   1       4.000  -2.639   1.165  0.00  0.00     0.090 A 
ATOM     19  HN  UNL d   1       5.723  -3.432   0.352  1.00  0.00     0.165 HD
ATOM     20  C   UNL d   1       2.632  -2.486   1.109  0.00  0.00     0.037 A 
ENDBRANCH   8   9
ENDBRANCH   3   8
BRANCH   1  21
ATOM     21  N   UNL d   1      -1.186   2.195  -0.863  0.00  0.00    -0.301 N 
ATOM     22  C   UNL d   1      -1.691   2.453  -2.119  0.00  0.00     0.264 C 
ATOM     23  O   UNL d   1      -1.883   1.596  -2.979  0.00  0.00    -0.267 OA
ATOM     24  H   UNL d   1      -1.175   2.943  -0.183  0.00  0.00     0.171 HD
BRANCH  22  25
ATOM     25  C   UNL d   1      -2.010   3.855  -2.390  0.00  0.00     0.072 A 
ATOM     26  S   UNL d   1      -1.739   5.114  -1.260  0.00  0.00    -0.097 SA
ATOM     27  C   UNL d   1      -2.271   6.312  -2.359  0.00  0.00     0.050 A 
ATOM     28  C   UNL d   1      -2.678   5.770  -3.557  0.00  0.00     0.009 A 
ATOM     29  C   UNL d   1      -2.541   4.353  -3.567  0.00  0.00     0.025 A 
ENDBRANCH  22  25
ENDBRANCH   1  21
TORSDOF 4
