REMARK  1 active torsions:
REMARK  status: ('A' for Active; 'I' for Inactive)
REMARK    1  A    between atoms: C_11  and  C_9 
ROOT
ATOM      1  N   UNL d   1      -0.200  -0.269   0.069  0.00  0.00    -0.255 N 
ATOM      2  C   UNL d   1      -0.472   1.058   0.102  0.00  0.00     0.160 A 
ATOM      3  C   UNL d   1      -1.268  -1.139   0.055  0.00  0.00     0.271 A 
ATOM      4  C   UNL d   1      -2.506  -0.306   0.058  0.00  0.00     0.077 A 
ATOM      5  N   UNL d   1       0.587   1.817   0.093  0.00  0.00    -0.334 N 
ATOM      6  HN  UNL d   1       0.636   2.836   0.110  1.00  0.00     0.168 HD
ATOM      7  S   UNL d   1      -2.157   1.405   0.136  0.00  0.00    -0.048 SA
ATOM      8  C   UNL d   1       1.164  -0.412   0.049  0.00  0.00     0.071 A 
ATOM      9  C   UNL d   1      -3.717  -0.876  -0.021  0.00  0.00     0.038 C 
ATOM     10  C   UNL d   1       1.628   0.910   0.054  0.00  0.00     0.061 A 
ATOM     11  O   UNL d   1      -1.141  -2.349   0.040  0.00  0.00    -0.266 OA
ATOM     12  C   UNL d   1       2.019  -1.519   0.021  0.00  0.00     0.032 A 
ATOM     13  C   UNL d   1       3.010   1.149   0.020  0.00  0.00     0.032 A 
ATOM     14  C   UNL d   1       3.393  -1.254  -0.007  0.00  0.00     0.002 A 
ATOM     15  C   UNL d   1       3.883   0.054  -0.010  0.00  0.00     0.002 A 
ENDROOT
BRANCH   9  16
ATOM     16  C   UNL d   1      -4.983  -0.129  -0.068  0.00  0.00    -0.013 A 
ATOM     17  C   UNL d   1      -5.550   0.322  -1.272  0.00  0.00     0.044 A 
ATOM     18 CL   UNL d   1      -4.828  -0.029  -2.804  0.00  0.00    -0.083 Cl
ATOM     19  C   UNL d   1      -6.729   1.074  -1.260  0.00  0.00     0.024 A 
ATOM     20  C   UNL d   1      -7.354   1.375  -0.050  0.00  0.00     0.002 A 
ATOM     21  C   UNL d   1      -6.807   0.919   1.148  0.00  0.00     0.001 A 
ATOM     22  C   UNL d   1      -5.627   0.171   1.141  0.00  0.00     0.013 A 
ENDBRANCH   9  16
TORSDOF 1
