REMARK  2 active torsions:
REMARK  status: ('A' for Active; 'I' for Inactive)
REMARK       I    between atoms: C_9  and  N_11 
REMARK    1  A    between atoms: C_13  and  C_9 
REMARK    2  A    between atoms: N_11  and  C_10 
ROOT
ATOM      1  C   UNL d   1      -5.044  -0.573  -0.127  0.00  0.00     0.256 C 
ATOM      2  N   UNL d   1      -3.789  -1.129   0.060  0.00  0.00    -0.323 N 
ATOM      3  O   UNL d   1      -6.112  -1.167  -0.167  0.00  0.00    -0.267 OA
ATOM      4  H   UNL d   1      -2.996  -0.504   0.009  0.00  0.00     0.169 HD
ENDROOT
BRANCH   1   5
ATOM      5  C   UNL d   1      -5.058   0.893  -0.389  0.00  0.00     0.034 A 
ATOM      6  C   UNL d   1      -4.144   1.765   0.207  0.00  0.00     0.049 A 
ATOM      7  C   UNL d   1      -4.119   3.111  -0.131  0.00  0.00     0.060 A 
ATOM      8  N   UNL d   1      -3.191   3.906   0.434  0.00  0.00    -0.363 N 
ATOM      9  C   UNL d   1      -5.051   3.615  -1.076  0.00  0.00     0.059 A 
ATOM     10  C   UNL d   1      -3.191   5.197   0.039  0.00  0.00     0.105 A 
ATOM     11  HN  UNL d   1      -2.524   3.552   1.120  1.00  0.00     0.165 HD
ATOM     12  C   UNL d   1      -4.087   5.687  -0.889  0.00  0.00     0.105 A 
ATOM     13  N   UNL d   1      -5.033   4.907  -1.455  0.00  0.00    -0.363 N 
ATOM     14  HN  UNL d   1      -5.699   5.277  -2.134  1.00  0.00     0.165 HD
ATOM     15  C   UNL d   1      -5.990   2.751  -1.622  0.00  0.00     0.033 A 
ATOM     16  C   UNL d   1      -6.003   1.397  -1.287  0.00  0.00     0.019 A 
ENDBRANCH   1   5
BRANCH   2  17
ATOM     17  C   UNL d   1      -3.473  -2.507   0.144  0.00  0.00     0.037 A 
ATOM     18  C   UNL d   1      -4.455  -3.514   0.127  0.00  0.00     0.061 A 
ATOM     19  C   UNL d   1      -3.995  -4.855   0.121  0.00  0.00     0.069 A 
ATOM     20  C   UNL d   1      -2.526  -5.169   0.160  0.00  0.00     0.067 A 
ATOM     21  N   UNL d   1      -4.767  -5.953   0.076  0.00  0.00    -0.310 N 
ATOM     22  N   UNL d   1      -2.262  -6.484   0.131  0.00  0.00    -0.310 N 
ATOM     23  C   UNL d   1      -1.568  -4.132   0.214  0.00  0.00     0.035 A 
ATOM     24  S   UNL d   1      -3.733  -7.253   0.062  0.00  0.00     0.068 SA
ATOM     25  HN  UNL d   1      -1.342  -6.924   0.148  1.00  0.00     0.176 HD
ATOM     26  C   UNL d   1      -2.083  -2.820   0.206  0.00  0.00     0.032 A 
ATOM     27  HN  UNL d   1      -5.786  -5.983   0.055  1.00  0.00     0.176 HD
ENDBRANCH   2  17
TORSDOF 2
