REMARK  5 active torsions:
REMARK  status: ('A' for Active; 'I' for Inactive)
REMARK    1  A    between atoms: C_3  and  C_1 
REMARK    2  A    between atoms: C_6  and  C_2 
REMARK       I    between atoms: N_9  and  C_3 
REMARK    3  A    between atoms: C_11  and  N_9 
REMARK    4  A    between atoms: O_12  and  C_10 
REMARK    5  A    between atoms: C_17  and  O_12 
ROOT
ATOM      1  C   UNL d   1       0.422  -2.317  -0.369  0.00  0.00     0.261 C 
ATOM      2  N   UNL d   1      -0.253  -3.527  -0.332  0.00  0.00    -0.319 N 
ATOM      3  O   UNL d   1      -0.064  -1.285  -0.816  0.00  0.00    -0.267 OA
ATOM      4  H   UNL d   1       0.160  -4.261   0.212  0.00  0.00     0.169 HD
ENDROOT
BRANCH   2   5
ATOM      5  C   UNL d   1      -1.577  -3.807  -0.752  0.00  0.00     0.087 A 
ATOM      6  C   UNL d   1      -2.315  -3.155  -1.746  0.00  0.00     0.175 A 
ATOM      7  N   UNL d   1      -3.594  -3.501  -2.069  0.00  0.00    -0.345 N 
ATOM      8  C   UNL d   1      -4.171  -4.503  -1.376  0.00  0.00     0.090 A 
ATOM      9  HN  UNL d   1      -4.098  -3.016  -2.811  1.00  0.00     0.167 HD
ATOM     10  C   UNL d   1      -3.521  -5.221  -0.392  0.00  0.00     0.019 A 
ATOM     11  C   UNL d   1      -2.207  -4.874  -0.091  0.00  0.00     0.035 A 
BRANCH   6  12
ATOM     12  O   UNL d   1      -1.666  -2.280  -2.596  0.00  0.00    -0.292 OA
BRANCH  12  13
ATOM     13  C   UNL d   1      -2.392  -1.238  -3.129  0.00  0.00     0.078 A 
ATOM     14  C   UNL d   1      -3.313  -0.487  -2.393  0.00  0.00     0.039 A 
ATOM     15  C   UNL d   1      -3.955   0.603  -2.983  0.00  0.00     0.026 A 
ATOM     16  C   UNL d   1      -3.658   0.950  -4.300  0.00  0.00     0.034 A 
ATOM     17  C   UNL d   1      -2.727   0.216  -5.034  0.00  0.00     0.026 A 
ATOM     18 CL   UNL d   1      -4.436   2.306  -5.021  0.00  0.00    -0.084 Cl
ATOM     19  C   UNL d   1      -2.089  -0.877  -4.444  0.00  0.00     0.039 A 
ENDBRANCH  12  13
ENDBRANCH   6  12
ENDBRANCH   2   5
BRANCH   1  20
ATOM     20  C   UNL d   1       1.748  -2.311   0.262  0.00  0.00     0.093 A 
ATOM     21  C   UNL d   1       2.723  -1.238   0.303  0.00  0.00     0.085 A 
ATOM     22  N   UNL d   1       3.791  -1.613   1.024  0.00  0.00    -0.259 N 
ATOM     23  O   UNL d   1       3.577  -2.893   1.426  0.00  0.00    -0.241 OA
ATOM     24  HN  UNL d   1       4.611  -1.043   1.232  1.00  0.00     0.195 HD
ATOM     25  C   UNL d   1       2.363  -3.313   1.002  0.00  0.00     0.090 A 
ATOM     26  C   UNL d   1       2.030  -4.676   1.479  0.00  0.00     0.080 C 
BRANCH  21  27
ATOM     27  C   UNL d   1       2.700   0.139  -0.211  0.00  0.00     0.015 A 
ATOM     28  C   UNL d   1       3.802   0.712  -0.879  0.00  0.00     0.046 A 
ATOM     29 CL   UNL d   1       5.193  -0.200  -1.372  0.00  0.00    -0.083 Cl
ATOM     30  C   UNL d   1       3.816   2.078  -1.197  0.00  0.00     0.025 A 
ATOM     31  C   UNL d   1       2.724   2.885  -0.889  0.00  0.00     0.002 A 
ATOM     32  C   UNL d   1       1.615   2.328  -0.260  0.00  0.00     0.001 A 
ATOM     33  C   UNL d   1       1.610   0.972   0.090  0.00  0.00     0.015 A 
ENDBRANCH  21  27
ENDBRANCH   1  20
TORSDOF 5
