REMARK  6 active torsions:
REMARK  status: ('A' for Active; 'I' for Inactive)
REMARK    1  A    between atoms: C_7  and  C_1 
REMARK       I    between atoms: N_9  and  C_7 
REMARK    2  A    between atoms: C_14  and  N_9 
REMARK    3  A    between atoms: C_15  and  C_14 
REMARK    4  A    between atoms: C_18  and  C_15 
REMARK    5  A    between atoms: C_16  and  C_17 
REMARK    6  A    between atoms: C_17  and  C_18 
ROOT
ATOM      1  C   UNL d   1       0.047  -1.671  -0.031  0.00  0.00     0.149 A 
ATOM      2  O   UNL d   1       1.962  -1.480  -2.238  0.00  0.00    -0.310 OA
ATOM      3  C   UNL d   1       1.310  -0.838   0.025  0.00  0.00    -0.007 A 
ATOM      4  C   UNL d   1      -0.123  -2.392  -1.352  0.00  0.00    -0.007 A 
ATOM      5  C   UNL d   1       2.175  -0.795  -1.069  0.00  0.00     0.083 A 
ATOM      6  C   UNL d   1       0.835  -2.252  -2.358  0.00  0.00     0.083 A 
ATOM      7  C   UNL d   1       1.630  -0.088   1.171  0.00  0.00     0.011 A 
ATOM      8  C   UNL d   1      -1.248  -3.199  -1.596  0.00  0.00     0.011 A 
ATOM      9  C   UNL d   1       0.688  -2.920  -3.576  0.00  0.00     0.038 A 
ATOM     10  C   UNL d   1       3.344  -0.032  -1.021  0.00  0.00     0.038 A 
ATOM     11  C   UNL d   1       2.804   0.666   1.221  0.00  0.00     0.001 A 
ATOM     12  C   UNL d   1      -1.389  -3.873  -2.810  0.00  0.00     0.001 A 
ATOM     13  C   UNL d   1      -0.419  -3.736  -3.800  0.00  0.00     0.003 A 
ATOM     14  C   UNL d   1       3.662   0.694   0.125  0.00  0.00     0.003 A 
ENDROOT
BRANCH   1  15
ATOM     15  C   UNL d   1      -0.037  -2.650   1.154  0.00  0.00     0.230 C 
ATOM     16  O   UNL d   1      -0.962  -2.604   1.964  0.00  0.00    -0.272 OA
ATOM     17  N   UNL d   1       0.986  -3.574   1.240  0.00  0.00    -0.360 N 
ATOM     18  H   UNL d   1       1.672  -3.611   0.494  0.00  0.00     0.162 HD
BRANCH  17  19
ATOM     19  C   UNL d   1       1.032  -4.574   2.284  0.00  0.00     0.122 C 
BRANCH  19  20
ATOM     20  C   UNL d   1       0.258  -5.832   1.896  0.00  0.00     0.020 C 
BRANCH  20  21
ATOM     21  C   UNL d   1       0.295  -6.868   3.019  0.00  0.00     0.002 C 
BRANCH  21  22
ATOM     22  C   UNL d   1      -0.472  -8.135   2.639  0.00  0.00    -0.000 C 
BRANCH  22  23
ATOM     23  C   UNL d   1      -0.433  -9.166   3.767  0.00  0.00    -0.005 C 
ATOM     24  C   UNL d   1      -1.193 -10.428   3.393  0.00  0.00     0.005 C 
ENDBRANCH  22  23
ENDBRANCH  21  22
ENDBRANCH  20  21
ENDBRANCH  19  20
ENDBRANCH  17  19
ENDBRANCH   1  15
TORSDOF 6
