REMARK  3 active torsions:
REMARK  status: ('A' for Active; 'I' for Inactive)
REMARK    1  A    between atoms: N_2  and  C_1 
REMARK    2  A    between atoms: C_3  and  N_2 
REMARK    3  A    between atoms: C_8  and  C_5 
ROOT
ATOM      1  C   UNL d   1       1.022   0.705  -2.415  0.00  0.00     0.040 A 
ATOM      2  C   UNL d   1       2.075  -0.136  -2.829  0.00  0.00    -0.032 A 
ATOM      3  C   UNL d   1       0.646   1.792  -3.220  0.00  0.00     0.030 A 
ATOM      4  C   UNL d   1       2.706   0.135  -4.061  0.00  0.00     0.009 A 
ATOM      5  C   UNL d   1       1.291   2.048  -4.429  0.00  0.00     0.002 A 
ATOM      6  C   UNL d   1       2.322   1.221  -4.849  0.00  0.00     0.001 A 
ENDROOT
BRANCH   1   7
ATOM      7  N   UNL d   1       0.412   0.512  -1.155  0.00  0.00    -0.333 N 
ATOM      8  H   UNL d   1       0.999   0.128  -0.425  0.00  0.00     0.168 HD
BRANCH   7   9
ATOM      9  C   UNL d   1      -0.818   0.897  -0.723  0.00  0.00     0.170 C 
ATOM     10  S   UNL d   1      -1.160   1.032   0.897  0.00  0.00    -0.041 SA
ATOM     11  N   UNL d   1      -1.785   1.097  -1.645  0.00  0.00    -0.376 N 
ATOM     12  H   UNL d   1      -1.693   0.618  -2.534  0.00  0.00     0.158 HD
ATOM     13  H   UNL d   1      -2.730   1.222  -1.305  0.00  0.00     0.158 HD
ENDBRANCH   7   9
ENDBRANCH   1   7
BRANCH   2  14
ATOM     14  C   UNL d   1       2.475  -1.394  -2.083  0.00  0.00     0.036 C 
ATOM     15  C   UNL d   1       3.958  -1.466  -1.737  0.00  0.00     0.010 C 
ENDBRANCH   2  14
TORSDOF 3
