REMARK  6 active torsions:
REMARK  status: ('A' for Active; 'I' for Inactive)
REMARK    1  A    between atoms: C_6  and  C_1 
REMARK    2  A    between atoms: C_2  and  C_5 
REMARK    3  A    between atoms: N_15  and  C_6 
REMARK    4  A    between atoms: O_16  and  C_7 
REMARK    5  A    between atoms: O_17  and  N_10 
REMARK    6  A    between atoms: C_18  and  O_16 
ROOT
ATOM      1  C   UNL d   1      -0.447  -3.676   0.040  0.00  0.00     0.106 A 
ATOM      2  N   UNL d   1      -1.180  -4.835   0.072  0.00  0.00    -0.360 N 
ATOM      3  HN  UNL d   1      -2.200  -4.821   0.103  1.00  0.00     0.165 HD
ATOM      4  C   UNL d   1       0.895  -6.067   0.027  0.00  0.00     0.066 A 
ATOM      5  C   UNL d   1       0.952  -3.636   0.028  0.00  0.00     0.099 A 
ATOM      6  C   UNL d   1       1.618  -4.865   0.018  0.00  0.00     0.056 A 
ATOM      7  C   UNL d   1      -0.489  -5.994   0.060  0.00  0.00     0.105 A 
ENDROOT
BRANCH   1   8
ATOM      8  C   UNL d   1      -1.310  -2.436   0.007  0.00  0.00     0.127 C 
ATOM      9  N   UNL d   1      -0.874  -1.346  -0.560  0.00  0.00    -0.256 N 
ATOM     10  HN  UNL d   1       0.055  -1.240  -0.968  1.00  0.00     0.195 HD
BRANCH   9  11
ATOM     11  O   UNL d   1      -1.850  -0.336  -0.537  0.00  0.00    -0.288 OA
ATOM     12  H   UNL d   1      -1.364   0.418  -0.918  0.00  0.00     0.244 HD
ENDBRANCH   9  11
BRANCH   8  13
ATOM     13  N   UNL d   1      -2.580  -2.533   0.540  0.00  0.00    -0.285 NA
ATOM     14  H   UNL d   1      -2.969  -3.470   0.477  0.00  0.00     0.125 HD
ATOM     15  H   UNL d   1      -3.179  -1.798   0.178  0.00  0.00     0.125 HD
ENDBRANCH   8  13
ENDBRANCH   1   8
BRANCH   5  16
ATOM     16  O   UNL d   1       1.575  -2.424   0.062  0.00  0.00    -0.349 OA
BRANCH  16  17
ATOM     17  C   UNL d   1       2.997  -2.378   0.067  0.00  0.00     0.171 C 
ATOM     18  C   UNL d   1       3.407  -0.917   0.107  0.00  0.00     0.034 C 
ENDBRANCH  16  17
ENDBRANCH   5  16
BRANCH   4  19
ATOM     19  C   UNL d   1       1.565  -7.408   0.006  0.00  0.00     0.418 C 
ATOM     20  F   UNL d   1       2.924  -7.334  -0.015  0.00  0.00    -0.166 F 
ATOM     21  F   UNL d   1       1.249  -8.165   1.092  0.00  0.00    -0.166 F 
ATOM     22  F   UNL d   1       1.214  -8.147  -1.081  0.00  0.00    -0.166 F 
ENDBRANCH   4  19
TORSDOF 6
