REMARK  3 active torsions:
REMARK  status: ('A' for Active; 'I' for Inactive)
REMARK    1  A    between atoms: C_16  and  C_2 
REMARK    2  A    between atoms: N_11  and  C_10 
REMARK    3  A    between atoms: N_17  and  C_14 
ROOT
ATOM      1  N   UNL d   1      -2.324   4.959  -0.065  0.00  0.00    -0.219 N 
ATOM      2  C   UNL d   1      -1.295   5.860   0.144  0.00  0.00     0.154 C 
ATOM      3  N   UNL d   1      -1.829   7.048   0.390  0.00  0.00    -0.282 N 
ATOM      4  HN  UNL d   1      -1.316   7.885   0.667  1.00  0.00     0.188 HD
ATOM      5  C   UNL d   1      -3.475   5.724  -0.103  0.00  0.00     0.143 C 
ATOM      6  N   UNL d   1      -2.238   3.598  -0.192  0.00  0.00    -0.275 N 
ATOM      7  HN  UNL d   1      -1.361   3.080  -0.132  1.00  0.00     0.189 HD
ATOM      8  N   UNL d   1      -3.192   6.967   0.210  0.00  0.00    -0.282 N 
ATOM      9  HN  UNL d   1      -3.859   7.732   0.303  1.00  0.00     0.188 HD
ATOM     10  C   UNL d   1      -3.384   3.039  -0.397  0.00  0.00     0.121 C 
ATOM     11  C   UNL d   1      -4.675   5.080  -0.467  0.00  0.00     0.056 C 
ATOM     12  C   UNL d   1      -4.670   3.751  -0.632  0.00  0.00     0.054 C 
ENDROOT
BRANCH   2  13
ATOM     13  C   UNL d   1       0.138   5.563   0.070  0.00  0.00     0.011 A 
ATOM     14  C   UNL d   1       0.641   4.522  -0.726  0.00  0.00     0.015 A 
ATOM     15  C   UNL d   1       2.017   4.304  -0.840  0.00  0.00     0.001 A 
ATOM     16  C   UNL d   1       2.909   5.128  -0.160  0.00  0.00     0.000 A 
ATOM     17  C   UNL d   1       2.429   6.165   0.635  0.00  0.00     0.001 A 
ATOM     18  C   UNL d   1       1.053   6.383   0.747  0.00  0.00     0.015 A 
ENDBRANCH   2  13
BRANCH  10  19
ATOM     19  N   UNL d   1      -3.524   1.702  -0.555  0.00  0.00    -0.338 N 
ATOM     20  C   UNL d   1      -2.927   0.815   0.165  0.00  0.00     0.179 C 
ATOM     21  HN  UNL d   1      -4.145   1.374  -1.295  1.00  0.00     0.168 HD
BRANCH  20  22
ATOM     22  N   UNL d   1      -2.106   0.749   1.275  0.00  0.00    -0.386 N 
ATOM     23  C   UNL d   1      -1.225  -0.410   1.421  0.00  0.00     0.149 C 
ATOM     24  C   UNL d   1      -1.715   1.895   2.083  0.00  0.00     0.149 C 
ENDBRANCH  20  22
ENDBRANCH  10  19
TORSDOF 3
