REMARK  2 active torsions:
REMARK  status: ('A' for Active; 'I' for Inactive)
REMARK    1  A    between atoms: N_4  and  C_1 
REMARK       I    between atoms: C_6  and  N_4 
REMARK    2  A    between atoms: C_11  and  C_6 
ROOT
ATOM      1  C   UNL d   1      -3.100   0.090   0.452  0.00  0.00     0.152 A 
ATOM      2  N   UNL d   1      -2.504   1.193   0.841  0.00  0.00    -0.335 N 
ATOM      3  HN  UNL d   1      -2.973   2.075   1.046  1.00  0.00     0.168 HD
ATOM      4  S   UNL d   1      -2.073  -1.200   0.024  0.00  0.00    -0.052 SA
ATOM      5  C   UNL d   1      -0.708  -0.294   0.525  0.00  0.00     0.036 A 
ATOM      6  C   UNL d   1      -1.134   0.973   0.928  0.00  0.00     0.051 A 
ATOM      7  C   UNL d   1       0.641  -0.683   0.560  0.00  0.00     0.045 A 
ATOM      8  C   UNL d   1      -0.167   1.892   1.385  0.00  0.00     0.032 A 
ATOM      9  C   UNL d   1       1.573   0.244   1.027  0.00  0.00     0.035 A 
ATOM     10  C   UNL d   1       1.182   1.515   1.436  0.00  0.00     0.026 A 
ATOM     11 CL   UNL d   1       3.234  -0.202   1.104  0.00  0.00    -0.084 Cl
ENDROOT
BRANCH   1  12
ATOM     12  N   UNL d   1      -4.471   0.002   0.342  0.00  0.00    -0.307 N 
ATOM     13  C   UNL d   1      -5.180  -1.177   0.263  0.00  0.00     0.227 C 
ATOM     14  O   UNL d   1      -4.689  -2.300   0.352  0.00  0.00    -0.273 OA
ATOM     15  H   UNL d   1      -4.952   0.869   0.532  0.00  0.00     0.171 HD
BRANCH  13  16
ATOM     16  C   UNL d   1      -6.703  -0.997   0.156  0.00  0.00     0.078 C 
ATOM     17  C   UNL d   1      -7.409  -2.364   0.070  0.00  0.00     0.014 C 
ATOM     18  C   UNL d   1      -7.197  -3.047  -1.284  0.00  0.00     0.001 C 
ATOM     19  C   UNL d   1      -7.619  -2.149  -2.441  0.00  0.00     0.000 C 
ATOM     20  C   UNL d   1      -6.952  -0.778  -2.373  0.00  0.00     0.001 C 
ATOM     21  C   UNL d   1      -7.148  -0.108  -1.014  0.00  0.00     0.014 C 
ENDBRANCH  13  16
ENDBRANCH   1  12
TORSDOF 2
