REMARK  0 active torsions:
REMARK  status: ('A' for Active; 'I' for Inactive)
ROOT
ATOM      1  C   UNL d   1      -1.486  -0.467  -0.002  0.00  0.00     0.142 A 
ATOM      2  C   UNL d   1      -0.157   0.153  -0.005  0.00  0.00     0.051 A 
ATOM      3  N   UNL d   1      -2.576   0.355   0.003  0.00  0.00    -0.280 N 
ATOM      4  C   UNL d   1      -0.180   1.536   0.002  0.00  0.00     0.090 A 
ATOM      5  N   UNL d   1      -1.852  -1.724   0.003  0.00  0.00    -0.283 N 
ATOM      6  HN  UNL d   1      -1.236  -2.537   0.002  1.00  0.00     0.188 HD
ATOM      7  N   UNL d   1      -1.286   2.351   0.001  0.00  0.00    -0.345 N 
ATOM      8  HN  UNL d   1      -1.207   3.368   0.001  1.00  0.00     0.167 HD
ATOM      9  C   UNL d   1       1.126  -0.425  -0.012  0.00  0.00    -0.028 A 
ATOM     10  C   UNL d   1       2.091   0.565   0.021  0.00  0.00    -0.008 A 
ATOM     11  S   UNL d   1       1.423   2.141   0.021  0.00  0.00    -0.075 SA
ATOM     12  C   UNL d   1      -2.449   1.746   0.001  0.00  0.00     0.192 A 
ATOM     13  N   UNL d   1      -3.230  -1.736   0.011  0.00  0.00    -0.287 N 
ATOM     14  HN  UNL d   1      -3.818  -2.569   0.016  1.00  0.00     0.188 HD
ATOM     15  C   UNL d   1      -3.663  -0.486   0.010  0.00  0.00     0.101 A 
ATOM     16  C   UNL d   1       1.461  -1.882  -0.018  0.00  0.00     0.041 C 
ATOM     17  C   UNL d   1       3.572   0.315   0.021  0.00  0.00     0.051 C 
ATOM     18  C   UNL d   1       2.926  -2.115  -0.406  0.00  0.00     0.009 C 
ATOM     19  C   UNL d   1       3.867  -1.166   0.368  0.00  0.00    -0.014 C 
ATOM     20  C   UNL d   1      -5.080  -0.070   0.019  0.00  0.00     0.091 C 
ATOM     21  C   UNL d   1       5.325  -1.519   0.088  0.00  0.00     0.010 C 
ENDROOT
TORSDOF 0
