REMARK  4 active torsions:
REMARK  status: ('A' for Active; 'I' for Inactive)
REMARK    1  A    between atoms: C_9  and  N_1 
REMARK    2  A    between atoms: C_6  and  C_17 
REMARK    3  A    between atoms: C_10  and  C_9 
REMARK       I    between atoms: N_16  and  C_10 
REMARK    4  A    between atoms: C_17  and  N_16 
ROOT
ATOM      1  C   UNL d   1       3.659   1.469  -0.128  0.00  0.00     0.236 C 
ATOM      2  N   UNL d   1       3.005   2.622  -0.486  0.00  0.00    -0.355 N 
ATOM      3  O   UNL d   1       3.062   0.417   0.098  0.00  0.00    -0.272 OA
ATOM      4  H   UNL d   1       3.540   3.470  -0.657  0.00  0.00     0.162 HD
ENDROOT
BRANCH   1   5
ATOM      5  C   UNL d   1       5.176   1.505  -0.243  0.00  0.00     0.238 C 
BRANCH   5   6
ATOM      6  N   UNL d   1       5.854   2.672   0.284  0.00  0.00    -0.271 N 
ATOM      7  C   UNL d   1       5.931   3.902  -0.323  0.00  0.00     0.262 C 
ATOM      8  C   UNL d   1       7.032   4.622   0.334  0.00  0.00     0.048 A 
ATOM      9  O   UNL d   1       5.260   4.325  -1.239  0.00  0.00    -0.267 OA
ATOM     10  C   UNL d   1       7.592   5.859   0.085  0.00  0.00     0.018 A 
ATOM     11  C   UNL d   1       7.584   3.757   1.260  0.00  0.00     0.048 A 
ATOM     12  C   UNL d   1       8.790   6.164   0.744  0.00  0.00     0.001 A 
ATOM     13  C   UNL d   1       9.409   5.223   1.594  0.00  0.00     0.001 A 
ATOM     14  C   UNL d   1       8.793   4.003   1.873  0.00  0.00     0.018 A 
ATOM     15  C   UNL d   1       6.719   2.581   1.333  0.00  0.00     0.262 C 
ATOM     16  O   UNL d   1       6.802   1.734   2.198  0.00  0.00    -0.267 OA
ENDBRANCH   5   6
ENDBRANCH   1   5
BRANCH   2  17
ATOM     17  C   UNL d   1       1.563   2.710  -0.407  0.00  0.00     0.164 C 
BRANCH  17  18
ATOM     18  C   UNL d   1       0.976   3.780  -1.294  0.00  0.00    -0.004 A 
ATOM     19  C   UNL d   1      -0.264   4.359  -0.965  0.00  0.00     0.088 A 
ATOM     20  C   UNL d   1      -0.809   5.388  -1.742  0.00  0.00     0.003 A 
ATOM     21  O   UNL d   1      -0.929   3.849   0.120  0.00  0.00    -0.325 OA
ATOM     22  C   UNL d   1      -2.127   5.981  -1.358  0.00  0.00     0.212 C 
ATOM     23  C   UNL d   1      -0.103   5.857  -2.854  0.00  0.00     0.054 A 
ATOM     24  O   UNL d   1      -2.884   5.019  -0.635  0.00  0.00    -0.362 OA
ATOM     25  C   UNL d   1      -2.126   4.545   0.470  0.00  0.00     0.345 C 
ATOM     26  C   UNL d   1       1.080   5.234  -3.227  0.00  0.00     0.117 A 
ATOM     27  C   UNL d   1       1.611   4.191  -2.477  0.00  0.00     0.054 A 
ATOM     28  F   UNL d   1       1.722   5.648  -4.328  0.00  0.00    -0.206 F 
ENDBRANCH  17  18
ENDBRANCH   2  17
TORSDOF 4
