REMARK  8 active torsions:
REMARK  status: ('A' for Active; 'I' for Inactive)
REMARK    1  A    between atoms: C_7  and  C_1 
REMARK    2  A    between atoms: C_2  and  C_5 
REMARK    3  A    between atoms: C_3  and  C_4 
REMARK    4  A    between atoms: C_8  and  O_20 
REMARK       I    between atoms: N_9  and  C_8 
REMARK    5  A    between atoms: C_11  and  N_9 
REMARK    6  A    between atoms: C_27  and  C_15 
REMARK    7  A    between atoms: C_18  and  C_16 
REMARK    8  A    between atoms: O_20  and  C_27 
ROOT
ATOM      1  C   UNL d   1      -1.177  -0.943  -1.793  0.00  0.00     0.086 A 
ATOM      2  O   UNL d   1      -0.424  -1.406  -0.746  0.00  0.00    -0.312 OA
ATOM      3  C   UNL d   1      -2.513  -0.979  -1.449  0.00  0.00     0.040 A 
ATOM      4  C   UNL d   1      -1.282  -1.780   0.248  0.00  0.00     0.078 A 
ATOM      5  C   UNL d   1      -2.581  -1.523  -0.142  0.00  0.00     0.038 A 
ENDROOT
BRANCH   4   6
ATOM      6  C   UNL d   1      -0.699  -2.344   1.499  0.00  0.00     0.245 C 
BRANCH   6   7
ATOM      7  O   UNL d   1       0.304  -3.332   1.202  0.00  0.00    -0.302 OA
BRANCH   7   8
ATOM      8  C   UNL d   1      -0.170  -4.529   0.787  0.00  0.00     0.343 C 
ATOM      9  N   UNL d   1       0.825  -5.411   0.418  0.00  0.00    -0.204 NA
ATOM     10  H   UNL d   1       0.338  -6.223   0.054  0.00  0.00     0.139 HD
ATOM     11  O   UNL d   1      -1.352  -4.824   0.668  0.00  0.00    -0.245 OA
BRANCH   9  12
ATOM     12  C   UNL d   1       1.828  -5.824   1.333  0.00  0.00     0.024 A 
ATOM     13  C   UNL d   1       3.184  -5.889   0.941  0.00  0.00    -0.029 A 
ATOM     14  C   UNL d   1       4.039  -6.679   1.748  0.00  0.00     0.010 A 
ATOM     15  C   UNL d   1       3.600  -7.295   2.923  0.00  0.00     0.001 A 
ATOM     16  C   UNL d   1       2.284  -7.146   3.330  0.00  0.00     0.002 A 
ATOM     17  C   UNL d   1       1.397  -6.430   2.530  0.00  0.00     0.024 A 
BRANCH  13  18
ATOM     18  C   UNL d   1       3.772  -5.170  -0.297  0.00  0.00    -0.022 C 
ATOM     19  C   UNL d   1       3.075  -3.828  -0.623  0.00  0.00     0.019 C 
ATOM     20  C   UNL d   1       5.269  -4.806  -0.091  0.00  0.00     0.019 C 
ATOM     21  C   UNL d   1       3.667  -6.102  -1.518  0.00  0.00     0.019 C 
ENDBRANCH  13  18
ENDBRANCH   9  12
ENDBRANCH   7   8
ENDBRANCH   6   7
ENDBRANCH   4   6
BRANCH   1  22
ATOM     22  C   UNL d   1      -0.442  -0.588  -3.006  0.00  0.00    -0.001 A 
ATOM     23  C   UNL d   1      -1.100  -0.501  -4.244  0.00  0.00     0.030 A 
ATOM     24  C   UNL d   1      -0.392  -0.267  -5.437  0.00  0.00     0.049 A 
ATOM     25  C   UNL d   1       0.999  -0.087  -5.376  0.00  0.00     0.032 A 
ATOM     26  C   UNL d   1       1.679  -0.152  -4.151  0.00  0.00     0.049 A 
ATOM     27  C   UNL d   1       0.946  -0.390  -2.977  0.00  0.00     0.030 A 
BRANCH  24  28
ATOM     28  C   UNL d   1      -1.126  -0.251  -6.758  0.00  0.00     0.417 C 
ATOM     29  F   UNL d   1      -0.301  -0.141  -7.836  0.00  0.00    -0.166 F 
ATOM     30  F   UNL d   1      -1.853  -1.384  -6.960  0.00  0.00    -0.166 F 
ATOM     31  F   UNL d   1      -2.007   0.782  -6.853  0.00  0.00    -0.166 F 
ENDBRANCH  24  28
BRANCH  26  32
ATOM     32  C   UNL d   1       3.179   0.001  -4.075  0.00  0.00     0.417 C 
ATOM     33  F   UNL d   1       3.781   0.021  -5.298  0.00  0.00    -0.166 F 
ATOM     34  F   UNL d   1       3.557   1.150  -3.453  0.00  0.00    -0.166 F 
ATOM     35  F   UNL d   1       3.773  -1.014  -3.388  0.00  0.00    -0.166 F 
ENDBRANCH  26  32
ENDBRANCH   1  22
TORSDOF 8
