REMARK  7 active torsions:
REMARK  status: ('A' for Active; 'I' for Inactive)
REMARK    1  A    between atoms: N_5  and  S_1 
REMARK    2  A    between atoms: C_13  and  S_1 
REMARK    3  A    between atoms: N_9  and  N_5 
REMARK    4  A    between atoms: C_6  and  S_16 
REMARK       I    between atoms: C_12  and  N_9 
REMARK    5  A    between atoms: C_24  and  C_12 
REMARK    6  A    between atoms: S_16  and  C_24 
REMARK       I    between atoms: C_19  and  N_21 
REMARK    7  A    between atoms: N_21  and  C_27 
ROOT
ATOM      1  N   UNL d   1       0.886  -2.784   0.377  0.00  0.00    -0.260 N 
ATOM      2  C   UNL d   1       0.315  -3.893   0.986  0.00  0.00     0.246 C 
ATOM      3  O   UNL d   1      -0.590  -3.785   1.809  0.00  0.00    -0.271 OA
ATOM      4  H   UNL d   1       1.634  -2.848  -0.312  0.00  0.00     0.190 HD
ENDROOT
BRANCH   1   5
ATOM      5  N   UNL d   1       0.392  -1.460   0.707  0.00  0.00    -0.220 N 
ATOM      6  H   UNL d   1      -0.380  -1.364   1.374  0.00  0.00     0.200 HD
BRANCH   5   7
ATOM      7  S   UNL d   1       1.080  -0.123  -0.052  0.00  0.00     0.276 S 
ATOM      8  O   UNL d   1       0.827  -0.258  -1.472  0.00  0.00    -0.199 OA
ATOM      9  O   UNL d   1       2.436   0.000   0.442  0.00  0.00    -0.199 OA
BRANCH   7  10
ATOM     10  C   UNL d   1       0.133   1.243   0.563  0.00  0.00     0.081 A 
ATOM     11  C   UNL d   1       0.598   1.977   1.656  0.00  0.00     0.027 A 
ATOM     12  C   UNL d   1      -0.093   3.125   2.064  0.00  0.00     0.031 A 
ATOM     13  C   UNL d   1      -1.241   3.555   1.382  0.00  0.00     0.034 A 
ATOM     14  C   UNL d   1      -1.693   2.808   0.290  0.00  0.00     0.031 A 
ATOM     15  C   UNL d   1      -1.008   1.659  -0.126  0.00  0.00     0.027 A 
BRANCH  13  16
ATOM     16  N   UNL d   1      -1.861   4.737   1.841  0.00  0.00    -0.328 N 
ATOM     17  C   UNL d   1      -2.989   5.350   1.325  0.00  0.00     0.218 C 
ATOM     18  O   UNL d   1      -3.663   4.964   0.375  0.00  0.00    -0.274 OA
ATOM     19  C   UNL d   1      -3.370   6.615   2.057  0.00  0.00     0.117 C 
ATOM     20  H   UNL d   1      -1.419   5.188   2.632  0.00  0.00     0.169 HD
ENDBRANCH  13  16
ENDBRANCH   7  10
ENDBRANCH   5   7
ENDBRANCH   1   5
BRANCH   2  21
ATOM     21  C   UNL d   1       0.937  -5.196   0.498  0.00  0.00     0.185 C 
BRANCH  21  22
ATOM     22  S   UNL d   1       0.263  -6.660   1.340  0.00  0.00    -0.102 SA
BRANCH  22  23
ATOM     23  C   UNL d   1       1.165  -7.951   0.516  0.00  0.00     0.090 A 
ATOM     24  C   UNL d   1       1.002  -9.297   0.858  0.00  0.00     0.065 A 
ATOM     25  S   UNL d   1       0.003 -10.054   2.039  0.00  0.00    -0.096 SA
ATOM     26  C   UNL d   1       1.747 -10.253   0.166  0.00  0.00     0.059 A 
ATOM     27  C   UNL d   1       0.561 -11.612   1.630  0.00  0.00     0.059 A 
ATOM     28  C   UNL d   1       1.495 -11.595   0.613  0.00  0.00    -0.027 A 
ATOM     29  C   UNL d   1       2.150 -12.819   0.063  0.00  0.00     0.051 C 
ATOM     30  N   UNL d   1       2.615  -9.922  -0.823  0.00  0.00    -0.351 N 
ATOM     31  C   UNL d   1       2.696  -8.616  -1.076  0.00  0.00     0.181 A 
ATOM     32  HN  UNL d   1       3.162 -10.616  -1.331  1.00  0.00     0.166 HD
ATOM     33  N   UNL d   1       2.031  -7.624  -0.469  0.00  0.00    -0.346 N 
ATOM     34  HN  UNL d   1       2.173  -6.652  -0.742  1.00  0.00     0.167 HD
ENDBRANCH  22  23
ENDBRANCH  21  22
ENDBRANCH   2  21
TORSDOF 7
