REMARK  5 active torsions:
REMARK  status: ('A' for Active; 'I' for Inactive)
REMARK    1  A    between atoms: C_2  and  C_1 
REMARK       I    between atoms: C_3  and  N_7 
REMARK    2  A    between atoms: O_16  and  C_3 
REMARK    3  A    between atoms: N_9  and  C_6 
REMARK    4  A    between atoms: N_7  and  N_9 
REMARK    5  A    between atoms: C_17  and  O_16 
ROOT
ATOM      1  C   UNL d   1       0.099   1.426  -0.318  0.00  0.00     0.063 A 
ATOM      2  N   UNL d   1      -1.221   3.039  -1.554  0.00  0.00    -0.355 N 
ATOM      3  HN  UNL d   1      -2.132   3.363  -1.879  1.00  0.00     0.166 HD
ATOM      4  C   UNL d   1      -0.083   3.682  -1.907  0.00  0.00     0.098 A 
ATOM      5  C   UNL d   1      -1.109   1.949  -0.755  0.00  0.00     0.105 A 
ATOM      6  C   UNL d   1       1.263   2.082  -0.720  0.00  0.00     0.021 A 
ATOM      7  C   UNL d   1       1.170   3.227  -1.505  0.00  0.00     0.044 A 
ENDROOT
BRANCH   4   8
ATOM      8  N   UNL d   1      -0.122   4.809  -2.757  0.00  0.00    -0.186 NA
ATOM      9  H   UNL d   1       0.267   5.631  -2.296  0.00  0.00     0.154 HD
BRANCH   8  10
ATOM     10  N   UNL d   1      -1.398   5.060  -3.288  0.00  0.00    -0.261 N 
ATOM     11  C   UNL d   1      -1.508   6.085  -4.188  0.00  0.00     0.375 C 
ATOM     12  O   UNL d   1      -0.726   7.029  -4.275  0.00  0.00    -0.237 OA
ATOM     13  H   UNL d   1      -2.013   4.258  -3.361  0.00  0.00     0.186 HD
BRANCH  11  14
ATOM     14  O   UNL d   1      -2.615   5.911  -4.952  0.00  0.00    -0.303 OA
BRANCH  14  15
ATOM     15  C   UNL d   1      -2.918   6.984  -5.856  0.00  0.00     0.176 C 
ATOM     16  C   UNL d   1      -3.842   7.955  -5.149  0.00  0.00     0.034 C 
ENDBRANCH  14  15
ENDBRANCH  11  14
ENDBRANCH   8  10
ENDBRANCH   4   8
BRANCH   1  17
ATOM     17  C   UNL d   1       0.152   0.194   0.530  0.00  0.00     0.418 C 
ATOM     18  F   UNL d   1      -1.071  -0.245   0.937  0.00  0.00    -0.166 F 
ATOM     19  F   UNL d   1       0.880   0.376   1.667  0.00  0.00    -0.166 F 
ATOM     20  F   UNL d   1       0.729  -0.856  -0.117  0.00  0.00    -0.166 F 
ENDBRANCH   1  17
TORSDOF 5
