REMARK  4 active torsions:
REMARK  status: ('A' for Active; 'I' for Inactive)
REMARK    1  A    between atoms: C_6  and  N_1 
REMARK    2  A    between atoms: C_7  and  C_6 
REMARK       I    between atoms: N_8  and  C_7 
REMARK    3  A    between atoms: C_9  and  C_12 
REMARK    4  A    between atoms: C_17  and  C_9 
ROOT
ATOM      1  C   UNL d   1       3.814   1.462  -0.319  0.00  0.00     0.238 C 
ATOM      2  N   UNL d   1       3.198   2.647   0.114  0.00  0.00    -0.351 N 
ATOM      3  C   UNL d   1       1.771   5.046   1.044  0.00  0.00     0.064 C 
ATOM      4  C   UNL d   1       2.176   2.532   1.156  0.00  0.00     0.126 C 
ATOM      5  C   UNL d   1       3.059   3.798  -0.769  0.00  0.00     0.126 C 
ATOM      6  O   UNL d   1       3.517   0.370   0.174  0.00  0.00    -0.272 OA
ATOM      7  C   UNL d   1       2.863   5.110  -0.023  0.00  0.00     0.032 C 
ATOM      8  C   UNL d   1       1.998   3.831   1.947  0.00  0.00     0.032 C 
ENDROOT
BRANCH   1   9
ATOM      9  C   UNL d   1       4.900   1.537  -1.415  0.00  0.00     0.238 C 
BRANCH   9  10
ATOM     10  N   UNL d   1       4.360   1.391  -2.758  0.00  0.00    -0.271 N 
ATOM     11  C   UNL d   1       4.184   2.426  -3.633  0.00  0.00     0.262 C 
ATOM     12  C   UNL d   1       3.600   1.861  -4.840  0.00  0.00     0.048 A 
ATOM     13  O   UNL d   1       4.503   3.596  -3.538  0.00  0.00    -0.267 OA
ATOM     14  C   UNL d   1       3.069   2.488  -5.949  0.00  0.00     0.018 A 
ATOM     15  C   UNL d   1       3.652   0.486  -4.717  0.00  0.00     0.048 A 
ATOM     16  C   UNL d   1       2.592   1.669  -6.974  0.00  0.00     0.001 A 
ATOM     17  C   UNL d   1       2.693   0.265  -6.878  0.00  0.00     0.001 A 
ATOM     18  C   UNL d   1       3.232  -0.344  -5.737  0.00  0.00     0.018 A 
ATOM     19  C   UNL d   1       4.184   0.186  -3.383  0.00  0.00     0.262 C 
ATOM     20  O   UNL d   1       4.437  -0.933  -2.992  0.00  0.00    -0.267 OA
ENDBRANCH   9  10
ENDBRANCH   1   9
BRANCH   3  21
ATOM     21  C   UNL d   1       0.367   5.032   0.433  0.00  0.00     0.163 C 
ATOM     22  O   UNL d   1       0.153   4.612  -0.704  0.00  0.00    -0.292 OA
BRANCH  21  23
ATOM     23  C   UNL d   1      -0.797   5.480   1.251  0.00  0.00     0.010 A 
ATOM     24  C   UNL d   1      -0.686   6.450   2.253  0.00  0.00     0.015 A 
ATOM     25  C   UNL d   1      -1.816   6.839   2.978  0.00  0.00     0.001 A 
ATOM     26  C   UNL d   1      -3.057   6.264   2.707  0.00  0.00     0.000 A 
ATOM     27  C   UNL d   1      -3.176   5.304   1.703  0.00  0.00     0.001 A 
ATOM     28  C   UNL d   1      -2.051   4.917   0.974  0.00  0.00     0.015 A 
ENDBRANCH  21  23
ENDBRANCH   3  21
TORSDOF 4
