REMARK  6 active torsions:
REMARK  status: ('A' for Active; 'I' for Inactive)
REMARK    1  A    between atoms: N_7  and  C_4 
REMARK       I    between atoms: C_8  and  N_7 
REMARK    2  A    between atoms: C_18  and  C_8 
REMARK    3  A    between atoms: C_11  and  C_19 
REMARK    4  A    between atoms: O_16  and  C_11 
REMARK    5  A    between atoms: O_15  and  C_18 
REMARK    6  A    between atoms: C_19  and  O_15 
ROOT
ATOM      1  C   UNL d   1       0.022  -0.731   0.057  0.00  0.00     0.021 A 
ATOM      2  N   UNL d   1       1.207   1.354   0.070  0.00  0.00    -0.300 N 
ATOM      3  HN  UNL d   1       1.191   2.373   0.091  1.00  0.00     0.187 HD
ATOM      4  C   UNL d   1      -1.230  -1.403  -0.017  0.00  0.00     0.047 A 
ATOM      5  N   UNL d   1       2.410   0.701   0.087  0.00  0.00    -0.305 N 
ATOM      6  HN  UNL d   1       3.280   1.233   0.111  1.00  0.00     0.186 HD
ATOM      7  C   UNL d   1       0.048   0.677   0.026  0.00  0.00     0.060 A 
ATOM      8  C   UNL d   1       1.271  -1.384   0.082  0.00  0.00     0.042 A 
ATOM      9  C   UNL d   1       2.443  -0.643   0.073  0.00  0.00     0.023 A 
ATOM     10  C   UNL d   1      -2.411  -0.665  -0.147  0.00  0.00     0.030 A 
ATOM     11  C   UNL d   1      -2.370   0.725  -0.171  0.00  0.00     0.005 A 
ATOM     12  C   UNL d   1      -1.145   1.379  -0.072  0.00  0.00     0.032 A 
ATOM     13  C   UNL d   1       3.775  -1.314  -0.006  0.00  0.00     0.070 C 
ENDROOT
BRANCH   4  14
ATOM     14  N   UNL d   1      -1.282  -2.815   0.092  0.00  0.00    -0.325 N 
ATOM     15  C   UNL d   1      -2.241  -3.626  -0.495  0.00  0.00     0.245 C 
ATOM     16  O   UNL d   1      -3.090  -3.261  -1.304  0.00  0.00    -0.271 OA
ATOM     17  H   UNL d   1      -0.497  -3.277   0.529  0.00  0.00     0.169 HD
BRANCH  15  18
ATOM     18  C   UNL d   1      -2.126  -5.089  -0.073  0.00  0.00     0.271 C 
BRANCH  18  19
ATOM     19  O   UNL d   1      -2.573  -5.234   1.277  0.00  0.00    -0.372 OA
BRANCH  19  20
ATOM     20  C   UNL d   1      -2.756  -6.609   1.626  0.00  0.00     0.277 C 
BRANCH  20  21
ATOM     21  C   UNL d   1      -1.448  -7.186   2.135  0.00  0.00     0.164 C 
ATOM     22  O   UNL d   1      -1.059  -8.325   1.932  0.00  0.00    -0.648 OA
BRANCH  21  23
ATOM     23  O   UNL d   1      -0.741  -6.276   2.854  0.00  0.00    -0.775 OA
ATOM     24  H   UNL d   1      -1.241  -5.431   2.896  0.00  0.00     0.167 HD
ENDBRANCH  21  23
ENDBRANCH  20  21
ENDBRANCH  19  20
ENDBRANCH  18  19
ENDBRANCH  15  18
ENDBRANCH   4  14
TORSDOF 6
