REMARK  5 active torsions:
REMARK  status: ('A' for Active; 'I' for Inactive)
REMARK    1  A    between atoms: C_9  and  N_1 
REMARK    2  A    between atoms: C_11  and  C_6 
REMARK    3  A    between atoms: C_8  and  C_12 
REMARK    4  A    between atoms: C_10  and  C_9 
REMARK    5  A    between atoms: C_13  and  C_10 
ROOT
ATOM      1  N   UNL d   1      -0.274  -1.069  -0.249  0.00  0.00    -0.209 N 
ATOM      2  N   UNL d   1       0.707  -0.401  -0.895  0.00  0.00    -0.268 N 
ATOM      3  HN  UNL d   1       1.276  -0.686  -1.692  1.00  0.00     0.190 HD
ATOM      4  N   UNL d   1      -0.270   0.798   0.754  0.00  0.00    -0.266 N 
ATOM      5  HN  UNL d   1      -0.479   1.580   1.375  1.00  0.00     0.186 HD
ATOM      6  C   UNL d   1       0.722   0.747  -0.193  0.00  0.00     0.144 A 
ATOM      7  N   UNL d   1      -0.904  -0.365   0.707  0.00  0.00    -0.002 NA
ENDROOT
BRANCH   6   8
ATOM      8  C   UNL d   1       1.802   1.717  -0.272  0.00  0.00     0.010 A 
ATOM      9  C   UNL d   1       2.562   1.844  -1.442  0.00  0.00     0.016 A 
ATOM     10  C   UNL d   1       3.712   2.639  -1.458  0.00  0.00     0.017 A 
ATOM     11  C   UNL d   1       4.123   3.319  -0.303  0.00  0.00     0.048 A 
ATOM     12  C   UNL d   1       3.332   3.232   0.854  0.00  0.00     0.017 A 
ATOM     13  C   UNL d   1       2.176   2.444   0.866  0.00  0.00     0.016 A 
BRANCH  11  14
ATOM     14  C   UNL d   1       5.417   4.096  -0.273  0.00  0.00     0.417 C 
ATOM     15  F   UNL d   1       6.078   4.099  -1.464  0.00  0.00    -0.166 F 
ATOM     16  F   UNL d   1       5.237   5.404   0.059  0.00  0.00    -0.166 F 
ATOM     17  F   UNL d   1       6.297   3.596   0.638  0.00  0.00    -0.166 F 
ENDBRANCH  11  14
ENDBRANCH   6   8
BRANCH   1  18
ATOM     18  C   UNL d   1      -0.270  -2.511  -0.235  0.00  0.00     0.246 C 
BRANCH  18  19
ATOM     19  C   UNL d   1      -1.467  -3.085  -0.935  0.00  0.00     0.155 C 
ATOM     20  O   UNL d   1      -2.543  -3.176  -0.330  0.00  0.00    -0.295 OA
BRANCH  19  21
ATOM     21  C   UNL d   1      -1.315  -3.653  -2.361  0.00  0.00     0.011 C 
ATOM     22  C   UNL d   1      -0.678  -5.046  -2.265  0.00  0.00     0.022 C 
ATOM     23  C   UNL d   1      -2.715  -3.782  -2.990  0.00  0.00     0.022 C 
ATOM     24  C   UNL d   1      -0.466  -2.752  -3.264  0.00  0.00     0.022 C 
ENDBRANCH  19  21
ENDBRANCH  18  19
ENDBRANCH   1  18
TORSDOF 5
