REMARK  6 active torsions:
REMARK  status: ('A' for Active; 'I' for Inactive)
REMARK    1  A    between atoms: C_6  and  N_1 
REMARK    2  A    between atoms: N_7  and  C_6 
REMARK    3  A    between atoms: C_10  and  N_7 
REMARK    4  A    between atoms: C_11  and  C_10 
REMARK    5  A    between atoms: C_12  and  C_10 
REMARK    6  A    between atoms: C_13  and  C_11 
ROOT
ATOM      1  N   UNL d   1       3.757   1.381   0.104  0.00  0.00     0.110 N 
ATOM      2  H   UNL d   1       3.723   1.877   0.999  0.00  0.00     0.319 HD
ENDROOT
BRANCH   1   3
ATOM      3  C   UNL d   1       3.238   0.049   0.383  0.00  0.00     0.406 C 
BRANCH   3   4
ATOM      4  N   UNL d   1       1.931   0.194   0.972  0.00  0.00    -0.252 N 
ATOM      5  C   UNL d   1       1.709   0.785   2.187  0.00  0.00     0.263 A 
ATOM      6  C   UNL d   1       0.297   0.588   2.497  0.00  0.00     0.048 A 
ATOM      7  O   UNL d   1       2.499   1.345   2.922  0.00  0.00    -0.267 OA
ATOM      8  C   UNL d   1      -0.445   0.999   3.589  0.00  0.00     0.018 A 
ATOM      9  C   UNL d   1      -0.251  -0.173   1.481  0.00  0.00     0.048 A 
ATOM     10  C   UNL d   1      -1.785   0.605   3.634  0.00  0.00     0.001 A 
ATOM     11  C   UNL d   1      -2.343  -0.180   2.603  0.00  0.00     0.001 A 
ATOM     12  C   UNL d   1      -1.571  -0.579   1.506  0.00  0.00     0.018 A 
ATOM     13  C   UNL d   1       0.816  -0.453   0.518  0.00  0.00     0.263 A 
ATOM     14  O   UNL d   1       0.683  -1.184  -0.445  0.00  0.00    -0.267 OA
ENDBRANCH   3   4
ENDBRANCH   1   3
BRANCH   1  15
ATOM     15  C   UNL d   1       5.173   1.384  -0.330  0.00  0.00     0.259 C 
BRANCH  15  16
ATOM     16  C   UNL d   1       5.461   0.592  -1.641  0.00  0.00     0.079 C 
BRANCH  16  17
ATOM     17  C   UNL d   1       4.894   1.093  -2.951  0.00  0.00    -0.056 A 
ATOM     18  C   UNL d   1       5.758   1.492  -3.982  0.00  0.00     0.007 A 
ATOM     19  C   UNL d   1       5.262   1.818  -5.246  0.00  0.00     0.001 A 
ATOM     20  C   UNL d   1       3.893   1.756  -5.496  0.00  0.00     0.000 A 
ATOM     21  C   UNL d   1       3.021   1.385  -4.476  0.00  0.00     0.001 A 
ATOM     22  C   UNL d   1       3.517   1.059  -3.212  0.00  0.00     0.007 A 
ENDBRANCH  16  17
ENDBRANCH  15  16
BRANCH  15  23
ATOM     23  C   UNL d   1       5.789   2.793  -0.326  0.00  0.00    -0.025 A 
ATOM     24  C   UNL d   1       5.050   3.945   0.002  0.00  0.00     0.009 A 
ATOM     25  C   UNL d   1       5.659   5.201   0.085  0.00  0.00     0.001 A 
ATOM     26  C   UNL d   1       7.017   5.339  -0.180  0.00  0.00     0.000 A 
ATOM     27  C   UNL d   1       7.769   4.219  -0.520  0.00  0.00     0.001 A 
ATOM     28  C   UNL d   1       7.164   2.959  -0.580  0.00  0.00     0.009 A 
ENDBRANCH  15  23
ENDBRANCH   1  15
TORSDOF 6
