REMARK  4 active torsions:
REMARK  status: ('A' for Active; 'I' for Inactive)
REMARK    1  A    between atoms: C_3  and  C_1 
REMARK       I    between atoms: N_2  and  C_3 
REMARK    2  A    between atoms: C_9  and  C_4 
REMARK    3  A    between atoms: O_22  and  C_14 
REMARK    4  A    between atoms: O_23  and  C_16 
ROOT
ATOM      1  N   UNL d   1       4.389  -3.712  -0.206  0.00  0.00    -0.334 N 
ATOM      2  C   UNL d   1       4.690  -2.963   0.940  0.00  0.00     0.263 C 
ATOM      3  C   UNL d   1       4.859  -5.088  -0.473  0.00  0.00     0.156 C 
ATOM      4  C   UNL d   1       3.620  -5.978  -0.694  0.00  0.00    -0.021 A 
ATOM      5  C   UNL d   1       2.645  -5.475  -1.582  0.00  0.00    -0.045 A 
ATOM      6  C   UNL d   1       3.386  -7.213  -0.079  0.00  0.00     0.049 A 
ATOM      7  C   UNL d   1       3.461  -3.167  -1.230  0.00  0.00     0.132 C 
ATOM      8  C   UNL d   1       2.204  -7.927  -0.318  0.00  0.00     0.102 A 
ATOM      9  C   UNL d   1       1.457  -6.170  -1.804  0.00  0.00     0.047 A 
ATOM     10  C   UNL d   1       1.214  -7.375  -1.141  0.00  0.00     0.102 A 
ATOM     11  O   UNL d   1       5.727  -3.082   1.577  0.00  0.00    -0.267 OA
ATOM     12  C   UNL d   1       2.941  -4.167  -2.265  0.00  0.00     0.059 C 
ENDROOT
BRANCH   2  13
ATOM     13  C   UNL d   1       3.650  -2.005   1.300  0.00  0.00     0.096 C 
ATOM     14  S   UNL d   1       3.816  -0.362   0.880  0.00  0.00    -0.082 SA
ATOM     15  C   UNL d   1       2.101  -0.131   0.908  0.00  0.00     0.017 A 
ATOM     16  C   UNL d   1       1.386   0.978   0.412  0.00  0.00     0.020 A 
ATOM     17  C   UNL d   1       1.451  -1.229   1.476  0.00  0.00     0.004 A 
ATOM     18  C   UNL d   1      -0.011   0.956   0.454  0.00  0.00     0.001 A 
ATOM     19  C   UNL d   1      -0.683  -0.114   1.026  0.00  0.00     0.001 A 
ATOM     20  C   UNL d   1       0.033  -1.191   1.557  0.00  0.00     0.014 A 
ATOM     21  C   UNL d   1       2.389  -2.277   1.793  0.00  0.00     0.068 C 
ATOM     22 CL   UNL d   1       1.882  -3.794   2.425  0.00  0.00    -0.082 Cl
ENDBRANCH   2  13
BRANCH   3  23
ATOM     23  C   UNL d   1       6.058  -5.757   0.192  0.00  0.00    -0.009 A 
ATOM     24  C   UNL d   1       6.148  -6.162   1.534  0.00  0.00     0.042 A 
ATOM     25 CL   UNL d   1       4.932  -5.815   2.713  0.00  0.00    -0.084 Cl
ATOM     26  C   UNL d   1       7.200  -6.993   1.960  0.00  0.00     0.024 A 
ATOM     27  C   UNL d   1       8.171  -7.443   1.067  0.00  0.00     0.002 A 
ATOM     28  C   UNL d   1       8.119  -7.039  -0.258  0.00  0.00     0.001 A 
ATOM     29  C   UNL d   1       7.087  -6.202  -0.683  0.00  0.00     0.011 A 
ENDBRANCH   3  23
BRANCH   8  30
ATOM     30  O   UNL d   1       1.976  -9.154   0.251  0.00  0.00    -0.353 OA
ATOM     31  C   UNL d   1       3.121  -9.999   0.322  0.00  0.00     0.210 C 
ENDBRANCH   8  30
BRANCH  10  32
ATOM     32  O   UNL d   1       0.001  -7.944  -1.436  0.00  0.00    -0.353 OA
ATOM     33  C   UNL d   1      -0.663  -8.536  -0.323  0.00  0.00     0.210 C 
ENDBRANCH  10  32
TORSDOF 4
