REMARK  1 active torsions:
REMARK  status: ('A' for Active; 'I' for Inactive)
REMARK    1  A    between atoms: C_8  and  C_4 
ROOT
ATOM      1  C   UNL d   1      -2.050   0.306   0.082  0.00  0.00     0.018 C 
ATOM      2  C   UNL d   1      -1.101  -0.848   0.026  0.00  0.00     0.193 C 
ATOM      3  C   UNL d   1       0.335  -0.484   0.039  0.00  0.00     0.048 A 
ATOM      4  C   UNL d   1      -3.349   0.094  -0.210  0.00  0.00     0.024 C 
ATOM      5  O   UNL d   1      -0.206   1.871  -0.195  0.00  0.00    -0.346 OA
ATOM      6  C   UNL d   1       0.703   0.857  -0.079  0.00  0.00     0.083 A 
ATOM      7  C   UNL d   1      -1.429   1.600   0.498  0.00  0.00     0.218 C 
ATOM      8  O   UNL d   1      -1.467  -2.015  -0.023  0.00  0.00    -0.287 OA
ATOM      9  C   UNL d   1       1.323  -1.472   0.124  0.00  0.00     0.018 A 
ATOM     10  C   UNL d   1       2.049   1.215  -0.138  0.00  0.00     0.038 A 
ATOM     11  C   UNL d   1       2.673  -1.110   0.086  0.00  0.00     0.001 A 
ATOM     12  C   UNL d   1       3.035   0.231  -0.048  0.00  0.00     0.003 A 
ENDROOT
BRANCH   4  13
ATOM     13  C   UNL d   1      -4.355   1.159  -0.194  0.00  0.00    -0.035 A 
ATOM     14  C   UNL d   1      -5.063   1.460   0.976  0.00  0.00     0.023 A 
ATOM     15  C   UNL d   1      -6.013   2.500   1.000  0.00  0.00    -0.025 A 
ATOM     16  C   UNL d   1      -6.753   2.801   2.156  0.00  0.00     0.012 A 
ATOM     17  C   UNL d   1      -6.236   3.259  -0.173  0.00  0.00    -0.026 A 
ATOM     18  C   UNL d   1      -7.708   3.821   2.150  0.00  0.00     0.001 A 
ATOM     19  C   UNL d   1      -7.929   4.561   0.993  0.00  0.00     0.001 A 
ATOM     20  C   UNL d   1      -7.192   4.287  -0.160  0.00  0.00     0.012 A 
ATOM     21  C   UNL d   1      -5.503   2.965  -1.331  0.00  0.00     0.013 A 
ATOM     22  C   UNL d   1      -4.578   1.918  -1.346  0.00  0.00     0.012 A 
ENDBRANCH   4  13
TORSDOF 1
