REMARK  2 active torsions:
REMARK  status: ('A' for Active; 'I' for Inactive)
REMARK    1  A    between atoms: N_9  and  N_2 
REMARK    2  A    between atoms: C_11  and  N_9 
ROOT
ATOM      1  C   UNL d   1      -0.998   0.903   0.036  0.00  0.00     0.109 A 
ATOM      2  N   UNL d   1      -1.274   2.177   0.000  0.00  0.00    -0.296 N 
ATOM      3  HN  UNL d   1      -0.527   2.870  -0.045  1.00  0.00     0.187 HD
ATOM      4  C   UNL d   1       0.426   0.478   0.004  0.00  0.00     0.006 A 
ATOM      5  C   UNL d   1      -2.054  -0.199   0.117  0.00  0.00     0.200 A 
ATOM      6  C   UNL d   1      -1.598  -1.603   0.071  0.00  0.00     0.058 A 
ATOM      7  C   UNL d   1      -0.298  -1.912   0.031  0.00  0.00     0.016 A 
ATOM      8  C   UNL d   1       0.745  -0.886   0.018  0.00  0.00    -0.023 A 
ATOM      9  O   UNL d   1      -3.247   0.058   0.232  0.00  0.00    -0.286 OA
ATOM     10  C   UNL d   1       1.445   1.442  -0.035  0.00  0.00     0.015 A 
ATOM     11  C   UNL d   1       2.093  -1.270   0.008  0.00  0.00     0.012 A 
ATOM     12  C   UNL d   1       2.782   1.047  -0.050  0.00  0.00     0.001 A 
ATOM     13  C   UNL d   1       3.105  -0.306  -0.022  0.00  0.00     0.001 A 
ENDROOT
BRANCH   2  14
ATOM     14  N   UNL d   1      -2.570   2.564   0.024  0.00  0.00    -0.300 N 
ATOM     15  H   UNL d   1      -3.313   1.896   0.256  0.00  0.00     0.187 HD
BRANCH  14  16
ATOM     16  C   UNL d   1      -2.883   3.930   0.103  0.00  0.00     0.048 A 
ATOM     17  C   UNL d   1      -1.903   4.927  -0.005  0.00  0.00     0.032 A 
ATOM     18  C   UNL d   1      -2.241   6.283   0.008  0.00  0.00     0.021 A 
ATOM     19  C   UNL d   1      -3.576   6.655   0.124  0.00  0.00     0.011 A 
ATOM     20  C   UNL d   1      -4.570   5.685   0.227  0.00  0.00     0.021 A 
ATOM     21 BR   UNL d   1      -4.044   8.486   0.126  0.00  0.00    -0.051 Br
ATOM     22  C   UNL d   1      -4.222   4.329   0.212  0.00  0.00     0.032 A 
ENDBRANCH  14  16
ENDBRANCH   2  14
TORSDOF 2
