REMARK  10 active torsions:
REMARK  status: ('A' for Active; 'I' for Inactive)
REMARK    1  A    between atoms: N_2  and  C_1 
REMARK    2  A    between atoms: O_22  and  C_4 
REMARK    3  A    between atoms: C_5  and  N_13 
REMARK    4  A    between atoms: N_10  and  C_5 
REMARK    5  A    between atoms: S_12  and  C_7 
REMARK    6  A    between atoms: C_8  and  C_20 
REMARK       I    between atoms: N_14  and  C_8 
REMARK    7  A    between atoms: O_23  and  C_9 
REMARK    8  A    between atoms: C_17  and  N_10 
REMARK    9  A    between atoms: C_20  and  S_12 
REMARK   10  A    between atoms: N_13  and  N_14 
ROOT
ATOM      1  C   UNL d   1      -5.320  -0.424  -0.765  0.00  0.00     0.245 C 
ATOM      2  N   UNL d   1      -6.335  -1.211  -0.258  0.00  0.00    -0.267 N 
ATOM      3  O   UNL d   1      -5.542   0.541  -1.496  0.00  0.00    -0.271 OA
ATOM      4  H   UNL d   1      -6.170  -1.899   0.472  0.00  0.00     0.190 HD
ENDROOT
BRANCH   1   5
ATOM      5  C   UNL d   1      -3.934  -0.877  -0.337  0.00  0.00     0.184 C 
BRANCH   5   6
ATOM      6  S   UNL d   1      -2.882   0.520   0.168  0.00  0.00    -0.118 SA
BRANCH   6   7
ATOM      7  C   UNL d   1      -3.873   1.270   1.467  0.00  0.00     0.037 A 
ATOM      8  C   UNL d   1      -4.284   2.600   1.258  0.00  0.00     0.060 A 
ATOM      9  C   UNL d   1      -4.998   3.322   2.227  0.00  0.00     0.102 A 
ATOM     10  C   UNL d   1      -5.286   2.674   3.429  0.00  0.00     0.138 A 
ATOM     11  C   UNL d   1      -4.904   1.336   3.649  0.00  0.00     0.077 A 
ATOM     12  C   UNL d   1      -4.206   0.623   2.670  0.00  0.00     0.087 A 
BRANCH   9  13
ATOM     13  O   UNL d   1      -5.449   4.527   1.775  0.00  0.00    -0.353 OA
ATOM     14  C   UNL d   1      -5.267   5.667   2.605  0.00  0.00     0.210 C 
ENDBRANCH   9  13
BRANCH  10  15
ATOM     15  N   UNL d   1      -6.018   3.295   4.517  0.00  0.00    -0.113 N 
ATOM     16  O   UNL d   1      -7.047   2.721   4.904  0.00  0.00    -0.532 OA
ATOM     17  O   UNL d   1      -5.501   4.273   5.072  0.00  0.00    -0.532 OA
ENDBRANCH  10  15
BRANCH  12  18
ATOM     18  O   UNL d   1      -3.814  -0.683   2.810  0.00  0.00    -0.355 OA
ATOM     19  C   UNL d   1      -4.167  -1.358   4.013  0.00  0.00     0.210 C 
ENDBRANCH  12  18
ENDBRANCH   6   7
ENDBRANCH   5   6
ENDBRANCH   1   5
BRANCH   2  20
ATOM     20  N   UNL d   1      -7.649  -0.738  -0.372  0.00  0.00    -0.274 N 
ATOM     21  H   UNL d   1      -7.741   0.137  -0.893  0.00  0.00     0.189 HD
BRANCH  20  22
ATOM     22  C   UNL d   1      -8.713  -1.597  -0.400  0.00  0.00     0.191 C 
ATOM     23  S   UNL d   1      -8.594  -3.260  -0.580  0.00  0.00    -0.039 SA
BRANCH  22  24
ATOM     24  N   UNL d   1      -9.962  -1.067  -0.231  0.00  0.00    -0.332 N 
ATOM     25  H   UNL d   1     -10.692  -1.750  -0.413  0.00  0.00     0.168 HD
BRANCH  24  26
ATOM     26  C   UNL d   1     -10.388   0.099   0.450  0.00  0.00     0.035 A 
ATOM     27  C   UNL d   1      -9.541   1.050   1.024  0.00  0.00     0.053 A 
ATOM     28  C   UNL d   1     -10.074   2.115   1.755  0.00  0.00     0.036 A 
ATOM     29 CL   UNL d   1      -9.022   3.310   2.405  0.00  0.00    -0.084 Cl
ATOM     30  C   UNL d   1     -11.445   2.229   1.959  0.00  0.00     0.024 A 
ATOM     31  C   UNL d   1     -12.298   1.291   1.389  0.00  0.00     0.004 A 
ATOM     32  C   UNL d   1     -11.773   0.242   0.627  0.00  0.00     0.029 A 
ENDBRANCH  24  26
ENDBRANCH  22  24
ENDBRANCH  20  22
ENDBRANCH   2  20
TORSDOF 10
