REMARK  3 active torsions:
REMARK  status: ('A' for Active; 'I' for Inactive)
REMARK       I    between atoms: N_3  and  C_1 
REMARK       I    between atoms: N_4  and  C_1 
REMARK    1  A    between atoms: C_2  and  C_5 
REMARK    2  A    between atoms: C_12  and  N_3 
REMARK    3  A    between atoms: C_7  and  N_4 
ROOT
ATOM      1  C   UNL d   1       0.766  -0.022   0.279  0.00  0.00     0.322 C 
ATOM      2  N   UNL d   1       0.418   0.926  -0.702  0.00  0.00    -0.334 N 
ATOM      3  N   UNL d   1       2.046   0.098   0.789  0.00  0.00    -0.309 N 
ATOM      4  O   UNL d   1      -0.036  -0.871   0.657  0.00  0.00    -0.247 OA
ATOM      5  C   UNL d   1       1.388   1.701  -1.467  0.00  0.00     0.155 C 
ATOM      6  H   UNL d   1       2.502   0.981   0.629  0.00  0.00     0.170 HD
ENDROOT
BRANCH   3   7
ATOM      7  C   UNL d   1       2.650  -0.688   1.798  0.00  0.00     0.037 A 
ATOM      8  C   UNL d   1       2.063  -1.821   2.362  0.00  0.00     0.045 A 
ATOM      9  C   UNL d   1       2.622  -2.432   3.499  0.00  0.00     0.050 A 
ATOM     10  C   UNL d   1       3.847  -1.964   3.996  0.00  0.00     0.016 A 
ATOM     11  C   UNL d   1       4.486  -0.890   3.383  0.00  0.00     0.003 A 
ATOM     12  C   UNL d   1       3.883  -0.246   2.300  0.00  0.00     0.029 A 
BRANCH   9  13
ATOM     13  C   UNL d   1       1.872  -3.511   4.240  0.00  0.00     0.417 C 
ATOM     14  F   UNL d   1       0.681  -3.851   3.677  0.00  0.00    -0.166 F 
ATOM     15  F   UNL d   1       2.580  -4.670   4.348  0.00  0.00    -0.166 F 
ATOM     16  F   UNL d   1       1.581  -3.137   5.519  0.00  0.00    -0.166 F 
ENDBRANCH   9  13
ENDBRANCH   3   7
BRANCH   2  17
ATOM     17  C   UNL d   1      -0.976   0.840  -1.224  0.00  0.00     0.088 C 
ATOM     18  C   UNL d   1      -1.112  -0.183  -2.367  0.00  0.00     0.025 C 
ATOM     19  C   UNL d   1      -0.910   0.394  -3.766  0.00  0.00     0.002 C 
ATOM     20  C   UNL d   1      -1.785   1.616  -4.001  0.00  0.00     0.000 C 
ATOM     21  C   UNL d   1      -1.510   2.699  -2.967  0.00  0.00     0.002 C 
ATOM     22  C   UNL d   1      -1.660   2.189  -1.535  0.00  0.00     0.025 C 
ENDBRANCH   2  17
TORSDOF 3
