REMARK  3 active torsions:
REMARK  status: ('A' for Active; 'I' for Inactive)
REMARK    1  A    between atoms: N_3  and  C_1 
REMARK    2  A    between atoms: C_4  and  C_2 
REMARK    3  A    between atoms: O_13  and  C_4 
ROOT
ATOM      1  C   UNL d   1       1.314   0.755   0.029  0.00  0.00     0.063 A 
ATOM      2  C   UNL d   1       0.068   1.165   0.493  0.00  0.00     0.107 A 
ATOM      3  S   UNL d   1      -1.117  -0.074   0.293  0.00  0.00    -0.094 SA
ATOM      4  C   UNL d   1       1.264  -0.593  -0.466  0.00  0.00     0.039 A 
ATOM      5  C   UNL d   1       0.007  -1.146  -0.395  0.00  0.00     0.053 A 
ENDROOT
BRANCH   1   6
ATOM      6  N   UNL d   1       2.539   1.525   0.043  0.00  0.00    -0.319 N 
ATOM      7  C   UNL d   1       3.002   2.364   1.060  0.00  0.00     0.013 A 
ATOM      8  C   UNL d   1       4.203   2.920   0.661  0.00  0.00     0.027 A 
ATOM      9  C   UNL d   1       2.371   2.558   2.396  0.00  0.00     0.068 C 
ATOM     10  C   UNL d   1       4.544   2.365  -0.577  0.00  0.00     0.027 A 
ATOM     11  C   UNL d   1       3.531   1.500  -0.947  0.00  0.00     0.013 A 
ATOM     12  C   UNL d   1       3.474   0.744  -2.231  0.00  0.00     0.068 C 
ENDBRANCH   1   6
BRANCH   2  13
ATOM     13  C   UNL d   1      -0.377   2.451   0.992  0.00  0.00     0.302 C 
ATOM     14  O   UNL d   1       0.005   3.546   0.591  0.00  0.00    -0.259 OA
BRANCH  13  15
ATOM     15  O   UNL d   1      -1.247   2.277   2.030  0.00  0.00    -0.322 OA
ATOM     16  C   UNL d   1      -1.679   3.473   2.680  0.00  0.00     0.213 C 
ENDBRANCH  13  15
ENDBRANCH   2  13
TORSDOF 3
