REMARK  2 active torsions:
REMARK  status: ('A' for Active; 'I' for Inactive)
REMARK    1  A    between atoms: C_3  and  C_1 
REMARK       I    between atoms: N_7  and  C_3 
REMARK    2  A    between atoms: C_15  and  C_18 
ROOT
ATOM      1  C   UNL d   1      -1.291  -2.785  -0.242  0.00  0.00     0.256 C 
ATOM      2  N   UNL d   1      -0.410  -3.780   0.221  0.00  0.00    -0.348 N 
ATOM      3  O   UNL d   1      -1.896  -2.921  -1.316  0.00  0.00    -0.267 OA
ATOM      4  C   UNL d   1       0.408  -3.665   1.422  0.00  0.00     0.126 C 
ATOM      5  C   UNL d   1       0.049  -4.727  -0.795  0.00  0.00     0.126 C 
ATOM      6  C   UNL d   1       1.590  -5.891   0.927  0.00  0.00    -0.004 C 
ATOM      7  C   UNL d   1       0.607  -6.038  -0.247  0.00  0.00     0.025 C 
ATOM      8  C   UNL d   1       0.912  -4.991   1.975  0.00  0.00     0.025 C 
ENDROOT
BRANCH   1   9
ATOM      9  C   UNL d   1      -1.627  -1.553   0.504  0.00  0.00     0.061 A 
ATOM     10  C   UNL d   1      -0.716  -0.691   1.174  0.00  0.00     0.082 A 
ATOM     11  N   UNL d   1       0.618  -0.801   1.293  0.00  0.00    -0.310 N 
ATOM     12  C   UNL d   1      -1.218   0.579   1.841  0.00  0.00     0.068 A 
ATOM     13  S   UNL d   1       1.150   0.435   2.253  0.00  0.00     0.068 SA
ATOM     14  HN  UNL d   1       1.200  -1.522   0.866  1.00  0.00     0.176 HD
ATOM     15  N   UNL d   1      -0.264   1.256   2.498  0.00  0.00    -0.310 N 
ATOM     16  HN  UNL d   1      -0.387   2.110   3.042  1.00  0.00     0.176 HD
ATOM     17  C   UNL d   1      -2.572   0.978   1.751  0.00  0.00     0.032 A 
ATOM     18  C   UNL d   1      -3.414   0.136   1.016  0.00  0.00     0.003 A 
ATOM     19  C   UNL d   1      -2.964  -1.072   0.430  0.00  0.00     0.019 A 
ENDBRANCH   1   9
BRANCH   6  20
ATOM     20  C   UNL d   1       3.098  -5.586   0.559  0.00  0.00    -0.048 C 
ATOM     21  C   UNL d   1       3.352  -4.314  -0.267  0.00  0.00     0.015 C 
ATOM     22  C   UNL d   1       3.949  -5.477   1.845  0.00  0.00     0.015 C 
ATOM     23  C   UNL d   1       3.666  -6.772  -0.260  0.00  0.00     0.015 C 
ENDBRANCH   6  20
TORSDOF 2
