REMARK  5 active torsions:
REMARK  status: ('A' for Active; 'I' for Inactive)
REMARK    1  A    between atoms: C_6  and  C_1 
REMARK    2  A    between atoms: C_8  and  C_2 
REMARK    3  A    between atoms: O_11  and  C_6 
REMARK    4  A    between atoms: O_16  and  C_8 
REMARK    5  A    between atoms: C_17  and  O_11 
ROOT
ATOM      1  C   UNL d   1       1.704  -0.957   0.174  0.00  0.00     0.075 C 
ATOM      2  C   UNL d   1       2.637   0.043  -0.074  0.00  0.00     0.098 C 
ATOM      3  C   UNL d   1       0.355  -0.402   0.382  0.00  0.00     0.007 C 
ATOM      4  S   UNL d   1       1.900   1.559  -0.277  0.00  0.00    -0.082 SA
ATOM      5  C   UNL d   1       0.326   0.965   0.055  0.00  0.00     0.023 C 
ATOM      6  C   UNL d   1      -0.868  -0.999   0.853  0.00  0.00    -0.028 C 
ATOM      7  C   UNL d   1      -0.864   1.735   0.039  0.00  0.00    -0.042 C 
ATOM      8  C   UNL d   1      -2.062  -0.246   0.761  0.00  0.00     0.041 C 
ATOM      9  C   UNL d   1      -2.059   1.078   0.348  0.00  0.00     0.032 C 
ATOM     10 CL   UNL d   1      -3.602  -0.922   1.185  0.00  0.00    -0.084 Cl
ATOM     11  C   UNL d   1      -0.938  -2.364   1.500  0.00  0.00     0.051 C 
ATOM     12  C   UNL d   1      -0.933   3.203  -0.299  0.00  0.00     0.049 C 
ENDROOT
BRANCH   1  13
ATOM     13  C   UNL d   1       2.066  -2.379   0.216  0.00  0.00     0.301 C 
ATOM     14  O   UNL d   1       1.362  -3.255  -0.272  0.00  0.00    -0.259 OA
BRANCH  13  15
ATOM     15  O   UNL d   1       3.260  -2.595   0.911  0.00  0.00    -0.275 OA
BRANCH  15  16
ATOM     16  C   UNL d   1       3.913  -3.827   1.169  0.00  0.00     0.079 A 
ATOM     17  C   UNL d   1       3.436  -5.078   0.792  0.00  0.00     0.037 A 
ATOM     18  C   UNL d   1       4.155  -6.221   1.159  0.00  0.00     0.003 A 
ATOM     19  C   UNL d   1       5.340  -6.107   1.889  0.00  0.00     0.000 A 
ATOM     20  C   UNL d   1       5.822  -4.849   2.243  0.00  0.00     0.003 A 
ATOM     21  C   UNL d   1       5.111  -3.707   1.880  0.00  0.00     0.037 A 
ENDBRANCH  15  16
ENDBRANCH  13  15
ENDBRANCH   1  13
BRANCH   2  22
ATOM     22  C   UNL d   1       4.070  -0.056  -0.267  0.00  0.00     0.301 C 
ATOM     23  O   UNL d   1       4.659  -0.971  -0.828  0.00  0.00    -0.259 OA
BRANCH  22  24
ATOM     24  O   UNL d   1       4.688   1.012   0.325  0.00  0.00    -0.322 OA
ATOM     25  C   UNL d   1       6.111   1.028   0.232  0.00  0.00     0.213 C 
ENDBRANCH  22  24
ENDBRANCH   2  22
TORSDOF 5
