REMARK  7 active torsions:
REMARK  status: ('A' for Active; 'I' for Inactive)
REMARK    1  A    between atoms: C_10  and  C_1 
REMARK    2  A    between atoms: N_9  and  C_2 
REMARK    3  A    between atoms: C_4  and  C_8 
REMARK    4  A    between atoms: C_11  and  CA_5 
REMARK    5  A    between atoms: C_16  and  C_6 
REMARK       I    between atoms: C_8  and  N_9 
REMARK    6  A    between atoms: O_23  and  C_10 
REMARK    7  A    between atoms: OXT_22  and  C_11 
ROOT
ATOM      1  C   UNL d   1       0.253   1.328  -0.378  0.00  0.00     0.107 C 
ATOM      2  C   UNL d   1       1.523   0.818  -0.171  0.00  0.00     0.059 C 
ATOM      3  S   UNL d   1      -0.929   0.076  -0.323  0.00  0.00    -0.081 SA
ATOM      4  C   UNL d   1       0.249  -1.163  -0.212  0.00  0.00     0.018 C 
ATOM      5  C   UNL d   1       1.516  -0.612  -0.178  0.00  0.00     0.051 C 
ENDROOT
BRANCH   2   6
ATOM      6  N   UNL d   1       2.713   1.514   0.017  0.00  0.00    -0.320 N 
ATOM      7  C   UNL d   1       2.806   2.725   0.682  0.00  0.00     0.275 C 
ATOM      8  O   UNL d   1       1.876   3.353   1.172  0.00  0.00    -0.266 OA
ATOM      9  H   UNL d   1       3.579   0.979  -0.013  0.00  0.00     0.169 HD
BRANCH   7  10
ATOM     10  C   UNL d   1       4.208   3.131   0.972  0.00  0.00     0.134 A 
ATOM     11  CA  UNL d   1       4.522   4.386   1.462  0.00  0.00     0.139 A 
ATOM     12  N   UNL d   1       5.723   4.656   2.068  0.00  0.00    -0.357 N 
ATOM     13  C   UNL d   1       6.613   3.634   2.064  0.00  0.00     0.105 A 
ATOM     14  HN  UNL d   1       5.931   5.560   2.492  1.00  0.00     0.165 HD
ATOM     15  C   UNL d   1       6.328   2.397   1.505  0.00  0.00     0.105 A 
ATOM     16  N   UNL d   1       5.122   2.103   0.964  0.00  0.00    -0.358 N 
ATOM     17  HN  UNL d   1       4.906   1.184   0.577  1.00  0.00     0.165 HD
BRANCH  11  18
ATOM     18  C   UNL d   1       3.629   5.554   1.294  0.00  0.00     0.196 C 
ATOM     19  O   UNL d   1       3.001   5.797   0.278  0.00  0.00    -0.645 OA
BRANCH  18  20
ATOM     20  OXT UNL d   1       3.690   6.378   2.368  0.00  0.00    -0.772 OA
ATOM     21  HXT UNL d   1       4.353   6.064   3.020  0.00  0.00     0.167 HD
ENDBRANCH  18  20
ENDBRANCH  11  18
ENDBRANCH   7  10
ENDBRANCH   2   6
BRANCH   1  22
ATOM     22  C   UNL d   1      -0.217   2.673  -0.652  0.00  0.00     0.302 C 
ATOM     23  O   UNL d   1      -1.323   3.129  -0.383  0.00  0.00    -0.259 OA
BRANCH  22  24
ATOM     24  O   UNL d   1       0.733   3.349  -1.368  0.00  0.00    -0.322 OA
ATOM     25  C   UNL d   1       0.459   4.737  -1.558  0.00  0.00     0.213 C 
ENDBRANCH  22  24
ENDBRANCH   1  22
BRANCH   4  26
ATOM     26  C   UNL d   1      -0.129  -2.586  -0.134  0.00  0.00    -0.019 A 
ATOM     27  C   UNL d   1      -1.269  -3.095  -0.776  0.00  0.00     0.014 A 
ATOM     28  C   UNL d   1      -1.577  -4.461  -0.720  0.00  0.00     0.024 A 
ATOM     29  C   UNL d   1      -0.746  -5.332  -0.024  0.00  0.00     0.034 A 
ATOM     30  C   UNL d   1       0.383  -4.851   0.629  0.00  0.00     0.024 A 
ATOM     31 CL   UNL d   1      -1.110  -7.012   0.024  0.00  0.00    -0.084 Cl
ATOM     32  C   UNL d   1       0.686  -3.486   0.576  0.00  0.00     0.014 A 
ENDBRANCH   4  26
TORSDOF 7
