REMARK  6 active torsions:
REMARK  status: ('A' for Active; 'I' for Inactive)
REMARK    1  A    between atoms: C_2  and  C_1 
REMARK    2  A    between atoms: O_12  and  C_2 
REMARK    3  A    between atoms: C_13  and  C_2 
REMARK    4  A    between atoms: C_3  and  C_14 
REMARK    5  A    between atoms: N_11  and  C_13 
REMARK    6  A    between atoms: C_14  and  N_11 
ROOT
ATOM      1  N   UNL d   1       0.698   0.573  -3.751  0.00  0.00     0.092 N 
ATOM      2  H   UNL d   1      -0.318   0.442  -3.764  0.00  0.00     0.316 HD
ENDROOT
BRANCH   1   3
ATOM      3  C   UNL d   1       1.115   0.844  -2.370  0.00  0.00     0.310 C 
BRANCH   3   4
ATOM      4  C   UNL d   1       0.593  -0.264  -1.440  0.00  0.00     0.253 C 
BRANCH   4   5
ATOM      5  C   UNL d   1       1.091  -0.050  -0.001  0.00  0.00     0.414 C 
ATOM      6  F   UNL d   1       0.043   0.008   0.859  0.00  0.00    -0.168 F 
ATOM      7  F   UNL d   1       1.777   1.106   0.143  0.00  0.00    -0.168 F 
ATOM      8  F   UNL d   1       1.893  -1.057   0.404  0.00  0.00    -0.168 F 
ENDBRANCH   4   5
BRANCH   4   9
ATOM      9  O   UNL d   1      -0.853  -0.304  -1.551  0.00  0.00    -0.385 OA
ATOM     10  H   UNL d   1      -1.218   0.312  -0.887  0.00  0.00     0.210 HD
ENDBRANCH   4   9
ENDBRANCH   3   4
ENDBRANCH   1   3
BRANCH   1  11
ATOM     11  C   UNL d   1       1.048   1.671  -4.652  0.00  0.00     0.334 C 
BRANCH  11  12
ATOM     12  C   UNL d   1       0.549   1.380  -6.023  0.00  0.00     0.080 A 
ATOM     13  O   UNL d   1      -0.288   2.302  -6.582  0.00  0.00    -0.325 OA
ATOM     14  C   UNL d   1      -0.631   1.829  -7.808  0.00  0.00     0.142 A 
ATOM     15  C   UNL d   1      -0.027   0.619  -8.049  0.00  0.00     0.027 A 
ATOM     16  C   UNL d   1       0.740   0.327  -6.896  0.00  0.00     0.036 A 
ENDBRANCH  11  12
ENDBRANCH   1  11
TORSDOF 6
