REMARK  4 active torsions:
REMARK  status: ('A' for Active; 'I' for Inactive)
REMARK    1  A    between atoms: S_11  and  C_2 
REMARK    2  A    between atoms: C_7  and  S_11 
REMARK    3  A    between atoms: C_21  and  C_14 
REMARK    4  A    between atoms: C_22  and  C_15 
ROOT
ATOM      1  N   UNL d   1       0.254  -0.799  -0.102  0.00  0.00    -0.078 N 
ATOM      2  C   UNL d   1      -0.926  -1.557  -0.121  0.00  0.00     0.121 A 
ATOM      3  C   UNL d   1       0.202   0.601  -0.067  0.00  0.00     0.706 A 
ATOM      4  N   UNL d   1      -0.980   1.277  -0.049  0.00  0.00    -0.189 N 
ATOM      5  HN  UNL d   1      -1.006   2.297  -0.022  1.00  0.00     0.184 HD
ATOM      6  C   UNL d   1      -2.114  -0.928  -0.093  0.00  0.00     0.071 A 
ATOM      7  N   UNL d   1       1.427   1.080  -0.035  0.00  0.00    -0.185 N 
ATOM      8  HN  UNL d   1       1.722   2.056  -0.009  1.00  0.00     0.185 HD
ATOM      9  C   UNL d   1      -2.075   0.573  -0.068  0.00  0.00     0.062 A 
ATOM     10  N   UNL d   1       1.558  -1.195  -0.083  0.00  0.00    -0.274 N 
ATOM     11  HN  UNL d   1       1.941  -2.140  -0.095  1.00  0.00     0.189 HD
ATOM     12  C   UNL d   1       2.204  -0.032  -0.045  0.00  0.00     0.215 A 
ENDROOT
BRANCH   2  13
ATOM     13  S   UNL d   1      -0.854  -3.297  -0.075  0.00  0.00    -0.024 SA
BRANCH  13  14
ATOM     14  C   UNL d   1      -0.059  -3.544  -1.602  0.00  0.00     0.210 A 
ATOM     15  O   UNL d   1       1.292  -3.715  -1.727  0.00  0.00    -0.267 OA
ATOM     16  C   UNL d   1       1.440  -3.854  -3.080  0.00  0.00     0.175 A 
ATOM     17  N   UNL d   1       0.288  -3.821  -3.719  0.00  0.00    -0.277 N 
ATOM     18  N   UNL d   1      -0.685  -3.611  -2.760  0.00  0.00    -0.272 N 
ATOM     19  HN  UNL d   1       0.143  -3.928  -4.723  1.00  0.00     0.189 HD
ATOM     20  HN  UNL d   1      -1.689  -3.526  -2.917  1.00  0.00     0.189 HD
BRANCH  16  21
ATOM     21  C   UNL d   1       2.795  -4.000  -3.591  0.00  0.00     0.019 A 
ATOM     22  C   UNL d   1       3.915  -3.825  -2.771  0.00  0.00     0.033 A 
ATOM     23  C   UNL d   1       5.175  -3.961  -3.329  0.00  0.00     0.088 A 
ATOM     24  N   UNL d   1       5.391  -4.257  -4.627  0.00  0.00    -0.375 N 
ATOM     25  C   UNL d   1       4.301  -4.423  -5.404  0.00  0.00     0.088 A 
ATOM     26  HN  UNL d   1       6.334  -4.351  -5.003  1.00  0.00     0.164 HD
ATOM     27  C   UNL d   1       3.002  -4.305  -4.939  0.00  0.00     0.033 A 
ENDBRANCH  16  21
ENDBRANCH  13  14
ENDBRANCH   2  13
BRANCH   9  28
ATOM     28  C   UNL d   1      -3.388   1.288  -0.017  0.00  0.00    -0.009 A 
ATOM     29  C   UNL d   1      -4.552   0.767  -0.597  0.00  0.00     0.014 A 
ATOM     30  C   UNL d   1      -5.757   1.470  -0.507  0.00  0.00     0.001 A 
ATOM     31  C   UNL d   1      -5.806   2.699   0.149  0.00  0.00     0.000 A 
ATOM     32  C   UNL d   1      -4.649   3.235   0.710  0.00  0.00     0.001 A 
ATOM     33  C   UNL d   1      -3.443   2.534   0.625  0.00  0.00     0.014 A 
ENDBRANCH   9  28
TORSDOF 4
