REMARK  3 active torsions:
REMARK  status: ('A' for Active; 'I' for Inactive)
REMARK    1  A    between atoms: C_11  and  N_1 
REMARK       I    between atoms: C_12  and  N_10 
REMARK    2  A    between atoms: O_21  and  C_12 
REMARK    3  A    between atoms: C_26  and  O_21 
ROOT
ATOM      1  N   UNL d   1       2.951   1.211   0.046  0.00  0.00    -0.229 N 
ATOM      2  C   UNL d   1       0.674   0.434   0.075  0.00  0.00     0.074 A 
ATOM      3  C   UNL d   1       1.183  -0.823  -0.044  0.00  0.00     0.095 A 
ATOM      4  C   UNL d   1       1.586   1.556   0.160  0.00  0.00     0.270 A 
ATOM      5  C   UNL d   1       3.434  -0.101  -0.136  0.00  0.00     0.335 A 
ATOM      6  N   UNL d   1       2.504  -1.115  -0.141  0.00  0.00    -0.301 N 
ATOM      7  C   UNL d   1      -0.755   0.392   0.062  0.00  0.00    -0.023 A 
ATOM      8  C   UNL d   1      -1.226  -0.917   0.017  0.00  0.00     0.010 A 
ATOM      9  S   UNL d   1       0.046  -2.059  -0.080  0.00  0.00    -0.074 SA
ATOM     10  N   UNL d   1      -3.493  -0.145   0.312  0.00  0.00    -0.323 N 
ATOM     11  C   UNL d   1      -4.343  -0.087   1.399  0.00  0.00     0.363 C 
ATOM     12  C   UNL d   1      -2.675  -1.326   0.007  0.00  0.00     0.174 C 
ATOM     13  C   UNL d   1      -1.708   1.555   0.104  0.00  0.00     0.061 C 
ATOM     14  O   UNL d   1       4.621  -0.406  -0.253  0.00  0.00    -0.246 OA
ATOM     15  O   UNL d   1       1.156   2.700   0.285  0.00  0.00    -0.266 OA
ATOM     16  C   UNL d   1      -3.110   1.106  -0.347  0.00  0.00     0.133 C 
ATOM     17  O   UNL d   1      -4.858   0.948   1.807  0.00  0.00    -0.238 OA
ATOM     18  H   UNL d   1       2.828  -2.068  -0.236  0.00  0.00     0.171 HD
ENDROOT
BRANCH   1  19
ATOM     19  C   UNL d   1       3.904   2.280   0.107  0.00  0.00     0.049 A 
ATOM     20  C   UNL d   1       4.846   2.459  -0.914  0.00  0.00     0.054 A 
ATOM     21  C   UNL d   1       5.721   3.545  -0.869  0.00  0.00     0.036 A 
ATOM     22 CL   UNL d   1       6.817   3.812  -2.169  0.00  0.00    -0.084 Cl
ATOM     23  C   UNL d   1       5.700   4.432   0.206  0.00  0.00     0.024 A 
ATOM     24  C   UNL d   1       4.786   4.244   1.240  0.00  0.00     0.004 A 
ATOM     25  C   UNL d   1       3.881   3.183   1.182  0.00  0.00     0.030 A 
ENDBRANCH   1  19
BRANCH  11  26
ATOM     26  O   UNL d   1      -4.507  -1.297   1.995  0.00  0.00    -0.304 OA
BRANCH  26  27
ATOM     27  C   UNL d   1      -5.059  -1.266   3.318  0.00  0.00     0.176 C 
ATOM     28  C   UNL d   1      -3.916  -1.077   4.300  0.00  0.00     0.034 C 
ENDBRANCH  26  27
ENDBRANCH  11  26
TORSDOF 3
