REMARK  3 active torsions:
REMARK  status: ('A' for Active; 'I' for Inactive)
REMARK    1  A    between atoms: N_12  and  N_5 
REMARK    2  A    between atoms: C_15  and  N_7 
REMARK    3  A    between atoms: C_17  and  C_16 
ROOT
ATOM      1  C   UNL d   1      -0.150  -0.699   0.036  0.00  0.00     0.146 A 
ATOM      2  C   UNL d   1      -0.164   0.670  -0.021  0.00  0.00     0.097 A 
ATOM      3  N   UNL d   1       0.958  -1.481   0.017  0.00  0.00    -0.328 N 
ATOM      4  HN  UNL d   1       0.911  -2.498   0.079  1.00  0.00     0.168 HD
ATOM      5  N   UNL d   1       2.214   0.558  -0.087  0.00  0.00    -0.208 N 
ATOM      6  C   UNL d   1       1.070   1.402  -0.079  0.00  0.00     0.283 A 
ATOM      7  N   UNL d   1      -1.483  -1.111   0.026  0.00  0.00    -0.239 N 
ATOM      8  C   UNL d   1       2.088  -0.839  -0.086  0.00  0.00     0.104 A 
ATOM      9  N   UNL d   1      -2.319  -0.024  -0.030  0.00  0.00    -0.302 N 
ATOM     10  HN  UNL d   1      -3.339  -0.026  -0.051  1.00  0.00     0.186 HD
ATOM     11  C   UNL d   1      -1.508   1.036  -0.051  0.00  0.00     0.128 A 
ATOM     12  O   UNL d   1       1.083   2.628  -0.116  0.00  0.00    -0.265 OA
ATOM     13  C   UNL d   1       3.308  -1.724  -0.220  0.00  0.00     0.091 C 
ENDROOT
BRANCH   5  14
ATOM     14  N   UNL d   1       3.398   1.249  -0.283  0.00  0.00    -0.300 N 
ATOM     15  C   UNL d   1       4.457   0.972   0.402  0.00  0.00     0.119 C 
ATOM     16  HN  UNL d   1       3.435   1.991  -0.982  1.00  0.00     0.186 HD
BRANCH  15  17
ATOM     17  C   UNL d   1       5.671   1.809   0.255  0.00  0.00    -0.019 A 
ATOM     18  C   UNL d   1       5.598   3.041  -0.410  0.00  0.00     0.014 A 
ATOM     19  C   UNL d   1       6.710   3.885  -0.445  0.00  0.00     0.024 A 
ATOM     20  C   UNL d   1       7.895   3.491   0.173  0.00  0.00     0.034 A 
ATOM     21  C   UNL d   1       7.983   2.249   0.807  0.00  0.00     0.024 A 
ATOM     22 CL   UNL d   1       9.250   4.550   0.174  0.00  0.00    -0.084 Cl
ATOM     23  C   UNL d   1       6.869   1.404   0.851  0.00  0.00     0.014 A 
ENDBRANCH  15  17
ENDBRANCH   5  14
BRANCH   7  24
ATOM     24  C   UNL d   1      -2.022  -2.434   0.038  0.00  0.00     0.058 A 
ATOM     25  C   UNL d   1      -1.209  -3.560   0.219  0.00  0.00     0.031 A 
ATOM     26  C   UNL d   1      -1.762  -4.844   0.210  0.00  0.00     0.002 A 
ATOM     27  C   UNL d   1      -3.130  -5.016   0.019  0.00  0.00     0.000 A 
ATOM     28  C   UNL d   1      -3.950  -3.904  -0.157  0.00  0.00     0.002 A 
ATOM     29  C   UNL d   1      -3.403  -2.617  -0.143  0.00  0.00     0.031 A 
ENDBRANCH   7  24
TORSDOF 3
