REMARK  4 active torsions:
REMARK  status: ('A' for Active; 'I' for Inactive)
REMARK    1  A    between atoms: C_12  and  C_2 
REMARK    2  A    between atoms: N_6  and  C_12 
REMARK    3  A    between atoms: N_15  and  C_20 
REMARK    4  A    between atoms: C_23  and  C_16 
ROOT
ATOM      1  N   UNL d   1      -0.506  -0.795   0.025  0.00  0.00    -0.217 N 
ATOM      2  C   UNL d   1      -1.863  -1.016  -0.053  0.00  0.00     0.140 A 
ATOM      3  N   UNL d   1       0.452  -1.736   0.263  0.00  0.00    -0.293 N 
ATOM      4  HN  UNL d   1       0.213  -2.666   0.608  1.00  0.00     0.187 HD
ATOM      5  C   UNL d   1      -0.377   0.565  -0.114  0.00  0.00     0.182 A 
ATOM      6  N   UNL d   1      -2.491   0.133  -0.231  0.00  0.00    -0.284 N 
ATOM      7  HN  UNL d   1      -3.499   0.257  -0.328  1.00  0.00     0.188 HD
ATOM      8  N   UNL d   1      -1.547   1.135  -0.261  0.00  0.00    -0.277 N 
ATOM      9  HN  UNL d   1      -1.724   2.132  -0.377  1.00  0.00     0.189 HD
ATOM     10  C   UNL d   1       1.688  -1.390   0.027  0.00  0.00     0.046 C 
ATOM     11  S   UNL d   1       1.173   1.312  -0.051  0.00  0.00    -0.085 SA
ATOM     12  C   UNL d   1       2.114  -0.101  -0.673  0.00  0.00     0.142 C 
ENDROOT
BRANCH   2  13
ATOM     13  C   UNL d   1      -2.480  -2.358   0.043  0.00  0.00     0.227 C 
BRANCH  13  14
ATOM     14  N   UNL d   1      -2.062  -3.216  -1.051  0.00  0.00    -0.266 N 
ATOM     15  N   UNL d   1      -1.349  -4.334  -0.796  0.00  0.00    -0.019 NA
ATOM     16  N   UNL d   1      -1.106  -4.929  -1.956  0.00  0.00    -0.282 N 
ATOM     17  C   UNL d   1      -1.695  -4.189  -2.946  0.00  0.00     0.074 A 
ATOM     18  HN  UNL d   1      -0.574  -5.789  -2.087  1.00  0.00     0.184 HD
ATOM     19  C   UNL d   1      -2.325  -3.080  -2.391  0.00  0.00     0.077 A 
ATOM     20  C   UNL d   1      -1.738  -4.389  -4.332  0.00  0.00     0.033 A 
ATOM     21  C   UNL d   1      -3.015  -2.135  -3.157  0.00  0.00     0.033 A 
ATOM     22  C   UNL d   1      -3.048  -2.349  -4.541  0.00  0.00     0.002 A 
ATOM     23  C   UNL d   1      -2.422  -3.456  -5.121  0.00  0.00     0.002 A 
ENDBRANCH  13  14
ENDBRANCH   2  13
BRANCH  10  24
ATOM     24  C   UNL d   1       2.759  -2.380   0.362  0.00  0.00    -0.011 A 
ATOM     25  C   UNL d   1       2.488  -3.749   0.214  0.00  0.00     0.016 A 
ATOM     26  C   UNL d   1       3.457  -4.702   0.548  0.00  0.00     0.037 A 
ATOM     27  C   UNL d   1       4.699  -4.280   1.038  0.00  0.00     0.102 A 
ATOM     28  C   UNL d   1       4.975  -2.915   1.195  0.00  0.00     0.037 A 
ATOM     29  C   UNL d   1       4.001  -1.967   0.861  0.00  0.00     0.016 A 
BRANCH  27  30
ATOM     30  N   UNL d   1       5.719  -5.274   1.403  0.00  0.00    -0.116 N 
ATOM     31  O   UNL d   1       5.423  -6.471   1.291  0.00  0.00    -0.532 OA
ATOM     32  O   UNL d   1       6.814  -4.852   1.801  0.00  0.00    -0.532 OA
ENDBRANCH  27  30
ENDBRANCH  10  24
TORSDOF 4
