REMARK  5 active torsions:
REMARK  status: ('A' for Active; 'I' for Inactive)
REMARK    1  A    between atoms: C_4  and  C_1 
REMARK    2  A    between atoms: C_2  and  N_3 
REMARK    3  A    between atoms: C_9  and  C_2 
REMARK    4  A    between atoms: N_3  and  C_7 
REMARK    5  A    between atoms: O_13  and  N_5 
ROOT
ATOM      1  N   UNL d   1      -2.370   2.865   1.650  0.00  0.00    -0.340 N 
ATOM      2  H   UNL d   1      -2.736   3.800   1.759  0.00  0.00     0.167 HD
ENDROOT
BRANCH   1   3
ATOM      3  C   UNL d   1      -3.074   1.826   2.240  0.00  0.00     0.135 C 
ATOM      4  N   UNL d   1      -2.638   0.680   2.688  0.00  0.00    -0.252 N 
ATOM      5  HN  UNL d   1      -3.257  -0.060   3.017  1.00  0.00     0.196 HD
BRANCH   4   6
ATOM      6  O   UNL d   1      -1.249   0.561   2.675  0.00  0.00    -0.288 OA
ATOM      7  H   UNL d   1      -1.117  -0.375   2.909  0.00  0.00     0.244 HD
ENDBRANCH   4   6
BRANCH   3   8
ATOM      8  C   UNL d   1      -4.554   2.043   2.463  0.00  0.00     0.010 A 
ATOM      9  C   UNL d   1      -5.311   2.871   1.625  0.00  0.00     0.015 A 
ATOM     10  C   UNL d   1      -6.686   3.015   1.848  0.00  0.00     0.001 A 
ATOM     11  C   UNL d   1      -7.305   2.337   2.899  0.00  0.00     0.000 A 
ATOM     12  C   UNL d   1      -6.556   1.516   3.737  0.00  0.00     0.001 A 
ATOM     13  C   UNL d   1      -5.186   1.370   3.520  0.00  0.00     0.015 A 
ENDBRANCH   3   8
ENDBRANCH   1   3
BRANCH   1  14
ATOM     14  C   UNL d   1      -1.224   2.778   0.832  0.00  0.00     0.034 A 
ATOM     15  C   UNL d   1      -0.900   1.613   0.128  0.00  0.00     0.045 A 
ATOM     16  C   UNL d   1       0.342   1.452  -0.504  0.00  0.00     0.050 A 
ATOM     17  C   UNL d   1       1.250   2.517  -0.490  0.00  0.00     0.016 A 
ATOM     18  C   UNL d   1       0.923   3.709   0.155  0.00  0.00     0.003 A 
ATOM     19  C   UNL d   1      -0.301   3.834   0.820  0.00  0.00     0.029 A 
BRANCH  16  20
ATOM     20  C   UNL d   1       0.725   0.124  -1.106  0.00  0.00     0.417 C 
ATOM     21  F   UNL d   1      -0.287  -0.788  -1.122  0.00  0.00    -0.166 F 
ATOM     22  F   UNL d   1       1.748  -0.473  -0.430  0.00  0.00    -0.166 F 
ATOM     23  F   UNL d   1       1.147   0.233  -2.397  0.00  0.00    -0.166 F 
ENDBRANCH  16  20
ENDBRANCH   1  14
TORSDOF 5
