REMARK  3 active torsions:
REMARK  status: ('A' for Active; 'I' for Inactive)
REMARK    1  A    between atoms: C_7  and  N_1 
REMARK    2  A    between atoms: N_15  and  C_2 
REMARK    3  A    between atoms: S_17  and  C_8 
ROOT
ATOM      1  N   UNL d   1      -0.006  -1.177  -0.042  0.00  0.00    -0.067 N 
ATOM      2  C   UNL d   1       0.919  -0.493   0.745  0.00  0.00     0.701 A 
ATOM      3  N   UNL d   1       0.855   0.788   0.484  0.00  0.00    -0.168 N 
ATOM      4  HN  UNL d   1       1.384   1.548   0.911  1.00  0.00     0.186 HD
ATOM      5  N   UNL d   1      -0.630  -0.298  -0.871  0.00  0.00    -0.257 N 
ATOM      6  HN  UNL d   1      -1.330  -0.478  -1.590  1.00  0.00     0.190 HD
ATOM      7  C   UNL d   1      -0.088   0.862  -0.496  0.00  0.00     0.174 A 
ENDROOT
BRANCH   1   8
ATOM      8  C   UNL d   1      -0.305  -2.563  -0.021  0.00  0.00     0.161 A 
ATOM      9  N   UNL d   1       0.258  -3.353   0.939  0.00  0.00    -0.338 N 
ATOM     10  C   UNL d   1      -0.052  -4.664   0.906  0.00  0.00     0.060 A 
ATOM     11  HN  UNL d   1       0.884  -2.970   1.647  1.00  0.00     0.167 HD
ATOM     12  C   UNL d   1       0.479  -5.511   1.870  0.00  0.00     0.032 A 
ATOM     13  C   UNL d   1      -0.907  -5.198  -0.088  0.00  0.00     0.059 A 
ATOM     14  C   UNL d   1       0.203  -6.879   1.866  0.00  0.00     0.002 A 
ATOM     15  C   UNL d   1      -0.616  -7.408   0.878  0.00  0.00     0.002 A 
ATOM     16  C   UNL d   1      -1.166  -6.564  -0.088  0.00  0.00     0.032 A 
ATOM     17  N   UNL d   1      -1.468  -4.407  -1.026  0.00  0.00    -0.360 N 
ATOM     18  C   UNL d   1      -1.164  -3.086  -0.973  0.00  0.00     0.139 A 
ATOM     19  HN  UNL d   1      -2.090  -4.785  -1.740  1.00  0.00     0.165 HD
ENDBRANCH   1   8
BRANCH   2  20
ATOM     20  N   UNL d   1       1.756  -1.084   1.620  0.00  0.00    -0.233 N 
ATOM     21  H   UNL d   1       1.585  -2.052   1.898  0.00  0.00     0.174 HD
ATOM     22  H   UNL d   1       2.240  -0.510   2.300  0.00  0.00     0.174 HD
ENDBRANCH   2  20
BRANCH   7  23
ATOM     23  S   UNL d   1      -0.587   2.360  -1.235  0.00  0.00    -0.097 SA
ATOM     24  C   UNL d   1       0.385   3.534  -0.268  0.00  0.00     0.099 C 
ENDBRANCH   7  23
TORSDOF 3
