REMARK  4 active torsions:
REMARK  status: ('A' for Active; 'I' for Inactive)
REMARK    1  A    between atoms: C_12  and  N_3 
REMARK    2  A    between atoms: O_11  and  C_9 
REMARK    3  A    between atoms: C_13  and  O_11 
REMARK    4  A    between atoms: C_21  and  C_12 
ROOT
ATOM      1  C   UNL d   1      -0.147  -0.856  -0.212  0.00  0.00     0.147 A 
ATOM      2  C   UNL d   1      -0.399   0.487  -0.197  0.00  0.00     0.151 A 
ATOM      3  N   UNL d   1       1.923   0.874  -0.021  0.00  0.00    -0.260 N 
ATOM      4  N   UNL d   1      -1.277  -1.594  -0.269  0.00  0.00    -0.305 N 
ATOM      5  HN  UNL d   1      -1.358  -2.605  -0.372  1.00  0.00     0.171 HD
ATOM      6  N   UNL d   1       1.113  -1.370  -0.082  0.00  0.00    -0.287 N 
ATOM      7  C   UNL d   1       2.187  -0.503   0.083  0.00  0.00     0.333 A 
ATOM      8  C   UNL d   1       0.648   1.450  -0.131  0.00  0.00     0.282 A 
ATOM      9  C   UNL d   1      -2.248  -0.716  -0.159  0.00  0.00     0.233 A 
ATOM     10  N   UNL d   1      -1.771   0.577  -0.194  0.00  0.00    -0.309 N 
ATOM     11  O   UNL d   1       3.316  -0.939   0.326  0.00  0.00    -0.246 OA
ATOM     12  O   UNL d   1       0.448   2.663  -0.145  0.00  0.00    -0.265 OA
ATOM     13  C   UNL d   1       1.347  -2.801  -0.015  0.00  0.00     0.163 C 
ATOM     14  C   UNL d   1      -2.590   1.756  -0.073  0.00  0.00     0.160 C 
ENDROOT
BRANCH   9  15
ATOM     15  O   UNL d   1      -3.525  -1.027   0.081  0.00  0.00    -0.278 OA
BRANCH  15  16
ATOM     16  C   UNL d   1      -3.803  -2.231   0.707  0.00  0.00     0.096 A 
ATOM     17  C   UNL d   1      -4.913  -2.983   0.312  0.00  0.00     0.046 A 
ATOM     18  C   UNL d   1      -5.196  -4.202   0.941  0.00  0.00     0.041 A 
ATOM     19 BR   UNL d   1      -6.057  -2.402  -1.083  0.00  0.00    -0.048 Br
ATOM     20  C   UNL d   1      -4.368  -4.665   1.964  0.00  0.00     0.012 A 
ATOM     21  C   UNL d   1      -3.271  -3.918   2.379  0.00  0.00     0.022 A 
ATOM     22 BR   UNL d   1      -4.736  -6.317   2.804  0.00  0.00    -0.051 Br
ATOM     23  C   UNL d   1      -3.003  -2.696   1.765  0.00  0.00     0.040 A 
ENDBRANCH  15  16
ENDBRANCH   9  15
BRANCH   3  24
ATOM     24  C   UNL d   1       3.075   1.766   0.024  0.00  0.00     0.175 C 
BRANCH  24  25
ATOM     25  C   UNL d   1       3.721   1.909  -1.341  0.00  0.00    -0.040 A 
ATOM     26  C   UNL d   1       3.324   2.931  -2.213  0.00  0.00     0.010 A 
ATOM     27  C   UNL d   1       3.877   3.024  -3.493  0.00  0.00     0.019 A 
ATOM     28  C   UNL d   1       4.824   2.090  -3.910  0.00  0.00     0.011 A 
ATOM     29  C   UNL d   1       5.235   1.073  -3.054  0.00  0.00     0.019 A 
ATOM     30 BR   UNL d   1       5.543   2.194  -5.655  0.00  0.00    -0.051 Br
ATOM     31  C   UNL d   1       4.688   0.986  -1.773  0.00  0.00     0.010 A 
ENDBRANCH  24  25
ENDBRANCH   3  24
TORSDOF 4
