REMARK  6 active torsions:
REMARK  status: ('A' for Active; 'I' for Inactive)
REMARK    1  A    between atoms: N_5  and  C_1 
REMARK    2  A    between atoms: C_9  and  C_2 
REMARK       I    between atoms: C_7  and  N_5 
REMARK    3  A    between atoms: C_12  and  C_6 
REMARK    4  A    between atoms: C_8  and  C_7 
REMARK    5  A    between atoms: O_14  and  C_9 
REMARK    6  A    between atoms: C_20  and  O_14 
ROOT
ATOM      1  C   UNL d   1       0.216   1.408   0.205  0.00  0.00     0.094 C 
ATOM      2  C   UNL d   1       1.515   0.958   0.254  0.00  0.00     0.074 C 
ATOM      3  S   UNL d   1      -0.936   0.167   0.303  0.00  0.00    -0.071 SA
ATOM      4  C   UNL d   1       1.516  -0.495   0.147  0.00  0.00     0.040 C 
ATOM      5  C   UNL d   1       0.249  -1.056   0.112  0.00  0.00     0.018 C 
ENDROOT
BRANCH   1   6
ATOM      6  N   UNL d   1      -0.408   2.629   0.157  0.00  0.00    -0.316 N 
ATOM      7  C   UNL d   1       0.030   3.687  -0.609  0.00  0.00     0.259 C 
ATOM      8  O   UNL d   1       0.992   3.667  -1.369  0.00  0.00    -0.267 OA
ATOM      9  H   UNL d   1      -1.381   2.626   0.444  0.00  0.00     0.169 HD
BRANCH   7  10
ATOM     10  C   UNL d   1      -0.833   4.904  -0.549  0.00  0.00     0.070 A 
ATOM     11  C   UNL d   1      -1.800   5.088   0.446  0.00  0.00     0.132 A 
ATOM     12  F   UNL d   1      -2.003   4.162   1.396  0.00  0.00    -0.205 F 
ATOM     13  C   UNL d   1      -2.601   6.226   0.475  0.00  0.00     0.043 A 
ATOM     14  C   UNL d   1      -2.445   7.204  -0.504  0.00  0.00     0.003 A 
ATOM     15  C   UNL d   1      -1.485   7.039  -1.504  0.00  0.00     0.001 A 
ATOM     16  C   UNL d   1      -0.679   5.897  -1.526  0.00  0.00     0.020 A 
ENDBRANCH   7  10
ENDBRANCH   1   6
BRANCH   2  17
ATOM     17  C   UNL d   1       2.726   1.761   0.486  0.00  0.00     0.296 C 
ATOM     18  O   UNL d   1       3.853   1.280   0.469  0.00  0.00    -0.259 OA
BRANCH  17  19
ATOM     19  O   UNL d   1       2.454   3.041   0.874  0.00  0.00    -0.318 OA
BRANCH  19  20
ATOM     20  C   UNL d   1       3.536   3.838   1.369  0.00  0.00     0.174 C 
ATOM     21  C   UNL d   1       4.389   4.440   0.265  0.00  0.00     0.034 C 
ENDBRANCH  19  20
ENDBRANCH  17  19
ENDBRANCH   2  17
BRANCH   5  22
ATOM     22  C   UNL d   1      -0.186  -2.462   0.031  0.00  0.00    -0.019 A 
ATOM     23  C   UNL d   1      -1.349  -2.826  -0.672  0.00  0.00     0.013 A 
ATOM     24  C   UNL d   1      -1.806  -4.146  -0.684  0.00  0.00     0.001 A 
ATOM     25  C   UNL d   1      -1.095  -5.130  -0.007  0.00  0.00     0.000 A 
ATOM     26  C   UNL d   1       0.076  -4.796   0.671  0.00  0.00     0.001 A 
ATOM     27  C   UNL d   1       0.530  -3.471   0.689  0.00  0.00     0.013 A 
ENDBRANCH   5  22
TORSDOF 6
