REMARK  1 active torsions:
REMARK  status: ('A' for Active; 'I' for Inactive)
REMARK       I    between atoms: C_8  and  N_1 
REMARK    1  A    between atoms: C_12  and  C_8 
ROOT
ATOM      1  N   UNL d   1      -3.107  -1.009   0.021  0.00  0.00    -0.234 N 
ATOM      2  N   UNL d   1      -1.831  -1.453   0.162  0.00  0.00    -0.290 N 
ATOM      3  HN  UNL d   1      -1.523  -2.414   0.311  1.00  0.00     0.187 HD
ATOM      4  C   UNL d   1      -1.061  -0.356   0.064  0.00  0.00     0.069 A 
ATOM      5  C   UNL d   1      -1.842   0.814  -0.047  0.00  0.00    -0.002 A 
ATOM      6  C   UNL d   1      -3.134   0.361  -0.147  0.00  0.00     0.130 A 
ATOM      7  C   UNL d   1       0.396  -0.380   0.086  0.00  0.00     0.011 A 
ATOM      8  C   UNL d   1      -4.241  -1.849   0.055  0.00  0.00     0.250 C 
ATOM      9  S   UNL d   1       0.412   2.443  -0.311  0.00  0.00    -0.124 SA
ATOM     10  C   UNL d   1       1.123   0.818  -0.046  0.00  0.00     0.013 A 
ATOM     11  C   UNL d   1      -1.367   2.213  -0.033  0.00  0.00     0.121 C 
ATOM     12  C   UNL d   1       1.085  -1.601   0.185  0.00  0.00     0.039 A 
ATOM     13  O   UNL d   1      -5.308  -1.369  -0.322  0.00  0.00    -0.270 OA
ATOM     14  C   UNL d   1       2.528   0.771  -0.045  0.00  0.00     0.021 A 
ATOM     15  C   UNL d   1       2.479  -1.627   0.162  0.00  0.00     0.035 A 
ATOM     16  C   UNL d   1       3.204  -0.445   0.057  0.00  0.00     0.025 A 
ATOM     17 CL   UNL d   1       3.312  -3.130   0.244  0.00  0.00    -0.084 Cl
ENDROOT
BRANCH   8  18
ATOM     18  C   UNL d   1      -4.101  -3.247   0.680  0.00  0.00     0.032 C 
ATOM     19  C   UNL d   1      -3.710  -3.122   2.161  0.00  0.00     0.025 C 
ATOM     20  C   UNL d   1      -5.502  -3.907   0.628  0.00  0.00     0.025 C 
ATOM     21  C   UNL d   1      -3.140  -4.175  -0.073  0.00  0.00     0.025 C 
ENDBRANCH   8  18
TORSDOF 1
