REMARK  4 active torsions:
REMARK  status: ('A' for Active; 'I' for Inactive)
REMARK    1  A    between atoms: C_6  and  C_1 
REMARK    2  A    between atoms: C_15  and  N_2 
REMARK       I    between atoms: N_13  and  C_6 
REMARK    3  A    between atoms: C_7  and  N_14 
REMARK    4  A    between atoms: O_31  and  C_24 
ROOT
ATOM      1  C   UNL d   1      -0.662   2.359   0.329  0.00  0.00     0.257 C 
ATOM      2  N   UNL d   1       0.443   3.219   0.360  0.00  0.00    -0.345 N 
ATOM      3  N   UNL d   1       2.667   5.164   0.084  0.00  0.00    -0.397 N 
ATOM      4  O   UNL d   1      -0.990   1.754  -0.692  0.00  0.00    -0.267 OA
ATOM      5  C   UNL d   1       1.166   3.363  -0.901  0.00  0.00     0.145 C 
ATOM      6  C   UNL d   1       0.476   4.416   1.209  0.00  0.00     0.145 C 
ATOM      7  C   UNL d   1       1.871   5.079   1.313  0.00  0.00     0.137 C 
ATOM      8  C   UNL d   1       2.581   3.907  -0.682  0.00  0.00     0.137 C 
ENDROOT
BRANCH   1   9
ATOM      9  C   UNL d   1      -1.408   2.181   1.565  0.00  0.00     0.073 C 
ATOM     10  C   UNL d   1      -2.782   2.016   1.704  0.00  0.00     0.048 C 
ATOM     11  N   UNL d   1      -3.028   1.947   3.069  0.00  0.00    -0.260 N 
ATOM     12  C   UNL d   1      -3.813   1.863   0.640  0.00  0.00     0.071 C 
ATOM     13  N   UNL d   1      -1.866   1.820   3.769  0.00  0.00    -0.304 N 
ATOM     14  C   UNL d   1      -0.909   1.997   2.865  0.00  0.00     0.126 C 
ATOM     15  HN  UNL d   1      -1.756   1.632   4.765  1.00  0.00     0.186 HD
BRANCH  11  16
ATOM     16  C   UNL d   1      -4.258   2.001   3.787  0.00  0.00     0.056 A 
ATOM     17  C   UNL d   1      -4.310   1.472   5.085  0.00  0.00     0.034 A 
ATOM     18  C   UNL d   1      -5.502   1.495   5.816  0.00  0.00     0.039 A 
ATOM     19  C   UNL d   1      -6.646   2.072   5.267  0.00  0.00     0.068 A 
ATOM     20  C   UNL d   1      -6.581   2.648   3.998  0.00  0.00     0.039 A 
ATOM     21  C   UNL d   1      -5.397   2.612   3.253  0.00  0.00     0.034 A 
BRANCH  19  22
ATOM     22  O   UNL d   1      -7.864   2.160   5.883  0.00  0.00    -0.356 OA
ATOM     23  C   UNL d   1      -8.097   1.226   6.931  0.00  0.00     0.210 C 
ENDBRANCH  19  22
ENDBRANCH  11  16
ENDBRANCH   1   9
BRANCH   3  24
ATOM     24  C   UNL d   1       2.570   6.428  -0.671  0.00  0.00     0.147 C 
ATOM     25  C   UNL d   1       3.513   6.418  -1.879  0.00  0.00    -0.020 A 
ATOM     26  C   UNL d   1       2.767   6.478  -3.077  0.00  0.00    -0.017 A 
ATOM     27  C   UNL d   1       4.894   6.277  -1.888  0.00  0.00     0.010 A 
ATOM     28  C   UNL d   1       3.406   6.384  -4.302  0.00  0.00     0.013 A 
ATOM     29  C   UNL d   1       1.368   6.651  -2.748  0.00  0.00    -0.017 C 
ATOM     30  C   UNL d   1       4.796   6.227  -4.319  0.00  0.00     0.001 A 
ATOM     31  C   UNL d   1       5.534   6.178  -3.123  0.00  0.00     0.001 A 
ATOM     32  C   UNL d   1       1.236   6.729  -1.344  0.00  0.00    -0.020 C 
ATOM     33  C   UNL d   1       0.258   6.776  -3.567  0.00  0.00     0.013 C 
ATOM     34  C   UNL d   1       0.028   7.091  -0.766  0.00  0.00     0.010 C 
ATOM     35  C   UNL d   1      -1.092   7.216  -1.589  0.00  0.00     0.001 C 
ATOM     36  C   UNL d   1      -0.983   7.032  -2.975  0.00  0.00     0.001 C 
ENDBRANCH   3  24
TORSDOF 4
