REMARK  4 active torsions:
REMARK  status: ('A' for Active; 'I' for Inactive)
REMARK    1  A    between atoms: C_9  and  C_1 
REMARK    2  A    between atoms: C_4  and  C_7 
REMARK       I    between atoms: C_7  and  N_12 
REMARK    3  A    between atoms: C_20  and  C_8 
REMARK    4  A    between atoms: N_12  and  C_20 
ROOT
ATOM      1  C   UNL d   1       4.927   1.431   0.033  0.00  0.00     0.254 C 
ATOM      2  N   UNL d   1       3.697   0.847  -0.161  0.00  0.00    -0.351 N 
ATOM      3  O   UNL d   1       5.941   0.748   0.177  0.00  0.00    -0.268 OA
ATOM      4  H   UNL d   1       2.862   1.411  -0.289  0.00  0.00     0.163 HD
ENDROOT
BRANCH   2   5
ATOM      5  C   UNL d   1       3.601  -0.580  -0.315  0.00  0.00     0.180 C 
BRANCH   5   6
ATOM      6  C   UNL d   1       2.198  -1.038  -0.562  0.00  0.00     0.034 A 
ATOM      7  N   UNL d   1       1.126  -0.144  -0.623  0.00  0.00    -0.351 N 
ATOM      8  C   UNL d   1      -0.003  -0.796  -0.857  0.00  0.00     0.091 A 
ATOM      9  HN  UNL d   1       1.202   0.866  -0.505  1.00  0.00     0.166 HD
ATOM     10  S   UNL d   1       0.171  -2.503  -1.019  0.00  0.00    -0.081 SA
ATOM     11  C   UNL d   1       1.848  -2.361  -0.760  0.00  0.00     0.078 A 
BRANCH   8  12
ATOM     12  C   UNL d   1      -1.277  -0.116  -0.968  0.00  0.00     0.038 A 
ATOM     13  S   UNL d   1      -2.755  -0.920  -1.334  0.00  0.00    -0.099 SA
ATOM     14  C   UNL d   1      -3.657   0.526  -1.272  0.00  0.00     0.050 A 
ATOM     15  C   UNL d   1      -2.865   1.612  -0.981  0.00  0.00     0.008 A 
ATOM     16  C   UNL d   1      -1.497   1.242  -0.804  0.00  0.00     0.022 A 
ENDBRANCH   8  12
ENDBRANCH   5   6
ENDBRANCH   2   5
BRANCH   1  17
ATOM     17  C   UNL d   1       5.033   2.925   0.033  0.00  0.00     0.068 A 
ATOM     18  C   UNL d   1       3.963   3.810  -0.207  0.00  0.00     0.117 A 
ATOM     19  C   UNL d   1       4.209   5.200  -0.224  0.00  0.00     0.103 A 
ATOM     20  O   UNL d   1       2.713   3.272  -0.405  0.00  0.00    -0.347 OA
ATOM     21  O   UNL d   1       3.273   6.185  -0.432  0.00  0.00    -0.348 OA
ATOM     22  C   UNL d   1       5.508   5.691  -0.060  0.00  0.00     0.040 A 
ATOM     23  C   UNL d   1       1.972   5.889   0.069  0.00  0.00     0.178 C 
ATOM     24  C   UNL d   1       1.178   5.069  -0.932  0.00  0.00     0.053 C 
ATOM     25  C   UNL d   1       1.987   3.900  -1.463  0.00  0.00     0.178 C 
ATOM     26  C   UNL d   1       6.566   4.821   0.171  0.00  0.00     0.004 A 
ATOM     27  C   UNL d   1       6.327   3.450   0.223  0.00  0.00     0.020 A 
ENDBRANCH   1  17
TORSDOF 4
