REMARK  4 active torsions:
REMARK  status: ('A' for Active; 'I' for Inactive)
REMARK    1  A    between atoms: C_9  and  C_3 
REMARK    2  A    between atoms: O_19  and  C_7 
REMARK    3  A    between atoms: O_21  and  C_11 
REMARK    4  A    between atoms: O_23  and  C_14 
ROOT
ATOM      1  N   UNL d   1       2.188   1.210   0.055  0.00  0.00    -0.355 N 
ATOM      2  HN  UNL d   1       2.979   1.791   0.330  1.00  0.00     0.162 HD
ATOM      3  C   UNL d   1       1.001   1.500   0.469  0.00  0.00     0.053 C 
ATOM      4  C   UNL d   1      -0.236   0.721   0.140  0.00  0.00     0.020 A 
ATOM      5  N   UNL d   1       0.851  -1.501   0.395  0.00  0.00    -0.323 N 
ATOM      6  C   UNL d   1       2.149  -1.220   0.046  0.00  0.00     0.271 C 
ATOM      7  C   UNL d   1       2.399   0.057  -0.800  0.00  0.00     0.312 C 
ATOM      8  C   UNL d   1      -0.272  -0.686   0.196  0.00  0.00     0.047 A 
ATOM      9  C   UNL d   1      -1.420   1.433  -0.121  0.00  0.00     0.040 A 
ATOM     10  O   UNL d   1       3.040  -2.014   0.350  0.00  0.00    -0.268 OA
ATOM     11  C   UNL d   1      -1.501  -1.348   0.072  0.00  0.00     0.032 A 
ATOM     12  C   UNL d   1      -2.627   0.754  -0.271  0.00  0.00     0.035 A 
ATOM     13  C   UNL d   1      -2.675  -0.632  -0.169  0.00  0.00     0.026 A 
ATOM     14 CL   UNL d   1      -4.076   1.639  -0.548  0.00  0.00    -0.084 Cl
ATOM     15  H   UNL d   1       0.729  -2.450   0.726  0.00  0.00     0.169 HD
ENDROOT
BRANCH   3  16
ATOM     16  C   UNL d   1       0.895   2.696   1.371  0.00  0.00    -0.006 A 
ATOM     17  C   UNL d   1       1.792   3.762   1.186  0.00  0.00     0.053 A 
ATOM     18  C   UNL d   1       1.775   4.862   2.047  0.00  0.00     0.102 A 
ATOM     19  C   UNL d   1       0.840   4.884   3.091  0.00  0.00     0.099 A 
ATOM     20  C   UNL d   1      -0.060   3.835   3.280  0.00  0.00     0.040 A 
ATOM     21  C   UNL d   1      -0.024   2.733   2.427  0.00  0.00     0.017 A 
BRANCH  18  22
ATOM     22  O   UNL d   1       2.621   5.937   1.968  0.00  0.00    -0.353 OA
ATOM     23  C   UNL d   1       3.601   5.928   0.939  0.00  0.00     0.210 C 
ENDBRANCH  18  22
BRANCH  19  24
ATOM     24  O   UNL d   1       0.821   5.951   3.950  0.00  0.00    -0.358 OA
ATOM     25  H   UNL d   1       0.234   5.752   4.696  0.00  0.00     0.217 HD
ENDBRANCH  19  24
ENDBRANCH   3  16
BRANCH   7  26
ATOM     26  O   UNL d   1       3.707   0.028  -1.349  0.00  0.00    -0.368 OA
ATOM     27  H   UNL d   1       4.285  -0.041  -0.569  0.00  0.00     0.212 HD
ENDBRANCH   7  26
TORSDOF 4
