REMARK  5 active torsions:
REMARK  status: ('A' for Active; 'I' for Inactive)
REMARK    1  A    between atoms: N_7  and  C_2 
REMARK    2  A    between atoms: N_3  and  C_8 
REMARK    3  A    between atoms: C_4  and  N_6 
REMARK    4  A    between atoms: N_14  and  C_4 
REMARK    5  A    between atoms: C_22  and  N_14 
ROOT
ATOM      1  N   UNL d   1      -1.253  -5.674  -0.320  0.00  0.00    -0.356 N 
ATOM      2  N   UNL d   1      -1.292  -2.793  -0.051  0.00  0.00    -0.265 NA
ATOM      3  C   UNL d   1      -0.553  -5.006   0.797  0.00  0.00     0.140 C 
ATOM      4  C   UNL d   1      -2.314  -4.861  -0.944  0.00  0.00     0.140 C 
ATOM      5  C   UNL d   1      -0.119  -3.573   0.428  0.00  0.00     0.117 C 
ATOM      6  C   UNL d   1      -1.869  -3.421  -1.267  0.00  0.00     0.117 C 
ENDROOT
BRANCH   1   7
ATOM      7  C   UNL d   1      -0.714  -6.783  -0.923  0.00  0.00     0.174 C 
ATOM      8  S   UNL d   1      -0.326  -6.862  -2.554  0.00  0.00    -0.041 SA
BRANCH   7   9
ATOM      9  N   UNL d   1      -0.414  -7.880  -0.162  0.00  0.00    -0.333 N 
ATOM     10  H   UNL d   1       0.163  -8.548  -0.661  0.00  0.00     0.168 HD
BRANCH   9  11
ATOM     11  C   UNL d   1      -0.911  -8.314   1.087  0.00  0.00     0.036 A 
ATOM     12  C   UNL d   1      -1.962  -7.704   1.764  0.00  0.00     0.066 A 
ATOM     13  C   UNL d   1      -2.332  -8.152   3.040  0.00  0.00     0.111 A 
ATOM     14  C   UNL d   1      -1.729  -9.267   3.641  0.00  0.00    -0.029 A 
ATOM     15  C   UNL d   1      -0.728  -9.924   2.914  0.00  0.00     0.011 A 
ATOM     16  C   UNL d   1      -2.097  -9.752   5.014  0.00  0.00     0.050 C 
ATOM     17  C   UNL d   1      -0.325  -9.452   1.656  0.00  0.00     0.030 A 
BRANCH  13  18
ATOM     18  N   UNL d   1      -3.354  -7.384   3.736  0.00  0.00    -0.115 N 
ATOM     19  O   UNL d   1      -4.431  -7.215   3.149  0.00  0.00    -0.532 OA
ATOM     20  O   UNL d   1      -3.060  -6.924   4.848  0.00  0.00    -0.532 OA
ENDBRANCH  13  18
ENDBRANCH   9  11
ENDBRANCH   7   9
ENDBRANCH   1   7
BRANCH   2  21
ATOM     21  C   UNL d   1      -0.935  -1.456  -0.337  0.00  0.00     0.097 A 
ATOM     22  C   UNL d   1      -1.815  -0.353  -0.165  0.00  0.00     0.043 A 
ATOM     23  C   UNL d   1      -1.286   0.887  -0.500  0.00  0.00     0.088 A 
ATOM     24  C   UNL d   1      -3.186  -0.199   0.314  0.00  0.00    -0.039 A 
ATOM     25  S   UNL d   1      -2.369   2.178  -0.271  0.00  0.00    -0.083 SA
ATOM     26  N   UNL d   1      -0.051   1.147  -0.961  0.00  0.00    -0.346 N 
ATOM     27  C   UNL d   1      -3.581   1.129   0.298  0.00  0.00     0.059 A 
ATOM     28  C   UNL d   1       0.686   0.048  -1.074  0.00  0.00     0.182 A 
ATOM     29  HN  UNL d   1       0.283   2.081  -1.197  1.00  0.00     0.167 HD
ATOM     30  N   UNL d   1       0.321  -1.207  -0.791  0.00  0.00    -0.342 N 
ATOM     31  HN  UNL d   1       0.982  -1.974  -0.917  1.00  0.00     0.167 HD
ATOM     32  C   UNL d   1      -4.096  -1.279   0.803  0.00  0.00     0.050 C 
ENDBRANCH   2  21
TORSDOF 5
