REMARK  4 active torsions:
REMARK  status: ('A' for Active; 'I' for Inactive)
REMARK    1  A    between atoms: N_2  and  C_1 
REMARK    2  A    between atoms: C_5  and  C_4 
REMARK       I    between atoms: N_14  and  C_5 
REMARK    3  A    between atoms: C_6  and  C_15 
REMARK    4  A    between atoms: C_19  and  N_14 
ROOT
ATOM      1  C   UNL d   1      -3.854   0.692  -0.861  0.00  0.00     0.019 A 
ATOM      2  C   UNL d   1      -3.075  -1.496  -0.078  0.00  0.00     0.035 A 
ATOM      3  C   UNL d   1      -2.937  -0.370  -0.897  0.00  0.00     0.045 A 
ATOM      4  C   UNL d   1      -4.959   0.590  -0.010  0.00  0.00     0.016 A 
ATOM      5  C   UNL d   1      -5.136  -0.547   0.782  0.00  0.00     0.003 A 
ATOM      6  C   UNL d   1      -4.199  -1.587   0.747  0.00  0.00     0.029 A 
ENDROOT
BRANCH   2   7
ATOM      7  N   UNL d   1      -2.113  -2.534  -0.029  0.00  0.00    -0.321 N 
ATOM      8  C   UNL d   1      -0.846  -2.502  -0.592  0.00  0.00     0.280 C 
ATOM      9  O   UNL d   1      -0.382  -1.562  -1.232  0.00  0.00    -0.265 OA
ATOM     10  H   UNL d   1      -2.327  -3.342   0.546  0.00  0.00     0.169 HD
BRANCH   8  11
ATOM     11  C   UNL d   1      -0.034  -3.678  -0.347  0.00  0.00     0.146 A 
ATOM     12  O   UNL d   1      -0.540  -4.765   0.321  0.00  0.00    -0.283 OA
ATOM     13  C   UNL d   1       0.473  -5.679   0.365  0.00  0.00     0.215 A 
ATOM     14  C   UNL d   1       1.614  -5.212  -0.241  0.00  0.00     0.066 A 
ATOM     15  C   UNL d   1       1.284  -3.918  -0.703  0.00  0.00     0.047 A 
BRANCH  13  16
ATOM     16  N   UNL d   1       0.191  -6.922   1.009  0.00  0.00    -0.090 N 
ATOM     17  O   UNL d   1       1.114  -7.747   1.036  0.00  0.00    -0.530 OA
ATOM     18  O   UNL d   1      -0.939  -7.077   1.487  0.00  0.00    -0.530 OA
ENDBRANCH  13  16
ENDBRANCH   8  11
ENDBRANCH   2   7
BRANCH   1  19
ATOM     19  C   UNL d   1      -3.640   1.888  -1.667  0.00  0.00     0.173 A 
ATOM     20  N   UNL d   1      -4.362   2.985  -1.789  0.00  0.00    -0.278 N 
ATOM     21  N   UNL d   1      -3.668   3.821  -2.646  0.00  0.00    -0.288 N 
ATOM     22  HN  UNL d   1      -5.256   3.180  -1.339  1.00  0.00     0.189 HD
ATOM     23  C   UNL d   1      -2.578   3.172  -2.981  0.00  0.00     0.251 A 
ATOM     24  HN  UNL d   1      -3.947   4.752  -2.955  1.00  0.00     0.188 HD
ATOM     25  O   UNL d   1      -2.485   1.943  -2.410  0.00  0.00    -0.286 OA
ENDBRANCH   1  19
TORSDOF 4
