REMARK  9 active torsions:
REMARK  status: ('A' for Active; 'I' for Inactive)
REMARK    1  A    between atoms: N_14  and  C_1 
REMARK       I    between atoms: C_4  and  N_12 
REMARK    2  A    between atoms: C_7  and  C_4 
REMARK    3  A    between atoms: C_5  and  C_21 
REMARK    4  A    between atoms: C_6  and  C_20 
REMARK    5  A    between atoms: O_19  and  C_10 
REMARK    6  A    between atoms: O_18  and  C_11 
REMARK    7  A    between atoms: N_12  and  N_14 
REMARK    8  A    between atoms: C_21  and  O_18 
REMARK    9  A    between atoms: C_20  and  O_19 
ROOT
ATOM      1  N   UNL d   1      -1.211   7.353  -0.781  0.00  0.00    -0.318 N 
ATOM      2  HN  UNL d   1      -0.675   8.220  -0.802  1.00  0.00     0.170 HD
ATOM      3  C   UNL d   1      -2.613   4.957  -0.689  0.00  0.00     0.041 A 
ATOM      4  C   UNL d   1      -0.829   6.284  -1.503  0.00  0.00     0.145 A 
ATOM      5  C   UNL d   1      -2.322   7.240  -0.032  0.00  0.00     0.145 A 
ATOM      6  C   UNL d   1      -1.502   5.077  -1.519  0.00  0.00     0.073 A 
ATOM      7  C   UNL d   1      -3.046   6.063   0.054  0.00  0.00     0.073 A 
ENDROOT
BRANCH   3   8
ATOM      8  C   UNL d   1      -3.349   3.671  -0.505  0.00  0.00     0.266 C 
ATOM      9  N   UNL d   1      -2.627   2.520  -0.738  0.00  0.00    -0.280 N 
ATOM     10  H   UNL d   1      -1.672   2.450  -1.083  0.00  0.00     0.184 HD
ATOM     11  O   UNL d   1      -4.511   3.672  -0.121  0.00  0.00    -0.266 OA
BRANCH   9  12
ATOM     12  N   UNL d   1      -3.235   1.272  -0.504  0.00  0.00    -0.173 NA
ATOM     13  H   UNL d   1      -4.252   1.337  -0.471  0.00  0.00     0.156 HD
BRANCH  12  14
ATOM     14  C   UNL d   1      -2.730   0.256  -1.282  0.00  0.00     0.167 C 
ATOM     15  N   UNL d   1      -1.711   0.432  -2.065  0.00  0.00    -0.366 N 
ATOM     16  C   UNL d   1      -1.301  -0.729  -2.863  0.00  0.00     0.123 C 
ATOM     17  HN  UNL d   1      -1.224   1.326  -2.124  1.00  0.00     0.162 HD
ATOM     18  C   UNL d   1      -1.474  -2.028  -2.097  0.00  0.00     0.039 C 
ATOM     19  C   UNL d   1      -2.929  -2.159  -1.683  0.00  0.00     0.123 C 
ATOM     20  N   UNL d   1      -3.391  -0.919  -1.099  0.00  0.00    -0.366 N 
ATOM     21  H   UNL d   1      -4.034  -0.993  -0.321  0.00  0.00     0.162 HD
ENDBRANCH  12  14
ENDBRANCH   9  12
ENDBRANCH   3   8
BRANCH   4  22
ATOM     22  O   UNL d   1       0.313   6.384  -2.267  0.00  0.00    -0.327 OA
BRANCH  22  23
ATOM     23  C   UNL d   1       1.220   7.379  -1.758  0.00  0.00     0.294 C 
BRANCH  23  24
ATOM     24  C   UNL d   1       0.960   8.805  -2.239  0.00  0.00     0.408 C 
ATOM     25  F   UNL d   1      -0.104   8.914  -3.063  0.00  0.00    -0.169 F 
ATOM     26  F   UNL d   1       0.783   9.659  -1.205  0.00  0.00    -0.169 F 
ATOM     27  F   UNL d   1       2.038   9.259  -2.933  0.00  0.00    -0.169 F 
ENDBRANCH  23  24
ENDBRANCH  22  23
ENDBRANCH   4  22
BRANCH   5  28
ATOM     28  O   UNL d   1      -2.572   8.357   0.707  0.00  0.00    -0.327 OA
BRANCH  28  29
ATOM     29  C   UNL d   1      -3.950   8.663   0.942  0.00  0.00     0.294 C 
BRANCH  29  30
ATOM     30  C   UNL d   1      -4.102   9.999   1.668  0.00  0.00     0.408 C 
ATOM     31  F   UNL d   1      -2.931  10.643   1.853  0.00  0.00    -0.169 F 
ATOM     32  F   UNL d   1      -4.922  10.831   0.985  0.00  0.00    -0.169 F 
ATOM     33  F   UNL d   1      -4.655   9.812   2.892  0.00  0.00    -0.169 F 
ENDBRANCH  29  30
ENDBRANCH  28  29
ENDBRANCH   5  28
TORSDOF 9
