REMARK  3 active torsions:
REMARK  status: ('A' for Active; 'I' for Inactive)
REMARK    1  A    between atoms: C_12  and  C_2 
REMARK    2  A    between atoms: N_6  and  C_12 
REMARK    3  A    between atoms: C_20  and  C_15 
ROOT
ATOM      1  N   UNL d   1      -0.503  -0.796   0.006  0.00  0.00    -0.217 N 
ATOM      2  C   UNL d   1      -1.860  -1.031  -0.063  0.00  0.00     0.140 A 
ATOM      3  N   UNL d   1       0.473  -1.725   0.239  0.00  0.00    -0.293 N 
ATOM      4  HN  UNL d   1       0.250  -2.663   0.573  1.00  0.00     0.187 HD
ATOM      5  C   UNL d   1      -0.393   0.567  -0.125  0.00  0.00     0.182 A 
ATOM      6  N   UNL d   1      -2.499   0.111  -0.255  0.00  0.00    -0.284 N 
ATOM      7  HN  UNL d   1      -3.507   0.222  -0.363  1.00  0.00     0.188 HD
ATOM      8  N   UNL d   1      -1.567   1.122  -0.285  0.00  0.00    -0.277 N 
ATOM      9  HN  UNL d   1      -1.756   2.117  -0.409  1.00  0.00     0.189 HD
ATOM     10  C   UNL d   1       1.706  -1.352   0.015  0.00  0.00     0.046 C 
ATOM     11  S   UNL d   1       1.141   1.341  -0.038  0.00  0.00    -0.085 SA
ATOM     12  C   UNL d   1       2.109  -0.047  -0.671  0.00  0.00     0.142 C 
ENDROOT
BRANCH   2  13
ATOM     13  C   UNL d   1      -2.481  -2.367   0.085  0.00  0.00     0.227 C 
BRANCH  13  14
ATOM     14  N   UNL d   1      -2.093  -3.274  -0.978  0.00  0.00    -0.266 N 
ATOM     15  N   UNL d   1      -1.430  -4.410  -0.676  0.00  0.00    -0.019 NA
ATOM     16  N   UNL d   1      -1.219  -5.066  -1.810  0.00  0.00    -0.282 N 
ATOM     17  C   UNL d   1      -1.782  -4.346  -2.828  0.00  0.00     0.074 A 
ATOM     18  HN  UNL d   1      -0.723  -5.952  -1.905  1.00  0.00     0.184 HD
ATOM     19  C   UNL d   1      -2.369  -3.192  -2.320  0.00  0.00     0.077 A 
ATOM     20  C   UNL d   1      -1.837  -4.606  -4.204  0.00  0.00     0.033 A 
ATOM     21  C   UNL d   1      -3.041  -2.264  -3.125  0.00  0.00     0.033 A 
ATOM     22  C   UNL d   1      -3.086  -2.539  -4.497  0.00  0.00     0.002 A 
ATOM     23  C   UNL d   1      -2.493  -3.686  -5.032  0.00  0.00     0.002 A 
ENDBRANCH  13  14
ENDBRANCH   2  13
BRANCH  10  24
ATOM     24  C   UNL d   1       2.804  -2.318   0.333  0.00  0.00    -0.011 A 
ATOM     25  C   UNL d   1       2.573  -3.690   0.174  0.00  0.00     0.013 A 
ATOM     26  C   UNL d   1       3.588  -4.610   0.456  0.00  0.00     0.001 A 
ATOM     27  C   UNL d   1       4.832  -4.163   0.901  0.00  0.00     0.000 A 
ATOM     28  C   UNL d   1       5.061  -2.801   1.077  0.00  0.00     0.001 A 
ATOM     29  C   UNL d   1       4.049  -1.878   0.800  0.00  0.00     0.013 A 
ENDBRANCH  10  24
TORSDOF 3
