REMARK  4 active torsions:
REMARK  status: ('A' for Active; 'I' for Inactive)
REMARK    1  A    between atoms: C_18  and  N_3 
REMARK    2  A    between atoms: C_12  and  C_8 
REMARK    3  A    between atoms: O_24  and  C_17 
REMARK    4  A    between atoms: O_25  and  C_21 
ROOT
ATOM      1  C   UNL d   1       1.478  -0.598  -0.127  0.00  0.00     0.137 A 
ATOM      2  C   UNL d   1       1.511   0.777  -0.052  0.00  0.00     0.025 A 
ATOM      3  N   UNL d   1       2.779  -1.048   0.022  0.00  0.00    -0.239 N 
ATOM      4  N   UNL d   1       3.626  -0.003   0.244  0.00  0.00    -0.296 N 
ATOM      5  HN  UNL d   1       4.621  -0.049   0.465  1.00  0.00     0.187 HD
ATOM      6  C   UNL d   1      -0.976   0.703  -0.243  0.00  0.00     0.023 A 
ATOM      7  N   UNL d   1       0.323  -1.312  -0.227  0.00  0.00    -0.343 N 
ATOM      8  C   UNL d   1       0.251   1.598  -0.098  0.00  0.00     0.096 A 
ATOM      9  C   UNL d   1      -0.907  -0.650  -0.280  0.00  0.00     0.022 A 
ATOM     10  C   UNL d   1       2.875   1.099   0.110  0.00  0.00     0.033 A 
ATOM     11  C   UNL d   1      -2.292   1.385  -0.322  0.00  0.00     0.159 C 
ATOM     12  C   UNL d   1      -2.163  -1.492  -0.321  0.00  0.00     0.067 C 
ATOM     13  C   UNL d   1      -3.329  -0.842   0.457  0.00  0.00    -0.036 C 
ATOM     14  C   UNL d   1      -3.556   0.598  -0.044  0.00  0.00     0.092 C 
ATOM     15  O   UNL d   1      -2.352   2.570  -0.648  0.00  0.00    -0.293 OA
ATOM     16  C   UNL d   1       3.518   2.433   0.195  0.00  0.00     0.070 C 
ATOM     17  C   UNL d   1      -3.038  -0.852   1.973  0.00  0.00     0.015 C 
ATOM     18  C   UNL d   1      -4.617  -1.653   0.223  0.00  0.00     0.015 C 
ATOM     19  H   UNL d   1       0.291  -2.323  -0.107  0.00  0.00     0.167 HD
ENDROOT
BRANCH   8  20
ATOM     20  C   UNL d   1       0.226   2.362   1.226  0.00  0.00    -0.042 A 
ATOM     21  C   UNL d   1       0.197   1.689   2.467  0.00  0.00     0.047 A 
ATOM     22  C   UNL d   1       0.132   2.391   3.673  0.00  0.00     0.101 A 
ATOM     23  C   UNL d   1       0.108   3.789   3.633  0.00  0.00     0.099 A 
ATOM     24  C   UNL d   1       0.128   4.476   2.419  0.00  0.00     0.040 A 
ATOM     25  C   UNL d   1       0.179   3.764   1.221  0.00  0.00     0.011 A 
BRANCH  22  26
ATOM     26  O   UNL d   1       0.087   1.811   4.914  0.00  0.00    -0.353 OA
ATOM     27  C   UNL d   1       0.056   0.392   4.970  0.00  0.00     0.210 C 
ENDBRANCH  22  26
BRANCH  23  28
ATOM     28  O   UNL d   1       0.055   4.490   4.809  0.00  0.00    -0.358 OA
ATOM     29  H   UNL d   1       0.079   5.439   4.610  0.00  0.00     0.217 HD
ENDBRANCH  23  28
ENDBRANCH   8  20
BRANCH   3  30
ATOM     30  C   UNL d   1       3.295  -2.369  -0.034  0.00  0.00     0.058 A 
ATOM     31  C   UNL d   1       2.693  -3.350  -0.829  0.00  0.00     0.031 A 
ATOM     32  C   UNL d   1       3.252  -4.630  -0.892  0.00  0.00     0.002 A 
ATOM     33  C   UNL d   1       4.393  -4.937  -0.150  0.00  0.00     0.000 A 
ATOM     34  C   UNL d   1       4.994  -3.962   0.643  0.00  0.00     0.002 A 
ATOM     35  C   UNL d   1       4.460  -2.674   0.688  0.00  0.00     0.031 A 
ENDBRANCH   3  30
TORSDOF 4
