REMARK  4 active torsions:
REMARK  status: ('A' for Active; 'I' for Inactive)
REMARK    1  A    between atoms: N_2  and  C_1 
REMARK    2  A    between atoms: C_11  and  N_7 
REMARK    3  A    between atoms: C_9  and  C_11 
REMARK    4  A    between atoms: C_15  and  C_9 
ROOT
ATOM      1  N   UNL d   1      -0.564   3.095  -0.089  0.00  0.00    -0.279 NA
ATOM      2  N   UNL d   1      -0.207   6.026   0.202  0.00  0.00     0.098 N 
ATOM      3  C   UNL d   1      -1.165   3.823   1.053  0.00  0.00     0.126 C 
ATOM      4  C   UNL d   1       0.679   3.734  -0.575  0.00  0.00     0.126 C 
ATOM      5  C   UNL d   1       0.408   5.234  -0.894  0.00  0.00     0.287 C 
ATOM      6  C   UNL d   1      -1.409   5.298   0.678  0.00  0.00     0.287 C 
ENDROOT
BRANCH   1   7
ATOM      7  C   UNL d   1      -0.520   1.685   0.025  0.00  0.00     0.025 A 
ATOM      8  C   UNL d   1      -0.556   0.838  -1.125  0.00  0.00     0.012 A 
ATOM      9  C   UNL d   1      -0.609  -0.561  -0.910  0.00  0.00     0.044 A 
ATOM     10  C   UNL d   1      -0.586   1.300  -2.466  0.00  0.00     0.015 A 
ATOM     11  C   UNL d   1      -0.671  -1.418  -2.000  0.00  0.00     0.030 A 
ATOM     12  N   UNL d   1      -0.628  -1.122   0.307  0.00  0.00    -0.359 N 
ATOM     13  C   UNL d   1      -0.669  -0.949  -3.313  0.00  0.00     0.002 A 
ATOM     14  C   UNL d   1      -0.622   0.416  -3.547  0.00  0.00     0.001 A 
ATOM     15  C   UNL d   1      -0.591  -0.316   1.383  0.00  0.00     0.007 A 
ATOM     16  HN  UNL d   1      -0.669  -2.135   0.414  1.00  0.00     0.166 HD
ATOM     17  C   UNL d   1      -0.521   1.065   1.282  0.00  0.00     0.049 A 
ATOM     18  C   UNL d   1      -0.658  -0.962   2.735  0.00  0.00     0.068 C 
ENDBRANCH   1   7
BRANCH   2  19
ATOM     19  C   UNL d   1       0.779   6.288   1.273  0.00  0.00     0.356 C 
BRANCH  19  20
ATOM     20  C   UNL d   1       0.185   7.063   2.446  0.00  0.00     0.187 C 
ATOM     21  O   UNL d   1       0.191   6.574   3.581  0.00  0.00    -0.290 OA
BRANCH  20  22
ATOM     22  C   UNL d   1      -0.417   8.416   2.235  0.00  0.00     0.011 A 
ATOM     23  C   UNL d   1      -0.400   9.065   0.994  0.00  0.00     0.015 A 
ATOM     24  C   UNL d   1      -1.032  10.301   0.837  0.00  0.00     0.001 A 
ATOM     25  C   UNL d   1      -1.670  10.904   1.919  0.00  0.00     0.000 A 
ATOM     26  C   UNL d   1      -1.674  10.277   3.164  0.00  0.00     0.001 A 
ATOM     27  C   UNL d   1      -1.050   9.038   3.321  0.00  0.00     0.015 A 
ENDBRANCH  20  22
ENDBRANCH  19  20
ENDBRANCH   2  19
TORSDOF 4
