REMARK  2 active torsions:
REMARK  status: ('A' for Active; 'I' for Inactive)
REMARK       I    between atoms: N_4  and  C_1 
REMARK    1  A    between atoms: C_5  and  C_1 
REMARK    2  A    between atoms: C_8  and  N_4 
ROOT
ATOM      1  N   UNL d   1       0.536  -6.176  -0.354  0.00  0.00    -0.359 N 
ATOM      2  HN  UNL d   1      -0.206  -6.286  -1.046  1.00  0.00     0.166 HD
ATOM      3  C   UNL d   1       1.247  -5.032  -0.281  0.00  0.00     0.042 A 
ATOM      4  C   UNL d   1       2.279  -4.851   0.657  0.00  0.00    -0.007 A 
ATOM      5  C   UNL d   1       2.662  -2.568  -0.111  0.00  0.00     0.035 A 
ATOM      6  C   UNL d   1       2.975  -3.633   0.733  0.00  0.00     0.043 A 
ATOM      7  C   UNL d   1       0.966  -3.976  -1.139  0.00  0.00     0.033 A 
ATOM      8  C   UNL d   1       0.829  -7.177   0.514  0.00  0.00     0.005 A 
ATOM      9  C   UNL d   1       2.579  -5.907   1.521  0.00  0.00     0.015 A 
ATOM     10  C   UNL d   1       1.657  -2.755  -1.063  0.00  0.00     0.032 A 
ATOM     11  C   UNL d   1       1.847  -7.084   1.452  0.00  0.00     0.025 A 
ATOM     12  C   UNL d   1      -0.001  -8.424   0.442  0.00  0.00     0.068 C 
ENDROOT
BRANCH   5  13
ATOM     13  N   UNL d   1       3.277  -1.298  -0.027  0.00  0.00    -0.323 N 
ATOM     14  C   UNL d   1       4.253  -0.907   0.881  0.00  0.00     0.256 C 
ATOM     15  O   UNL d   1       4.837  -1.626   1.682  0.00  0.00    -0.267 OA
ATOM     16  H   UNL d   1       2.952  -0.600  -0.683  0.00  0.00     0.169 HD
BRANCH  14  17
ATOM     17  C   UNL d   1       4.579   0.549   0.872  0.00  0.00     0.038 A 
ATOM     18  C   UNL d   1       5.907   1.014   0.965  0.00  0.00    -0.046 A 
ATOM     19  C   UNL d   1       7.106   0.109   1.043  0.00  0.00     0.049 C 
ATOM     20  C   UNL d   1       6.130   2.400   1.055  0.00  0.00     0.007 A 
ATOM     21  C   UNL d   1       5.066   3.303   1.043  0.00  0.00     0.001 A 
ATOM     22  C   UNL d   1       3.759   2.837   0.951  0.00  0.00     0.001 A 
ATOM     23  C   UNL d   1       3.513   1.466   0.869  0.00  0.00     0.017 A 
ENDBRANCH  14  17
ENDBRANCH   5  13
TORSDOF 2
