REMARK  4 active torsions:
REMARK  status: ('A' for Active; 'I' for Inactive)
REMARK    1  A    between atoms: C_9  and  C_1 
REMARK    2  A    between atoms: C_10  and  C_2 
REMARK    3  A    between atoms: O_14  and  C_9 
REMARK    4  A    between atoms: O_13  and  C_10 
ROOT
ATOM      1  C   UNL d   1      -0.716   1.102   0.124  0.00  0.00     0.211 C 
ATOM      2  C   UNL d   1       0.735  -1.116   0.080  0.00  0.00     0.211 C 
ATOM      3  N   UNL d   1       1.454  -0.019   0.068  0.00  0.00    -0.278 N 
ATOM      4  HN  UNL d   1       2.473  -0.007   0.094  1.00  0.00     0.189 HD
ATOM      5  N   UNL d   1      -1.436   0.006   0.112  0.00  0.00    -0.278 N 
ATOM      6  HN  UNL d   1      -2.454  -0.007   0.170  1.00  0.00     0.189 HD
ATOM      7  N   UNL d   1      -0.657  -1.126   0.014  0.00  0.00    -0.278 N 
ATOM      8  N   UNL d   1       0.673   1.114   0.015  0.00  0.00    -0.278 N 
ATOM      9  H   UNL d   1      -1.119  -2.034   0.067  0.00  0.00     0.189 HD
ATOM     10  H   UNL d   1       1.136   2.021   0.074  0.00  0.00     0.189 HD
ENDROOT
BRANCH   1  11
ATOM     11  C   UNL d   1      -1.411   2.458   0.310  0.00  0.00     0.330 C 
ATOM     12  O   UNL d   1      -0.774   3.496   0.215  0.00  0.00    -0.256 OA
BRANCH  11  13
ATOM     13  O   UNL d   1      -2.702   2.315   0.660  0.00  0.00    -0.320 OA
ATOM     14  C   UNL d   1      -3.356   3.537   0.997  0.00  0.00     0.213 C 
ENDBRANCH  11  13
ENDBRANCH   1  11
BRANCH   2  15
ATOM     15  C   UNL d   1       1.436  -2.473   0.218  0.00  0.00     0.330 C 
ATOM     16  O   UNL d   1       0.798  -3.511   0.116  0.00  0.00    -0.256 OA
BRANCH  15  17
ATOM     17  O   UNL d   1       2.735  -2.336   0.538  0.00  0.00    -0.320 OA
ATOM     18  C   UNL d   1       3.400  -3.562   0.834  0.00  0.00     0.213 C 
ENDBRANCH  15  17
ENDBRANCH   2  15
TORSDOF 4
