REMARK  6 active torsions:
REMARK  status: ('A' for Active; 'I' for Inactive)
REMARK    1  A    between atoms: N_2  and  C_1 
REMARK    2  A    between atoms: N_4  and  C_1 
REMARK    3  A    between atoms: C_5  and  N_2 
REMARK    4  A    between atoms: C_10  and  N_4 
REMARK    5  A    between atoms: C_11  and  N_4 
REMARK    6  A    between atoms: S_8  and  C_7 
ROOT
ATOM      1  N   UNL d   1       0.344  -0.811  -1.073  0.00  0.00    -0.333 N 
ATOM      2  H   UNL d   1      -0.572  -0.387  -1.122  0.00  0.00     0.168 HD
ENDROOT
BRANCH   1   3
ATOM      3  C   UNL d   1       1.075  -0.322   0.008  0.00  0.00     0.174 C 
ATOM      4  S   UNL d   1       2.686   0.150  -0.018  0.00  0.00    -0.041 SA
BRANCH   3   5
ATOM      5  N   UNL d   1       0.251  -0.179   1.136  0.00  0.00    -0.359 N 
BRANCH   5   6
ATOM      6  C   UNL d   1       0.260   1.045   1.952  0.00  0.00     0.120 C 
ATOM      7  C   UNL d   1       0.942   0.903   3.300  0.00  0.00     0.026 C 
ENDBRANCH   5   6
BRANCH   5   8
ATOM      8  C   UNL d   1      -0.486  -1.349   1.625  0.00  0.00     0.120 C 
ATOM      9  C   UNL d   1      -1.976  -1.286   1.345  0.00  0.00     0.026 C 
ENDBRANCH   5   8
ENDBRANCH   3   5
ENDBRANCH   1   3
BRANCH   1  10
ATOM     10  C   UNL d   1       0.860  -1.313  -2.283  0.00  0.00     0.035 A 
ATOM     11  C   UNL d   1       1.889  -2.257  -2.287  0.00  0.00     0.048 A 
ATOM     12  C   UNL d   1       2.393  -2.762  -3.488  0.00  0.00     0.002 A 
ATOM     13  C   UNL d   1       1.830  -2.323  -4.692  0.00  0.00     0.018 A 
ATOM     14  C   UNL d   1       0.776  -1.405  -4.692  0.00  0.00     0.004 A 
ATOM     15  C   UNL d   1       0.275  -0.916  -3.485  0.00  0.00     0.029 A 
BRANCH  12  16
ATOM     16  S   UNL d   1       3.697  -3.984  -3.567  0.00  0.00    -0.134 SA
ATOM     17  C   UNL d   1       4.623  -3.640  -2.046  0.00  0.00     0.095 C 
ENDBRANCH  12  16
ENDBRANCH   1  10
TORSDOF 6
