REMARK  6 active torsions:
REMARK  status: ('A' for Active; 'I' for Inactive)
REMARK       I    between atoms: N_6  and  C_1 
REMARK    1  A    between atoms: C_9  and  C_1 
REMARK    2  A    between atoms: C_2  and  C_4 
REMARK    3  A    between atoms: C_3  and  C_5 
REMARK    4  A    between atoms: C_7  and  N_6 
REMARK    5  A    between atoms: C_19  and  C_9 
REMARK    6  A    between atoms: C_20  and  C_9 
ROOT
ATOM      1  C   UNL d   1       0.950  -0.056  -0.193  0.00  0.00     0.231 C 
ATOM      2  N   UNL d   1       2.116  -0.728  -0.535  0.00  0.00    -0.327 N 
ATOM      3  O   UNL d   1       0.587   0.995  -0.720  0.00  0.00    -0.272 OA
ATOM      4  H   UNL d   1       2.223  -1.677  -0.195  0.00  0.00     0.169 HD
ENDROOT
BRANCH   2   5
ATOM      5  C   UNL d   1       3.067  -0.281  -1.484  0.00  0.00     0.036 A 
ATOM      6  C   UNL d   1       3.178   1.057  -1.875  0.00  0.00     0.045 A 
ATOM      7  C   UNL d   1       4.117   1.466  -2.836  0.00  0.00     0.050 A 
ATOM      8  C   UNL d   1       4.947   0.502  -3.422  0.00  0.00     0.032 A 
ATOM      9  C   UNL d   1       4.866  -0.846  -3.037  0.00  0.00     0.050 A 
ATOM     10  C   UNL d   1       3.938  -1.220  -2.044  0.00  0.00     0.045 A 
BRANCH   7  11
ATOM     11  C   UNL d   1       4.211   2.926  -3.209  0.00  0.00     0.417 C 
ATOM     12  F   UNL d   1       5.174   3.182  -4.140  0.00  0.00    -0.166 F 
ATOM     13  F   UNL d   1       3.053   3.414  -3.730  0.00  0.00    -0.166 F 
ATOM     14  F   UNL d   1       4.510   3.716  -2.142  0.00  0.00    -0.166 F 
ENDBRANCH   7  11
BRANCH   9  15
ATOM     15  C   UNL d   1       5.749  -1.888  -3.679  0.00  0.00     0.417 C 
ATOM     16  F   UNL d   1       6.533  -1.397  -4.678  0.00  0.00    -0.166 F 
ATOM     17  F   UNL d   1       6.596  -2.470  -2.786  0.00  0.00    -0.166 F 
ATOM     18  F   UNL d   1       5.031  -2.905  -4.232  0.00  0.00    -0.166 F 
ENDBRANCH   9  15
ENDBRANCH   2   5
BRANCH   1  19
ATOM     19  C   UNL d   1       0.130  -0.731   0.931  0.00  0.00     0.115 C 
BRANCH  19  20
ATOM     20  C   UNL d   1       0.462  -0.196   2.324  0.00  0.00    -0.045 A 
ATOM     21  C   UNL d   1       0.976   1.093   2.534  0.00  0.00     0.008 A 
ATOM     22  C   UNL d   1       1.169   1.583   3.827  0.00  0.00     0.001 A 
ATOM     23  C   UNL d   1       0.842   0.798   4.930  0.00  0.00     0.000 A 
ATOM     24  C   UNL d   1       0.336  -0.485   4.741  0.00  0.00     0.001 A 
ATOM     25  C   UNL d   1       0.153  -0.981   3.449  0.00  0.00     0.008 A 
ENDBRANCH  19  20
BRANCH  19  26
ATOM     26  C   UNL d   1      -1.404  -0.673   0.696  0.00  0.00     0.003 C 
ATOM     27  C   UNL d   1      -1.848  -1.267  -0.641  0.00  0.00     0.006 C 
ATOM     28  C   UNL d   1      -3.260  -0.737  -0.836  0.00  0.00     0.000 C 
ATOM     29  C   UNL d   1      -3.300   0.622  -0.147  0.00  0.00     0.000 C 
ATOM     30  C   UNL d   1      -2.057   0.715   0.734  0.00  0.00     0.006 C 
ENDBRANCH  19  26
ENDBRANCH   1  19
TORSDOF 6
