REMARK  4 active torsions:
REMARK  status: ('A' for Active; 'I' for Inactive)
REMARK    1  A    between atoms: C_5  and  N_1 
REMARK    2  A    between atoms: C_10  and  C_7 
REMARK    3  A    between atoms: C_9  and  C_8 
REMARK    4  A    between atoms: O_20  and  C_18 
ROOT
ATOM      1  N   UNL d   1      -0.254  -1.212   0.140  0.00  0.00    -0.179 N 
ATOM      2  N   UNL d   1       1.026  -0.767   0.320  0.00  0.00    -0.266 N 
ATOM      3  HN  UNL d   1       1.852  -1.290   0.611  1.00  0.00     0.190 HD
ATOM      4  C   UNL d   1      -1.080  -0.214  -0.315  0.00  0.00     0.394 A 
ATOM      5  O   UNL d   1      -0.310   0.918  -0.348  0.00  0.00    -0.240 OA
ATOM      6  C   UNL d   1       0.919   0.490   0.025  0.00  0.00     0.178 A 
ATOM      7  O   UNL d   1      -2.270  -0.232  -0.575  0.00  0.00    -0.236 OA
ENDROOT
BRANCH   1   8
ATOM      8  C   UNL d   1      -0.503  -2.587   0.139  0.00  0.00     0.147 A 
ATOM      9  C   UNL d   1      -0.160  -3.362   1.244  0.00  0.00     0.093 A 
ATOM     10  C   UNL d   1      -0.300  -4.757   1.136  0.00  0.00     0.021 A 
ATOM     11  C   UNL d   1      -0.764  -5.325  -0.043  0.00  0.00     0.018 A 
ATOM     12  C   UNL d   1      -1.102  -4.476  -1.077  0.00  0.00     0.090 A 
ATOM     13  N   UNL d   1      -0.998  -3.131  -1.003  0.00  0.00    -0.350 N 
ATOM     14  HN  UNL d   1      -1.284  -2.540  -1.784  1.00  0.00     0.166 HD
BRANCH   9  15
ATOM     15  C   UNL d   1       0.267  -2.776   2.557  0.00  0.00     0.421 C 
ATOM     16  F   UNL d   1       0.123  -1.431   2.705  0.00  0.00    -0.166 F 
ATOM     17  F   UNL d   1      -0.457  -3.307   3.590  0.00  0.00    -0.166 F 
ATOM     18  F   UNL d   1       1.567  -3.056   2.854  0.00  0.00    -0.166 F 
ENDBRANCH   9  15
ENDBRANCH   1   8
BRANCH   6  19
ATOM     19  C   UNL d   1       2.000   1.482   0.014  0.00  0.00     0.019 A 
ATOM     20  C   UNL d   1       3.322   1.021   0.066  0.00  0.00     0.052 A 
ATOM     21  C   UNL d   1       4.381   1.919   0.047  0.00  0.00     0.069 A 
ATOM     22  C   UNL d   1       4.113   3.288  -0.017  0.00  0.00     0.037 A 
ATOM     23  C   UNL d   1       2.798   3.758  -0.066  0.00  0.00     0.004 A 
ATOM     24  C   UNL d   1       1.734   2.856  -0.058  0.00  0.00     0.016 A 
BRANCH  21  25
ATOM     25  O   UNL d   1       5.710   1.590   0.077  0.00  0.00    -0.356 OA
ATOM     26  C   UNL d   1       6.026   0.203   0.131  0.00  0.00     0.210 C 
ENDBRANCH  21  25
ENDBRANCH   6  19
TORSDOF 4
