REMARK  2 active torsions:
REMARK  status: ('A' for Active; 'I' for Inactive)
REMARK    1  A    between atoms: C_12  and  N_5 
REMARK    2  A    between atoms: C_15  and  C_12 
ROOT
ATOM      1  C   UNL d   1       1.224  -0.874  -0.073  0.00  0.00     0.140 A 
ATOM      2  C   UNL d   1       0.776   0.552  -0.058  0.00  0.00     0.105 A 
ATOM      3  N   UNL d   1       2.471  -1.174  -0.116  0.00  0.00    -0.316 N 
ATOM      4  HN  UNL d   1       2.778  -2.146  -0.111  1.00  0.00     0.170 HD
ATOM      5  N   UNL d   1       0.096  -1.667  -0.025  0.00  0.00    -0.326 N 
ATOM      6  N   UNL d   1       1.586   1.553  -0.046  0.00  0.00    -0.292 N 
ATOM      7  HN  UNL d   1       1.266   2.521  -0.017  1.00  0.00     0.187 HD
ATOM      8  C   UNL d   1       3.387  -0.138  -0.170  0.00  0.00     0.194 A 
ATOM      9  C   UNL d   1      -0.676   0.522  -0.033  0.00  0.00     0.023 A 
ATOM     10  N   UNL d   1       2.934   1.205  -0.077  0.00  0.00    -0.271 N 
ATOM     11  C   UNL d   1      -1.032  -0.846  -0.022  0.00  0.00     0.049 A 
ATOM     12  S   UNL d   1       5.021  -0.555  -0.345  0.00  0.00    -0.039 SA
ATOM     13  C   UNL d   1      -1.589   1.558  -0.008  0.00  0.00     0.016 A 
ATOM     14  C   UNL d   1       3.814   2.375  -0.025  0.00  0.00     0.180 C 
ATOM     15  C   UNL d   1      -2.372  -1.180  -0.006  0.00  0.00     0.030 A 
ATOM     16  C   UNL d   1      -2.936   1.206   0.021  0.00  0.00     0.001 A 
ATOM     17  C   UNL d   1      -3.324  -0.148   0.017  0.00  0.00     0.002 A 
ENDROOT
BRANCH   5  18
ATOM     18  C   UNL d   1       0.090  -3.113   0.042  0.00  0.00     0.169 C 
BRANCH  18  19
ATOM     19  C   UNL d   1       0.005  -3.737  -1.333  0.00  0.00    -0.040 A 
ATOM     20  C   UNL d   1       1.070  -3.609  -2.238  0.00  0.00     0.009 A 
ATOM     21  C   UNL d   1       0.979  -4.138  -3.524  0.00  0.00     0.001 A 
ATOM     22  C   UNL d   1      -0.171  -4.817  -3.918  0.00  0.00     0.000 A 
ATOM     23  C   UNL d   1      -1.222  -4.984  -3.018  0.00  0.00     0.001 A 
ATOM     24  C   UNL d   1      -1.136  -4.449  -1.732  0.00  0.00     0.009 A 
ENDBRANCH  18  19
ENDBRANCH   5  18
TORSDOF 2
