REMARK  1 active torsions:
REMARK  status: ('A' for Active; 'I' for Inactive)
REMARK    1  A    between atoms: C_14  and  C_10 
ROOT
ATOM      1  N   UNL d   1      -0.201  -0.266   0.019  0.00  0.00    -0.255 N 
ATOM      2  C   UNL d   1      -0.477   1.062   0.024  0.00  0.00     0.160 A 
ATOM      3  C   UNL d   1      -1.268  -1.137   0.015  0.00  0.00     0.271 A 
ATOM      4  C   UNL d   1      -2.509  -0.307   0.010  0.00  0.00     0.077 A 
ATOM      5  N   UNL d   1       0.581   1.823   0.012  0.00  0.00    -0.334 N 
ATOM      6  HN  UNL d   1       0.628   2.842   0.008  1.00  0.00     0.168 HD
ATOM      7  S   UNL d   1      -2.162   1.406   0.033  0.00  0.00    -0.048 SA
ATOM      8  C   UNL d   1       1.163  -0.406   0.015  0.00  0.00     0.071 A 
ATOM      9  C   UNL d   1       1.624   0.918   0.007  0.00  0.00     0.061 A 
ATOM     10  C   UNL d   1      -3.721  -0.880  -0.017  0.00  0.00     0.037 C 
ATOM     11  O   UNL d   1      -1.141  -2.347   0.009  0.00  0.00    -0.266 OA
ATOM     12  C   UNL d   1       2.021  -1.511   0.016  0.00  0.00     0.032 A 
ATOM     13  C   UNL d   1       3.006   1.159  -0.006  0.00  0.00     0.032 A 
ATOM     14  C   UNL d   1       3.395  -1.243   0.008  0.00  0.00     0.002 A 
ATOM     15  C   UNL d   1       3.882   0.067  -0.005  0.00  0.00     0.002 A 
ENDROOT
BRANCH  10  16
ATOM     16  C   UNL d   1      -4.987  -0.146  -0.025  0.00  0.00    -0.019 A 
ATOM     17  C   UNL d   1      -5.624   0.208   1.161  0.00  0.00     0.099 A 
ATOM     18  N   UNL d   1      -6.779   0.912   1.222  0.00  0.00    -0.374 N 
ATOM     19  C   UNL d   1      -7.322   1.288   0.045  0.00  0.00     0.087 A 
ATOM     20  HN  UNL d   1      -7.216   1.148   2.114  1.00  0.00     0.164 HD
ATOM     21  C   UNL d   1      -6.771   0.981  -1.189  0.00  0.00     0.018 A 
ATOM     22  C   UNL d   1      -5.586   0.248  -1.222  0.00  0.00     0.014 A 
ENDBRANCH  10  16
TORSDOF 1
