REMARK  4 active torsions:
REMARK  status: ('A' for Active; 'I' for Inactive)
REMARK       I    between atoms: N_2  and  C_1 
REMARK    1  A    between atoms: C_4  and  C_1 
REMARK    2  A    between atoms: C_5  and  N_2 
REMARK    3  A    between atoms: O_7  and  C_4 
REMARK    4  A    between atoms: C_10  and  O_7 
ROOT
ATOM      1  C   UNL d   1       0.969  -0.315  -0.031  0.00  0.00     0.253 C 
ATOM      2  N   UNL d   1       0.470  -0.097   1.232  0.00  0.00    -0.345 N 
ATOM      3  O   UNL d   1       1.981  -1.000  -0.195  0.00  0.00    -0.270 OA
ATOM      4  H   UNL d   1      -0.465   0.272   1.368  0.00  0.00     0.163 HD
ENDROOT
BRANCH   1   5
ATOM      5  C   UNL d   1       0.265   0.381  -1.236  0.00  0.00     0.141 C 
ATOM      6  C   UNL d   1       0.820  -0.198  -2.556  0.00  0.00     0.057 C 
ATOM      7  C   UNL d   1      -1.232   0.015  -1.195  0.00  0.00     0.057 C 
BRANCH   5   8
ATOM      8  O   UNL d   1       0.305   1.823  -1.243  0.00  0.00    -0.331 OA
BRANCH   8   9
ATOM      9  C   UNL d   1       1.479   2.471  -1.523  0.00  0.00     0.070 A 
ATOM     10  C   UNL d   1       1.380   3.633  -2.297  0.00  0.00     0.038 A 
ATOM     11  C   UNL d   1       2.527   4.370  -2.631  0.00  0.00     0.026 A 
ATOM     12  C   UNL d   1       3.773   3.950  -2.178  0.00  0.00     0.034 A 
ATOM     13  C   UNL d   1       3.880   2.810  -1.391  0.00  0.00     0.026 A 
ATOM     14 CL   UNL d   1       5.189   4.842  -2.578  0.00  0.00    -0.084 Cl
ATOM     15  C   UNL d   1       2.733   2.084  -1.054  0.00  0.00     0.038 A 
ENDBRANCH   8   9
ENDBRANCH   5   8
ENDBRANCH   1   5
BRANCH   2  16
ATOM     16  C   UNL d   1       1.164  -0.621   2.416  0.00  0.00     0.176 C 
ATOM     17  C   UNL d   1       0.174  -1.318   3.361  0.00  0.00     0.240 C 
ATOM     18  N   UNL d   1       0.687  -1.996   4.431  0.00  0.00    -0.359 N 
ATOM     19  O   UNL d   1      -1.049  -1.268   3.192  0.00  0.00    -0.271 OA
ATOM     20  C   UNL d   1       2.089  -2.150   4.762  0.00  0.00     0.122 C 
ATOM     21  H   UNL d   1      -0.005  -2.445   5.020  0.00  0.00     0.162 HD
ATOM     22  C   UNL d   1       2.731  -0.826   5.160  0.00  0.00     0.020 C 
ATOM     23  C   UNL d   1       3.085   0.061   3.967  0.00  0.00     0.004 C 
ATOM     24  C   UNL d   1       1.892   0.522   3.129  0.00  0.00     0.035 C 
ENDBRANCH   2  16
TORSDOF 4
