REMARK  4 active torsions:
REMARK  status: ('A' for Active; 'I' for Inactive)
REMARK    1  A    between atoms: C_12  and  N_3 
REMARK    2  A    between atoms: C_13  and  C_12 
REMARK       I    between atoms: N_17  and  C_13 
REMARK    3  A    between atoms: N_14  and  N_17 
REMARK    4  A    between atoms: C_22  and  C_20 
ROOT
ATOM      1  N   UNL d   1      -0.734   0.245   2.247  0.00  0.00    -0.046 N 
ATOM      2  C   UNL d   1      -0.775  -1.081   1.845  0.00  0.00     0.710 A 
ATOM      3  N   UNL d   1      -0.116  -1.457   0.707  0.00  0.00    -0.175 N 
ATOM      4  C   UNL d   1      -0.064   1.275   1.573  0.00  0.00     0.290 A 
ATOM      5  C   UNL d   1       0.642   0.801   0.370  0.00  0.00     0.036 A 
ATOM      6  C   UNL d   1       0.596  -0.492   0.013  0.00  0.00     0.041 A 
ATOM      7  N   UNL d   1      -1.509  -1.781   2.680  0.00  0.00    -0.184 N 
ATOM      8  HN  UNL d   1      -1.739  -2.774   2.650  1.00  0.00     0.185 HD
ATOM      9  N   UNL d   1      -1.447   0.401   3.392  0.00  0.00    -0.272 N 
ATOM     10  HN  UNL d   1      -1.605   1.244   3.944  1.00  0.00     0.189 HD
ATOM     11  C   UNL d   1      -1.886  -0.841   3.603  0.00  0.00     0.216 A 
ATOM     12  O   UNL d   1      -0.071   2.432   1.966  0.00  0.00    -0.265 OA
ATOM     13  C   UNL d   1       1.451   1.640  -0.545  0.00  0.00     0.047 C 
ATOM     14  C   UNL d   1       1.427  -0.731  -1.210  0.00  0.00     0.059 C 
ATOM     15  C   UNL d   1       2.215   0.580  -1.344  0.00  0.00     0.011 C 
ENDROOT
BRANCH   3  16
ATOM     16  C   UNL d   1      -0.352  -2.824   0.227  0.00  0.00     0.252 C 
BRANCH  16  17
ATOM     17  C   UNL d   1      -1.766  -2.979  -0.347  0.00  0.00     0.254 C 
ATOM     18  N   UNL d   1      -2.675  -3.444   0.601  0.00  0.00    -0.269 N 
ATOM     19  H   UNL d   1      -2.452  -3.245   1.581  0.00  0.00     0.190 HD
ATOM     20  O   UNL d   1      -2.010  -2.716  -1.523  0.00  0.00    -0.270 OA
BRANCH  18  21
ATOM     21  N   UNL d   1      -3.983  -3.810   0.401  0.00  0.00    -0.308 N 
ATOM     22  C   UNL d   1      -4.359  -4.176  -0.783  0.00  0.00     0.118 C 
ATOM     23  HN  UNL d   1      -4.648  -3.793   1.173  1.00  0.00     0.186 HD
BRANCH  22  24
ATOM     24  C   UNL d   1      -5.733  -4.651  -1.055  0.00  0.00    -0.019 A 
ATOM     25  C   UNL d   1      -6.679  -4.772  -0.031  0.00  0.00     0.014 A 
ATOM     26  C   UNL d   1      -7.940  -5.305  -0.311  0.00  0.00     0.024 A 
ATOM     27  C   UNL d   1      -8.250  -5.710  -1.610  0.00  0.00     0.034 A 
ATOM     28  C   UNL d   1      -7.315  -5.574  -2.636  0.00  0.00     0.024 A 
ATOM     29 CL   UNL d   1      -9.791  -6.397  -1.948  0.00  0.00    -0.084 Cl
ATOM     30  C   UNL d   1      -6.054  -5.042  -2.360  0.00  0.00     0.014 A 
ENDBRANCH  22  24
ENDBRANCH  18  21
ENDBRANCH  16  17
ENDBRANCH   3  16
TORSDOF 4
