REMARK  3 active torsions:
REMARK  status: ('A' for Active; 'I' for Inactive)
REMARK    1  A    between atoms: N_2  and  C_1 
REMARK    2  A    between atoms: N_7  and  C_1 
REMARK    3  A    between atoms: C_3  and  N_2 
ROOT
ATOM      1  C   UNL d   1       1.067  -2.446  -0.670  0.00  0.00     0.046 C 
ATOM      2  C   UNL d   1       2.006  -3.005   0.222  0.00  0.00    -0.034 C 
ATOM      3  C   UNL d   1       0.652  -3.192  -1.795  0.00  0.00    -0.034 C 
ATOM      4  C   UNL d   1       1.323  -4.389  -2.113  0.00  0.00     0.015 C 
ATOM      5  C   UNL d   1       2.667  -4.197  -0.135  0.00  0.00     0.015 C 
ATOM      6  C   UNL d   1       2.355  -4.876  -1.311  0.00  0.00    -0.061 C 
ATOM      7  C   UNL d   1       2.313  -2.451   1.586  0.00  0.00     0.050 C 
ATOM      8  C   UNL d   1      -0.414  -2.745  -2.765  0.00  0.00     0.050 C 
ATOM      9  C   UNL d   1       3.129  -6.101  -1.699  0.00  0.00     0.048 C 
ENDROOT
BRANCH   1  10
ATOM     10  N   UNL d   1       0.508  -1.160  -0.481  0.00  0.00    -0.332 N 
ATOM     11  H   UNL d   1      -0.480  -1.073  -0.687  0.00  0.00     0.168 HD
BRANCH  10  12
ATOM     12  C   UNL d   1       1.042  -0.021   0.054  0.00  0.00     0.173 C 
ATOM     13  S   UNL d   1      -0.063   1.093   0.663  0.00  0.00    -0.041 SA
BRANCH  12  14
ATOM     14  N   UNL d   1       2.408   0.190  -0.014  0.00  0.00    -0.367 N 
ATOM     15  C   UNL d   1       3.215  -0.289  -1.135  0.00  0.00     0.151 C 
ATOM     16  C   UNL d   1       3.122   1.064   0.915  0.00  0.00     0.151 C 
ENDBRANCH  12  14
ENDBRANCH  10  12
ENDBRANCH   1  10
TORSDOF 3
