REMARK  3 active torsions:
REMARK  status: ('A' for Active; 'I' for Inactive)
REMARK       I    between atoms: N_4  and  C_1 
REMARK    1  A    between atoms: C_5  and  C_1 
REMARK    2  A    between atoms: C_2  and  N_3 
REMARK       I    between atoms: N_3  and  C_6 
REMARK       I    between atoms: C_7  and  N_4 
REMARK    3  A    between atoms: C_6  and  C_7 
ROOT
ATOM      1  N   UNL d   1       3.110  -2.191   3.132  0.00  0.00    -0.151 N 
ATOM      2  C   UNL d   1       2.647  -1.464   2.075  0.00  0.00     0.328 C 
ATOM      3  O   UNL d   1       3.249  -0.947   1.143  0.00  0.00    -0.261 OA
ATOM      4  H   UNL d   1       2.441  -2.616   3.761  0.00  0.00     0.188 HD
ENDROOT
BRANCH   2   5
ATOM      5  C   UNL d   1       1.116  -1.329   2.081  0.00  0.00     0.317 C 
ATOM      6  N   UNL d   1       0.664  -0.703   0.937  0.00  0.00    -0.285 N 
ATOM      7  C   UNL d   1      -0.627  -0.272   0.698  0.00  0.00     0.263 C 
ATOM      8  H   UNL d   1       1.403  -0.459   0.283  0.00  0.00     0.172 HD
ATOM      9  O   UNL d   1      -1.591  -0.555   1.396  0.00  0.00    -0.267 OA
ATOM     10  O   UNL d   1       0.485  -1.780   3.023  0.00  0.00    -0.262 OA
BRANCH   7  11
ATOM     11  C   UNL d   1      -0.813   0.558  -0.524  0.00  0.00     0.092 A 
ATOM     12  C   UNL d   1      -0.061   0.272  -1.669  0.00  0.00     0.133 A 
ATOM     13  F   UNL d   1       0.836  -0.727  -1.667  0.00  0.00    -0.205 F 
ATOM     14  C   UNL d   1      -0.204   1.010  -2.844  0.00  0.00     0.043 A 
ATOM     15  C   UNL d   1      -1.116   2.056  -2.896  0.00  0.00     0.005 A 
ATOM     16  C   UNL d   1      -1.880   2.357  -1.766  0.00  0.00     0.025 A 
ATOM     17  C   UNL d   1      -1.733   1.616  -0.583  0.00  0.00     0.052 A 
ATOM     18 CL   UNL d   1      -2.683   2.135   0.764  0.00  0.00    -0.083 Cl
ENDBRANCH   7  11
ENDBRANCH   2   5
BRANCH   1  19
ATOM     19  C   UNL d   1       4.435  -2.450   3.418  0.00  0.00     0.685 A 
ATOM     20  N   UNL d   1       5.415  -1.835   2.748  0.00  0.00    -0.196 N 
ATOM     21  C   UNL d   1       6.684  -2.132   3.092  0.00  0.00     0.024 A 
ATOM     22  HN  UNL d   1       5.211  -1.167   2.005  1.00  0.00     0.184 HD
ATOM     23  C   UNL d   1       7.781  -1.428   2.354  0.00  0.00     0.068 C 
ATOM     24  C   UNL d   1       6.983  -3.057   4.071  0.00  0.00     0.050 A 
ATOM     25  C   UNL d   1       5.909  -3.647   4.707  0.00  0.00     0.024 A 
ATOM     26  N   UNL d   1       4.631  -3.336   4.404  0.00  0.00    -0.196 N 
ATOM     27  C   UNL d   1       6.136  -4.695   5.753  0.00  0.00     0.068 C 
ATOM     28  HN  UNL d   1       3.848  -3.758   4.904  1.00  0.00     0.184 HD
ENDBRANCH   1  19
TORSDOF 3
