REMARK  4 active torsions:
REMARK  status: ('A' for Active; 'I' for Inactive)
REMARK    1  A    between atoms: C_15  and  C_12 
REMARK    2  A    between atoms: O_16  and  C_17 
REMARK    3  A    between atoms: C_19  and  O_16 
REMARK    4  A    between atoms: C_24  and  C_19 
ROOT
ATOM      1  N   UNL d   1      -1.076   1.071  -1.153  0.00  0.00    -0.196 N 
ATOM      2  C   UNL d   1      -0.356   0.025  -1.675  0.00  0.00     0.177 A 
ATOM      3  N   UNL d   1       0.776   0.106  -2.291  0.00  0.00    -0.300 N 
ATOM      4  HN  UNL d   1       1.265  -0.709  -2.661  1.00  0.00     0.171 HD
ATOM      5  N   UNL d   1      -0.656   2.378  -1.229  0.00  0.00    -0.288 N 
ATOM      6  HN  UNL d   1      -1.198   3.149  -0.839  1.00  0.00     0.187 HD
ATOM      7  C   UNL d   1      -2.276   0.766  -0.523  0.00  0.00     0.285 A 
ATOM      8  C   UNL d   1      -2.485  -0.713  -0.578  0.00  0.00     0.079 A 
ATOM      9  S   UNL d   1      -1.178  -1.486  -1.401  0.00  0.00    -0.046 SA
ATOM     10  C   UNL d   1       1.263   1.382  -2.403  0.00  0.00     0.271 A 
ATOM     11  C   UNL d   1       0.482   2.565  -1.835  0.00  0.00     0.090 A 
ATOM     12  C   UNL d   1      -3.568  -1.284  -0.030  0.00  0.00     0.036 C 
ATOM     13  O   UNL d   1      -3.060   1.536   0.005  0.00  0.00    -0.265 OA
ATOM     14  O   UNL d   1       2.336   1.631  -2.959  0.00  0.00    -0.266 OA
ATOM     15  C   UNL d   1       1.036   3.951  -1.979  0.00  0.00     0.076 C 
ENDROOT
BRANCH  12  16
ATOM     16  C   UNL d   1      -3.848  -2.719  -0.006  0.00  0.00    -0.035 A 
ATOM     17  C   UNL d   1      -3.401  -3.524   1.048  0.00  0.00     0.014 A 
ATOM     18  C   UNL d   1      -3.623  -4.911   1.026  0.00  0.00     0.037 A 
ATOM     19  C   UNL d   1      -4.294  -5.493  -0.052  0.00  0.00     0.069 A 
ATOM     20  C   UNL d   1      -4.785  -4.668  -1.062  0.00  0.00     0.037 A 
ATOM     21  C   UNL d   1      -4.558  -3.299  -1.057  0.00  0.00     0.014 A 
BRANCH  19  22
ATOM     22  O   UNL d   1      -4.467  -6.855  -0.116  0.00  0.00    -0.347 OA
BRANCH  22  23
ATOM     23  C   UNL d   1      -4.584  -7.353  -1.472  0.00  0.00     0.214 C 
BRANCH  23  24
ATOM     24  C   UNL d   1      -4.128  -8.782  -1.536  0.00  0.00    -0.034 A 
ATOM     25  C   UNL d   1      -4.967  -9.798  -2.014  0.00  0.00     0.009 A 
ATOM     26  C   UNL d   1      -4.510 -11.116  -2.065  0.00  0.00     0.001 A 
ATOM     27  C   UNL d   1      -3.216 -11.424  -1.650  0.00  0.00     0.000 A 
ATOM     28  C   UNL d   1      -2.376 -10.416  -1.180  0.00  0.00     0.001 A 
ATOM     29  C   UNL d   1      -2.827  -9.101  -1.129  0.00  0.00     0.009 A 
ENDBRANCH  23  24
ENDBRANCH  22  23
ENDBRANCH  19  22
ENDBRANCH  12  16
TORSDOF 4
