REMARK  7 active torsions:
REMARK  status: ('A' for Active; 'I' for Inactive)
REMARK    1  A    between atoms: C_10  and  N_1 
REMARK    2  A    between atoms: C_9  and  C_2 
REMARK    3  A    between atoms: C_16  and  C_8 
REMARK    4  A    between atoms: C_11  and  C_9 
REMARK    5  A    between atoms: C_13  and  C_9 
REMARK    6  A    between atoms: N_12  and  C_10 
REMARK    7  A    between atoms: N_14  and  C_13 
ROOT
ATOM      1  N   UNL d   1      -0.493   1.280  -0.046  0.00  0.00    -0.226 N 
ATOM      2  C   UNL d   1      -0.413  -1.126   0.129  0.00  0.00     0.091 C 
ATOM      3  C   UNL d   1      -1.138   0.162   0.461  0.00  0.00     0.287 C 
ATOM      4  N   UNL d   1       0.847  -1.113  -0.186  0.00  0.00    -0.339 N 
ATOM      5  HN  UNL d   1       1.341  -1.974  -0.417  1.00  0.00     0.167 HD
ATOM      6  N   UNL d   1       0.878   1.246  -0.193  0.00  0.00    -0.278 N 
ATOM      7  HN  UNL d   1       1.406   2.112  -0.297  1.00  0.00     0.189 HD
ATOM      8  C   UNL d   1       1.493   0.101  -0.197  0.00  0.00     0.131 C 
ATOM      9  O   UNL d   1      -2.191   0.169   1.074  0.00  0.00    -0.264 OA
ENDROOT
BRANCH   2  10
ATOM     10  C   UNL d   1      -1.169  -2.457   0.193  0.00  0.00     0.104 C 
BRANCH  10  11
ATOM     11  C   UNL d   1      -0.928  -3.095   1.572  0.00  0.00    -0.025 A 
ATOM     12  C   UNL d   1       0.096  -4.034   1.809  0.00  0.00     0.041 A 
ATOM     13 CL   UNL d   1       1.187  -4.555   0.575  0.00  0.00    -0.084 Cl
ATOM     14  C   UNL d   1       0.272  -4.596   3.080  0.00  0.00     0.024 A 
ATOM     15  C   UNL d   1      -0.559  -4.231   4.138  0.00  0.00     0.002 A 
ATOM     16  C   UNL d   1      -1.560  -3.291   3.931  0.00  0.00     0.001 A 
ATOM     17  C   UNL d   1      -1.736  -2.722   2.667  0.00  0.00     0.010 A 
ENDBRANCH  10  11
BRANCH  10  18
ATOM     18  C   UNL d   1      -2.686  -2.418  -0.164  0.00  0.00     0.288 C 
BRANCH  18  19
ATOM     19  N   UNL d   1      -3.124  -2.427  -1.570  0.00  0.00     0.093 N 
ATOM     20  C   UNL d   1      -4.591  -2.207  -1.652  0.00  0.00     0.298 C 
ATOM     21  C   UNL d   1      -4.993  -0.722  -1.614  0.00  0.00     0.198 C 
ATOM     22  O   UNL d   1      -4.380  -0.011  -2.695  0.00  0.00    -0.388 OA
ATOM     23  C   UNL d   1      -2.956  -0.089  -2.592  0.00  0.00     0.198 C 
ATOM     24  C   UNL d   1      -2.448  -1.542  -2.530  0.00  0.00     0.298 C 
ENDBRANCH  18  19
ENDBRANCH  10  18
ENDBRANCH   2  10
BRANCH   1  25
ATOM     25  C   UNL d   1      -1.148   2.567   0.158  0.00  0.00     0.424 C 
BRANCH  25  26
ATOM     26  N   UNL d   1      -0.550   3.645  -0.634  0.00  0.00     0.111 N 
ATOM     27  C   UNL d   1      -0.774   3.499  -2.086  0.00  0.00     0.300 C 
ATOM     28  C   UNL d   1      -2.190   3.874  -2.554  0.00  0.00     0.198 C 
ATOM     29  O   UNL d   1      -2.530   5.205  -2.149  0.00  0.00    -0.388 OA
ATOM     30  C   UNL d   1      -2.452   5.332  -0.726  0.00  0.00     0.198 C 
ATOM     31  C   UNL d   1      -1.052   4.965  -0.200  0.00  0.00     0.300 C 
ENDBRANCH  25  26
ENDBRANCH   1  25
BRANCH   8  32
ATOM     32  C   UNL d   1       2.989   0.058  -0.171  0.00  0.00     0.009 A 
ATOM     33  C   UNL d   1       3.676  -1.164  -0.142  0.00  0.00     0.015 A 
ATOM     34  C   UNL d   1       5.068  -1.188  -0.014  0.00  0.00     0.001 A 
ATOM     35  C   UNL d   1       5.782   0.006   0.083  0.00  0.00     0.000 A 
ATOM     36  C   UNL d   1       5.110   1.226   0.039  0.00  0.00     0.001 A 
ATOM     37  C   UNL d   1       3.719   1.254  -0.089  0.00  0.00     0.015 A 
ENDBRANCH   8  32
TORSDOF 7
