REMARK  2 active torsions:
REMARK  status: ('A' for Active; 'I' for Inactive)
REMARK    1  A    between atoms: C_12  and  N_6 
REMARK    2  A    between atoms: C_8  and  C_12 
ROOT
ATOM      1  O   UNL d   1      -2.329  -2.608   2.173  0.00  0.00    -0.339 OA
ATOM      2  O   UNL d   1      -2.446  -1.146   4.665  0.00  0.00    -0.346 OA
ATOM      3  C   UNL d   1      -1.516  -2.880   3.241  0.00  0.00     0.102 A 
ATOM      4  C   UNL d   1      -3.097  -1.399   2.312  0.00  0.00     0.181 C 
ATOM      5  C   UNL d   1      -1.562  -2.170   4.442  0.00  0.00     0.102 A 
ATOM      6  C   UNL d   1      -3.556  -1.233   3.764  0.00  0.00     0.210 C 
ATOM      7  C   UNL d   1      -0.599  -3.917   3.077  0.00  0.00     0.039 A 
ATOM      8  C   UNL d   1      -0.670  -2.477   5.468  0.00  0.00     0.039 A 
ATOM      9  C   UNL d   1       0.288  -4.232   4.108  0.00  0.00     0.003 A 
ATOM     10  C   UNL d   1       0.253  -3.511   5.303  0.00  0.00     0.003 A 
ENDROOT
BRANCH   4  11
ATOM     11  C   UNL d   1      -2.311  -0.155   1.810  0.00  0.00     0.306 C 
BRANCH  11  12
ATOM     12  N   UNL d   1      -2.110  -0.058   0.343  0.00  0.00     0.092 N 
ATOM     13  C   UNL d   1      -1.506   1.228  -0.057  0.00  0.00     0.287 C 
ATOM     14  C   UNL d   1      -0.072   1.444   0.397  0.00  0.00     0.170 C 
ATOM     15  S   UNL d   1       0.982   0.134  -0.172  0.00  0.00     0.147 S 
ATOM     16  C   UNL d   1       0.056  -1.332   0.202  0.00  0.00     0.170 C 
ATOM     17  O   UNL d   1       2.171   0.133   0.659  0.00  0.00    -0.228 OA
ATOM     18  O   UNL d   1       1.097   0.242  -1.615  0.00  0.00    -0.228 OA
ATOM     19  C   UNL d   1      -1.379  -1.180  -0.269  0.00  0.00     0.287 C 
ENDBRANCH  11  12
ENDBRANCH   4  11
TORSDOF 2
