REMARK  4 active torsions:
REMARK  status: ('A' for Active; 'I' for Inactive)
REMARK    1  A    between atoms: C_2  and  C_1 
REMARK    2  A    between atoms: C_3  and  C_1 
REMARK    3  A    between atoms: S_5  and  C_3 
REMARK    4  A    between atoms: C_11  and  S_5 
ROOT
ATOM      1  C   UNL d   1       0.940  -0.018   0.236  0.00  0.00     0.173 C 
ATOM      2  O   UNL d   1       0.217   0.576   1.038  0.00  0.00    -0.291 OA
ENDROOT
BRANCH   1   3
ATOM      3  C   UNL d   1       2.421   0.077   0.428  0.00  0.00     0.013 A 
ATOM      4  C   UNL d   1       3.334  -0.118  -0.614  0.00  0.00     0.039 A 
ATOM      5  C   UNL d   1       4.710  -0.078  -0.356  0.00  0.00     0.040 A 
ATOM      6 CL   UNL d   1       5.784  -0.346  -1.684  0.00  0.00    -0.084 Cl
ATOM      7  C   UNL d   1       5.197   0.164   0.939  0.00  0.00    -0.040 A 
ATOM      8  C   UNL d   1       4.274   0.390   1.968  0.00  0.00     0.009 A 
ATOM      9  C   UNL d   1       6.668   0.161   1.251  0.00  0.00     0.050 C 
ATOM     10  C   UNL d   1       2.901   0.355   1.713  0.00  0.00     0.016 A 
ENDBRANCH   1   3
BRANCH   1  11
ATOM     11  C   UNL d   1       0.372  -0.828  -0.923  0.00  0.00     0.123 C 
ATOM     12  C   UNL d   1      -1.136  -0.652  -1.083  0.00  0.00     0.030 C 
BRANCH  11  13
ATOM     13  S   UNL d   1       0.813  -2.615  -0.795  0.00  0.00    -0.117 SA
BRANCH  13  14
ATOM     14  C   UNL d   1       0.208  -3.064   0.824  0.00  0.00     0.001 A 
ATOM     15  C   UNL d   1      -1.077  -3.597   0.978  0.00  0.00     0.020 A 
ATOM     16  C   UNL d   1      -1.505  -4.063   2.224  0.00  0.00     0.025 A 
ATOM     17  C   UNL d   1      -0.645  -4.005   3.320  0.00  0.00     0.034 A 
ATOM     18  C   UNL d   1       0.634  -3.476   3.180  0.00  0.00     0.025 A 
ATOM     19 CL   UNL d   1      -1.155  -4.620   4.845  0.00  0.00    -0.084 Cl
ATOM     20  C   UNL d   1       1.063  -3.014   1.931  0.00  0.00     0.020 A 
ENDBRANCH  13  14
ENDBRANCH  11  13
ENDBRANCH   1  11
TORSDOF 4
