REMARK  3 active torsions:
REMARK  status: ('A' for Active; 'I' for Inactive)
REMARK    1  A    between atoms: C_11  and  N_3 
REMARK    2  A    between atoms: C_14  and  C_9 
REMARK    3  A    between atoms: C_12  and  C_11 
ROOT
ATOM      1  C   UNL d   1      -0.246   0.647  -0.005  0.00  0.00     0.067 A 
ATOM      2  C   UNL d   1      -0.120  -0.717   0.098  0.00  0.00     0.091 A 
ATOM      3  N   UNL d   1       2.137   0.700   0.014  0.00  0.00    -0.305 N 
ATOM      4  C   UNL d   1       0.962   1.446  -0.072  0.00  0.00     0.261 A 
ATOM      5  N   UNL d   1       1.040  -1.416   0.155  0.00  0.00    -0.346 N 
ATOM      6  HN  UNL d   1       1.071  -2.433   0.224  1.00  0.00     0.167 HD
ATOM      7  C   UNL d   1      -1.610   1.065  -0.028  0.00  0.00     0.039 A 
ATOM      8  S   UNL d   1      -1.634  -1.490   0.137  0.00  0.00    -0.071 SA
ATOM      9  C   UNL d   1      -2.495   0.002   0.062  0.00  0.00     0.018 A 
ATOM     10  C   UNL d   1       2.105  -0.680   0.115  0.00  0.00     0.187 A 
ATOM     11  O   UNL d   1       0.924   2.666  -0.206  0.00  0.00    -0.267 OA
ENDROOT
BRANCH   3  12
ATOM     12  C   UNL d   1       3.419   1.392  -0.033  0.00  0.00     0.173 C 
BRANCH  12  13
ATOM     13  C   UNL d   1       3.911   1.789   1.344  0.00  0.00    -0.018 A 
ATOM     14  C   UNL d   1       4.808   1.016   2.099  0.00  0.00     0.042 A 
ATOM     15 CL   UNL d   1       5.514  -0.439   1.491  0.00  0.00    -0.084 Cl
ATOM     16  C   UNL d   1       5.182   1.411   3.388  0.00  0.00     0.024 A 
ATOM     17  C   UNL d   1       4.676   2.587   3.939  0.00  0.00     0.002 A 
ATOM     18  C   UNL d   1       3.803   3.376   3.199  0.00  0.00     0.001 A 
ATOM     19  C   UNL d   1       3.423   2.981   1.915  0.00  0.00     0.010 A 
ENDBRANCH  12  13
ENDBRANCH   3  12
BRANCH   9  20
ATOM     20  C   UNL d   1      -3.969   0.024   0.072  0.00  0.00    -0.019 A 
ATOM     21  C   UNL d   1      -4.665   1.020  -0.634  0.00  0.00     0.013 A 
ATOM     22  C   UNL d   1      -6.062   1.069  -0.622  0.00  0.00     0.001 A 
ATOM     23  C   UNL d   1      -6.788   0.123   0.096  0.00  0.00     0.000 A 
ATOM     24  C   UNL d   1      -6.118  -0.872   0.803  0.00  0.00     0.001 A 
ATOM     25  C   UNL d   1      -4.721  -0.918   0.792  0.00  0.00     0.013 A 
ENDBRANCH   9  20
TORSDOF 3
