REMARK  3 active torsions:
REMARK  status: ('A' for Active; 'I' for Inactive)
REMARK       I    between atoms: C_9  and  N_1 
REMARK    1  A    between atoms: C_10  and  C_2 
REMARK    2  A    between atoms: C_11  and  C_5 
REMARK    3  A    between atoms: C_14  and  C_9 
ROOT
ATOM      1  N   UNL d   1      -0.873  -1.413  -0.775  0.00  0.00    -0.306 N 
ATOM      2  C   UNL d   1      -2.144  -1.236  -0.020  0.00  0.00     0.131 C 
ATOM      3  N   UNL d   1      -0.821   1.524  -0.597  0.00  0.00    -0.357 N 
ATOM      4  HN  UNL d   1      -0.686   2.316  -1.225  1.00  0.00     0.166 HD
ATOM      5  C   UNL d   1      -2.004   1.263  -0.129  0.00  0.00     0.022 C 
ATOM      6  C   UNL d   1      -2.268   0.076   0.786  0.00  0.00     0.088 C 
ATOM      7  C   UNL d   1       0.273  -0.692  -0.296  0.00  0.00     0.064 A 
ATOM      8  C   UNL d   1       0.274   0.717  -0.241  0.00  0.00     0.059 A 
ATOM      9  C   UNL d   1      -0.707  -2.556  -1.576  0.00  0.00     0.224 C 
ATOM     10  O   UNL d   1      -1.490  -3.509  -1.573  0.00  0.00    -0.273 OA
ATOM     11  C   UNL d   1       1.429  -1.393   0.095  0.00  0.00     0.032 A 
ATOM     12  C   UNL d   1       1.460   1.378   0.101  0.00  0.00     0.032 A 
ATOM     13  C   UNL d   1       2.599  -0.718   0.435  0.00  0.00     0.002 A 
ATOM     14  C   UNL d   1       2.620   0.672   0.421  0.00  0.00     0.002 A 
ENDROOT
BRANCH   2  15
ATOM     15  C   UNL d   1      -3.418  -1.408  -0.857  0.00  0.00    -0.035 A 
ATOM     16  C   UNL d   1      -4.557  -1.986  -0.262  0.00  0.00     0.009 A 
ATOM     17  C   UNL d   1      -5.733  -2.163  -0.994  0.00  0.00     0.001 A 
ATOM     18  C   UNL d   1      -5.789  -1.766  -2.325  0.00  0.00     0.000 A 
ATOM     19  C   UNL d   1      -4.676  -1.176  -2.925  0.00  0.00     0.001 A 
ATOM     20  C   UNL d   1      -3.502  -0.989  -2.192  0.00  0.00     0.009 A 
ENDBRANCH   2  15
BRANCH   9  21
ATOM     21  C   UNL d   1       0.511  -2.556  -2.507  0.00  0.00     0.099 C 
ATOM     22  C   UNL d   1       0.230  -3.176  -3.863  0.00  0.00     0.014 C 
ENDBRANCH   9  21
BRANCH   5  23
ATOM     23  C   UNL d   1      -3.145   2.129  -0.562  0.00  0.00    -0.013 A 
ATOM     24  C   UNL d   1      -4.272   2.350   0.235  0.00  0.00     0.013 A 
ATOM     25  C   UNL d   1      -5.329   3.127  -0.248  0.00  0.00     0.001 A 
ATOM     26  C   UNL d   1      -5.263   3.692  -1.522  0.00  0.00     0.000 A 
ATOM     27  C   UNL d   1      -4.132   3.498  -2.311  0.00  0.00     0.001 A 
ATOM     28  C   UNL d   1      -3.074   2.726  -1.830  0.00  0.00     0.013 A 
ENDBRANCH   5  23
TORSDOF 3
