REMARK  6 active torsions:
REMARK  status: ('A' for Active; 'I' for Inactive)
REMARK    1  A    between atoms: C_2  and  C_1 
REMARK       I    between atoms: N_9  and  C_2 
REMARK    2  A    between atoms: O_7  and  C_3 
REMARK    3  A    between atoms: C_4  and  C_12 
REMARK    4  A    between atoms: N_5  and  N_9 
REMARK    5  A    between atoms: C_15  and  O_7 
REMARK    6  A    between atoms: O_18  and  C_8 
ROOT
ATOM      1  C   UNL d   1       2.870  -0.012  -0.695  0.00  0.00     0.272 C 
ATOM      2  N   UNL d   1       3.678   0.803   0.094  0.00  0.00    -0.266 N 
ATOM      3  O   UNL d   1       3.251  -0.676  -1.651  0.00  0.00    -0.266 OA
ATOM      4  H   UNL d   1       3.300   1.280   0.906  0.00  0.00     0.190 HD
ENDROOT
BRANCH   1   5
ATOM      5  C   UNL d   1       1.438  -0.016  -0.312  0.00  0.00     0.067 A 
ATOM      6  C   UNL d   1       0.703  -1.191  -0.085  0.00  0.00     0.091 A 
ATOM      7  C   UNL d   1      -0.683  -1.094   0.123  0.00  0.00     0.038 A 
ATOM      8  C   UNL d   1      -1.324   0.144   0.143  0.00  0.00     0.003 A 
ATOM      9  C   UNL d   1      -0.588   1.309  -0.045  0.00  0.00     0.001 A 
ATOM     10  C   UNL d   1       0.787   1.231  -0.273  0.00  0.00     0.020 A 
BRANCH   6  11
ATOM     11  O   UNL d   1       1.145  -2.490  -0.154  0.00  0.00    -0.310 OA
BRANCH  11  12
ATOM     12  C   UNL d   1       2.342  -2.886   0.388  0.00  0.00     0.076 A 
ATOM     13  C   UNL d   1       2.984  -2.288   1.472  0.00  0.00     0.037 A 
ATOM     14  C   UNL d   1       4.239  -2.751   1.877  0.00  0.00     0.003 A 
ATOM     15  C   UNL d   1       4.821  -3.850   1.244  0.00  0.00     0.000 A 
ATOM     16  C   UNL d   1       4.141  -4.504   0.220  0.00  0.00     0.003 A 
ATOM     17  C   UNL d   1       2.904  -4.022  -0.204  0.00  0.00     0.037 A 
ENDBRANCH  11  12
ENDBRANCH   6  11
ENDBRANCH   1   5
BRANCH   2  18
ATOM     18  N   UNL d   1       5.021   0.779  -0.106  0.00  0.00    -0.308 N 
ATOM     19  C   UNL d   1       5.759   1.454   0.717  0.00  0.00     0.121 C 
ATOM     20  HN  UNL d   1       5.433   0.250  -0.875  1.00  0.00     0.186 HD
BRANCH  19  21
ATOM     21  C   UNL d   1       7.232   1.385   0.612  0.00  0.00     0.015 A 
ATOM     22  C   UNL d   1       7.868   0.668  -0.410  0.00  0.00     0.077 A 
ATOM     23  C   UNL d   1       9.257   0.567  -0.441  0.00  0.00     0.039 A 
ATOM     24  C   UNL d   1      10.023   1.177   0.552  0.00  0.00     0.022 A 
ATOM     25  C   UNL d   1       9.391   1.900   1.564  0.00  0.00     0.011 A 
ATOM     26  C   UNL d   1       7.999   2.016   1.599  0.00  0.00     0.034 A 
ATOM     27 BR   UNL d   1      10.431   2.716   2.916  0.00  0.00    -0.051 Br
BRANCH  22  28
ATOM     28  O   UNL d   1       7.197   0.026  -1.414  0.00  0.00    -0.360 OA
ATOM     29  H   UNL d   1       6.228   0.089  -1.242  0.00  0.00     0.217 HD
ENDBRANCH  22  28
ENDBRANCH  19  21
ENDBRANCH   2  18
TORSDOF 6
