REMARK  3 active torsions:
REMARK  status: ('A' for Active; 'I' for Inactive)
REMARK    1  A    between atoms: C_6  and  C_1 
REMARK    2  A    between atoms: O_10  and  C_1 
REMARK    3  A    between atoms: C_11  and  C_6 
ROOT
ATOM      1  C   UNL d   1      -1.915   0.954   0.159  0.00  0.00     0.171 A 
ATOM      2  C   UNL d   1      -2.450  -0.527   0.190  0.00  0.00     0.262 A 
ATOM      3  N   UNL d   1      -1.350  -1.367   0.078  0.00  0.00    -0.324 N 
ATOM      4  C   UNL d   1      -0.422   0.715   0.044  0.00  0.00     0.012 A 
ATOM      5  C   UNL d   1      -0.166  -0.655   0.010  0.00  0.00     0.044 A 
ATOM      6  O   UNL d   1      -3.594  -0.919   0.348  0.00  0.00    -0.269 OA
ATOM      7  C   UNL d   1       0.625   1.623   0.016  0.00  0.00     0.013 A 
ATOM      8  C   UNL d   1       1.111  -1.173  -0.046  0.00  0.00     0.030 A 
ATOM      9  C   UNL d   1       1.928   1.121  -0.042  0.00  0.00     0.001 A 
ATOM     10  C   UNL d   1       2.170  -0.264  -0.071  0.00  0.00     0.002 A 
ATOM     11  H   UNL d   1      -1.433  -2.374   0.102  0.00  0.00     0.169 HD
ENDROOT
BRANCH   1  12
ATOM     12  C   UNL d   1      -2.468   1.733  -1.052  0.00  0.00     0.091 C 
BRANCH  12  13
ATOM     13  C   UNL d   1      -3.977   1.861  -1.096  0.00  0.00    -0.052 A 
ATOM     14  C   UNL d   1      -4.673   2.555  -0.103  0.00  0.00     0.024 A 
ATOM     15  C   UNL d   1      -6.058   2.607  -0.166  0.00  0.00     0.088 A 
ATOM     16  N   UNL d   1      -6.788   2.043  -1.151  0.00  0.00    -0.375 N 
ATOM     17  C   UNL d   1      -6.099   1.385  -2.106  0.00  0.00     0.088 A 
ATOM     18  HN  UNL d   1      -7.806   2.110  -1.171  1.00  0.00     0.164 HD
ATOM     19  C   UNL d   1      -4.715   1.274  -2.128  0.00  0.00     0.024 A 
ENDBRANCH  12  13
ENDBRANCH   1  12
BRANCH   1  20
ATOM     20  O   UNL d   1      -2.134   1.667   1.372  0.00  0.00    -0.375 OA
ATOM     21  H   UNL d   1      -1.755   1.128   2.087  0.00  0.00     0.211 HD
ENDBRANCH   1  20
TORSDOF 3
