REMARK  10 active torsions:
REMARK  status: ('A' for Active; 'I' for Inactive)
REMARK    1  A    between atoms: C_11  and  N_2 
REMARK    2  A    between atoms: N_16  and  C_9 
REMARK    3  A    between atoms: C_12  and  C_11 
REMARK    4  A    between atoms: N_17  and  N_16 
REMARK    5  A    between atoms: C_20  and  C_27 
REMARK    6  A    between atoms: O_34  and  C_20 
REMARK    7  A    between atoms: C_31  and  C_25 
REMARK    8  A    between atoms: O_26  and  C_30 
REMARK    9  A    between atoms: C_27  and  O_26 
REMARK   10  A    between atoms: C_39  and  O_34 
ROOT
ATOM      1  C   UNL d   1      -0.265  -0.866   0.022  0.00  0.00     0.160 A 
ATOM      2  N   UNL d   1       1.857   0.834   0.034  0.00  0.00    -0.260 N 
ATOM      3  C   UNL d   1      -0.479   0.478  -0.011  0.00  0.00     0.164 A 
ATOM      4  N   UNL d   1      -1.429  -1.571   0.006  0.00  0.00    -0.172 N 
ATOM      5  HN  UNL d   1      -1.539  -2.585   0.004  1.00  0.00     0.186 HD
ATOM      6  N   UNL d   1       1.001  -1.398   0.076  0.00  0.00    -0.287 N 
ATOM      7  C   UNL d   1       2.104  -0.544   0.130  0.00  0.00     0.333 A 
ATOM      8  C   UNL d   1       0.591   1.427  -0.031  0.00  0.00     0.283 A 
ATOM      9  C   UNL d   1      -2.386  -0.663  -0.008  0.00  0.00     0.701 A 
ATOM     10  N   UNL d   1      -1.844   0.616  -0.021  0.00  0.00    -0.177 N 
ATOM     11  O   UNL d   1       3.250  -0.989   0.243  0.00  0.00    -0.246 OA
ATOM     12  O   UNL d   1       0.419   2.637  -0.108  0.00  0.00    -0.265 OA
ATOM     13  C   UNL d   1       1.235  -2.826   0.091  0.00  0.00     0.163 C 
ATOM     14  C   UNL d   1      -2.582   1.856  -0.016  0.00  0.00     0.176 C 
ENDROOT
BRANCH   9  15
ATOM     15  N   UNL d   1      -3.719  -0.929  -0.001  0.00  0.00    -0.132 N 
ATOM     16  H   UNL d   1      -3.961  -1.919   0.030  0.00  0.00     0.205 HD
BRANCH  15  17
ATOM     17  N   UNL d   1      -4.690   0.010   0.070  0.00  0.00    -0.297 N 
ATOM     18  C   UNL d   1      -5.921  -0.387   0.117  0.00  0.00     0.119 C 
ATOM     19  HN  UNL d   1      -4.458   1.003   0.087  1.00  0.00     0.186 HD
BRANCH  18  20
ATOM     20  C   UNL d   1      -7.009   0.616   0.200  0.00  0.00    -0.019 A 
ATOM     21  C   UNL d   1      -6.683   1.973   0.274  0.00  0.00     0.015 A 
ATOM     22  C   UNL d   1      -7.688   2.932   0.361  0.00  0.00     0.037 A 
ATOM     23  C   UNL d   1      -9.029   2.551   0.353  0.00  0.00     0.069 A 
ATOM     24  C   UNL d   1      -9.362   1.196   0.286  0.00  0.00     0.037 A 
ATOM     25  C   UNL d   1      -8.351   0.224   0.212  0.00  0.00     0.015 A 
BRANCH  23  26
ATOM     26  O   UNL d   1      -9.899   3.592   0.482  0.00  0.00    -0.342 OA
BRANCH  26  27
ATOM     27  C   UNL d   1     -11.188   3.438  -0.095  0.00  0.00     0.286 C 
BRANCH  27  28
ATOM     28  C   UNL d   1     -12.003   4.694   0.174  0.00  0.00     0.283 C 
ATOM     29  O   UNL d   1     -11.620   5.685   0.782  0.00  0.00    -0.263 OA
BRANCH  28  30
ATOM     30  O   UNL d   1     -13.272   4.511  -0.298  0.00  0.00    -0.320 OA
BRANCH  30  31
ATOM     31  C   UNL d   1     -14.254   5.424   0.215  0.00  0.00     0.174 C 
ATOM     32  C   UNL d   1     -14.837   4.819   1.480  0.00  0.00     0.034 C 
ENDBRANCH  30  31
ENDBRANCH  28  30
ENDBRANCH  27  28
ENDBRANCH  26  27
ENDBRANCH  23  26
ENDBRANCH  18  20
ENDBRANCH  15  17
ENDBRANCH   9  15
BRANCH   2  33
ATOM     33  C   UNL d   1       3.019   1.721   0.017  0.00  0.00     0.177 C 
BRANCH  33  34
ATOM     34  C   UNL d   1       3.624   1.988  -1.357  0.00  0.00    -0.018 A 
ATOM     35  C   UNL d   1       4.772   2.799  -1.478  0.00  0.00     0.043 A 
ATOM     36  C   UNL d   1       5.310   3.115  -2.730  0.00  0.00     0.048 A 
ATOM     37 CL   UNL d   1       5.573   3.451  -0.089  0.00  0.00    -0.084 Cl
ATOM     38  C   UNL d   1       4.712   2.618  -3.882  0.00  0.00     0.035 A 
ATOM     39  C   UNL d   1       3.597   1.792  -3.792  0.00  0.00     0.024 A 
ATOM     40 CL   UNL d   1       5.345   3.036  -5.426  0.00  0.00    -0.084 Cl
ATOM     41  C   UNL d   1       3.057   1.478  -2.540  0.00  0.00     0.012 A 
ENDBRANCH  33  34
ENDBRANCH   2  33
TORSDOF 10
