REMARK  8 active torsions:
REMARK  status: ('A' for Active; 'I' for Inactive)
REMARK    1  A    between atoms: C_14  and  N_1 
REMARK    2  A    between atoms: S_10  and  C_2 
REMARK    3  A    between atoms: C_17  and  C_3 
REMARK    4  A    between atoms: C_21  and  S_10 
REMARK    5  A    between atoms: C_11  and  C_15 
REMARK    6  A    between atoms: C_15  and  C_21 
REMARK    7  A    between atoms: C_16  and  O_18 
REMARK    8  A    between atoms: O_18  and  C_17 
ROOT
ATOM      1  N   UNL d   1      -0.331  -1.313  -0.081  0.00  0.00    -0.277 N 
ATOM      2  C   UNL d   1       0.913  -0.684  -0.110  0.00  0.00     0.168 A 
ATOM      3  C   UNL d   1      -1.235  -0.246  -0.021  0.00  0.00     0.129 A 
ATOM      4  N   UNL d   1       0.779   0.613   0.024  0.00  0.00    -0.278 N 
ATOM      5  HN  UNL d   1       1.535   1.295   0.074  1.00  0.00     0.189 HD
ATOM      6  N   UNL d   1      -0.557   0.886   0.083  0.00  0.00    -0.285 N 
ATOM      7  HN  UNL d   1      -0.967   1.814   0.190  1.00  0.00     0.188 HD
ENDROOT
BRANCH   2   8
ATOM      8  S   UNL d   1       2.416  -1.467  -0.501  0.00  0.00    -0.084 SA
BRANCH   8   9
ATOM      9  C   UNL d   1       3.622  -0.125  -0.307  0.00  0.00     0.166 C 
BRANCH   9  10
ATOM     10  C   UNL d   1       5.037  -0.621  -0.597  0.00  0.00     0.169 C 
ATOM     11  O   UNL d   1       5.329  -1.805  -0.764  0.00  0.00    -0.291 OA
BRANCH  10  12
ATOM     12  C   UNL d   1       6.146   0.380  -0.675  0.00  0.00     0.014 A 
ATOM     13  C   UNL d   1       5.964   1.732  -0.359  0.00  0.00     0.060 A 
ATOM     14  C   UNL d   1       7.038   2.612  -0.472  0.00  0.00     0.155 A 
ATOM     15  F   UNL d   1       6.853   3.905  -0.176  0.00  0.00    -0.203 F 
ATOM     16  C   UNL d   1       8.290   2.167  -0.889  0.00  0.00     0.154 A 
ATOM     17  C   UNL d   1       8.488   0.826  -1.190  0.00  0.00     0.046 A 
ATOM     18  F   UNL d   1       9.309   3.027  -1.001  0.00  0.00    -0.203 F 
ATOM     19  C   UNL d   1       7.420  -0.065  -1.080  0.00  0.00     0.018 A 
ENDBRANCH  10  12
ENDBRANCH   9  10
ENDBRANCH   8   9
ENDBRANCH   2   8
BRANCH   1  20
ATOM     20  C   UNL d   1      -0.594  -2.717  -0.100  0.00  0.00     0.043 A 
ATOM     21  C   UNL d   1       0.272  -3.604   0.561  0.00  0.00     0.030 A 
ATOM     22  C   UNL d   1       0.089  -4.987   0.467  0.00  0.00     0.002 A 
ATOM     23  C   UNL d   1      -0.980  -5.495  -0.259  0.00  0.00     0.000 A 
ATOM     24  C   UNL d   1      -1.872  -4.624  -0.882  0.00  0.00     0.002 A 
ATOM     25  C   UNL d   1      -1.681  -3.238  -0.812  0.00  0.00     0.030 A 
ENDBRANCH   1  20
BRANCH   3  26
ATOM     26  C   UNL d   1      -2.724  -0.320   0.094  0.00  0.00     0.254 C 
BRANCH  26  27
ATOM     27  O   UNL d   1      -3.270   0.185  -1.132  0.00  0.00    -0.343 OA
BRANCH  27  28
ATOM     28  C   UNL d   1      -4.630   0.332  -1.201  0.00  0.00     0.076 A 
ATOM     29  C   UNL d   1      -5.138   0.995  -2.318  0.00  0.00    -0.018 A 
ATOM     30  C   UNL d   1      -6.517   1.157  -2.509  0.00  0.00    -0.043 A 
ATOM     31  C   UNL d   1      -4.360   1.622  -3.431  0.00  0.00     0.042 A 
ATOM     32  C   UNL d   1      -6.821   1.889  -3.778  0.00  0.00     0.040 A 
ATOM     33  C   UNL d   1      -7.437   0.665  -1.588  0.00  0.00    -0.055 A 
ATOM     34  C   UNL d   1      -5.438   2.196  -4.363  0.00  0.00     0.009 A 
ATOM     35  C   UNL d   1      -6.933   0.015  -0.456  0.00  0.00     0.010 A 
ATOM     36  C   UNL d   1      -8.913   0.823  -1.796  0.00  0.00     0.049 C 
ATOM     37  C   UNL d   1      -5.548  -0.149  -0.264  0.00  0.00     0.038 A 
ENDBRANCH  27  28
ENDBRANCH  26  27
ENDBRANCH   3  26
TORSDOF 8
