REMARK  3 active torsions:
REMARK  status: ('A' for Active; 'I' for Inactive)
REMARK    1  A    between atoms: C_4  and  N_1 
REMARK    2  A    between atoms: N_2  and  C_12 
REMARK    3  A    between atoms: C_13  and  C_7 
ROOT
ATOM      1  C   UNL d   1      -0.213  -9.211   3.086  0.00  0.00     0.038 A 
ATOM      2  C   UNL d   1      -0.579  -9.754   1.848  0.00  0.00     0.032 A 
ATOM      3  C   UNL d   1      -0.357  -7.832   3.279  0.00  0.00     0.032 A 
ATOM      4  C   UNL d   1      -1.128  -7.538   0.986  0.00  0.00     0.032 A 
ATOM      5  C   UNL d   1      -0.853  -7.018   2.253  0.00  0.00     0.031 A 
ATOM      6  C   UNL d   1      -1.022  -8.919   0.813  0.00  0.00     0.031 A 
ENDROOT
BRANCH   4   7
ATOM      7  N   UNL d   1      -1.567  -6.775  -0.106  0.00  0.00    -0.365 N 
ATOM      8  C   UNL d   1      -1.090  -5.613  -0.441  0.00  0.00     0.099 C 
ATOM      9  HN  UNL d   1      -2.316  -7.162  -0.680  1.00  0.00     0.165 HD
BRANCH   8  10
ATOM     10  C   UNL d   1      -0.010  -4.821   0.177  0.00  0.00    -0.021 A 
ATOM     11  C   UNL d   1       1.204  -5.392   0.571  0.00  0.00     0.016 A 
ATOM     12  C   UNL d   1       2.121  -4.631   1.297  0.00  0.00     0.043 A 
ATOM     13  C   UNL d   1       1.830  -3.300   1.586  0.00  0.00     0.116 A 
ATOM     14  C   UNL d   1       0.653  -2.706   1.137  0.00  0.00     0.043 A 
ATOM     15  F   UNL d   1       2.692  -2.581   2.317  0.00  0.00    -0.206 F 
ATOM     16  C   UNL d   1      -0.272  -3.466   0.423  0.00  0.00     0.016 A 
ENDBRANCH   8  10
ENDBRANCH   4   7
BRANCH   1  17
ATOM     17  N   UNL d   1       0.280 -10.044   4.138  0.00  0.00    -0.333 N 
ATOM     18  C   UNL d   1       0.327 -11.427   4.144  0.00  0.00     0.096 A 
ATOM     19  C   UNL d   1       0.831 -11.864   5.353  0.00  0.00     0.019 A 
ATOM     20  C   UNL d   1       1.136 -10.719   6.111  0.00  0.00     0.019 A 
ATOM     21  C   UNL d   1       0.803  -9.624   5.348  0.00  0.00     0.096 A 
ENDBRANCH   1  17
TORSDOF 3
