REMARK  6 active torsions:
REMARK  status: ('A' for Active; 'I' for Inactive)
REMARK    1  A    between atoms: N_2  and  C_1 
REMARK    2  A    between atoms: N_4  and  C_3 
REMARK    3  A    between atoms: C_14  and  C_11 
REMARK    4  A    between atoms: C_12  and  C_14 
REMARK    5  A    between atoms: C_18  and  C_12 
REMARK    6  A    between atoms: O_17  and  C_18 
ROOT
ATOM      1  N   UNL d   1      -3.091   2.378  -2.569  0.00  0.00    -0.197 NA
ATOM      2  C   UNL d   1      -2.333   2.848  -1.830  0.00  0.00     0.066 C 
ATOM      3  C   UNL d   1      -1.397   3.467  -0.875  0.00  0.00     0.120 C 
ENDROOT
BRANCH   3   4
ATOM      4  C   UNL d   1      -1.201   2.581   0.365  0.00  0.00     0.060 C 
BRANCH   4   5
ATOM      5  C   UNL d   1      -0.554   1.239   0.118  0.00  0.00    -0.054 A 
ATOM      6  C   UNL d   1       0.830   1.103   0.058  0.00  0.00     0.045 A 
ATOM      7  C   UNL d   1       1.420  -0.183  -0.023  0.00  0.00     0.129 A 
ATOM      8  C   UNL d   1       0.676  -1.385  -0.024  0.00  0.00     0.063 A 
ATOM      9  C   UNL d   1      -0.722  -1.184  -0.045  0.00  0.00     0.032 A 
ATOM     10  C   UNL d   1      -1.326   0.085   0.010  0.00  0.00     0.009 A 
BRANCH   7  11
ATOM     11  N   UNL d   1       2.864  -0.166  -0.162  0.00  0.00    -0.113 N 
ATOM     12  O   UNL d   1       3.348  -0.609  -1.212  0.00  0.00    -0.532 OA
ATOM     13  O   UNL d   1       3.512   0.343   0.766  0.00  0.00    -0.532 OA
ENDBRANCH   7  11
BRANCH   8  14
ATOM     14  N   UNL d   1       1.160  -2.687   0.097  0.00  0.00    -0.379 N 
ATOM     15  C   UNL d   1       0.521  -3.799  -0.634  0.00  0.00     0.123 C 
ATOM     16  C   UNL d   1       0.423  -5.025   0.278  0.00  0.00     0.020 C 
ATOM     17  C   UNL d   1       1.799  -5.426   0.800  0.00  0.00     0.003 C 
ATOM     18  C   UNL d   1       2.467  -4.245   1.492  0.00  0.00     0.020 C 
ATOM     19  C   UNL d   1       2.506  -3.003   0.601  0.00  0.00     0.123 C 
ENDBRANCH   8  14
ENDBRANCH   4   5
ENDBRANCH   3   4
BRANCH   3  20
ATOM     20  C   UNL d   1      -1.958   4.835  -0.460  0.00  0.00     0.183 C 
BRANCH  20  21
ATOM     21  O   UNL d   1      -1.037   5.511   0.392  0.00  0.00    -0.400 OA
ATOM     22  H   UNL d   1      -1.443   6.362   0.640  0.00  0.00     0.209 HD
ENDBRANCH  20  21
ENDBRANCH   3  20
TORSDOF 6
