REMARK  3 active torsions:
REMARK  status: ('A' for Active; 'I' for Inactive)
REMARK    1  A    between atoms: N_4  and  C_1 
REMARK    2  A    between atoms: C_8  and  C_2 
REMARK    3  A    between atoms: C_11  and  C_3 
ROOT
ATOM      1  C   UNL d   1       0.279  -1.266   0.034  0.00  0.00     0.147 A 
ATOM      2  C   UNL d   1       1.321   0.705  -0.056  0.00  0.00     0.147 A 
ATOM      3  C   UNL d   1       1.546  -0.714  -0.100  0.00  0.00     0.053 A 
ATOM      4  N   UNL d   1      -0.001   0.983  -0.002  0.00  0.00    -0.292 N 
ATOM      5  HN  UNL d   1      -0.445   1.901   0.004  1.00  0.00     0.187 HD
ATOM      6  N   UNL d   1      -0.599  -0.217   0.043  0.00  0.00    -0.279 N 
ATOM      7  C   UNL d   1      -2.041  -0.289   0.021  0.00  0.00     0.179 C 
ENDROOT
BRANCH   1   8
ATOM      8  N   UNL d   1      -0.042  -2.619   0.169  0.00  0.00    -0.234 N 
ATOM      9  C   UNL d   1      -0.334  -3.090   1.499  0.00  0.00     0.241 C 
ATOM     10  O   UNL d   1      -0.425  -2.265   2.403  0.00  0.00    -0.272 OA
ATOM     11  C   UNL d   1      -0.373  -4.569   1.774  0.00  0.00     0.178 C 
ATOM     12  S   UNL d   1      -1.193  -5.463   0.443  0.00  0.00    -0.150 SA
ATOM     13  C   UNL d   1      -0.089  -4.942  -0.887  0.00  0.00     0.178 C 
ATOM     14  C   UNL d   1      -0.012  -3.439  -1.012  0.00  0.00     0.241 C 
ATOM     15  O   UNL d   1       0.129  -2.893  -2.101  0.00  0.00    -0.272 OA
ENDBRANCH   1   8
BRANCH   3  16
ATOM     16  C   UNL d   1       2.790  -1.471  -0.226  0.00  0.00    -0.020 A 
ATOM     17  C   UNL d   1       3.062  -2.582   0.585  0.00  0.00     0.012 A 
ATOM     18  C   UNL d   1       4.243  -3.314   0.428  0.00  0.00     0.001 A 
ATOM     19  C   UNL d   1       5.189  -2.916  -0.511  0.00  0.00     0.000 A 
ATOM     20  C   UNL d   1       4.948  -1.796  -1.303  0.00  0.00     0.001 A 
ATOM     21  C   UNL d   1       3.748  -1.090  -1.175  0.00  0.00     0.012 A 
ENDBRANCH   3  16
BRANCH   2  22
ATOM     22  C   UNL d   1       2.342   1.817  -0.059  0.00  0.00     0.434 C 
ATOM     23  F   UNL d   1       3.585   1.390   0.291  0.00  0.00    -0.165 F 
ATOM     24  F   UNL d   1       2.460   2.388  -1.287  0.00  0.00    -0.165 F 
ATOM     25  F   UNL d   1       2.030   2.812   0.816  0.00  0.00    -0.165 F 
ENDBRANCH   2  22
TORSDOF 3
