REMARK  4 active torsions:
REMARK  status: ('A' for Active; 'I' for Inactive)
REMARK    1  A    between atoms: C_2  and  C_1 
REMARK       I    between atoms: C_3  and  N_5 
REMARK       I    between atoms: N_6  and  C_3 
REMARK    2  A    between atoms: N_5  and  C_4 
REMARK    3  A    between atoms: C_16  and  N_6 
REMARK    4  A    between atoms: C_15  and  C_16 
ROOT
ATOM      1  C   UNL d   1       0.046   2.260   1.299  0.00  0.00     0.321 C 
ATOM      2  N   UNL d   1       0.028   1.394   2.323  0.00  0.00    -0.307 N 
ATOM      3  N   UNL d   1       0.519   1.941   0.068  0.00  0.00    -0.339 N 
ATOM      4  O   UNL d   1      -0.289   3.412   1.583  0.00  0.00    -0.247 OA
ATOM      5  H   UNL d   1      -0.095   1.979   3.148  0.00  0.00     0.170 HD
ATOM      6  H   UNL d   1       0.571   0.982  -0.230  0.00  0.00     0.164 HD
ENDROOT
BRANCH   2   7
ATOM      7  C   UNL d   1       0.060   0.021   2.616  0.00  0.00     0.066 A 
ATOM      8  C   UNL d   1      -0.189  -1.082   1.796  0.00  0.00     0.077 A 
ATOM      9  C   UNL d   1      -0.135  -2.373   2.379  0.00  0.00     0.035 A 
ATOM     10  C   UNL d   1       0.106  -2.523   3.733  0.00  0.00     0.088 A 
ATOM     11  N   UNL d   1       0.307  -1.484   4.551  0.00  0.00    -0.373 N 
ATOM     12  C   UNL d   1       0.278  -0.259   3.979  0.00  0.00     0.117 A 
ATOM     13  HN  UNL d   1       0.474  -1.608   5.550  1.00  0.00     0.164 HD
BRANCH   8  14
ATOM     14  C   UNL d   1      -0.582  -1.008   0.355  0.00  0.00     0.419 C 
ATOM     15  F   UNL d   1      -1.491  -0.033   0.084  0.00  0.00    -0.166 F 
ATOM     16  F   UNL d   1      -1.139  -2.160  -0.120  0.00  0.00    -0.166 F 
ATOM     17  F   UNL d   1       0.485  -0.755  -0.453  0.00  0.00    -0.166 F 
ENDBRANCH   8  14
ENDBRANCH   2   7
BRANCH   3  18
ATOM     18  C   UNL d   1       0.349   2.967  -0.946  0.00  0.00     0.164 C 
BRANCH  18  19
ATOM     19  C   UNL d   1       1.044   2.830  -2.268  0.00  0.00    -0.025 A 
ATOM     20  C   UNL d   1       2.027   1.905  -2.574  0.00  0.00     0.096 A 
ATOM     21  N   UNL d   1       2.678   1.854  -3.765  0.00  0.00    -0.375 N 
ATOM     22  C   UNL d   1       2.344   2.784  -4.689  0.00  0.00     0.087 A 
ATOM     23  HN  UNL d   1       3.388   1.146  -3.954  1.00  0.00     0.164 HD
ATOM     24  C   UNL d   1       1.390   3.759  -4.487  0.00  0.00     0.018 A 
ATOM     25  C   UNL d   1       0.734   3.776  -3.261  0.00  0.00     0.011 A 
ENDBRANCH  18  19
ENDBRANCH   3  18
TORSDOF 4
