REMARK  3 active torsions:
REMARK  status: ('A' for Active; 'I' for Inactive)
REMARK    1  A    between atoms: N_6  and  N_1 
REMARK    2  A    between atoms: S_12  and  C_2 
REMARK       I    between atoms: C_8  and  N_6 
REMARK    3  A    between atoms: C_10  and  C_8 
ROOT
ATOM      1  N   UNL d   1       2.396  -0.406  -0.397  0.00  0.00    -0.194 N 
ATOM      2  C   UNL d   1       2.071   0.823  -0.954  0.00  0.00     0.167 C 
ATOM      3  C   UNL d   1       1.406  -1.231   0.134  0.00  0.00     0.281 C 
ATOM      4  N   UNL d   1       0.922   1.404  -0.787  0.00  0.00    -0.335 N 
ATOM      5  HN  UNL d   1       0.774   2.365  -1.094  1.00  0.00     0.168 HD
ATOM      6  C   UNL d   1       0.038  -0.665   0.155  0.00  0.00     0.061 A 
ATOM      7  C   UNL d   1      -0.103   0.683  -0.180  0.00  0.00     0.050 A 
ATOM      8  O   UNL d   1       1.619  -2.388   0.499  0.00  0.00    -0.265 OA
ATOM      9  C   UNL d   1      -1.088  -1.460   0.407  0.00  0.00     0.019 A 
ATOM     10  C   UNL d   1      -1.369   1.269  -0.114  0.00  0.00     0.030 A 
ATOM     11  C   UNL d   1      -2.360  -0.884   0.364  0.00  0.00     0.001 A 
ATOM     12  C   UNL d   1      -2.498   0.489   0.144  0.00  0.00     0.002 A 
ENDROOT
BRANCH   1  13
ATOM     13  N   UNL d   1       3.682  -1.029  -0.539  0.00  0.00    -0.254 N 
ATOM     14  C   UNL d   1       4.834  -0.383  -0.102  0.00  0.00     0.272 C 
ATOM     15  O   UNL d   1       4.850   0.764   0.341  0.00  0.00    -0.266 OA
ATOM     16  H   UNL d   1       3.626  -2.026  -0.325  0.00  0.00     0.191 HD
BRANCH  14  17
ATOM     17  C   UNL d   1       6.112  -1.124  -0.271  0.00  0.00     0.049 A 
ATOM     18  C   UNL d   1       7.298  -0.506   0.113  0.00  0.00     0.104 A 
ATOM     19  N   UNL d   1       8.530  -1.067  -0.018  0.00  0.00    -0.374 N 
ATOM     20  C   UNL d   1       8.584  -2.300  -0.566  0.00  0.00     0.087 A 
ATOM     21  HN  UNL d   1       9.373  -0.580   0.284  1.00  0.00     0.164 HD
ATOM     22  C   UNL d   1       7.465  -2.992  -0.995  0.00  0.00     0.018 A 
ATOM     23  C   UNL d   1       6.210  -2.394  -0.851  0.00  0.00     0.020 A 
ENDBRANCH  14  17
ENDBRANCH   1  13
BRANCH   2  24
ATOM     24  S   UNL d   1       3.157   1.599  -2.090  0.00  0.00    -0.105 SA
ATOM     25  H   UNL d   1       3.918   0.523  -2.299  0.00  0.00     0.110 HD
ENDBRANCH   2  24
TORSDOF 3
