REMARK  7 active torsions:
REMARK  status: ('A' for Active; 'I' for Inactive)
REMARK    1  A    between atoms: C_2  and  S_1 
REMARK    2  A    between atoms: N_3  and  S_1 
REMARK    3  A    between atoms: C_4  and  N_3 
REMARK    4  A    between atoms: S_7  and  C_5 
REMARK    5  A    between atoms: C_14  and  S_7 
REMARK    6  A    between atoms: O_18  and  C_10 
REMARK    7  A    between atoms: O_24  and  C_15 
ROOT
ATOM      1  C   UNL d   1       1.089   2.323   0.982  0.00  0.00     0.056 A 
ATOM      2  C   UNL d   1       0.107   3.312   1.200  0.00  0.00     0.097 A 
ATOM      3  N   UNL d   1       0.243   4.263   2.159  0.00  0.00    -0.359 N 
ATOM      4  HN  UNL d   1      -0.484   4.962   2.315  1.00  0.00     0.166 HD
ATOM      5  C   UNL d   1       2.246   2.351   1.762  0.00  0.00     0.028 A 
ATOM      6  C   UNL d   1       1.373   4.253   2.900  0.00  0.00     0.089 A 
ATOM      7  C   UNL d   1       2.396   3.336   2.733  0.00  0.00     0.019 A 
ENDROOT
BRANCH   1   8
ATOM      8  N   UNL d   1       0.961   1.258   0.019  0.00  0.00    -0.178 NA
ATOM      9  H   UNL d   1       0.590   1.558  -0.886  0.00  0.00     0.146 HD
BRANCH   8  10
ATOM     10  S   UNL d   1       0.077  -0.122   0.499  0.00  0.00     0.248 S 
ATOM     11  O   UNL d   1      -1.010   0.302   1.352  0.00  0.00    -0.205 OA
ATOM     12  O   UNL d   1      -0.226  -0.853  -0.707  0.00  0.00    -0.205 OA
BRANCH  10  13
ATOM     13  C   UNL d   1       1.220  -1.062   1.499  0.00  0.00     0.110 A 
ATOM     14  C   UNL d   1       1.032  -0.865   2.896  0.00  0.00     0.064 A 
ATOM     15  C   UNL d   1       1.660  -1.663   3.847  0.00  0.00     0.069 A 
ATOM     16  C   UNL d   1       2.505  -2.669   3.411  0.00  0.00     0.039 A 
ATOM     17  C   UNL d   1       2.727  -2.849   2.045  0.00  0.00     0.041 A 
ATOM     18  C   UNL d   1       2.098  -2.058   1.059  0.00  0.00     0.091 A 
BRANCH  15  19
ATOM     19  O   UNL d   1       1.506  -1.581   5.201  0.00  0.00    -0.356 OA
ATOM     20  C   UNL d   1       0.679  -0.534   5.697  0.00  0.00     0.210 C 
ENDBRANCH  15  19
BRANCH  18  21
ATOM     21  O   UNL d   1       2.499  -2.495  -0.164  0.00  0.00    -0.354 OA
ATOM     22  C   UNL d   1       2.309  -1.775  -1.363  0.00  0.00     0.210 C 
ENDBRANCH  18  21
ENDBRANCH  10  13
ENDBRANCH   8  10
ENDBRANCH   1   8
BRANCH   2  23
ATOM     23  S   UNL d   1      -1.376   3.338   0.202  0.00  0.00    -0.071 SA
BRANCH  23  24
ATOM     24  C   UNL d   1      -1.927   5.028   0.084  0.00  0.00     0.007 A 
ATOM     25  C   UNL d   1      -1.072   6.131   0.021  0.00  0.00     0.019 A 
ATOM     26  C   UNL d   1      -1.579   7.416  -0.217  0.00  0.00     0.008 A 
ATOM     27  C   UNL d   1      -2.949   7.617  -0.420  0.00  0.00    -0.062 A 
ATOM     28  C   UNL d   1      -3.811   6.522  -0.329  0.00  0.00     0.008 A 
ATOM     29  C   UNL d   1      -3.482   8.991  -0.703  0.00  0.00     0.048 C 
ATOM     30  C   UNL d   1      -3.303   5.243  -0.084  0.00  0.00     0.019 A 
ENDBRANCH  23  24
ENDBRANCH   2  23
TORSDOF 7
