REMARK  4 active torsions:
REMARK  status: ('A' for Active; 'I' for Inactive)
REMARK    1  A    between atoms: N_3  and  C_1 
REMARK    2  A    between atoms: C_2  and  N_3 
REMARK    3  A    between atoms: N_10  and  C_2 
REMARK    4  A    between atoms: N_11  and  N_10 
ROOT
ATOM      1  C   UNL d   1       1.431  -0.216   0.022  0.00  0.00     0.046 A 
ATOM      2  C   UNL d   1       0.487  -1.266  -0.081  0.00  0.00    -0.034 A 
ATOM      3  C   UNL d   1       0.979   1.117   0.125  0.00  0.00    -0.034 A 
ATOM      4  C   UNL d   1      -0.885  -0.963  -0.117  0.00  0.00     0.015 A 
ATOM      5  C   UNL d   1      -0.404   1.383   0.044  0.00  0.00     0.015 A 
ATOM      6  C   UNL d   1      -1.339   0.353  -0.068  0.00  0.00    -0.061 A 
ATOM      7  C   UNL d   1       1.872   2.301   0.382  0.00  0.00     0.050 C 
ATOM      8  C   UNL d   1       0.861  -2.725  -0.136  0.00  0.00     0.050 C 
ATOM      9  C   UNL d   1      -2.811   0.641  -0.092  0.00  0.00     0.048 C 
ENDROOT
BRANCH   1  10
ATOM     10  N   UNL d   1       2.802  -0.560   0.150  0.00  0.00    -0.331 N 
ATOM     11  H   UNL d   1       2.963  -1.491   0.508  0.00  0.00     0.168 HD
BRANCH  10  12
ATOM     12  C   UNL d   1       3.860  -0.149  -0.663  0.00  0.00     0.186 C 
ATOM     13  S   UNL d   1       3.777   0.761  -2.069  0.00  0.00    -0.040 SA
BRANCH  12  14
ATOM     14  N   UNL d   1       5.060  -0.686  -0.167  0.00  0.00    -0.300 N 
ATOM     15  H   UNL d   1       5.061  -1.124   0.751  0.00  0.00     0.183 HD
BRANCH  14  16
ATOM     16  N   UNL d   1       6.309  -0.464  -0.782  0.00  0.00    -0.248 NA
ATOM     17  H   UNL d   1       6.546   0.525  -0.655  0.00  0.00     0.143 HD
ATOM     18  H   UNL d   1       6.171  -0.552  -1.796  0.00  0.00     0.143 HD
ENDBRANCH  14  16
ENDBRANCH  12  14
ENDBRANCH  10  12
ENDBRANCH   1  10
TORSDOF 4
