REMARK  8 active torsions:
REMARK  status: ('A' for Active; 'I' for Inactive)
REMARK    1  A    between atoms: O_14  and  C_7 
REMARK    2  A    between atoms: C_19  and  C_9 
REMARK    3  A    between atoms: C_17  and  O_14 
REMARK    4  A    between atoms: C_27  and  C_19 
REMARK    5  A    between atoms: O_24  and  C_23 
REMARK    6  A    between atoms: C_25  and  C_27 
REMARK    7  A    between atoms: C_29  and  C_25 
REMARK    8  A    between atoms: C_30  and  C_29 
ROOT
ATOM      1  C   UNL d   1       0.076   0.937  -0.908  0.00  0.00    -0.066 C 
ATOM      2  C   UNL d   1       0.145  -0.408  -0.727  0.00  0.00    -0.072 C 
ATOM      3  C   UNL d   1       1.338   1.842  -0.821  0.00  0.00     0.009 C 
ATOM      4  C   UNL d   1       0.159  -2.608   0.994  0.00  0.00    -0.035 C 
ATOM      5  C   UNL d   1       1.504  -1.067  -0.324  0.00  0.00     0.022 C 
ATOM      6  C   UNL d   1       1.262  -2.542  -0.166  0.00  0.00     0.002 C 
ATOM      7  C   UNL d   1       2.572   1.071  -0.235  0.00  0.00     0.145 C 
ATOM      8  C   UNL d   1       2.721  -0.348  -0.868  0.00  0.00     0.043 C 
ATOM      9  C   UNL d   1       0.570  -3.844   1.837  0.00  0.00    -0.002 C 
ATOM     10  C   UNL d   1      -1.104  -2.623   0.138  0.00  0.00     0.014 C 
ATOM     11  C   UNL d   1      -1.136  -1.309  -0.701  0.00  0.00     0.036 C 
ATOM     12  C   UNL d   1       2.283  -3.612   0.181  0.00  0.00     0.006 C 
ATOM     13  C   UNL d   1      -1.247   1.669  -1.127  0.00  0.00     0.038 C 
ATOM     14  C   UNL d   1       1.400  -4.687   0.863  0.00  0.00     0.006 C 
ATOM     15  C   UNL d   1       1.036   3.035   0.127  0.00  0.00     0.048 C 
ATOM     16  C   UNL d   1       1.697   2.384  -2.217  0.00  0.00     0.023 C 
ATOM     17  C   UNL d   1       0.032  -1.389   2.011  0.00  0.00     0.016 C 
ATOM     18  C   UNL d   1      -1.430   2.848  -0.176  0.00  0.00     0.036 C 
ATOM     19  C   UNL d   1      -0.245   3.783  -0.269  0.00  0.00     0.119 C 
ENDROOT
BRANCH   9  20
ATOM     20  C   UNL d   1      -0.550  -4.496   2.687  0.00  0.00    -0.014 C 
ATOM     21  C   UNL d   1      -1.221  -3.442   3.602  0.00  0.00     0.010 C 
BRANCH  20  22
ATOM     22  C   UNL d   1      -0.020  -5.660   3.558  0.00  0.00     0.005 C 
BRANCH  22  23
ATOM     23  C   UNL d   1      -1.163  -6.253   4.381  0.00  0.00     0.001 C 
BRANCH  23  24
ATOM     24  C   UNL d   1      -0.788  -7.344   5.367  0.00  0.00     0.004 C 
BRANCH  24  25
ATOM     25  C   UNL d   1      -1.968  -7.581   6.339  0.00  0.00    -0.023 C 
ATOM     26  C   UNL d   1      -3.270  -7.930   5.609  0.00  0.00     0.009 C 
ATOM     27  C   UNL d   1      -1.608  -8.663   7.348  0.00  0.00     0.009 C 
ENDBRANCH  24  25
ENDBRANCH  23  24
ENDBRANCH  22  23
ENDBRANCH  20  22
ENDBRANCH   9  20
BRANCH   7  28
ATOM     28  O   UNL d   1       3.801   1.816  -0.317  0.00  0.00    -0.315 OA
BRANCH  28  29
ATOM     29  C   UNL d   1       4.410   2.063   0.883  0.00  0.00     0.255 C 
ATOM     30  O   UNL d   1       4.036   1.665   1.974  0.00  0.00    -0.266 OA
ATOM     31  C   UNL d   1       5.642   2.889   0.703  0.00  0.00     0.126 C 
ENDBRANCH  28  29
ENDBRANCH   7  28
BRANCH  19  32
ATOM     32  O   UNL d   1      -0.430   4.909   0.598  0.00  0.00    -0.396 OA
ATOM     33  H   UNL d   1      -0.510   4.582   1.507  0.00  0.00     0.210 HD
ENDBRANCH  19  32
TORSDOF 8
