REMARK  4 active torsions:
REMARK  status: ('A' for Active; 'I' for Inactive)
REMARK    1  A    between atoms: C_11  and  N_4 
REMARK    2  A    between atoms: C_12  and  C_11 
REMARK    3  A    between atoms: O_16  and  C_12 
REMARK    4  A    between atoms: C_18  and  O_16 
ROOT
ATOM      1  C   UNL d   1       0.725   0.371  -0.038  0.00  0.00     0.073 A 
ATOM      2  C   UNL d   1       1.227  -0.914  -0.073  0.00  0.00     0.091 A 
ATOM      3  C   UNL d   1       1.677   1.468  -0.001  0.00  0.00     0.262 A 
ATOM      4  N   UNL d   1       3.011   1.056   0.026  0.00  0.00    -0.300 N 
ATOM      5  N   UNL d   1       2.536  -1.273  -0.099  0.00  0.00    -0.346 N 
ATOM      6  HN  UNL d   1       2.842  -2.244  -0.153  1.00  0.00     0.167 HD
ATOM      7  S   UNL d   1      -0.011  -2.087  -0.069  0.00  0.00    -0.075 SA
ATOM      8  C   UNL d   1      -0.712   0.391  -0.030  0.00  0.00    -0.026 A 
ATOM      9  C   UNL d   1      -1.224  -0.895  -0.026  0.00  0.00    -0.008 A 
ATOM     10  C   UNL d   1       3.361  -0.278  -0.048  0.00  0.00     0.187 A 
ATOM     11  O   UNL d   1       1.336   2.647   0.018  0.00  0.00    -0.267 OA
ATOM     12  C   UNL d   1      -1.608   1.595   0.012  0.00  0.00     0.041 C 
ATOM     13  C   UNL d   1      -2.679  -1.251  -0.025  0.00  0.00     0.047 C 
ATOM     14  C   UNL d   1      -3.060   1.238  -0.351  0.00  0.00     0.005 C 
ATOM     15  C   UNL d   1      -3.529  -0.034   0.370  0.00  0.00     0.005 C 
ENDROOT
BRANCH   4  16
ATOM     16  C   UNL d   1       4.049   2.069   0.161  0.00  0.00     0.244 C 
BRANCH  16  17
ATOM     17  C   UNL d   1       4.499   2.722  -1.137  0.00  0.00     0.277 C 
ATOM     18  O   UNL d   1       5.355   3.599  -1.169  0.00  0.00    -0.263 OA
BRANCH  17  19
ATOM     19  O   UNL d   1       3.828   2.251  -2.222  0.00  0.00    -0.321 OA
BRANCH  19  20
ATOM     20  C   UNL d   1       3.910   3.073  -3.396  0.00  0.00     0.174 C 
ATOM     21  C   UNL d   1       2.785   4.090  -3.332  0.00  0.00     0.034 C 
ENDBRANCH  19  20
ENDBRANCH  17  19
ENDBRANCH  16  17
ENDBRANCH   4  16
TORSDOF 4
