REMARK  3 active torsions:
REMARK  status: ('A' for Active; 'I' for Inactive)
REMARK       I    between atoms: N_2  and  C_1 
REMARK    1  A    between atoms: C_3  and  C_1 
REMARK       I    between atoms: C_4  and  N_2 
REMARK    2  A    between atoms: C_5  and  C_4 
REMARK    3  A    between atoms: O_16  and  C_9 
ROOT
ATOM      1  C   UNL d   1      -1.041  -1.045  -0.503  0.00  0.00     0.261 C 
ATOM      2  N   UNL d   1       0.318  -1.265  -0.356  0.00  0.00    -0.289 N 
ATOM      3  C   UNL d   1       0.952  -2.452  -0.691  0.00  0.00     0.258 C 
ATOM      4  O   UNL d   1      -1.860  -1.853  -0.931  0.00  0.00    -0.267 OA
ATOM      5  O   UNL d   1       0.469  -3.390  -1.309  0.00  0.00    -0.267 OA
ATOM      6  H   UNL d   1       0.831  -0.620   0.222  0.00  0.00     0.172 HD
ENDROOT
BRANCH   1   7
ATOM      7  C   UNL d   1      -1.559   0.268  -0.030  0.00  0.00     0.065 A 
ATOM      8  C   UNL d   1      -2.889   0.358   0.414  0.00  0.00     0.081 A 
ATOM      9  C   UNL d   1      -3.411   1.569   0.861  0.00  0.00     0.037 A 
ATOM     10  C   UNL d   1      -2.619   2.715   0.841  0.00  0.00     0.003 A 
ATOM     11  C   UNL d   1      -1.305   2.647   0.378  0.00  0.00     0.001 A 
ATOM     12  C   UNL d   1      -0.773   1.429  -0.059  0.00  0.00     0.020 A 
BRANCH   8  13
ATOM     13  O   UNL d   1      -3.745  -0.712   0.437  0.00  0.00    -0.360 OA
ATOM     14  H   UNL d   1      -3.340  -1.436  -0.095  0.00  0.00     0.217 HD
ENDBRANCH   8  13
ENDBRANCH   1   7
BRANCH   3  15
ATOM     15  C   UNL d   1       2.356  -2.562  -0.220  0.00  0.00     0.033 A 
ATOM     16  C   UNL d   1       3.257  -1.496  -0.354  0.00  0.00     0.027 A 
ATOM     17  C   UNL d   1       4.537  -1.665   0.150  0.00  0.00    -0.022 A 
ATOM     18  C   UNL d   1       5.678  -0.723   0.174  0.00  0.00     0.068 C 
ATOM     19  C   UNL d   1       4.902  -2.842   0.788  0.00  0.00     0.075 A 
ATOM     20  C   UNL d   1       6.779  -1.668   0.663  0.00  0.00     0.180 C 
ATOM     21  O   UNL d   1       6.179  -2.828   1.283  0.00  0.00    -0.350 OA
ATOM     22  C   UNL d   1       4.039  -3.911   0.909  0.00  0.00     0.038 A 
ATOM     23  C   UNL d   1       2.754  -3.774   0.379  0.00  0.00     0.020 A 
ENDBRANCH   3  15
TORSDOF 3
