REMARK  2 active torsions:
REMARK  status: ('A' for Active; 'I' for Inactive)
REMARK    1  A    between atoms: C_7  and  C_1 
REMARK    2  A    between atoms: O_11  and  N_8 
ROOT
ATOM      1  C   UNL d   1      -1.211  -1.100  -0.002  0.00  0.00     0.084 A 
ATOM      2  C   UNL d   1      -0.407   0.067  -0.006  0.00  0.00     0.057 A 
ATOM      3  N   UNL d   1      -2.517  -0.760   0.006  0.00  0.00    -0.298 N 
ATOM      4  HN  UNL d   1      -3.324  -1.384   0.011  1.00  0.00     0.187 HD
ATOM      5  N   UNL d   1      -2.517   0.584   0.006  0.00  0.00    -0.310 N 
ATOM      6  C   UNL d   1      -1.271   1.130  -0.001  0.00  0.00     0.128 A 
ATOM      7 BR   UNL d   1       1.461   0.188  -0.016  0.00  0.00    -0.047 Br
ATOM      8  H   UNL d   1      -3.411   1.064   0.011  0.00  0.00     0.186 HD
ENDROOT
BRANCH   1   9
ATOM      9  C   UNL d   1      -0.848  -2.506  -0.004  0.00  0.00     0.146 C 
ATOM     10  N   UNL d   1       0.393  -2.875  -0.013  0.00  0.00    -0.278 N 
ATOM     11  HN  UNL d   1       1.195  -2.245  -0.018  1.00  0.00     0.193 HD
BRANCH  10  12
ATOM     12  O   UNL d   1       0.462  -4.274  -0.013  0.00  0.00    -0.290 OA
ATOM     13  H   UNL d   1       1.425  -4.434  -0.019  0.00  0.00     0.244 HD
ENDBRANCH  10  12
ENDBRANCH   1   9
TORSDOF 2
