REMARK  2 active torsions:
REMARK  status: ('A' for Active; 'I' for Inactive)
REMARK    1  A    between atoms: C_11  and  C_5 
REMARK    2  A    between atoms: C_25  and  C_19 
ROOT
ATOM      1  C   UNL d   1       4.491   2.342  -1.147  0.00  0.00    -0.042 A 
ATOM      2  C   UNL d   1       4.647   3.346  -0.177  0.00  0.00    -0.043 A 
ATOM      3  C   UNL d   1       2.402   1.585  -0.026  0.00  0.00    -0.002 A 
ATOM      4  C   UNL d   1       3.349   1.511  -1.068  0.00  0.00     0.022 A 
ATOM      5  C   UNL d   1       3.719   3.399   0.886  0.00  0.00     0.016 A 
ATOM      6  C   UNL d   1       2.603   2.535   0.989  0.00  0.00    -0.045 A 
ATOM      7  C   UNL d   1       5.481   2.140  -2.300  0.00  0.00    -0.020 C 
ATOM      8  C   UNL d   1       5.789   4.374  -0.233  0.00  0.00    -0.020 C 
ATOM      9  C   UNL d   1       6.793   2.920  -2.061  0.00  0.00     0.015 C 
ATOM     10  C   UNL d   1       6.528   4.340  -1.591  0.00  0.00     0.015 C 
ATOM     11  C   UNL d   1       4.821   2.603  -3.616  0.00  0.00     0.020 C 
ATOM     12  C   UNL d   1       5.883   0.652  -2.451  0.00  0.00     0.020 C 
ATOM     13  C   UNL d   1       6.789   4.090   0.909  0.00  0.00     0.020 C 
ATOM     14  C   UNL d   1       5.253   5.816  -0.068  0.00  0.00     0.020 C 
ENDROOT
BRANCH   3  15
ATOM     15  C   UNL d   1       1.261   0.666  -0.055  0.00  0.00     0.050 A 
ATOM     16  N   UNL d   1      -0.009   1.035   0.367  0.00  0.00    -0.348 N 
ATOM     17  C   UNL d   1      -0.845   0.020   0.274  0.00  0.00     0.095 A 
ATOM     18  HN  UNL d   1      -0.260   1.964   0.704  1.00  0.00     0.166 HD
ATOM     19  C   UNL d   1      -2.214   0.114   0.698  0.00  0.00     0.080 A 
ATOM     20  S   UNL d   1      -0.167  -1.412  -0.399  0.00  0.00    -0.081 SA
ATOM     21  C   UNL d   1      -3.040   1.227   0.820  0.00  0.00     0.043 A 
ATOM     22  S   UNL d   1      -3.142  -1.243   1.211  0.00  0.00     0.006 SA
ATOM     23  N   UNL d   1      -4.324   0.949   1.290  0.00  0.00    -0.298 N 
ATOM     24  C   UNL d   1      -2.743   2.647   0.505  0.00  0.00     0.071 C 
ATOM     25  N   UNL d   1      -4.500  -0.336   1.533  0.00  0.00    -0.269 N 
ATOM     26  HN  UNL d   1      -5.044   1.658   1.430  1.00  0.00     0.187 HD
ATOM     27  HN  UNL d   1      -5.374  -0.730   1.881  1.00  0.00     0.195 HD
ATOM     28  C   UNL d   1       1.352  -0.637  -0.507  0.00  0.00     0.082 A 
ENDBRANCH   3  15
BRANCH   6  29
ATOM     29  C   UNL d   1       1.692   2.711   2.188  0.00  0.00     0.035 C 
ATOM     30  C   UNL d   1       1.701   1.537   3.160  0.00  0.00     0.010 C 
ENDBRANCH   6  29
TORSDOF 2
