REMARK  3 active torsions:
REMARK  status: ('A' for Active; 'I' for Inactive)
REMARK    1  A    between atoms: C_8  and  C_1 
REMARK    2  A    between atoms: C_3  and  C_2 
REMARK    3  A    between atoms: C_15  and  C_6 
ROOT
ATOM      1  C   UNL d   1       0.460  -2.718  -0.017  0.00  0.00     0.187 A 
ATOM      2  N   UNL d   1       1.313  -3.203   0.853  0.00  0.00    -0.318 N 
ATOM      3  HN  UNL d   1       1.831  -2.701   1.575  1.00  0.00     0.169 HD
ATOM      4  C   UNL d   1       1.346  -4.545   0.563  0.00  0.00     0.138 A 
ATOM      5  N   UNL d   1       0.563  -4.890  -0.471  0.00  0.00    -0.242 N 
ATOM      6  HN  UNL d   1       0.430  -5.815  -0.881  1.00  0.00     0.196 HD
ATOM      7  O   UNL d   1      -0.025  -3.688  -0.851  0.00  0.00    -0.217 OA
ENDROOT
BRANCH   1   8
ATOM      8  C   UNL d   1       0.056  -1.297  -0.061  0.00  0.00     0.082 A 
ATOM      9  C   UNL d   1       0.565  -0.278   0.714  0.00  0.00     0.198 A 
ATOM     10  O   UNL d   1      -0.087   0.874   0.387  0.00  0.00    -0.232 OA
ATOM     11  N   UNL d   1      -1.016   0.626  -0.600  0.00  0.00    -0.264 N 
ATOM     12  C   UNL d   1      -0.928  -0.682  -0.874  0.00  0.00     0.046 A 
ATOM     13  HN  UNL d   1      -1.644   1.302  -1.035  1.00  0.00     0.194 HD
ATOM     14  C   UNL d   1      -1.827  -1.254  -1.905  0.00  0.00     0.071 C 
BRANCH   9  15
ATOM     15  C   UNL d   1       1.592  -0.120   1.761  0.00  0.00     0.442 C 
ATOM     16  F   UNL d   1       2.348  -1.220   1.989  0.00  0.00    -0.164 F 
ATOM     17  F   UNL d   1       2.467   0.875   1.450  0.00  0.00    -0.164 F 
ATOM     18  F   UNL d   1       1.037   0.217   2.956  0.00  0.00    -0.164 F 
ENDBRANCH   9  15
ENDBRANCH   1   8
BRANCH   4  19
ATOM     19  C   UNL d   1       2.124  -5.485   1.360  0.00  0.00     0.010 A 
ATOM     20  C   UNL d   1       2.888  -5.023   2.445  0.00  0.00     0.017 A 
ATOM     21  C   UNL d   1       3.595  -5.920   3.252  0.00  0.00     0.025 A 
ATOM     22  C   UNL d   1       3.544  -7.284   2.976  0.00  0.00     0.034 A 
ATOM     23  C   UNL d   1       2.804  -7.758   1.895  0.00  0.00     0.025 A 
ATOM     24 CL   UNL d   1       4.390  -8.392   3.984  0.00  0.00    -0.084 Cl
ATOM     25  C   UNL d   1       2.098  -6.860   1.088  0.00  0.00     0.017 A 
ENDBRANCH   4  19
TORSDOF 3
