REMARK  3 active torsions:
REMARK  status: ('A' for Active; 'I' for Inactive)
REMARK    1  A    between atoms: C_2  and  C_1 
REMARK    2  A    between atoms: C_4  and  C_2 
REMARK    3  A    between atoms: N_8  and  C_3 
ROOT
ATOM      1  C   UNL d   1      -0.998   1.543  -0.287  0.00  0.00     0.029 A 
ATOM      2  N   UNL d   1      -3.093   2.716   0.038  0.00  0.00    -0.374 N 
ATOM      3  HN  UNL d   1      -3.684   3.330   0.598  1.00  0.00     0.164 HD
ATOM      4  C   UNL d   1      -1.833   2.391   0.427  0.00  0.00     0.103 A 
ATOM      5  C   UNL d   1      -1.476   1.016  -1.490  0.00  0.00     0.018 A 
ATOM      6  C   UNL d   1      -3.526   2.186  -1.126  0.00  0.00     0.087 A 
ATOM      7  C   UNL d   1      -2.763   1.342  -1.917  0.00  0.00     0.018 A 
ENDROOT
BRANCH   1   8
ATOM      8  C   UNL d   1       0.364   1.278   0.231  0.00  0.00     0.184 C 
ATOM      9  O   UNL d   1       0.930   2.110   0.929  0.00  0.00    -0.287 OA
BRANCH   8  10
ATOM     10  C   UNL d   1       0.976  -0.036  -0.105  0.00  0.00     0.072 C 
ATOM     11  C   UNL d   1       2.298  -0.220   0.005  0.00  0.00     0.088 C 
BRANCH  11  12
ATOM     12  N   UNL d   1       3.057  -1.350  -0.272  0.00  0.00    -0.398 N 
ATOM     13  C   UNL d   1       2.509  -2.641  -0.684  0.00  0.00     0.148 C 
ATOM     14  C   UNL d   1       4.509  -1.359  -0.080  0.00  0.00     0.148 C 
ENDBRANCH  11  12
ENDBRANCH   8  10
ENDBRANCH   1   8
TORSDOF 3
