REMARK  14 active torsions:
REMARK  status: ('A' for Active; 'I' for Inactive)
REMARK    1  A    between atoms: N_8  and  C_1 
REMARK    2  A    between atoms: N_13  and  C_1 
REMARK    3  A    between atoms: C_2  and  N_7 
REMARK    4  A    between atoms: N_14  and  C_2 
REMARK    5  A    between atoms: C_3  and  C_12 
REMARK    6  A    between atoms: C_4  and  C_11 
REMARK    7  A    between atoms: C_5  and  C_9 
REMARK    8  A    between atoms: C_6  and  C_10 
REMARK    9  A    between atoms: C_15  and  N_13 
REMARK   10  A    between atoms: C_16  and  N_14 
REMARK   11  A    between atoms: C_49  and  C_45 
REMARK   12  A    between atoms: C_46  and  C_48 
REMARK   13  A    between atoms: C_47  and  C_49 
REMARK   14  A    between atoms: C_48  and  C_47 
ROOT
ATOM      1  C   UNL d   1      -2.511   2.356   4.164  0.00  0.00     0.001 C 
ENDROOT
BRANCH   1   2
ATOM      2  C   UNL d   1      -1.076   2.711   3.794  0.00  0.00     0.005 C 
BRANCH   2   3
ATOM      3  C   UNL d   1       0.029   1.822   4.395  0.00  0.00    -0.012 C 
ATOM      4  C   UNL d   1      -0.197   0.309   4.230  0.00  0.00     0.024 C 
ATOM      5  C   UNL d   1      -0.044  -0.136   2.783  0.00  0.00     0.125 C 
ATOM      6  N   UNL d   1       1.237   0.281   2.222  0.00  0.00    -0.358 N 
ATOM      7  C   UNL d   1       1.557   1.707   2.335  0.00  0.00     0.125 C 
ATOM      8  C   UNL d   1       1.393   2.200   3.781  0.00  0.00     0.024 C 
BRANCH   6   9
ATOM      9  C   UNL d   1       2.237  -0.611   1.875  0.00  0.00     0.174 C 
ATOM     10  S   UNL d   1       2.751  -1.884   2.828  0.00  0.00    -0.041 SA
BRANCH   9  11
ATOM     11  N   UNL d   1       2.907  -0.332   0.711  0.00  0.00    -0.333 N 
ATOM     12  H   UNL d   1       3.844  -0.719   0.652  0.00  0.00     0.168 HD
BRANCH  11  13
ATOM     13  C   UNL d   1       2.321   0.027  -0.522  0.00  0.00     0.035 A 
ATOM     14  C   UNL d   1       3.153   0.523  -1.524  0.00  0.00     0.045 A 
ATOM     15  C   UNL d   1       2.643   0.849  -2.792  0.00  0.00     0.050 A 
ATOM     16  C   UNL d   1       1.288   0.613  -3.066  0.00  0.00     0.032 A 
ATOM     17  C   UNL d   1       0.445   0.069  -2.087  0.00  0.00     0.050 A 
ATOM     18  C   UNL d   1       0.965  -0.190  -0.807  0.00  0.00     0.045 A 
BRANCH  15  19
ATOM     19  C   UNL d   1       3.566   1.443  -3.828  0.00  0.00     0.417 C 
ATOM     20  F   UNL d   1       2.962   1.679  -5.024  0.00  0.00    -0.166 F 
ATOM     21  F   UNL d   1       4.088   2.635  -3.429  0.00  0.00    -0.166 F 
ATOM     22  F   UNL d   1       4.630   0.638  -4.096  0.00  0.00    -0.166 F 
ENDBRANCH  15  19
BRANCH  17  23
ATOM     23  C   UNL d   1      -0.998  -0.272  -2.394  0.00  0.00     0.417 C 
ATOM     24  F   UNL d   1      -1.326  -0.105  -3.706  0.00  0.00    -0.166 F 
ATOM     25  F   UNL d   1      -1.300  -1.565  -2.099  0.00  0.00    -0.166 F 
ATOM     26  F   UNL d   1      -1.877   0.491  -1.688  0.00  0.00    -0.166 F 
ENDBRANCH  17  23
ENDBRANCH  11  13
ENDBRANCH   9  11
ENDBRANCH   6   9
ENDBRANCH   2   3
ENDBRANCH   1   2
BRANCH   1  27
ATOM     27  C   UNL d   1      -2.846   2.397   5.664  0.00  0.00     0.005 C 
BRANCH  27  28
ATOM     28  C   UNL d   1      -4.246   1.802   5.925  0.00  0.00    -0.012 C 
ATOM     29  C   UNL d   1      -5.361   2.605   5.219  0.00  0.00     0.024 C 
ATOM     30  C   UNL d   1      -5.949   3.724   6.070  0.00  0.00     0.125 C 
ATOM     31  N   UNL d   1      -6.361   3.181   7.358  0.00  0.00    -0.358 N 
ATOM     32  C   UNL d   1      -5.243   2.688   8.152  0.00  0.00     0.125 C 
ATOM     33  C   UNL d   1      -4.523   1.556   7.428  0.00  0.00     0.024 C 
BRANCH  31  34
ATOM     34  C   UNL d   1      -7.441   3.702   8.032  0.00  0.00     0.174 C 
ATOM     35  S   UNL d   1      -7.628   5.330   8.388  0.00  0.00    -0.041 SA
BRANCH  34  36
ATOM     36  N   UNL d   1      -8.410   2.832   8.473  0.00  0.00    -0.333 N 
ATOM     37  H   UNL d   1      -9.064   3.289   9.099  0.00  0.00     0.168 HD
BRANCH  36  38
ATOM     38  C   UNL d   1      -8.900   1.644   7.871  0.00  0.00     0.035 A 
ATOM     39  C   UNL d   1      -8.298   1.006   6.791  0.00  0.00     0.045 A 
ATOM     40  C   UNL d   1      -8.941  -0.009   6.061  0.00  0.00     0.050 A 
ATOM     41  C   UNL d   1     -10.192  -0.450   6.488  0.00  0.00     0.032 A 
ATOM     42  C   UNL d   1     -10.803   0.130   7.613  0.00  0.00     0.050 A 
ATOM     43  C   UNL d   1     -10.141   1.167   8.301  0.00  0.00     0.045 A 
BRANCH  40  44
ATOM     44  C   UNL d   1      -8.292  -0.527   4.798  0.00  0.00     0.417 C 
ATOM     45  F   UNL d   1      -9.058  -1.430   4.126  0.00  0.00    -0.166 F 
ATOM     46  F   UNL d   1      -8.031   0.470   3.910  0.00  0.00    -0.166 F 
ATOM     47  F   UNL d   1      -7.099  -1.141   5.030  0.00  0.00    -0.166 F 
ENDBRANCH  40  44
BRANCH  42  48
ATOM     48  C   UNL d   1     -12.182  -0.300   8.053  0.00  0.00     0.417 C 
ATOM     49  F   UNL d   1     -12.760  -1.204   7.217  0.00  0.00    -0.166 F 
ATOM     50  F   UNL d   1     -12.183  -0.869   9.287  0.00  0.00    -0.166 F 
ATOM     51  F   UNL d   1     -13.047   0.751   8.120  0.00  0.00    -0.166 F 
ENDBRANCH  42  48
ENDBRANCH  36  38
ENDBRANCH  34  36
ENDBRANCH  31  34
ENDBRANCH  27  28
ENDBRANCH   1  27
TORSDOF 14
