REMARK  4 active torsions:
REMARK  status: ('A' for Active; 'I' for Inactive)
REMARK    1  A    between atoms: N_6  and  C_1 
REMARK       I    between atoms: C_9  and  N_6 
REMARK    2  A    between atoms: C_17  and  N_7 
REMARK    3  A    between atoms: C_14  and  C_9 
REMARK    4  A    between atoms: N_11  and  C_14 
ROOT
ATOM      1  C   UNL d   1       4.822  -0.415  -0.139  0.00  0.00     0.098 A 
ATOM      2  C   UNL d   1       4.684   0.869   0.380  0.00  0.00     0.085 A 
ATOM      3  C   UNL d   1       5.833   1.708   0.114  0.00  0.00    -0.021 A 
ATOM      4  C   UNL d   1       6.783   1.015  -0.614  0.00  0.00    -0.007 A 
ATOM      5  S   UNL d   1       6.319  -0.577  -0.945  0.00  0.00    -0.075 SA
ATOM      6  C   UNL d   1       3.528   1.299   1.112  0.00  0.00     0.103 C 
ATOM      7  N   UNL d   1       2.589   1.643   1.701  0.00  0.00    -0.191 NA
ATOM      8  C   UNL d   1       6.073   3.124   0.563  0.00  0.00     0.042 C 
ATOM      9  C   UNL d   1       8.089   1.566  -1.093  0.00  0.00     0.051 C 
ATOM     10  C   UNL d   1       7.345   3.756  -0.046  0.00  0.00     0.009 C 
ATOM     11  C   UNL d   1       8.524   2.779  -0.249  0.00  0.00    -0.014 C 
ATOM     12  C   UNL d   1       9.155   2.349   1.079  0.00  0.00     0.010 C 
ENDROOT
BRANCH   1  13
ATOM     13  N   UNL d   1       3.944  -1.502  -0.052  0.00  0.00    -0.319 N 
ATOM     14  C   UNL d   1       4.130  -2.754  -0.632  0.00  0.00     0.251 C 
ATOM     15  O   UNL d   1       5.048  -3.099  -1.369  0.00  0.00    -0.271 OA
ATOM     16  H   UNL d   1       3.062  -1.372   0.435  0.00  0.00     0.169 HD
BRANCH  14  17
ATOM     17  C   UNL d   1       3.073  -3.799  -0.239  0.00  0.00     0.375 C 
BRANCH  17  18
ATOM     18  N   UNL d   1       1.687  -3.329  -0.413  0.00  0.00     0.100 N 
ATOM     19  C   UNL d   1       1.372  -2.914  -1.808  0.00  0.00     0.292 C 
ATOM     20  C   UNL d   1       1.023  -4.019  -2.839  0.00  0.00     0.153 C 
ATOM     21  N   UNL d   1      -0.016  -4.908  -2.286  0.00  0.00    -0.378 N 
ATOM     22  C   UNL d   1       0.411  -5.520  -1.021  0.00  0.00     0.153 C 
ATOM     23  C   UNL d   1       0.728  -4.394   0.009  0.00  0.00     0.292 C 
BRANCH  21  24
ATOM     24  C   UNL d   1      -0.693  -5.672  -3.241  0.00  0.00     0.030 A 
ATOM     25  C   UNL d   1      -1.531  -5.020  -4.165  0.00  0.00     0.029 A 
ATOM     26  C   UNL d   1      -2.240  -5.721  -5.146  0.00  0.00     0.002 A 
ATOM     27  C   UNL d   1      -2.125  -7.104  -5.225  0.00  0.00     0.000 A 
ATOM     28  C   UNL d   1      -1.312  -7.776  -4.317  0.00  0.00     0.002 A 
ATOM     29  C   UNL d   1      -0.610  -7.067  -3.331  0.00  0.00     0.029 A 
ENDBRANCH  21  24
ENDBRANCH  17  18
ENDBRANCH  14  17
ENDBRANCH   1  13
TORSDOF 4
