REMARK  6 active torsions:
REMARK  status: ('A' for Active; 'I' for Inactive)
REMARK    1  A    between atoms: C_2  and  N_1 
REMARK       I    between atoms: C_5  and  N_1 
REMARK    2  A    between atoms: N_10  and  C_2 
REMARK    3  A    between atoms: C_3  and  C_6 
REMARK    4  A    between atoms: C_4  and  C_7 
REMARK    5  A    between atoms: C_15  and  C_5 
REMARK    6  A    between atoms: C_9  and  N_10 
ROOT
ATOM      1  C   UNL d   1       3.030  -2.160  -5.070  0.00  0.00     0.050 A 
ATOM      2  C   UNL d   1       4.395  -1.772  -3.095  0.00  0.00     0.050 A 
ATOM      3  C   UNL d   1       4.254  -2.261  -4.403  0.00  0.00     0.032 A 
ATOM      4  C   UNL d   1       2.057  -1.070  -3.096  0.00  0.00     0.035 A 
ATOM      5  C   UNL d   1       3.280  -1.206  -2.441  0.00  0.00     0.045 A 
ATOM      6  C   UNL d   1       1.958  -1.524  -4.422  0.00  0.00     0.045 A 
ENDROOT
BRANCH   4   7
ATOM      7  N   UNL d   1       0.861  -0.561  -2.546  0.00  0.00    -0.333 N 
ATOM      8  H   UNL d   1       0.065  -0.570  -3.180  0.00  0.00     0.168 HD
BRANCH   7   9
ATOM      9  C   UNL d   1       0.431  -0.278  -1.280  0.00  0.00     0.179 C 
ATOM     10  S   UNL d   1      -1.222  -0.045  -1.117  0.00  0.00    -0.040 SA
BRANCH   9  11
ATOM     11  N   UNL d   1       1.361  -0.176  -0.281  0.00  0.00    -0.299 N 
ATOM     12  C   UNL d   1       1.100  -0.253   1.086  0.00  0.00     0.257 C 
ATOM     13  O   UNL d   1       0.266  -1.005   1.579  0.00  0.00    -0.267 OA
ATOM     14  H   UNL d   1       2.124   0.412  -0.564  0.00  0.00     0.171 HD
BRANCH  12  15
ATOM     15  C   UNL d   1       1.984   0.532   2.003  0.00  0.00     0.032 A 
ATOM     16  C   UNL d   1       1.535   0.735   3.318  0.00  0.00     0.017 A 
ATOM     17  C   UNL d   1       2.308   1.454   4.232  0.00  0.00     0.001 A 
ATOM     18  C   UNL d   1       3.538   1.977   3.841  0.00  0.00     0.000 A 
ATOM     19  C   UNL d   1       3.999   1.773   2.542  0.00  0.00     0.001 A 
ATOM     20  C   UNL d   1       3.231   1.050   1.624  0.00  0.00     0.017 A 
ENDBRANCH  12  15
ENDBRANCH   9  11
ENDBRANCH   7   9
ENDBRANCH   4   7
BRANCH   2  21
ATOM     21  C   UNL d   1       5.724  -1.863  -2.378  0.00  0.00     0.417 C 
ATOM     22  F   UNL d   1       6.742  -2.304  -3.167  0.00  0.00    -0.166 F 
ATOM     23  F   UNL d   1       6.125  -0.653  -1.894  0.00  0.00    -0.166 F 
ATOM     24  F   UNL d   1       5.682  -2.698  -1.307  0.00  0.00    -0.166 F 
ENDBRANCH   2  21
BRANCH   1  25
ATOM     25  C   UNL d   1       2.857  -2.716  -6.463  0.00  0.00     0.417 C 
ATOM     26  F   UNL d   1       3.653  -3.792  -6.707  0.00  0.00    -0.166 F 
ATOM     27  F   UNL d   1       1.584  -3.130  -6.715  0.00  0.00    -0.166 F 
ATOM     28  F   UNL d   1       3.153  -1.800  -7.424  0.00  0.00    -0.166 F 
ENDBRANCH   1  25
TORSDOF 6
