REMARK  1 active torsions:
REMARK  status: ('A' for Active; 'I' for Inactive)
REMARK    1  A    between atoms: C_7  and  C_2 
ROOT
ATOM      1  N   UNL d   1      -1.798   0.587   0.312  0.00  0.00    -0.330 N 
ATOM      2  C   UNL d   1      -1.279   1.957   0.157  0.00  0.00     0.223 C 
ATOM      3  C   UNL d   1      -0.988  -0.522   0.258  0.00  0.00     0.048 A 
ATOM      4  N   UNL d   1       0.178   2.111   0.170  0.00  0.00    -0.364 N 
ATOM      5  C   UNL d   1       0.458  -0.347   0.137  0.00  0.00     0.017 A 
ATOM      6  C   UNL d   1       0.980   0.967   0.055  0.00  0.00     0.042 A 
ATOM      7  C   UNL d   1      -3.117   0.210   0.418  0.00  0.00     0.094 A 
ATOM      8  C   UNL d   1      -1.820  -1.627   0.294  0.00  0.00     0.032 A 
ATOM      9  C   UNL d   1      -3.157  -1.165   0.382  0.00  0.00     0.020 A 
ATOM     10  C   UNL d   1       1.319  -1.447   0.088  0.00  0.00     0.016 A 
ATOM     11  C   UNL d   1       2.372   1.130  -0.014  0.00  0.00     0.030 A 
ATOM     12  C   UNL d   1       2.697  -1.263  -0.016  0.00  0.00     0.001 A 
ATOM     13  C   UNL d   1       3.224   0.026  -0.058  0.00  0.00     0.002 A 
ATOM     14  H   UNL d   1       0.517   2.909  -0.356  0.00  0.00     0.162 HD
ENDROOT
BRANCH   2  15
ATOM     15  C   UNL d   1      -1.886   2.567  -1.108  0.00  0.00    -0.015 A 
ATOM     16  C   UNL d   1      -2.821   3.613  -0.981  0.00  0.00     0.021 A 
ATOM     17  C   UNL d   1      -3.604   3.918  -2.075  0.00  0.00    -0.022 A 
ATOM     18  C   UNL d   1      -4.730   4.873  -2.200  0.00  0.00     0.068 C 
ATOM     19  C   UNL d   1      -3.437   3.260  -3.285  0.00  0.00     0.075 A 
ATOM     20  C   UNL d   1      -5.407   4.231  -3.408  0.00  0.00     0.180 C 
ATOM     21  O   UNL d   1      -4.382   3.609  -4.220  0.00  0.00    -0.350 OA
ATOM     22  C   UNL d   1      -2.453   2.316  -3.480  0.00  0.00     0.038 A 
ATOM     23  C   UNL d   1      -1.672   1.966  -2.374  0.00  0.00     0.014 A 
ENDBRANCH   2  15
TORSDOF 1
