REMARK  5 active torsions:
REMARK  status: ('A' for Active; 'I' for Inactive)
REMARK    1  A    between atoms: C_8  and  N_1 
REMARK    2  A    between atoms: C_4  and  C_2 
REMARK       I    between atoms: N_7  and  C_4 
REMARK    3  A    between atoms: C_11  and  N_7 
REMARK    4  A    between atoms: C_15  and  C_8 
REMARK    5  A    between atoms: C_14  and  C_15 
ROOT
ATOM      1  N   UNL d   1       0.182  -0.884   0.301  0.00  0.00    -0.351 N 
ATOM      2  C   UNL d   1      -1.398   0.734  -0.254  0.00  0.00     0.105 C 
ATOM      3  C   UNL d   1       0.897   0.289   0.105  0.00  0.00     0.220 C 
ATOM      4  C   UNL d   1      -1.241  -0.636   0.361  0.00  0.00     0.140 C 
ATOM      5  C   UNL d   1      -0.083   1.436   0.057  0.00  0.00     0.118 C 
ATOM      6  O   UNL d   1       2.102   0.407  -0.046  0.00  0.00    -0.273 OA
ENDROOT
BRANCH   2   7
ATOM      7  C   UNL d   1      -1.721   0.703  -1.750  0.00  0.00     0.228 C 
ATOM      8  N   UNL d   1      -0.747   0.202  -2.594  0.00  0.00    -0.327 N 
ATOM      9  H   UNL d   1       0.011  -0.336  -2.184  0.00  0.00     0.169 HD
ATOM     10  O   UNL d   1      -2.824   1.112  -2.116  0.00  0.00    -0.273 OA
BRANCH   8  11
ATOM     11  C   UNL d   1      -0.705   0.344  -4.004  0.00  0.00     0.034 A 
ATOM     12  C   UNL d   1      -1.556   1.198  -4.716  0.00  0.00     0.031 A 
ATOM     13  C   UNL d   1      -1.421   1.364  -6.099  0.00  0.00     0.026 A 
ATOM     14  C   UNL d   1      -0.434   0.670  -6.787  0.00  0.00     0.034 A 
ATOM     15  C   UNL d   1       0.413  -0.199  -6.105  0.00  0.00     0.026 A 
ATOM     16 CL   UNL d   1      -0.246   0.903  -8.482  0.00  0.00    -0.084 Cl
ATOM     17  C   UNL d   1       0.280  -0.357  -4.717  0.00  0.00     0.031 A 
ENDBRANCH   8  11
ENDBRANCH   2   7
BRANCH   1  18
ATOM     18  C   UNL d   1       0.683  -2.255   0.240  0.00  0.00     0.130 C 
BRANCH  18  19
ATOM     19  C   UNL d   1       2.180  -2.458   0.487  0.00  0.00     0.058 C 
BRANCH  19  20
ATOM     20  C   UNL d   1       2.579  -3.903   0.291  0.00  0.00    -0.057 A 
ATOM     21  C   UNL d   1       2.920  -4.365  -0.990  0.00  0.00     0.009 A 
ATOM     22  C   UNL d   1       3.300  -5.694  -1.186  0.00  0.00     0.024 A 
ATOM     23  C   UNL d   1       3.337  -6.568  -0.103  0.00  0.00     0.034 A 
ATOM     24  C   UNL d   1       2.988  -6.127   1.172  0.00  0.00     0.024 A 
ATOM     25 CL   UNL d   1       3.822  -8.202  -0.342  0.00  0.00    -0.084 Cl
ATOM     26  C   UNL d   1       2.607  -4.797   1.369  0.00  0.00     0.009 A 
ENDBRANCH  19  20
ENDBRANCH  18  19
ENDBRANCH   1  18
TORSDOF 5
