REMARK  5 active torsions:
REMARK  status: ('A' for Active; 'I' for Inactive)
REMARK    1  A    between atoms: C_6  and  C_1 
REMARK    2  A    between atoms: C_12  and  N_2 
REMARK    3  A    between atoms: C_13  and  C_4 
REMARK       I    between atoms: N_8  and  C_6 
REMARK    4  A    between atoms: N_7  and  C_9 
REMARK    5  A    between atoms: C_15  and  N_8 
ROOT
ATOM      1  C   UNL d   1      -0.261   1.075   0.014  0.00  0.00     0.057 C 
ATOM      2  N   UNL d   1       0.919  -0.857   0.274  0.00  0.00    -0.314 N 
ATOM      3  C   UNL d   1       0.969   0.537   0.431  0.00  0.00     0.029 C 
ATOM      4  C   UNL d   1      -0.436  -1.214   0.104  0.00  0.00     0.051 C 
ATOM      5  C   UNL d   1      -1.139  -0.034  -0.116  0.00  0.00     0.050 C 
ATOM      6  C   UNL d   1       2.189   1.323   0.804  0.00  0.00     0.070 C 
ENDROOT
BRANCH   1   7
ATOM      7  C   UNL d   1      -0.499   2.520  -0.203  0.00  0.00     0.258 C 
ATOM      8  N   UNL d   1      -1.810   2.898  -0.474  0.00  0.00    -0.323 N 
ATOM      9  H   UNL d   1      -2.478   2.158  -0.622  0.00  0.00     0.169 HD
ATOM     10  O   UNL d   1       0.427   3.321  -0.156  0.00  0.00    -0.267 OA
BRANCH   8  11
ATOM     11  C   UNL d   1      -2.297   4.229  -0.526  0.00  0.00     0.037 A 
ATOM     12  C   UNL d   1      -1.519   5.357  -0.233  0.00  0.00     0.065 A 
ATOM     13  C   UNL d   1      -2.101   6.634  -0.196  0.00  0.00     0.105 A 
ATOM     14  C   UNL d   1      -3.459   6.806  -0.487  0.00  0.00     0.036 A 
ATOM     15  C   UNL d   1      -4.226   5.694  -0.819  0.00  0.00     0.005 A 
ATOM     16  C   UNL d   1      -3.650   4.415  -0.835  0.00  0.00     0.029 A 
BRANCH  13  17
ATOM     17  N   UNL d   1      -1.285   7.793   0.189  0.00  0.00    -0.116 N 
ATOM     18  O   UNL d   1      -0.115   7.595   0.535  0.00  0.00    -0.532 OA
ATOM     19  O   UNL d   1      -1.827   8.909   0.153  0.00  0.00    -0.532 OA
ENDBRANCH  13  17
ENDBRANCH   8  11
ENDBRANCH   1   7
BRANCH   2  20
ATOM     20  C   UNL d   1       2.038  -1.770   0.223  0.00  0.00     0.039 A 
ATOM     21  C   UNL d   1       3.129  -1.667   1.092  0.00  0.00     0.030 A 
ATOM     22  C   UNL d   1       4.149  -2.627   1.083  0.00  0.00     0.002 A 
ATOM     23  C   UNL d   1       4.072  -3.727   0.236  0.00  0.00     0.000 A 
ATOM     24  C   UNL d   1       3.000  -3.842  -0.642  0.00  0.00     0.002 A 
ATOM     25  C   UNL d   1       2.010  -2.854  -0.673  0.00  0.00     0.030 A 
ENDBRANCH   2  20
BRANCH   4  26
ATOM     26  C   UNL d   1      -0.974  -2.598   0.113  0.00  0.00    -0.009 A 
ATOM     27  C   UNL d   1      -1.984  -2.970  -0.787  0.00  0.00     0.014 A 
ATOM     28  C   UNL d   1      -2.373  -4.309  -0.916  0.00  0.00     0.001 A 
ATOM     29  C   UNL d   1      -1.753  -5.296  -0.155  0.00  0.00     0.000 A 
ATOM     30  C   UNL d   1      -0.797  -4.936   0.790  0.00  0.00     0.001 A 
ATOM     31  C   UNL d   1      -0.445  -3.593   0.951  0.00  0.00     0.014 A 
ENDBRANCH   4  26
TORSDOF 5
