REMARK  3 active torsions:
REMARK  status: ('A' for Active; 'I' for Inactive)
REMARK    1  A    between atoms: N_6  and  C_1 
REMARK    2  A    between atoms: C_13  and  N_8 
REMARK    3  A    between atoms: C_16  and  C_13 
ROOT
ATOM      1  N   UNL d   1       2.288  -1.997  -0.174  0.00  0.00    -0.372 N 
ATOM      2  N   UNL d   1       5.019  -2.852  -0.966  0.00  0.00     0.095 N 
ATOM      3  C   UNL d   1       3.416  -1.926   0.781  0.00  0.00     0.153 C 
ATOM      4  C   UNL d   1       2.476  -2.987  -1.254  0.00  0.00     0.153 C 
ATOM      5  C   UNL d   1       4.760  -1.785   0.035  0.00  0.00     0.292 C 
ATOM      6  C   UNL d   1       3.874  -2.846  -1.911  0.00  0.00     0.292 C 
ENDROOT
BRANCH   1   7
ATOM      7  C   UNL d   1       1.119  -1.236  -0.045  0.00  0.00     0.115 A 
ATOM      8  C   UNL d   1       1.179   0.192   0.481  0.00  0.00     0.277 A 
ATOM      9  N   UNL d   1      -0.010   0.866   0.574  0.00  0.00    -0.274 N 
ATOM     10  O   UNL d   1       2.228   0.760   0.778  0.00  0.00    -0.266 OA
ATOM     11  C   UNL d   1      -1.216   0.402   0.152  0.00  0.00     0.327 A 
ATOM     12  H   UNL d   1       0.032   1.819   0.890  0.00  0.00     0.173 HD
ATOM     13  N   UNL d   1      -1.224  -0.876  -0.325  0.00  0.00    -0.316 N 
ATOM     14  O   UNL d   1      -2.235   1.086   0.186  0.00  0.00    -0.247 OA
ATOM     15  C   UNL d   1      -0.103  -1.654  -0.417  0.00  0.00     0.128 A 
ATOM     16  H   UNL d   1      -2.121  -1.227  -0.631  0.00  0.00     0.170 HD
ENDBRANCH   1   7
BRANCH   2  17
ATOM     17  C   UNL d   1       5.162  -4.191  -0.365  0.00  0.00     0.311 C 
BRANCH  17  18
ATOM     18  C   UNL d   1       6.301  -4.342   0.619  0.00  0.00    -0.030 A 
ATOM     19  C   UNL d   1       6.038  -4.661   1.961  0.00  0.00     0.009 A 
ATOM     20  C   UNL d   1       7.085  -4.861   2.861  0.00  0.00     0.001 A 
ATOM     21  C   UNL d   1       8.404  -4.747   2.431  0.00  0.00     0.000 A 
ATOM     22  C   UNL d   1       8.678  -4.426   1.102  0.00  0.00     0.001 A 
ATOM     23  C   UNL d   1       7.632  -4.220   0.200  0.00  0.00     0.009 A 
ENDBRANCH  17  18
ENDBRANCH   2  17
TORSDOF 3
