REMARK  2 active torsions:
REMARK  status: ('A' for Active; 'I' for Inactive)
REMARK    1  A    between atoms: N_11  and  N_4 
REMARK    2  A    between atoms: C_20  and  C_19 
ROOT
ATOM      1  C   UNL d   1       1.240   0.865  -0.018  0.00  0.00     0.104 A 
ATOM      2  C   UNL d   1       0.752  -0.409  -0.029  0.00  0.00     0.070 A 
ATOM      3  C   UNL d   1       2.639   1.169   0.039  0.00  0.00     0.287 C 
ATOM      4  N   UNL d   1       3.430   0.014   0.262  0.00  0.00    -0.207 N 
ATOM      5  N   UNL d   1       1.602  -1.520  -0.019  0.00  0.00    -0.343 N 
ATOM      6  HN  UNL d   1       1.252  -2.472  -0.124  1.00  0.00     0.167 HD
ATOM      7  S   UNL d   1       0.008   2.025  -0.041  0.00  0.00    -0.064 SA
ATOM      8  C   UNL d   1      -0.675  -0.486  -0.040  0.00  0.00     0.032 A 
ATOM      9  C   UNL d   1      -1.197   0.809  -0.040  0.00  0.00     0.088 A 
ATOM     10  C   UNL d   1       2.869  -1.259   0.134  0.00  0.00     0.103 C 
ATOM     11  N   UNL d   1      -2.497   1.162  -0.035  0.00  0.00    -0.354 N 
ATOM     12  HN  UNL d   1      -2.804   2.134  -0.034  1.00  0.00     0.166 HD
ATOM     13  C   UNL d   1      -1.609  -1.555  -0.038  0.00  0.00    -0.045 A 
ATOM     14  O   UNL d   1       3.089   2.308  -0.102  0.00  0.00    -0.265 OA
ATOM     15  C   UNL d   1      -2.970  -1.208  -0.035  0.00  0.00     0.032 A 
ATOM     16  C   UNL d   1      -3.359   0.128  -0.032  0.00  0.00     0.006 A 
ATOM     17  C   UNL d   1       3.775  -2.471   0.183  0.00  0.00     0.091 C 
ATOM     18  C   UNL d   1      -1.255  -3.017  -0.029  0.00  0.00     0.049 C 
ATOM     19  C   UNL d   1      -4.823   0.463  -0.021  0.00  0.00     0.068 C 
ENDROOT
BRANCH   4  20
ATOM     20  N   UNL d   1       4.818   0.117   0.481  0.00  0.00    -0.300 N 
ATOM     21  C   UNL d   1       5.207   1.140   1.178  0.00  0.00     0.119 C 
ATOM     22  HN  UNL d   1       5.476  -0.569   0.113  1.00  0.00     0.186 HD
BRANCH  21  23
ATOM     23  C   UNL d   1       6.617   1.460   1.486  0.00  0.00    -0.019 A 
ATOM     24  C   UNL d   1       7.683   0.662   1.069  0.00  0.00     0.014 A 
ATOM     25  C   UNL d   1       8.988   1.006   1.446  0.00  0.00     0.024 A 
ATOM     26  C   UNL d   1       9.217   2.141   2.225  0.00  0.00     0.034 A 
ATOM     27  C   UNL d   1       8.158   2.951   2.624  0.00  0.00     0.024 A 
ATOM     28 CL   UNL d   1      10.820   2.541   2.712  0.00  0.00    -0.084 Cl
ATOM     29  C   UNL d   1       6.857   2.612   2.250  0.00  0.00     0.014 A 
ENDBRANCH  21  23
ENDBRANCH   4  20
TORSDOF 2
