REMARK  2 active torsions:
REMARK  status: ('A' for Active; 'I' for Inactive)
REMARK    1  A    between atoms: C_15  and  C_12 
REMARK    2  A    between atoms: O_19  and  C_18 
ROOT
ATOM      1  N   UNL d   1      -0.816   1.036  -0.013  0.00  0.00    -0.196 N 
ATOM      2  C   UNL d   1       0.048  -0.033   0.004  0.00  0.00     0.177 A 
ATOM      3  N   UNL d   1       1.334   0.020   0.028  0.00  0.00    -0.300 N 
ATOM      4  HN  UNL d   1       1.922  -0.813   0.040  1.00  0.00     0.171 HD
ATOM      5  N   UNL d   1      -0.383   2.342   0.000  0.00  0.00    -0.288 N 
ATOM      6  HN  UNL d   1      -1.031   3.130  -0.009  1.00  0.00     0.187 HD
ATOM      7  C   UNL d   1      -2.174   0.752  -0.036  0.00  0.00     0.285 A 
ATOM      8  C   UNL d   1      -2.358  -0.730  -0.038  0.00  0.00     0.079 A 
ATOM      9  S   UNL d   1      -0.831  -1.535  -0.009  0.00  0.00    -0.046 SA
ATOM     10  C   UNL d   1       1.848   1.297   0.038  0.00  0.00     0.271 A 
ATOM     11  C   UNL d   1       0.908   2.505   0.025  0.00  0.00     0.090 A 
ATOM     12  C   UNL d   1      -3.578  -1.285  -0.050  0.00  0.00     0.036 C 
ATOM     13  O   UNL d   1      -3.105   1.546  -0.045  0.00  0.00    -0.265 OA
ATOM     14  O   UNL d   1       3.050   1.522   0.057  0.00  0.00    -0.266 OA
ATOM     15  C   UNL d   1       1.494   3.885   0.043  0.00  0.00     0.076 C 
ENDROOT
BRANCH  12  16
ATOM     16  C   UNL d   1      -3.842  -2.725  -0.024  0.00  0.00    -0.032 A 
ATOM     17  C   UNL d   1      -3.976  -3.385   1.206  0.00  0.00     0.048 A 
ATOM     18  C   UNL d   1      -4.189  -4.764   1.244  0.00  0.00     0.069 A 
ATOM     19  C   UNL d   1      -4.278  -5.477   0.046  0.00  0.00     0.037 A 
ATOM     20  C   UNL d   1      -4.161  -4.822  -1.181  0.00  0.00     0.004 A 
ATOM     21  C   UNL d   1      -3.942  -3.446  -1.217  0.00  0.00     0.011 A 
BRANCH  18  22
ATOM     22  O   UNL d   1      -4.320  -5.524   2.374  0.00  0.00    -0.356 OA
ATOM     23  C   UNL d   1      -4.233  -4.843   3.620  0.00  0.00     0.210 C 
ENDBRANCH  18  22
ENDBRANCH  12  16
TORSDOF 2
