REMARK  1 active torsions:
REMARK  status: ('A' for Active; 'I' for Inactive)
REMARK    1  A    between atoms: C_7  and  C_4 
ROOT
ATOM      1  C   UNL d   1       1.870   0.494   0.073  0.00  0.00    -0.002 A 
ATOM      2  C   UNL d   1       0.819   1.554   0.226  0.00  0.00     0.189 A 
ATOM      3  C   UNL d   1      -0.440   0.854   0.524  0.00  0.00     0.021 A 
ATOM      4  C   UNL d   1       3.168   0.775  -0.102  0.00  0.00     0.023 C 
ATOM      5  C   UNL d   1      -0.212  -0.522   0.534  0.00  0.00    -0.040 A 
ATOM      6  C   UNL d   1       1.211  -0.855   0.211  0.00  0.00     0.082 A 
ATOM      7  O   UNL d   1       0.972   2.755   0.138  0.00  0.00    -0.287 OA
ATOM      8  C   UNL d   1      -1.685   1.397   0.786  0.00  0.00     0.016 A 
ATOM      9  C   UNL d   1      -1.243  -1.403   0.815  0.00  0.00     0.008 A 
ATOM     10  C   UNL d   1      -2.729   0.512   1.073  0.00  0.00     0.001 A 
ATOM     11  C   UNL d   1      -2.508  -0.877   1.089  0.00  0.00     0.001 A 
ENDROOT
BRANCH   4  12
ATOM     12  C   UNL d   1       4.172  -0.288  -0.187  0.00  0.00    -0.035 A 
ATOM     13  C   UNL d   1       4.795  -0.756   0.976  0.00  0.00     0.023 A 
ATOM     14  C   UNL d   1       5.713  -1.820   0.927  0.00  0.00    -0.025 A 
ATOM     15  C   UNL d   1       6.353  -2.292   2.085  0.00  0.00     0.012 A 
ATOM     16  C   UNL d   1       5.999  -2.430  -0.315  0.00  0.00    -0.026 A 
ATOM     17  C   UNL d   1       7.269  -3.343   2.016  0.00  0.00     0.001 A 
ATOM     18  C   UNL d   1       7.549  -3.944   0.793  0.00  0.00     0.001 A 
ATOM     19  C   UNL d   1       6.914  -3.495  -0.366  0.00  0.00     0.012 A 
ATOM     20  C   UNL d   1       5.366  -1.956  -1.475  0.00  0.00     0.013 A 
ATOM     21  C   UNL d   1       4.466  -0.889  -1.413  0.00  0.00     0.012 A 
ENDBRANCH   4  12
TORSDOF 1
