REMARK  2 active torsions:
REMARK  status: ('A' for Active; 'I' for Inactive)
REMARK    1  A    between atoms: C_4  and  C_1 
REMARK    2  A    between atoms: N_10  and  C_5 
ROOT
ATOM      1  C   UNL d   1      -1.123  -1.306   0.025  0.00  0.00     0.057 A 
ATOM      2  N   UNL d   1      -1.556  -0.091  -0.486  0.00  0.00    -0.336 N 
ATOM      3  HN  UNL d   1      -2.465   0.066  -0.921  1.00  0.00     0.168 HD
ATOM      4  C   UNL d   1      -0.634   0.827  -0.333  0.00  0.00     0.142 A 
ATOM      5  C   UNL d   1       0.159  -1.281   0.542  0.00  0.00     0.083 A 
ATOM      6  S   UNL d   1       0.822   0.292   0.398  0.00  0.00    -0.064 SA
ENDROOT
BRANCH   1   7
ATOM      7  C   UNL d   1      -1.975  -2.487   0.006  0.00  0.00     0.068 A 
ATOM      8  C   UNL d   1      -2.893  -2.697  -1.029  0.00  0.00     0.132 A 
ATOM      9  F   UNL d   1      -2.987  -1.839  -2.057  0.00  0.00    -0.205 F 
ATOM     10  C   UNL d   1      -3.726  -3.819  -1.052  0.00  0.00     0.043 A 
ATOM     11  C   UNL d   1      -3.657  -4.763  -0.030  0.00  0.00     0.006 A 
ATOM     12  C   UNL d   1      -2.752  -4.576   1.011  0.00  0.00     0.043 A 
ATOM     13  C   UNL d   1      -1.927  -3.449   1.024  0.00  0.00     0.132 A 
ATOM     14  F   UNL d   1      -1.084  -3.313   2.060  0.00  0.00    -0.205 F 
ENDBRANCH   1   7
BRANCH   4  15
ATOM     15  N   UNL d   1      -0.791   2.100  -0.726  0.00  0.00    -0.380 N 
ATOM     16  H   UNL d   1      -1.538   2.262  -1.391  0.00  0.00     0.158 HD
ATOM     17  H   UNL d   1       0.039   2.658  -0.878  0.00  0.00     0.158 HD
ENDBRANCH   4  15
TORSDOF 2
