REMARK  2 active torsions:
REMARK  status: ('A' for Active; 'I' for Inactive)
REMARK    1  A    between atoms: C_2  and  C_1 
REMARK       I    between atoms: N_3  and  C_1 
REMARK    2  A    between atoms: C_10  and  N_3 
ROOT
ATOM      1  C   UNL d   1       0.839   0.446   0.337  0.00  0.00     0.253 C 
ATOM      2  N   UNL d   1       0.339  -0.803   0.740  0.00  0.00    -0.348 N 
ATOM      3  O   UNL d   1       1.878   0.939   0.772  0.00  0.00    -0.267 OA
ATOM      4  C   UNL d   1      -1.107  -0.936   0.945  0.00  0.00     0.153 C 
ENDROOT
BRANCH   1   5
ATOM      5  C   UNL d   1       0.114   1.248  -0.689  0.00  0.00     0.035 A 
ATOM      6  C   UNL d   1       0.272   2.643  -0.658  0.00  0.00     0.041 A 
ATOM      7  C   UNL d   1      -0.363   3.439  -1.606  0.00  0.00     0.036 A 
ATOM      8 CL   UNL d   1      -0.159   5.147  -1.558  0.00  0.00    -0.084 Cl
ATOM      9  C   UNL d   1      -1.161   2.866  -2.594  0.00  0.00     0.047 A 
ATOM     10  C   UNL d   1      -1.294   1.479  -2.639  0.00  0.00     0.036 A 
ATOM     11  C   UNL d   1      -0.641   0.663  -1.715  0.00  0.00     0.041 A 
ATOM     12 CL   UNL d   1      -2.280   0.764  -3.856  0.00  0.00    -0.084 Cl
ENDBRANCH   1   5
BRANCH   2  13
ATOM     13  C   UNL d   1       1.187  -1.706   1.582  0.00  0.00     0.087 C 
ATOM     14  C   UNL d   1       2.701  -1.724   1.264  0.00  0.00     0.025 C 
ATOM     15  C   UNL d   1       2.986  -2.258  -0.137  0.00  0.00     0.002 C 
ATOM     16  C   UNL d   1       2.428  -3.667  -0.314  0.00  0.00     0.000 C 
ATOM     17  C   UNL d   1       0.964  -3.773   0.109  0.00  0.00     0.002 C 
ATOM     18  C   UNL d   1       0.721  -3.181   1.501  0.00  0.00     0.025 C 
ENDBRANCH   2  13
TORSDOF 2
