REMARK  4 active torsions:
REMARK  status: ('A' for Active; 'I' for Inactive)
REMARK    1  A    between atoms: C_3  and  C_1 
REMARK    2  A    between atoms: C_9  and  C_3 
REMARK    3  A    between atoms: O_27  and  C_18 
REMARK    4  A    between atoms: K_29  and  K_29 
ROOT
ATOM      1  K   UNL d   2       0.932   0.186  -3.039  0.00  0.00     0.000 K 
ENDROOT
TORSDOF 4
