REMARK  2 active torsions:
REMARK  status: ('A' for Active; 'I' for Inactive)
REMARK    1  A    between atoms: O_12  and  C_6 
REMARK    2  A    between atoms: C_10  and  N_7 
ROOT
ATOM      1  C   UNL d   1      -1.512  -2.929  -0.716  0.00  0.00     0.116 A 
ATOM      2  C   UNL d   1      -2.304  -1.949  -1.296  0.00  0.00     0.131 A 
ATOM      3  N   UNL d   1      -3.679  -3.810  -1.688  0.00  0.00    -0.304 N 
ATOM      4  HN  UNL d   1      -4.481  -4.342  -2.026  1.00  0.00     0.176 HD
ATOM      5  S   UNL d   1      -2.385  -4.422  -0.858  0.00  0.00     0.007 SA
ATOM      6  C   UNL d   1      -3.491  -2.510  -1.837  0.00  0.00     0.170 A 
ATOM      7  N   UNL d   1      -0.322  -2.782  -0.070  0.00  0.00    -0.347 N 
ATOM      8  C   UNL d   1      -1.942  -0.574  -1.372  0.00  0.00     0.107 C 
ATOM      9  N   UNL d   1      -1.672   0.550  -1.453  0.00  0.00    -0.191 NA
ATOM     10  H   UNL d   1      -0.080  -1.896   0.376  0.00  0.00     0.167 HD
ENDROOT
BRANCH   6  11
ATOM     11  O   UNL d   1      -4.476  -1.883  -2.502  0.00  0.00    -0.344 OA
ATOM     12  H   UNL d   1      -4.292  -0.937  -2.610  0.00  0.00     0.219 HD
ENDBRANCH   6  11
BRANCH   7  13
ATOM     13  C   UNL d   1       0.766  -3.690  -0.032  0.00  0.00     0.054 A 
ATOM     14  C   UNL d   1       1.636  -3.711   1.077  0.00  0.00     0.060 A 
ATOM     15 CL   UNL d   1       1.422  -2.599   2.387  0.00  0.00    -0.082 Cl
ATOM     16  C   UNL d   1       2.691  -4.625   1.155  0.00  0.00     0.026 A 
ATOM     17  C   UNL d   1       2.898  -5.536   0.121  0.00  0.00     0.002 A 
ATOM     18  C   UNL d   1       2.052  -5.532  -0.984  0.00  0.00     0.002 A 
ATOM     19  C   UNL d   1       0.992  -4.623  -1.056  0.00  0.00     0.031 A 
ENDBRANCH   7  13
TORSDOF 2
