REMARK  5 active torsions:
REMARK  status: ('A' for Active; 'I' for Inactive)
REMARK    1  A    between atoms: C_12  and  C_3 
REMARK    2  A    between atoms: C_16  and  C_8 
REMARK    3  A    between atoms: C_15  and  N_9 
REMARK    4  A    between atoms: O_19  and  C_12 
REMARK    5  A    between atoms: C_24  and  O_19 
ROOT
ATOM      1  N   UNL d   1      -0.311   0.708  -0.099  0.00  0.00    -0.120 N 
ATOM      2  C   UNL d   1       0.034  -0.642  -0.053  0.00  0.00     0.716 A 
ATOM      3  C   UNL d   1      -1.703   0.787  -0.135  0.00  0.00     0.220 A 
ATOM      4  N   UNL d   1       1.229  -1.121   0.019  0.00  0.00    -0.152 N 
ATOM      5  HN  UNL d   1       1.381  -2.128   0.070  1.00  0.00     0.187 HD
ATOM      6  N   UNL d   1      -2.287  -0.402  -0.090  0.00  0.00    -0.258 N 
ATOM      7  HN  UNL d   1      -3.283  -0.619  -0.082  1.00  0.00     0.190 HD
ATOM      8  C   UNL d   1       0.725   1.631  -0.029  0.00  0.00     0.095 A 
ATOM      9  N   UNL d   1      -1.207  -1.287  -0.057  0.00  0.00    -0.084 N 
ATOM     10  C   UNL d   1       2.013   1.212   0.037  0.00  0.00     0.141 A 
ATOM     11  C   UNL d   1       2.292  -0.255   0.027  0.00  0.00     0.282 A 
ATOM     12  C   UNL d   1       3.135   2.079   0.113  0.00  0.00     0.107 C 
ATOM     13  N   UNL d   1       4.029   2.820   0.181  0.00  0.00    -0.191 NA
ATOM     14  O   UNL d   1       3.448  -0.660   0.035  0.00  0.00    -0.266 OA
ENDROOT
BRANCH   8  15
ATOM     15  C   UNL d   1       0.466   3.080  -0.003  0.00  0.00    -0.006 A 
ATOM     16  C   UNL d   1       0.489   3.814  -1.198  0.00  0.00     0.014 A 
ATOM     17  C   UNL d   1       0.414   5.207  -1.170  0.00  0.00     0.001 A 
ATOM     18  C   UNL d   1       0.328   5.877   0.048  0.00  0.00     0.000 A 
ATOM     19  C   UNL d   1       0.305   5.157   1.242  0.00  0.00     0.001 A 
ATOM     20  C   UNL d   1       0.371   3.761   1.220  0.00  0.00     0.014 A 
ENDBRANCH   8  15
BRANCH   3  21
ATOM     21  C   UNL d   1      -2.554   2.028  -0.225  0.00  0.00     0.330 C 
ATOM     22  O   UNL d   1      -2.398   2.871  -1.086  0.00  0.00    -0.256 OA
BRANCH  21  23
ATOM     23  O   UNL d   1      -3.462   1.999   0.770  0.00  0.00    -0.316 OA
BRANCH  23  24
ATOM     24  C   UNL d   1      -4.275   3.168   0.939  0.00  0.00     0.175 C 
ATOM     25  C   UNL d   1      -3.927   3.744   2.297  0.00  0.00     0.034 C 
ENDBRANCH  23  24
ENDBRANCH  21  23
ENDBRANCH   3  21
BRANCH   9  26
ATOM     26  C   UNL d   1      -1.426  -2.680   0.079  0.00  0.00     0.074 A 
ATOM     27  C   UNL d   1      -2.626  -3.182   0.609  0.00  0.00     0.032 A 
ATOM     28  C   UNL d   1      -2.810  -4.556   0.812  0.00  0.00     0.002 A 
ATOM     29  C   UNL d   1      -1.806  -5.457   0.464  0.00  0.00     0.000 A 
ATOM     30  C   UNL d   1      -0.625  -4.987  -0.096  0.00  0.00     0.002 A 
ATOM     31  C   UNL d   1      -0.442  -3.615  -0.286  0.00  0.00     0.032 A 
ENDBRANCH   9  26
TORSDOF 5
