REMARK  5 active torsions:
REMARK  status: ('A' for Active; 'I' for Inactive)
REMARK    1  A    between atoms: C_10  and  N_1 
REMARK    2  A    between atoms: S_15  and  C_2 
REMARK    3  A    between atoms: C_12  and  C_3 
REMARK    4  A    between atoms: C_11  and  O_13 
REMARK    5  A    between atoms: O_13  and  C_12 
ROOT
ATOM      1  N   UNL d   1      -0.341   0.293   0.854  0.00  0.00    -0.277 N 
ATOM      2  C   UNL d   1       0.920   0.007   0.325  0.00  0.00     0.167 A 
ATOM      3  C   UNL d   1      -1.216  -0.382  -0.007  0.00  0.00     0.129 A 
ATOM      4  N   UNL d   1       0.809  -0.739  -0.747  0.00  0.00    -0.278 N 
ATOM      5  HN  UNL d   1       1.579  -1.079  -1.323  1.00  0.00     0.189 HD
ATOM      6  N   UNL d   1      -0.516  -0.981  -0.956  0.00  0.00    -0.285 N 
ATOM      7  HN  UNL d   1      -0.905  -1.534  -1.720  1.00  0.00     0.188 HD
ENDROOT
BRANCH   3   8
ATOM      8  C   UNL d   1      -2.711  -0.295  -0.031  0.00  0.00     0.254 C 
BRANCH   8   9
ATOM      9  O   UNL d   1      -3.235  -1.593   0.285  0.00  0.00    -0.343 OA
BRANCH   9  10
ATOM     10  C   UNL d   1      -4.593  -1.756   0.185  0.00  0.00     0.076 A 
ATOM     11  C   UNL d   1      -5.095  -3.042   0.355  0.00  0.00    -0.018 A 
ATOM     12  C   UNL d   1      -6.471  -3.310   0.303  0.00  0.00    -0.043 A 
ATOM     13  C   UNL d   1      -4.314  -4.300   0.596  0.00  0.00     0.042 A 
ATOM     14  C   UNL d   1      -6.770  -4.759   0.520  0.00  0.00     0.040 A 
ATOM     15  C   UNL d   1      -7.395  -2.293   0.074  0.00  0.00    -0.055 A 
ATOM     16  C   UNL d   1      -5.388  -5.394   0.701  0.00  0.00     0.009 A 
ATOM     17  C   UNL d   1      -6.897  -1.000  -0.111  0.00  0.00     0.010 A 
ATOM     18  C   UNL d   1      -8.868  -2.568   0.028  0.00  0.00     0.049 C 
ATOM     19  C   UNL d   1      -5.516  -0.733  -0.057  0.00  0.00     0.038 A 
ENDBRANCH   9  10
ENDBRANCH   8   9
ENDBRANCH   3   8
BRANCH   1  20
ATOM     20  C   UNL d   1      -0.654   1.077   2.009  0.00  0.00     0.043 A 
ATOM     21  C   UNL d   1       0.129   2.191   2.354  0.00  0.00     0.030 A 
ATOM     22  C   UNL d   1      -0.099   2.886   3.545  0.00  0.00     0.002 A 
ATOM     23  C   UNL d   1      -1.142   2.507   4.382  0.00  0.00     0.000 A 
ATOM     24  C   UNL d   1      -1.962   1.439   4.023  0.00  0.00     0.002 A 
ATOM     25  C   UNL d   1      -1.716   0.717   2.849  0.00  0.00     0.030 A 
ENDBRANCH   1  20
BRANCH   2  26
ATOM     26  S   UNL d   1       2.445   0.418   1.060  0.00  0.00    -0.096 SA
ATOM     27  C   UNL d   1       3.638  -0.242  -0.118  0.00  0.00     0.099 C 
ENDBRANCH   2  26
TORSDOF 5
