REMARK  5 active torsions:
REMARK  status: ('A' for Active; 'I' for Inactive)
REMARK    1  A    between atoms: C_6  and  C_1 
REMARK    2  A    between atoms: N_10  and  C_2 
REMARK    3  A    between atoms: C_11  and  N_3 
REMARK    4  A    between atoms: N_7  and  C_12 
REMARK       I    between atoms: C_9  and  N_10 
REMARK       I    between atoms: N_13  and  C_9 
REMARK    5  A    between atoms: C_18  and  N_13 
ROOT
ATOM      1  C   UNL d   1       1.186  -0.935   0.172  0.00  0.00     0.168 C 
ATOM      2  C   UNL d   1      -0.136  -1.311   0.345  0.00  0.00     0.087 C 
ATOM      3  N   UNL d   1       1.252   0.404   0.506  0.00  0.00    -0.250 N 
ATOM      4  N   UNL d   1       0.136   0.785   1.188  0.00  0.00    -0.302 N 
ATOM      5  HN  UNL d   1      -0.014   1.651   1.707  1.00  0.00     0.186 HD
ATOM      6  C   UNL d   1      -0.714  -0.225   1.026  0.00  0.00     0.139 C 
ENDROOT
BRANCH   2   7
ATOM      7  N   UNL d   1      -0.769  -2.510   0.032  0.00  0.00    -0.305 N 
ATOM      8  C   UNL d   1      -0.392  -3.285  -1.056  0.00  0.00     0.325 C 
ATOM      9  N   UNL d   1      -1.128  -4.454  -1.126  0.00  0.00    -0.309 N 
ATOM     10  O   UNL d   1       0.460  -2.930  -1.857  0.00  0.00    -0.247 OA
ATOM     11  H   UNL d   1      -1.712  -4.673  -0.332  0.00  0.00     0.170 HD
ATOM     12  H   UNL d   1      -1.732  -2.597   0.326  0.00  0.00     0.171 HD
BRANCH   9  13
ATOM     13  C   UNL d   1      -1.105  -5.402  -2.174  0.00  0.00     0.039 A 
ATOM     14  C   UNL d   1      -0.296  -5.288  -3.305  0.00  0.00     0.072 A 
ATOM     15  C   UNL d   1      -0.396  -6.220  -4.334  0.00  0.00     0.124 A 
ATOM     16  F   UNL d   1       0.380  -6.070  -5.418  0.00  0.00    -0.205 F 
ATOM     17  C   UNL d   1      -1.292  -7.285  -4.270  0.00  0.00    -0.023 A 
ATOM     18  C   UNL d   1      -2.078  -7.426  -3.123  0.00  0.00     0.012 A 
ATOM     19  C   UNL d   1      -1.429  -8.211  -5.439  0.00  0.00     0.051 C 
ATOM     20  C   UNL d   1      -1.979  -6.494  -2.081  0.00  0.00     0.030 A 
ENDBRANCH   9  13
ENDBRANCH   2   7
BRANCH   1  21
ATOM     21  C   UNL d   1       2.398  -1.724  -0.114  0.00  0.00     0.436 C 
ATOM     22  F   UNL d   1       2.250  -3.038   0.206  0.00  0.00    -0.164 F 
ATOM     23  F   UNL d   1       2.798  -1.662  -1.406  0.00  0.00    -0.164 F 
ATOM     24  F   UNL d   1       3.453  -1.298   0.635  0.00  0.00    -0.164 F 
ENDBRANCH   1  21
BRANCH   3  25
ATOM     25  C   UNL d   1       2.274   1.373   0.266  0.00  0.00     0.057 A 
ATOM     26  C   UNL d   1       3.156   1.264  -0.818  0.00  0.00     0.034 A 
ATOM     27  C   UNL d   1       4.178   2.206  -0.995  0.00  0.00     0.038 A 
ATOM     28  C   UNL d   1       4.309   3.267  -0.093  0.00  0.00     0.103 A 
ATOM     29  C   UNL d   1       3.400   3.418   0.960  0.00  0.00     0.038 A 
ATOM     30  C   UNL d   1       2.376   2.479   1.127  0.00  0.00     0.034 A 
BRANCH  28  31
ATOM     31  N   UNL d   1       5.410   4.227  -0.249  0.00  0.00    -0.116 N 
ATOM     32  O   UNL d   1       5.516   5.124   0.599  0.00  0.00    -0.532 OA
ATOM     33  O   UNL d   1       6.172   4.078  -1.214  0.00  0.00    -0.532 OA
ENDBRANCH  28  31
ENDBRANCH   3  25
TORSDOF 5
