REMARK  1 active torsions:
REMARK  status: ('A' for Active; 'I' for Inactive)
REMARK    1  A    between atoms: N_8  and  C_1 
ROOT
ATOM      1  C   UNL d   1       2.449  -0.584  -0.128  0.00  0.00     0.150 C 
ATOM      2  S   UNL d   1       2.560   1.130  -0.489  0.00  0.00    -0.011 SA
ATOM      3  N   UNL d   1       1.315  -1.192   0.062  0.00  0.00    -0.336 N 
ATOM      4  HN  UNL d   1       1.338  -2.192   0.261  1.00  0.00     0.168 HD
ATOM      5  C   UNL d   1       1.039   1.698   0.134  0.00  0.00     0.228 C 
ATOM      6  C   UNL d   1      -0.121   0.809   0.058  0.00  0.00     0.048 A 
ATOM      7  C   UNL d   1       0.071  -0.566   0.011  0.00  0.00     0.048 A 
ATOM      8  O   UNL d   1       0.921   2.849   0.534  0.00  0.00    -0.279 OA
ATOM      9  C   UNL d   1      -1.414   1.359   0.039  0.00  0.00     0.018 A 
ATOM     10  C   UNL d   1      -1.059  -1.393  -0.043  0.00  0.00     0.030 A 
ATOM     11  C   UNL d   1      -2.527   0.523  -0.034  0.00  0.00     0.001 A 
ATOM     12  C   UNL d   1      -2.349  -0.857  -0.071  0.00  0.00     0.002 A 
ENDROOT
BRANCH   1  13
ATOM     13  N   UNL d   1       3.639  -1.309  -0.070  0.00  0.00    -0.370 N 
ATOM     14  C   UNL d   1       3.609  -2.766   0.073  0.00  0.00     0.151 C 
ATOM     15  C   UNL d   1       4.968  -0.799  -0.389  0.00  0.00     0.151 C 
ENDBRANCH   1  13
TORSDOF 1
