REMARK  2 active torsions:
REMARK  status: ('A' for Active; 'I' for Inactive)
REMARK    1  A    between atoms: C_11  and  C_7 
REMARK    2  A    between atoms: O_16  and  C_15 
ROOT
ATOM      1  C   UNL d   1       0.375  -1.363  -0.059  0.00  0.00     0.101 C 
ATOM      2  N   UNL d   1      -1.265   0.408   0.026  0.00  0.00    -0.270 N 
ATOM      3  N   UNL d   1       1.036   0.950  -0.007  0.00  0.00    -0.270 N 
ATOM      4  C   UNL d   1      -0.276   1.378   0.090  0.00  0.00     0.333 C 
ATOM      5  C   UNL d   1       1.424  -0.347  -0.279  0.00  0.00     0.267 C 
ATOM      6  C   UNL d   1      -1.047  -0.956  -0.052  0.00  0.00     0.267 C 
ATOM      7  C   UNL d   1       0.643  -2.659   0.202  0.00  0.00     0.034 C 
ATOM      8  O   UNL d   1      -0.556   2.575   0.203  0.00  0.00    -0.246 OA
ATOM      9  O   UNL d   1      -1.951  -1.791  -0.097  0.00  0.00    -0.267 OA
ATOM     10  O   UNL d   1       2.536  -0.635  -0.712  0.00  0.00    -0.267 OA
ATOM     11  C   UNL d   1      -2.638   0.882   0.091  0.00  0.00     0.164 C 
ATOM     12  C   UNL d   1       2.062   1.978  -0.034  0.00  0.00     0.164 C 
ENDROOT
BRANCH   7  13
ATOM     13  C   UNL d   1       1.971  -3.247   0.396  0.00  0.00    -0.032 A 
ATOM     14  C   UNL d   1       2.713  -3.704  -0.699  0.00  0.00     0.048 A 
ATOM     15  C   UNL d   1       3.963  -4.294  -0.505  0.00  0.00     0.069 A 
ATOM     16  C   UNL d   1       4.471  -4.414   0.792  0.00  0.00     0.037 A 
ATOM     17  C   UNL d   1       3.743  -3.945   1.886  0.00  0.00     0.004 A 
ATOM     18  C   UNL d   1       2.493  -3.363   1.689  0.00  0.00     0.011 A 
BRANCH  15  19
ATOM     19  O   UNL d   1       4.773  -4.792  -1.490  0.00  0.00    -0.356 OA
ATOM     20  C   UNL d   1       4.284  -4.691  -2.822  0.00  0.00     0.210 C 
ENDBRANCH  15  19
ENDBRANCH   7  13
TORSDOF 2
