REMARK  7 active torsions:
REMARK  status: ('A' for Active; 'I' for Inactive)
REMARK    1  A    between atoms: C_6  and  C_1 
REMARK    2  A    between atoms: N_3  and  C_4 
REMARK    3  A    between atoms: N_11  and  C_5 
REMARK    4  A    between atoms: C_13  and  N_11 
REMARK    5  A    between atoms: C_12  and  C_16 
REMARK    6  A    between atoms: O_26  and  C_12 
REMARK    7  A    between atoms: C_27  and  O_26 
ROOT
ATOM      1  C   UNL d   1       4.376  -4.862  -3.410  0.00  0.00     0.139 C 
ATOM      2  C   UNL d   1       3.901  -5.610  -4.523  0.00  0.00     0.112 C 
ATOM      3  C   UNL d   1       5.776  -4.716  -3.222  0.00  0.00     0.112 C 
ATOM      4  N   UNL d   1       3.493  -6.210  -5.425  0.00  0.00    -0.191 NA
ATOM      5  N   UNL d   1       6.916  -4.592  -3.035  0.00  0.00    -0.191 NA
ATOM      6  C   UNL d   1       3.532  -4.275  -2.540  0.00  0.00     0.122 C 
ENDROOT
BRANCH   6   7
ATOM      7  N   UNL d   1       2.162  -4.335  -2.470  0.00  0.00    -0.362 N 
ATOM      8  H   UNL d   1       1.697  -5.040  -3.024  0.00  0.00     0.165 HD
BRANCH   7   9
ATOM      9  C   UNL d   1       1.264  -3.502  -1.757  0.00  0.00     0.059 A 
ATOM     10  C   UNL d   1       1.699  -2.250  -1.278  0.00  0.00     0.048 A 
ATOM     11  C   UNL d   1       0.881  -1.424  -0.497  0.00  0.00     0.050 A 
ATOM     12  C   UNL d   1      -0.413  -1.854  -0.206  0.00  0.00     0.018 A 
ATOM     13  C   UNL d   1      -0.861  -3.097  -0.662  0.00  0.00     0.032 A 
ATOM     14  C   UNL d   1      -0.043  -3.965  -1.414  0.00  0.00     0.057 A 
BRANCH  11  15
ATOM     15  C   UNL d   1       1.383  -0.100   0.020  0.00  0.00     0.417 C 
ATOM     16  F   UNL d   1       2.681   0.156  -0.310  0.00  0.00    -0.166 F 
ATOM     17  F   UNL d   1       1.323  -0.013   1.378  0.00  0.00    -0.166 F 
ATOM     18  F   UNL d   1       0.663   0.953  -0.456  0.00  0.00    -0.166 F 
ENDBRANCH  11  15
BRANCH  14  19
ATOM     19  N   UNL d   1      -0.475  -5.259  -1.699  0.00  0.00    -0.379 N 
ATOM     20  C   UNL d   1      -1.346  -5.962  -0.753  0.00  0.00     0.124 C 
ATOM     21  C   UNL d   1      -0.811  -7.387  -0.617  0.00  0.00     0.034 C 
ATOM     22  C   UNL d   1      -0.633  -8.086  -1.977  0.00  0.00     0.088 C 
ATOM     23  C   UNL d   1      -0.010  -7.188  -3.061  0.00  0.00     0.034 C 
ATOM     24  C   UNL d   1      -0.591  -5.766  -3.065  0.00  0.00     0.124 C 
BRANCH  22  25
ATOM     25  C   UNL d   1      -1.980  -8.613  -2.417  0.00  0.00     0.263 C 
ATOM     26  O   UNL d   1      -2.753  -8.025  -3.159  0.00  0.00    -0.265 OA
BRANCH  25  27
ATOM     27  O   UNL d   1      -2.252  -9.770  -1.751  0.00  0.00    -0.322 OA
BRANCH  27  28
ATOM     28  C   UNL d   1      -3.639 -10.126  -1.702  0.00  0.00     0.174 C 
ATOM     29  C   UNL d   1      -4.266  -9.403  -0.523  0.00  0.00     0.034 C 
ENDBRANCH  27  28
ENDBRANCH  25  27
ENDBRANCH  22  25
ENDBRANCH  14  19
ENDBRANCH   7   9
ENDBRANCH   6   7
TORSDOF 7
