REMARK  7 active torsions:
REMARK  status: ('A' for Active; 'I' for Inactive)
REMARK    1  A    between atoms: N_2  and  S_1 
REMARK    2  A    between atoms: C_5  and  S_1 
REMARK    3  A    between atoms: N_3  and  N_2 
REMARK    4  A    between atoms: C_4  and  N_3 
REMARK    5  A    between atoms: N_9  and  C_4 
REMARK    6  A    between atoms: C_12  and  N_9 
REMARK    7  A    between atoms: C_16  and  C_12 
ROOT
ATOM      1  N   UNL d   1       0.701   2.541  -0.940  0.00  0.00    -0.284 N 
ATOM      2  H   UNL d   1       1.318   2.696  -0.146  0.00  0.00     0.184 HD
ENDROOT
BRANCH   1   3
ATOM      3  N   UNL d   1       0.206   1.167  -1.159  0.00  0.00    -0.123 NA
ATOM      4  H   UNL d   1       0.087   0.680  -0.265  0.00  0.00     0.166 HD
BRANCH   3   5
ATOM      5  S   UNL d   1       1.260   0.126  -2.057  0.00  0.00     0.258 S 
ATOM      6  O   UNL d   1       2.506   0.076  -1.316  0.00  0.00    -0.204 OA
ATOM      7  O   UNL d   1       1.216   0.439  -3.465  0.00  0.00    -0.204 OA
BRANCH   5   8
ATOM      8  C   UNL d   1       0.428  -1.430  -1.814  0.00  0.00     0.076 A 
ATOM      9  C   UNL d   1      -0.645  -1.775  -2.640  0.00  0.00     0.025 A 
ATOM     10  C   UNL d   1      -1.285  -3.002  -2.460  0.00  0.00     0.008 A 
ATOM     11  C   UNL d   1      -0.857  -3.888  -1.458  0.00  0.00    -0.062 A 
ATOM     12  C   UNL d   1       0.223  -3.529  -0.639  0.00  0.00     0.008 A 
ATOM     13  C   UNL d   1      -1.539  -5.215  -1.288  0.00  0.00     0.048 C 
ATOM     14  C   UNL d   1       0.868  -2.303  -0.816  0.00  0.00     0.025 A 
ENDBRANCH   5   8
ENDBRANCH   3   5
ENDBRANCH   1   3
BRANCH   1  15
ATOM     15  C   UNL d   1       0.351   3.595  -1.747  0.00  0.00     0.183 C 
ATOM     16  S   UNL d   1      -0.310   3.523  -3.275  0.00  0.00    -0.040 SA
BRANCH  15  17
ATOM     17  N   UNL d   1       0.499   4.838  -1.183  0.00  0.00    -0.362 N 
ATOM     18  H   UNL d   1       0.192   5.574  -1.809  0.00  0.00     0.162 HD
BRANCH  17  19
ATOM     19  C   UNL d   1       0.318   5.121   0.233  0.00  0.00     0.160 C 
BRANCH  19  20
ATOM     20  C   UNL d   1       1.585   5.060   1.044  0.00  0.00    -0.041 A 
ATOM     21  C   UNL d   1       2.813   5.488   0.521  0.00  0.00     0.009 A 
ATOM     22  C   UNL d   1       3.964   5.481   1.312  0.00  0.00     0.001 A 
ATOM     23  C   UNL d   1       3.898   5.058   2.638  0.00  0.00     0.000 A 
ATOM     24  C   UNL d   1       2.682   4.644   3.176  0.00  0.00     0.001 A 
ATOM     25  C   UNL d   1       1.531   4.649   2.386  0.00  0.00     0.009 A 
ENDBRANCH  19  20
ENDBRANCH  17  19
ENDBRANCH  15  17
ENDBRANCH   1  15
TORSDOF 7
