REMARK  3 active torsions:
REMARK  status: ('A' for Active; 'I' for Inactive)
REMARK    1  A    between atoms: N_4  and  N_1 
REMARK    2  A    between atoms: C_7  and  N_4 
REMARK    3  A    between atoms: C_8  and  C_9 
ROOT
ATOM      1  N   UNL d   1       3.330  -0.034   0.041  0.00  0.00    -0.269 N 
ATOM      2  C   UNL d   1       4.064   1.206  -0.180  0.00  0.00     0.180 C 
ENDROOT
BRANCH   1   3
ATOM      3  N   UNL d   1       1.960  -0.015  -0.276  0.00  0.00    -0.178 N 
ATOM      4  C   UNL d   1       1.083   0.717   0.492  0.00  0.00     0.281 C 
ATOM      5  C   UNL d   1      -0.159   0.774  -0.276  0.00  0.00     0.050 A 
ATOM      6  O   UNL d   1       1.244   1.300   1.548  0.00  0.00    -0.265 OA
ATOM      7  C   UNL d   1      -1.368   1.371   0.036  0.00  0.00     0.018 A 
ATOM      8  C   UNL d   1       0.058   0.145  -1.491  0.00  0.00     0.050 A 
ATOM      9  C   UNL d   1      -2.385   1.296  -0.920  0.00  0.00     0.001 A 
ATOM     10  C   UNL d   1      -2.169   0.642  -2.152  0.00  0.00     0.001 A 
ATOM     11  C   UNL d   1      -0.932   0.062  -2.453  0.00  0.00     0.018 A 
ATOM     12  C   UNL d   1       1.456  -0.308  -1.524  0.00  0.00     0.281 C 
ATOM     13  O   UNL d   1       1.978  -0.793  -2.507  0.00  0.00    -0.265 OA
ENDBRANCH   1   3
BRANCH   1  14
ATOM     14  C   UNL d   1       4.070  -1.217  -0.150  0.00  0.00     0.122 A 
ATOM     15  C   UNL d   1       3.496  -2.479   0.013  0.00  0.00     0.066 A 
ATOM     16  C   UNL d   1       4.285  -3.636  -0.114  0.00  0.00     0.052 A 
ATOM     17  C   UNL d   1       5.641  -3.495  -0.413  0.00  0.00     0.033 A 
ATOM     18  C   UNL d   1       6.141  -2.221  -0.561  0.00  0.00     0.090 A 
ATOM     19  N   UNL d   1       5.394  -1.107  -0.423  0.00  0.00    -0.351 N 
ATOM     20  HN  UNL d   1       5.823  -0.187  -0.523  1.00  0.00     0.166 HD
BRANCH  16  21
ATOM     21  C   UNL d   1       3.712  -5.011   0.092  0.00  0.00     0.417 C 
ATOM     22  F   UNL d   1       2.378  -5.015   0.366  0.00  0.00    -0.166 F 
ATOM     23  F   UNL d   1       3.875  -5.813  -0.995  0.00  0.00    -0.166 F 
ATOM     24  F   UNL d   1       4.307  -5.666   1.128  0.00  0.00    -0.166 F 
ENDBRANCH  16  21
ENDBRANCH   1  14
TORSDOF 3
