REMARK  2 active torsions:
REMARK  status: ('A' for Active; 'I' for Inactive)
REMARK    1  A    between atoms: N_13  and  N_6 
REMARK    2  A    between atoms: C_15  and  N_13 
ROOT
ATOM      1  S   UNL d   1      -1.284   1.689   0.134  0.00  0.00     0.180 S 
ATOM      2  C   UNL d   1       0.134   0.647   0.087  0.00  0.00     0.071 A 
ATOM      3  C   UNL d   1       0.020  -0.743   0.008  0.00  0.00     0.011 A 
ATOM      4  C   UNL d   1      -1.300  -1.463   0.008  0.00  0.00     0.034 C 
ATOM      5  C   UNL d   1      -2.623   0.622  -0.361  0.00  0.00     0.115 C 
ATOM      6  N   UNL d   1      -1.310  -2.725  -0.315  0.00  0.00    -0.320 N 
ATOM      7  HN  UNL d   1      -0.441  -3.212  -0.535  1.00  0.00     0.181 HD
ATOM      8  C   UNL d   1      -2.532  -0.674   0.425  0.00  0.00     0.079 C 
ATOM      9  O   UNL d   1      -1.108   2.685  -0.904  0.00  0.00    -0.222 OA
ATOM     10  O   UNL d   1      -1.468   2.059   1.521  0.00  0.00    -0.222 OA
ATOM     11  C   UNL d   1       1.385   1.280   0.091  0.00  0.00     0.026 A 
ATOM     12  C   UNL d   1       1.200  -1.500  -0.078  0.00  0.00     0.038 A 
ATOM     13  C   UNL d   1       2.449  -0.872  -0.069  0.00  0.00     0.035 A 
ATOM     14  C   UNL d   1       2.546   0.515   0.017  0.00  0.00     0.025 A 
ATOM     15 CL   UNL d   1       3.884  -1.817  -0.164  0.00  0.00    -0.084 Cl
ATOM     16  C   UNL d   1      -3.963   1.319  -0.152  0.00  0.00     0.027 C 
ENDROOT
BRANCH   6  17
ATOM     17  N   UNL d   1      -2.502  -3.384  -0.352  0.00  0.00    -0.206 NA
ATOM     18  H   UNL d   1      -3.265  -2.921  -0.844  0.00  0.00     0.153 HD
BRANCH  17  19
ATOM     19  C   UNL d   1      -2.462  -4.756  -0.714  0.00  0.00     0.027 A 
ATOM     20  C   UNL d   1      -1.359  -5.573  -0.434  0.00  0.00     0.026 A 
ATOM     21  C   UNL d   1      -1.363  -6.929  -0.779  0.00  0.00     0.020 A 
ATOM     22  C   UNL d   1      -2.483  -7.485  -1.394  0.00  0.00     0.006 A 
ATOM     23  C   UNL d   1      -3.608  -6.701  -1.639  0.00  0.00     0.020 A 
ATOM     24  I   UNL d   1      -2.482  -9.489  -1.945  0.00  0.00    -0.045 I 
ATOM     25  C   UNL d   1      -3.601  -5.348  -1.283  0.00  0.00     0.026 A 
ENDBRANCH  17  19
ENDBRANCH   6  17
TORSDOF 2
