REMARK  6 active torsions:
REMARK  status: ('A' for Active; 'I' for Inactive)
REMARK    1  A    between atoms: C_2  and  S_1 
REMARK    2  A    between atoms: N_7  and  S_1 
REMARK    3  A    between atoms: C_8  and  C_3 
REMARK    4  A    between atoms: O_14  and  C_8 
REMARK    5  A    between atoms: C_15  and  C_19 
REMARK    6  A    between atoms: C_20  and  C_15 
ROOT
ATOM      1  N   UNL d   1       0.529  -0.286  -1.494  0.00  0.00    -0.205 NA
ATOM      2  C   UNL d   1       0.841   0.839  -2.421  0.00  0.00     0.108 C 
ATOM      3  C   UNL d   1       1.013  -1.612  -1.985  0.00  0.00     0.108 C 
ATOM      4  C   UNL d   1       0.327   0.536  -3.827  0.00  0.00     0.020 C 
ATOM      5  C   UNL d   1       0.521  -1.895  -3.400  0.00  0.00     0.020 C 
ATOM      6  C   UNL d   1       0.897  -0.778  -4.384  0.00  0.00    -0.008 C 
ENDROOT
BRANCH   1   7
ATOM      7  S   UNL d   1       1.049   0.003   0.120  0.00  0.00     0.266 S 
ATOM      8  O   UNL d   1       0.725  -1.156   0.921  0.00  0.00    -0.204 OA
ATOM      9  O   UNL d   1       2.403   0.520   0.066  0.00  0.00    -0.204 OA
BRANCH   7  10
ATOM     10  C   UNL d   1       0.088   1.322   0.860  0.00  0.00     0.186 A 
ATOM     11  C   UNL d   1       0.204   1.892   2.119  0.00  0.00     0.071 A 
ATOM     12  C   UNL d   1      -0.798   2.891   2.258  0.00  0.00     0.072 A 
ATOM     13  C   UNL d   1      -1.487   2.877   1.060  0.00  0.00     0.067 A 
ATOM     14  O   UNL d   1      -0.959   1.946   0.214  0.00  0.00    -0.301 OA
ATOM     15  C   UNL d   1      -2.645   3.640   0.545  0.00  0.00     0.078 C 
BRANCH  12  16
ATOM     16  C   UNL d   1      -1.065   3.745   3.401  0.00  0.00     0.295 C 
ATOM     17  O   UNL d   1      -1.947   4.595   3.429  0.00  0.00    -0.259 OA
BRANCH  16  18
ATOM     18  O   UNL d   1      -0.211   3.483   4.434  0.00  0.00    -0.322 OA
ATOM     19  C   UNL d   1      -0.411   4.288   5.596  0.00  0.00     0.213 C 
ENDBRANCH  16  18
ENDBRANCH  12  16
ENDBRANCH   7  10
ENDBRANCH   1   7
BRANCH   6  20
ATOM     20  C   UNL d   1       2.420  -0.682  -4.654  0.00  0.00     0.043 C 
BRANCH  20  21
ATOM     21  C   UNL d   1       3.019  -1.936  -5.252  0.00  0.00    -0.058 A 
ATOM     22  C   UNL d   1       2.570  -2.430  -6.484  0.00  0.00     0.007 A 
ATOM     23  C   UNL d   1       3.084  -3.620  -7.001  0.00  0.00     0.001 A 
ATOM     24  C   UNL d   1       4.067  -4.319  -6.303  0.00  0.00     0.000 A 
ATOM     25  C   UNL d   1       4.549  -3.819  -5.095  0.00  0.00     0.001 A 
ATOM     26  C   UNL d   1       4.029  -2.633  -4.572  0.00  0.00     0.007 A 
ENDBRANCH  20  21
ENDBRANCH   6  20
TORSDOF 6
