REMARK  6 active torsions:
REMARK  status: ('A' for Active; 'I' for Inactive)
REMARK    1  A    between atoms: C_8  and  N_1 
REMARK    2  A    between atoms: S_11  and  C_2 
REMARK    3  A    between atoms: C_15  and  C_3 
REMARK    4  A    between atoms: C_12  and  C_18 
REMARK    5  A    between atoms: S_13  and  C_15 
REMARK    6  A    between atoms: C_18  and  S_13 
ROOT
ATOM      1  N   UNL d   1      -0.497   1.016   0.106  0.00  0.00    -0.277 N 
ATOM      2  C   UNL d   1       0.666   0.810   0.845  0.00  0.00     0.164 C 
ATOM      3  C   UNL d   1      -1.272  -0.115   0.423  0.00  0.00     0.114 C 
ATOM      4  N   UNL d   1       0.674  -0.392   1.367  0.00  0.00    -0.278 N 
ATOM      5  HN  UNL d   1       1.443  -0.819   1.884  1.00  0.00     0.189 HD
ATOM      6  N   UNL d   1      -0.526  -0.967   1.094  0.00  0.00    -0.286 N 
ATOM      7  HN  UNL d   1      -0.805  -1.909   1.366  1.00  0.00     0.188 HD
ENDROOT
BRANCH   3   8
ATOM      8  C   UNL d   1      -2.702  -0.375   0.022  0.00  0.00     0.152 C 
BRANCH   8   9
ATOM      9  S   UNL d   1      -3.298  -2.023   0.577  0.00  0.00    -0.157 SA
BRANCH   9  10
ATOM     10  C   UNL d   1      -5.041  -1.916   0.073  0.00  0.00     0.113 C 
BRANCH  10  11
ATOM     11  C   UNL d   1      -5.851  -3.122   0.512  0.00  0.00    -0.038 A 
ATOM     12  C   UNL d   1      -5.877  -4.347  -0.220  0.00  0.00    -0.019 A 
ATOM     13  C   UNL d   1      -6.709  -5.405   0.239  0.00  0.00    -0.025 A 
ATOM     14  C   UNL d   1      -5.120  -4.581  -1.390  0.00  0.00     0.013 A 
ATOM     15  C   UNL d   1      -6.771  -6.615  -0.470  0.00  0.00     0.012 A 
ATOM     16  C   UNL d   1      -7.467  -5.245   1.406  0.00  0.00     0.012 A 
ATOM     17  C   UNL d   1      -6.015  -6.810  -1.625  0.00  0.00     0.001 A 
ATOM     18  C   UNL d   1      -5.184  -5.795  -2.079  0.00  0.00     0.001 A 
ATOM     19  C   UNL d   1      -7.413  -4.061   2.136  0.00  0.00     0.001 A 
ATOM     20  C   UNL d   1      -6.611  -3.012   1.696  0.00  0.00     0.009 A 
ENDBRANCH  10  11
ENDBRANCH   9  10
ENDBRANCH   8   9
ENDBRANCH   3   8
BRANCH   1  21
ATOM     21  C   UNL d   1      -0.846   2.153  -0.686  0.00  0.00     0.064 A 
ATOM     22  C   UNL d   1       0.075   2.776  -1.558  0.00  0.00     0.061 A 
ATOM     23 CL   UNL d   1       1.587   2.074  -2.026  0.00  0.00    -0.082 Cl
ATOM     24  C   UNL d   1      -0.258   3.975  -2.205  0.00  0.00     0.026 A 
ATOM     25  C   UNL d   1      -1.527   4.524  -2.061  0.00  0.00     0.002 A 
ATOM     26  C   UNL d   1      -2.468   3.876  -1.271  0.00  0.00     0.002 A 
ATOM     27  C   UNL d   1      -2.125   2.710  -0.575  0.00  0.00     0.032 A 
ENDBRANCH   1  21
BRANCH   2  28
ATOM     28  S   UNL d   1       1.808   2.026   1.340  0.00  0.00    -0.105 SA
ATOM     29  H   UNL d   1       1.949   2.679   0.180  0.00  0.00     0.110 HD
ENDBRANCH   2  28
TORSDOF 6
