REMARK  5 active torsions:
REMARK  status: ('A' for Active; 'I' for Inactive)
REMARK    1  A    between atoms: C_2  and  C_1 
REMARK    2  A    between atoms: N_3  and  C_7 
REMARK    3  A    between atoms: C_6  and  C_5 
REMARK    4  A    between atoms: O_17  and  C_11 
REMARK    5  A    between atoms: O_16  and  C_12 
ROOT
ATOM      1  C   UNL d   1       0.508  -1.402  -0.013  0.00  0.00     0.052 A 
ATOM      2  C   UNL d   1       1.109  -3.754  -0.265  0.00  0.00     0.035 A 
ATOM      3  C   UNL d   1       1.472  -2.403  -0.203  0.00  0.00     0.045 A 
ATOM      4  C   UNL d   1      -0.831  -1.778   0.154  0.00  0.00     0.053 A 
ATOM      5  C   UNL d   1      -0.235  -4.103  -0.083  0.00  0.00     0.066 A 
ATOM      6  C   UNL d   1      -1.207  -3.123   0.134  0.00  0.00     0.071 A 
ENDROOT
BRANCH   2   7
ATOM      7  N   UNL d   1       2.046  -4.792  -0.435  0.00  0.00    -0.365 N 
ATOM      8  C   UNL d   1       3.018  -4.623  -1.277  0.00  0.00     0.102 C 
ATOM      9  HN  UNL d   1       1.962  -5.660   0.093  1.00  0.00     0.165 HD
BRANCH   8  10
ATOM     10  C   UNL d   1       4.037  -5.668  -1.504  0.00  0.00     0.012 A 
ATOM     11  C   UNL d   1       3.950  -6.934  -0.917  0.00  0.00     0.077 A 
ATOM     12  C   UNL d   1       4.920  -7.897  -1.181  0.00  0.00     0.037 A 
ATOM     13  C   UNL d   1       5.989  -7.594  -2.026  0.00  0.00     0.003 A 
ATOM     14  C   UNL d   1       6.088  -6.328  -2.606  0.00  0.00     0.001 A 
ATOM     15  C   UNL d   1       5.112  -5.363  -2.347  0.00  0.00     0.015 A 
BRANCH  11  16
ATOM     16  O   UNL d   1       2.932  -7.295  -0.076  0.00  0.00    -0.360 OA
ATOM     17  H   UNL d   1       2.362  -6.500   0.041  0.00  0.00     0.217 HD
ENDBRANCH  11  16
ENDBRANCH   8  10
ENDBRANCH   2   7
BRANCH   1  18
ATOM     18  C   UNL d   1       0.897   0.052   0.021  0.00  0.00     0.417 C 
ATOM     19  F   UNL d   1       2.232   0.260  -0.164  0.00  0.00    -0.166 F 
ATOM     20  F   UNL d   1       0.588   0.651   1.203  0.00  0.00    -0.166 F 
ATOM     21  F   UNL d   1       0.274   0.782  -0.946  0.00  0.00    -0.166 F 
ENDBRANCH   1  18
BRANCH   6  22
ATOM     22  O   UNL d   1      -2.540  -3.340   0.347  0.00  0.00    -0.356 OA
ATOM     23  C   UNL d   1      -2.979  -4.692   0.386  0.00  0.00     0.210 C 
ENDBRANCH   6  22
TORSDOF 5
