REMARK  6 active torsions:
REMARK  status: ('A' for Active; 'I' for Inactive)
REMARK    1  A    between atoms: C_2  and  C_1 
REMARK       I    between atoms: N_5  and  C_2 
REMARK    2  A    between atoms: C_4  and  C_3 
REMARK    3  A    between atoms: C_11  and  N_5 
REMARK    4  A    between atoms: C_24  and  N_5 
REMARK    5  A    between atoms: O_13  and  C_9 
REMARK    6  A    between atoms: C_22  and  O_13 
ROOT
ATOM      1  C   UNL d   1       0.706   1.300   0.029  0.00  0.00     0.063 A 
ATOM      2  C   UNL d   1       1.511   0.148   0.041  0.00  0.00     0.069 A 
ATOM      3  C   UNL d   1      -0.653   1.111  -0.186  0.00  0.00     0.108 A 
ATOM      4  N   UNL d   1      -1.272  -0.085  -0.241  0.00  0.00    -0.346 N 
ATOM      5  HN  UNL d   1      -2.288  -0.152  -0.303  1.00  0.00     0.167 HD
ATOM      6  C   UNL d   1      -0.500  -1.184  -0.212  0.00  0.00     0.148 A 
ATOM      7  C   UNL d   1       0.874  -1.117  -0.078  0.00  0.00     0.073 A 
ENDROOT
BRANCH   1   8
ATOM      8  C   UNL d   1       1.238   2.688   0.096  0.00  0.00     0.260 C 
ATOM      9  N   UNL d   1       0.650   3.692   0.915  0.00  0.00    -0.314 N 
ATOM     10  O   UNL d   1       2.187   2.921  -0.646  0.00  0.00    -0.267 OA
BRANCH   9  11
ATOM     11  C   UNL d   1      -0.636   3.566   1.509  0.00  0.00     0.037 A 
ATOM     12  C   UNL d   1      -0.866   2.612   2.503  0.00  0.00     0.031 A 
ATOM     13  C   UNL d   1      -2.165   2.386   2.971  0.00  0.00     0.026 A 
ATOM     14  C   UNL d   1      -3.230   3.122   2.453  0.00  0.00     0.034 A 
ATOM     15  C   UNL d   1      -3.006   4.108   1.496  0.00  0.00     0.026 A 
ATOM     16 CL   UNL d   1      -4.835   2.791   2.977  0.00  0.00    -0.084 Cl
ATOM     17  C   UNL d   1      -1.705   4.341   1.034  0.00  0.00     0.031 A 
ENDBRANCH   9  11
BRANCH   9  18
ATOM     18  C   UNL d   1       1.222   5.043   0.797  0.00  0.00     0.128 C 
ATOM     19  C   UNL d   1       0.966   5.973   1.982  0.00  0.00     0.027 C 
ENDBRANCH   9  18
ENDBRANCH   1   8
BRANCH   2  20
ATOM     20  C   UNL d   1       3.014   0.126   0.129  0.00  0.00     0.418 C 
ATOM     21  F   UNL d   1       3.636   1.285   0.450  0.00  0.00    -0.166 F 
ATOM     22  F   UNL d   1       3.430  -0.761   1.084  0.00  0.00    -0.166 F 
ATOM     23  F   UNL d   1       3.579  -0.316  -1.029  0.00  0.00    -0.166 F 
ENDBRANCH   2  20
BRANCH   6  24
ATOM     24  O   UNL d   1      -1.077  -2.442  -0.331  0.00  0.00    -0.294 OA
BRANCH  24  25
ATOM     25  C   UNL d   1      -2.365  -2.519  -0.820  0.00  0.00     0.077 A 
ATOM     26  C   UNL d   1      -2.825  -1.750  -1.895  0.00  0.00     0.037 A 
ATOM     27  C   UNL d   1      -4.149  -1.853  -2.318  0.00  0.00     0.003 A 
ATOM     28  C   UNL d   1      -5.002  -2.768  -1.707  0.00  0.00     0.000 A 
ATOM     29  C   UNL d   1      -4.531  -3.582  -0.676  0.00  0.00     0.003 A 
ATOM     30  C   UNL d   1      -3.212  -3.459  -0.231  0.00  0.00     0.037 A 
ENDBRANCH  24  25
ENDBRANCH   6  24
TORSDOF 6
