REMARK  4 active torsions:
REMARK  status: ('A' for Active; 'I' for Inactive)
REMARK    1  A    between atoms: C_15  and  N_1 
REMARK    2  A    between atoms: C_13  and  C_2 
REMARK    3  A    between atoms: S_16  and  C_5 
REMARK    4  A    between atoms: N_8  and  C_14 
ROOT
ATOM      1  N   UNL d   1      -0.267  -1.137  -0.466  0.00  0.00    -0.275 N 
ATOM      2  C   UNL d   1       0.960  -0.619  -0.026  0.00  0.00     0.139 A 
ATOM      3  N   UNL d   1       0.762   0.611   0.422  0.00  0.00    -0.282 N 
ATOM      4  HN  UNL d   1       1.471   1.207   0.849  1.00  0.00     0.188 HD
ATOM      5  C   UNL d   1      -1.152  -0.081  -0.308  0.00  0.00     0.165 A 
ATOM      6  N   UNL d   1      -0.542   0.952   0.221  0.00  0.00    -0.278 N 
ATOM      7  HN  UNL d   1      -0.969   1.851   0.443  1.00  0.00     0.189 HD
ENDROOT
BRANCH   2   8
ATOM      8  C   UNL d   1       2.293  -1.241  -0.089  0.00  0.00     0.010 A 
ATOM      9  C   UNL d   1       2.681  -2.092  -1.130  0.00  0.00     0.017 A 
ATOM     10  C   UNL d   1       3.929  -2.722  -1.119  0.00  0.00     0.031 A 
ATOM     11  C   UNL d   1       4.861  -2.443  -0.112  0.00  0.00     0.039 A 
ATOM     12  C   UNL d   1       4.513  -1.530   0.887  0.00  0.00     0.031 A 
ATOM     13  C   UNL d   1       3.238  -0.946   0.901  0.00  0.00     0.017 A 
BRANCH  11  14
ATOM     14  N   UNL d   1       6.142  -3.079  -0.119  0.00  0.00    -0.320 N 
ATOM     15  C   UNL d   1       6.859  -3.522   0.999  0.00  0.00     0.013 A 
ATOM     16  C   UNL d   1       8.045  -4.082   0.562  0.00  0.00     0.027 A 
ATOM     17  C   UNL d   1       6.392  -3.493   2.416  0.00  0.00     0.068 C 
ATOM     18  C   UNL d   1       8.065  -4.017  -0.836  0.00  0.00     0.027 A 
ATOM     19  C   UNL d   1       6.907  -3.390  -1.248  0.00  0.00     0.013 A 
ATOM     20  C   UNL d   1       6.582  -3.026  -2.662  0.00  0.00     0.068 C 
ENDBRANCH  11  14
ENDBRANCH   2   8
BRANCH   1  21
ATOM     21  C   UNL d   1      -0.532  -2.451  -0.955  0.00  0.00     0.043 A 
ATOM     22  C   UNL d   1       0.067  -3.563  -0.343  0.00  0.00     0.030 A 
ATOM     23  C   UNL d   1      -0.114  -4.841  -0.876  0.00  0.00     0.002 A 
ATOM     24  C   UNL d   1      -0.915  -5.021  -2.002  0.00  0.00     0.000 A 
ATOM     25  C   UNL d   1      -1.535  -3.925  -2.598  0.00  0.00     0.002 A 
ATOM     26  C   UNL d   1      -1.340  -2.641  -2.084  0.00  0.00     0.030 A 
ENDBRANCH   1  21
BRANCH   5  27
ATOM     27  S   UNL d   1      -2.869  -0.109  -0.565  0.00  0.00    -0.105 SA
ATOM     28  H   UNL d   1      -3.079  -1.431  -0.553  0.00  0.00     0.110 HD
ENDBRANCH   5  27
TORSDOF 4
