REMARK  5 active torsions:
REMARK  status: ('A' for Active; 'I' for Inactive)
REMARK    1  A    between atoms: C_5  and  C_2 
REMARK    2  A    between atoms: S_10  and  C_5 
REMARK    3  A    between atoms: C_12  and  C_9 
REMARK    4  A    between atoms: C_11  and  S_10 
REMARK    5  A    between atoms: O_18  and  C_12 
ROOT
ATOM      1  C   UNL d   1       3.297  -1.047   0.001  0.00  0.00     0.230 C 
ATOM      2  O   UNL d   1       3.521  -0.873   1.197  0.00  0.00    -0.279 OA
ENDROOT
BRANCH   1   3
ATOM      3  C   UNL d   1       2.834   0.047  -0.879  0.00  0.00     0.105 C 
ATOM      4  C   UNL d   1       2.141  -0.125  -2.172  0.00  0.00     0.265 C 
ATOM      5  N   UNL d   1       2.127   0.990  -2.969  0.00  0.00    -0.293 N 
ATOM      6  O   UNL d   1       1.574  -1.167  -2.480  0.00  0.00    -0.267 OA
ATOM      7  C   UNL d   1       2.375   2.223  -2.439  0.00  0.00     0.149 A 
ATOM      8  C   UNL d   1       1.692   0.942  -4.342  0.00  0.00     0.145 A 
ATOM      9  N   UNL d   1       2.788   2.436  -1.240  0.00  0.00    -0.345 N 
ATOM     10  S   UNL d   1       2.053   3.485  -3.580  0.00  0.00    -0.092 SA
ATOM     11  C   UNL d   1       3.066   1.316  -0.494  0.00  0.00     0.112 C 
ATOM     12  HN  UNL d   1       2.903   3.378  -0.866  1.00  0.00     0.167 HD
ATOM     13  C   UNL d   1       1.525   2.349  -4.888  0.00  0.00     0.103 A 
ENDBRANCH   1   3
BRANCH   1  14
ATOM     14  S   UNL d   1       3.695  -2.578  -0.766  0.00  0.00    -0.046 SA
BRANCH  14  15
ATOM     15  C   UNL d   1       2.289  -3.628  -0.375  0.00  0.00     0.025 A 
ATOM     16  C   UNL d   1       1.907  -4.716  -1.187  0.00  0.00     0.056 A 
ATOM     17  C   UNL d   1       0.900  -5.603  -0.759  0.00  0.00     0.019 A 
ATOM     18  C   UNL d   1       0.241  -5.404   0.451  0.00  0.00     0.001 A 
ATOM     19  C   UNL d   1       0.585  -4.318   1.245  0.00  0.00     0.001 A 
ATOM     20  C   UNL d   1       1.602  -3.447   0.841  0.00  0.00     0.020 A 
BRANCH  16  21
ATOM     21  C   UNL d   1       2.524  -5.059  -2.493  0.00  0.00     0.294 C 
ATOM     22  O   UNL d   1       2.779  -6.205  -2.827  0.00  0.00    -0.259 OA
BRANCH  21  23
ATOM     23  O   UNL d   1       2.620  -3.964  -3.283  0.00  0.00    -0.322 OA
ATOM     24  C   UNL d   1       3.104  -4.234  -4.598  0.00  0.00     0.213 C 
ENDBRANCH  21  23
ENDBRANCH  16  21
ENDBRANCH  14  15
ENDBRANCH   1  14
TORSDOF 5
