REMARK  6 active torsions:
REMARK  status: ('A' for Active; 'I' for Inactive)
REMARK    1  A    between atoms: N_5  and  C_1 
REMARK    2  A    between atoms: N_6  and  C_2 
REMARK    3  A    between atoms: N_4  and  C_3 
REMARK    4  A    between atoms: C_7  and  C_8 
REMARK    5  A    between atoms: O_27  and  C_15 
REMARK    6  A    between atoms: O_28  and  C_16 
ROOT
ATOM      1  C   UNL d   1       1.607  -0.263  -0.851  0.00  0.00     0.132 A 
ATOM      2  C   UNL d   1       0.074  -1.205   0.664  0.00  0.00     0.132 A 
ATOM      3  C   UNL d   1       1.254  -1.421  -0.108  0.00  0.00     0.097 A 
ATOM      4  C   UNL d   1      -0.194   1.141   0.037  0.00  0.00     0.052 A 
ATOM      5  C   UNL d   1      -0.622   0.030   0.755  0.00  0.00     0.054 A 
ATOM      6  C   UNL d   1       0.914   0.975  -0.790  0.00  0.00     0.054 A 
ENDROOT
BRANCH   3   7
ATOM      7  N   UNL d   1       1.979  -2.615  -0.095  0.00  0.00    -0.372 N 
ATOM      8  C   UNL d   1       2.660  -3.210  -1.280  0.00  0.00     0.162 C 
ATOM      9  C   UNL d   1       3.815  -4.123  -0.890  0.00  0.00    -0.031 C 
ATOM     10  C   UNL d   1       5.098  -4.066  -1.458  0.00  0.00     0.049 C 
ATOM     11  C   UNL d   1       3.557  -5.083   0.098  0.00  0.00    -0.046 C 
ATOM     12  C   UNL d   1       6.063  -5.035  -1.129  0.00  0.00     0.102 C 
ATOM     13  C   UNL d   1       5.686  -6.137  -0.337  0.00  0.00     0.102 C 
ATOM     14  C   UNL d   1       4.447  -6.131   0.310  0.00  0.00     0.047 C 
ATOM     15  C   UNL d   1       2.360  -4.845   0.978  0.00  0.00     0.059 C 
ATOM     16  C   UNL d   1       2.262  -3.318   1.189  0.00  0.00     0.128 C 
BRANCH  12  17
ATOM     17  O   UNL d   1       7.372  -4.989  -1.521  0.00  0.00    -0.353 OA
ATOM     18  C   UNL d   1       7.925  -3.760  -1.965  0.00  0.00     0.210 C 
ENDBRANCH  12  17
BRANCH  13  19
ATOM     19  O   UNL d   1       6.448  -7.240  -0.043  0.00  0.00    -0.353 OA
ATOM     20  C   UNL d   1       7.424  -7.621  -1.008  0.00  0.00     0.210 C 
ENDBRANCH  13  19
ENDBRANCH   3   7
BRANCH   2  21
ATOM     21  N   UNL d   1      -0.590  -2.289   1.374  0.00  0.00    -0.113 N 
ATOM     22  O   UNL d   1      -0.978  -3.260   0.713  0.00  0.00    -0.532 OA
ATOM     23  O   UNL d   1      -0.763  -2.134   2.595  0.00  0.00    -0.532 OA
ENDBRANCH   2  21
BRANCH   1  24
ATOM     24  N   UNL d   1       2.787  -0.203  -1.693  0.00  0.00    -0.113 N 
ATOM     25  O   UNL d   1       3.888  -0.205  -1.140  0.00  0.00    -0.532 OA
ATOM     26  O   UNL d   1       2.587  -0.103  -2.918  0.00  0.00    -0.532 OA
ENDBRANCH   1  24
BRANCH   4  27
ATOM     27  C   UNL d   1      -0.878   2.483   0.146  0.00  0.00     0.417 C 
ATOM     28  F   UNL d   1      -1.967   2.470   0.959  0.00  0.00    -0.166 F 
ATOM     29  F   UNL d   1      -0.045   3.438   0.642  0.00  0.00    -0.166 F 
ATOM     30  F   UNL d   1      -1.306   2.944  -1.058  0.00  0.00    -0.166 F 
ENDBRANCH   4  27
TORSDOF 6
