REMARK  2 active torsions:
REMARK  status: ('A' for Active; 'I' for Inactive)
REMARK    1  A    between atoms: C_12  and  C_10 
REMARK    2  A    between atoms: O_17  and  C_14 
ROOT
ATOM      1  N   UNL d   1      -0.178  -0.262   0.057  0.00  0.00    -0.255 N 
ATOM      2  C   UNL d   1      -0.454   1.065   0.050  0.00  0.00     0.160 A 
ATOM      3  C   UNL d   1      -1.243  -1.134   0.080  0.00  0.00     0.271 A 
ATOM      4  C   UNL d   1      -2.483  -0.305   0.073  0.00  0.00     0.077 A 
ATOM      5  N   UNL d   1       0.604   1.826   0.027  0.00  0.00    -0.334 N 
ATOM      6  HN  UNL d   1       0.651   2.845   0.018  1.00  0.00     0.168 HD
ATOM      7  S   UNL d   1      -2.140   1.408   0.069  0.00  0.00    -0.048 SA
ATOM      8  C   UNL d   1       1.186  -0.403   0.034  0.00  0.00     0.071 A 
ATOM      9  C   UNL d   1       1.647   0.920   0.016  0.00  0.00     0.061 A 
ATOM     10  C   UNL d   1      -3.690  -0.888   0.048  0.00  0.00     0.036 C 
ATOM     11  O   UNL d   1      -1.112  -2.343   0.091  0.00  0.00    -0.266 OA
ATOM     12  C   UNL d   1       2.042  -1.509   0.025  0.00  0.00     0.032 A 
ATOM     13  C   UNL d   1       3.029   1.160  -0.009  0.00  0.00     0.032 A 
ATOM     14  C   UNL d   1       3.415  -1.243   0.003  0.00  0.00     0.002 A 
ATOM     15  C   UNL d   1       3.903   0.066  -0.013  0.00  0.00     0.002 A 
ENDROOT
BRANCH  10  16
ATOM     16  C   UNL d   1      -4.966  -0.171  -0.013  0.00  0.00    -0.032 A 
ATOM     17  C   UNL d   1      -5.620   0.208   1.166  0.00  0.00     0.048 A 
ATOM     18  C   UNL d   1      -6.839   0.888   1.107  0.00  0.00     0.069 A 
ATOM     19  C   UNL d   1      -7.397   1.189  -0.138  0.00  0.00     0.037 A 
ATOM     20  C   UNL d   1      -6.747   0.819  -1.316  0.00  0.00     0.004 A 
ATOM     21  C   UNL d   1      -5.532   0.138  -1.254  0.00  0.00     0.011 A 
BRANCH  18  22
ATOM     22  O   UNL d   1      -7.575   1.306   2.183  0.00  0.00    -0.356 OA
ATOM     23  C   UNL d   1      -7.042   1.020   3.470  0.00  0.00     0.210 C 
ENDBRANCH  18  22
ENDBRANCH  10  16
TORSDOF 2
