REMARK  3 active torsions:
REMARK  status: ('A' for Active; 'I' for Inactive)
REMARK    1  A    between atoms: O_10  and  N_7 
REMARK    2  A    between atoms: C_9  and  O_10 
REMARK    3  A    between atoms: C_12  and  C_9 
ROOT
ATOM      1  C   UNL d   1      -0.417   1.228   0.184  0.00  0.00     0.147 A 
ATOM      2  C   UNL d   1      -1.323   0.039   0.327  0.00  0.00     0.292 A 
ATOM      3  N   UNL d   1       0.904  -0.644   0.005  0.00  0.00    -0.298 N 
ATOM      4  HN  UNL d   1       1.699  -1.275  -0.094  1.00  0.00     0.187 HD
ATOM      5  N   UNL d   1      -0.430  -1.013   0.208  0.00  0.00    -0.260 N 
ATOM      6  C   UNL d   1       0.940   0.657  -0.034  0.00  0.00     0.056 A 
ATOM      7  N   UNL d   1      -0.647   2.495   0.291  0.00  0.00    -0.250 N 
ATOM      8  HN  UNL d   1       0.034   3.226   0.090  1.00  0.00     0.195 HD
ATOM      9  O   UNL d   1      -2.520   0.058   0.505  0.00  0.00    -0.264 OA
ATOM     10  C   UNL d   1      -0.778  -2.403   0.368  0.00  0.00     0.181 C 
ATOM     11  C   UNL d   1       2.137   1.516  -0.189  0.00  0.00     0.072 C 
ENDROOT
BRANCH   7  12
ATOM     12  O   UNL d   1      -1.966   2.728   0.720  0.00  0.00    -0.194 OA
BRANCH  12  13
ATOM     13  C   UNL d   1      -2.237   4.062   0.672  0.00  0.00     0.315 C 
ATOM     14  O   UNL d   1      -1.786   4.875  -0.121  0.00  0.00    -0.257 OA
BRANCH  13  15
ATOM     15  C   UNL d   1      -3.126   4.436   1.807  0.00  0.00     0.041 A 
ATOM     16  C   UNL d   1      -3.515   5.780   1.925  0.00  0.00     0.019 A 
ATOM     17  C   UNL d   1      -4.258   6.211   3.029  0.00  0.00     0.025 A 
ATOM     18  C   UNL d   1      -4.609   5.295   4.024  0.00  0.00     0.034 A 
ATOM     19  C   UNL d   1      -4.237   3.956   3.914  0.00  0.00     0.025 A 
ATOM     20 CL   UNL d   1      -5.487   5.830   5.402  0.00  0.00    -0.084 Cl
ATOM     21  C   UNL d   1      -3.503   3.523   2.807  0.00  0.00     0.019 A 
ENDBRANCH  13  15
ENDBRANCH  12  13
ENDBRANCH   7  12
TORSDOF 3
