REMARK  2 active torsions:
REMARK  status: ('A' for Active; 'I' for Inactive)
REMARK    1  A    between atoms: C_13  and  N_8 
REMARK    2  A    between atoms: C_12  and  C_13 
ROOT
ATOM      1  N   UNL d   1       1.801   0.418  -2.041  0.00  0.00    -0.020 N 
ATOM      2  HN  UNL d   1       2.666  -0.048  -2.316  1.00  0.00     0.203 HD
ATOM      3  C   UNL d   1       0.598   0.404  -2.676  0.00  0.00     0.705 A 
ATOM      4  C   UNL d   1       1.584   1.173  -0.992  0.00  0.00     0.708 A 
ATOM      5  N   UNL d   1      -0.355   1.137  -2.114  0.00  0.00    -0.118 N 
ATOM      6  HN  UNL d   1      -1.315   1.297  -2.418  1.00  0.00     0.206 HD
ATOM      7  N   UNL d   1       0.289   1.613  -1.036  0.00  0.00    -0.117 N 
ATOM      8  N   UNL d   1       2.424   1.530  -0.001  0.00  0.00    -0.220 N 
ATOM      9  N   UNL d   1       0.474  -0.303  -3.796  0.00  0.00    -0.233 N 
ATOM     10  H   UNL d   1      -0.194   2.223  -0.391  0.00  0.00     0.206 HD
ATOM     11  H   UNL d   1       2.130   2.042   0.822  0.00  0.00     0.178 HD
ATOM     12  H   UNL d   1       1.327  -0.567  -4.269  0.00  0.00     0.174 HD
ATOM     13  H   UNL d   1      -0.299  -0.069  -4.403  0.00  0.00     0.174 HD
ENDROOT
BRANCH   8  14
ATOM     14  C   UNL d   1       3.775   1.003   0.035  0.00  0.00     0.178 C 
BRANCH  14  15
ATOM     15  C   UNL d   1       4.772   2.129   0.042  0.00  0.00    -0.025 A 
ATOM     16  C   UNL d   1       4.846   3.017  -1.028  0.00  0.00     0.096 A 
ATOM     17  N   UNL d   1       5.737   4.032  -1.117  0.00  0.00    -0.375 N 
ATOM     18  C   UNL d   1       6.607   4.166  -0.095  0.00  0.00     0.087 A 
ATOM     19  HN  UNL d   1       5.750   4.664  -1.918  1.00  0.00     0.164 HD
ATOM     20  C   UNL d   1       6.623   3.337   1.014  0.00  0.00     0.018 A 
ATOM     21  C   UNL d   1       5.690   2.304   1.082  0.00  0.00     0.011 A 
ENDBRANCH  14  15
ENDBRANCH   8  14
TORSDOF 2
