REMARK  3 active torsions:
REMARK  status: ('A' for Active; 'I' for Inactive)
REMARK    1  A    between atoms: C_10  and  C_6 
REMARK    2  A    between atoms: O_18  and  C_7 
REMARK    3  A    between atoms: C_21  and  O_18 
ROOT
ATOM      1  C   UNL d   1      -0.832  -0.368  -0.048  0.00  0.00     0.052 A 
ATOM      2  C   UNL d   1      -1.238   0.974   0.003  0.00  0.00    -0.013 A 
ATOM      3  N   UNL d   1      -1.652  -1.420  -0.096  0.00  0.00    -0.335 N 
ATOM      4  HN  UNL d   1      -1.310  -2.380  -0.140  1.00  0.00     0.168 HD
ATOM      5  C   UNL d   1      -3.491   0.191  -0.005  0.00  0.00     0.107 A 
ATOM      6  C   UNL d   1      -2.598   1.292   0.032  0.00  0.00     0.015 A 
ATOM      7  C   UNL d   1      -2.972  -1.119  -0.082  0.00  0.00     0.165 A 
ATOM      8  C   UNL d   1       0.610  -0.454  -0.055  0.00  0.00    -0.002 A 
ATOM      9  C   UNL d   1      -0.003   1.859  -0.008  0.00  0.00     0.081 A 
ATOM     10  C   UNL d   1       1.129   0.855  -0.044  0.00  0.00    -0.041 A 
ATOM     11  C   UNL d   1      -4.913   0.358   0.021  0.00  0.00     0.104 C 
ATOM     12  N   UNL d   1      -6.067   0.516   0.011  0.00  0.00    -0.191 NA
ATOM     13  C   UNL d   1       1.461  -1.545  -0.046  0.00  0.00     0.014 A 
ATOM     14  C   UNL d   1       2.491   1.101  -0.027  0.00  0.00     0.008 A 
ATOM     15  C   UNL d   1       2.840  -1.310  -0.027  0.00  0.00     0.001 A 
ATOM     16  C   UNL d   1       3.350   0.001  -0.018  0.00  0.00     0.001 A 
ENDROOT
BRANCH   7  17
ATOM     17  O   UNL d   1      -3.870  -2.175  -0.109  0.00  0.00    -0.335 OA
BRANCH  17  18
ATOM     18  C   UNL d   1      -3.300  -3.385  -0.624  0.00  0.00     0.173 C 
ATOM     19  C   UNL d   1      -4.327  -4.500  -0.525  0.00  0.00     0.034 C 
ENDBRANCH  17  18
ENDBRANCH   7  17
BRANCH   6  20
ATOM     20  C   UNL d   1      -3.059   2.704   0.056  0.00  0.00     0.017 A 
ATOM     21  S   UNL d   1      -2.311   3.855   1.102  0.00  0.00    -0.101 SA
ATOM     22  C   UNL d   1      -3.224   5.152   0.483  0.00  0.00     0.050 A 
ATOM     23  C   UNL d   1      -4.183   4.719  -0.400  0.00  0.00     0.008 A 
ATOM     24  C   UNL d   1      -4.086   3.316  -0.648  0.00  0.00     0.020 A 
ENDBRANCH   6  20
TORSDOF 3
