REMARK  6 active torsions:
REMARK  status: ('A' for Active; 'I' for Inactive)
REMARK    1  A    between atoms: N_3  and  C_1 
REMARK    2  A    between atoms: C_7  and  C_2 
REMARK    3  A    between atoms: C_14  and  C_6 
REMARK    4  A    between atoms: N_18  and  C_6 
REMARK    5  A    between atoms: O_11  and  C_7 
REMARK    6  A    between atoms: N_9  and  O_11 
ROOT
ATOM      1  C   UNL d   1       1.243  -4.816   0.009  0.00  0.00     0.125 C 
ATOM      2  N   UNL d   1       1.388  -3.535   0.204  0.00  0.00    -0.244 N 
ATOM      3  HN  UNL d   1       2.263  -3.092   0.484  1.00  0.00     0.196 HD
ENDROOT
BRANCH   2   4
ATOM      4  O   UNL d   1       0.188  -2.843  -0.018  0.00  0.00    -0.193 OA
BRANCH   4   5
ATOM      5  C   UNL d   1       0.276  -1.472   0.163  0.00  0.00     0.315 C 
ATOM      6  O   UNL d   1      -0.760  -0.805   0.198  0.00  0.00    -0.257 OA
BRANCH   5   7
ATOM      7  C   UNL d   1       1.580  -0.802   0.342  0.00  0.00     0.050 A 
ATOM      8  C   UNL d   1       1.729   0.455   1.044  0.00  0.00     0.062 A 
ATOM      9  C   UNL d   1       3.034   0.895   1.081  0.00  0.00     0.144 A 
ATOM     10  S   UNL d   1       4.094  -0.148   0.269  0.00  0.00    -0.077 SA
ATOM     11  C   UNL d   1       2.805  -1.186  -0.181  0.00  0.00     0.069 A 
BRANCH   9  12
ATOM     12  N   UNL d   1       3.519   2.097   1.709  0.00  0.00    -0.108 N 
ATOM     13  O   UNL d   1       2.668   2.812   2.256  0.00  0.00    -0.531 OA
ATOM     14  O   UNL d   1       4.733   2.335   1.666  0.00  0.00    -0.531 OA
ENDBRANCH   9  12
ENDBRANCH   5   7
ENDBRANCH   4   5
ENDBRANCH   2   4
BRANCH   1  15
ATOM     15  C   UNL d   1       2.476  -5.683   0.085  0.00  0.00     0.072 A 
ATOM     16  N   UNL d   1       2.261  -7.020  -0.047  0.00  0.00    -0.363 N 
ATOM     17  C   UNL d   1       3.367  -7.798  -0.061  0.00  0.00     0.088 A 
ATOM     18  HN  UNL d   1       1.323  -7.411  -0.130  1.00  0.00     0.165 HD
ATOM     19  C   UNL d   1       4.662  -7.312   0.051  0.00  0.00     0.017 A 
ATOM     20  C   UNL d   1       4.846  -5.942   0.203  0.00  0.00     0.004 A 
ATOM     21  C   UNL d   1       3.735  -5.109   0.227  0.00  0.00     0.033 A 
ENDBRANCH   1  15
BRANCH   1  22
ATOM     22  N   UNL d   1       0.044  -5.429  -0.276  0.00  0.00    -0.285 NA
ATOM     23  H   UNL d   1      -0.783  -4.933   0.037  0.00  0.00     0.125 HD
ATOM     24  H   UNL d   1       0.036  -6.431  -0.091  0.00  0.00     0.125 HD
ENDBRANCH   1  22
TORSDOF 6
