REMARK  4 active torsions:
REMARK  status: ('A' for Active; 'I' for Inactive)
REMARK    1  A    between atoms: C_9  and  C_3 
REMARK    2  A    between atoms: C_10  and  C_4 
REMARK    3  A    between atoms: C_8  and  C_6 
REMARK    4  A    between atoms: O_17  and  C_13 
ROOT
ATOM      1  N   UNL d   1      -1.074  -1.098   0.105  0.00  0.00    -0.354 N 
ATOM      2  HN  UNL d   1      -1.625  -1.955   0.143  1.00  0.00     0.166 HD
ATOM      3  C   UNL d   1       0.289  -1.159   0.092  0.00  0.00     0.049 A 
ATOM      4  C   UNL d   1       0.451   1.272   0.003  0.00  0.00    -0.016 A 
ATOM      5  C   UNL d   1       1.087   0.002  -0.036  0.00  0.00    -0.023 A 
ATOM      6  C   UNL d   1      -1.688   0.100   0.066  0.00  0.00     0.043 A 
ATOM      7  C   UNL d   1      -0.954   1.283   0.052  0.00  0.00     0.043 A 
ATOM      8  C   UNL d   1       2.578  -0.107  -0.244  0.00  0.00     0.051 C 
ENDROOT
BRANCH   6   9
ATOM      9  C   UNL d   1      -3.168   0.083   0.005  0.00  0.00    -0.009 A 
ATOM     10  C   UNL d   1      -3.953   1.103   0.569  0.00  0.00     0.016 A 
ATOM     11  C   UNL d   1      -5.351   1.100   0.480  0.00  0.00     0.037 A 
ATOM     12  C   UNL d   1      -6.004   0.056  -0.174  0.00  0.00     0.068 A 
ATOM     13  C   UNL d   1      -5.252  -0.957  -0.752  0.00  0.00     0.037 A 
ATOM     14  C   UNL d   1      -3.853  -0.955  -0.655  0.00  0.00     0.016 A 
BRANCH  12  15
ATOM     15  O   UNL d   1      -7.360  -0.041  -0.333  0.00  0.00    -0.356 OA
ATOM     16  C   UNL d   1      -8.142   0.572   0.687  0.00  0.00     0.210 C 
ENDBRANCH  12  15
ENDBRANCH   6   9
BRANCH   3  17
ATOM     17  C   UNL d   1       0.803  -2.553   0.205  0.00  0.00    -0.009 A 
ATOM     18  C   UNL d   1       0.124  -3.622  -0.415  0.00  0.00     0.014 A 
ATOM     19  C   UNL d   1       0.590  -4.939  -0.333  0.00  0.00     0.001 A 
ATOM     20  C   UNL d   1       1.759  -5.223   0.363  0.00  0.00     0.000 A 
ATOM     21  C   UNL d   1       2.438  -4.196   1.009  0.00  0.00     0.001 A 
ATOM     22  C   UNL d   1       1.947  -2.886   0.955  0.00  0.00     0.014 A 
ENDBRANCH   3  17
BRANCH   4  23
ATOM     23  C   UNL d   1       1.164   2.585  -0.040  0.00  0.00    -0.025 A 
ATOM     24  C   UNL d   1       2.350   2.824   0.679  0.00  0.00     0.012 A 
ATOM     25  C   UNL d   1       3.031   4.044   0.597  0.00  0.00     0.001 A 
ATOM     26  C   UNL d   1       2.506   5.088  -0.155  0.00  0.00     0.000 A 
ATOM     27  C   UNL d   1       1.305   4.907  -0.830  0.00  0.00     0.001 A 
ATOM     28  C   UNL d   1       0.655   3.668  -0.786  0.00  0.00     0.012 A 
ENDBRANCH   4  23
TORSDOF 4
