REMARK  4 active torsions:
REMARK  status: ('A' for Active; 'I' for Inactive)
REMARK    1  A    between atoms: C_5  and  C_1 
REMARK       I    between atoms: C_2  and  N_4 
REMARK    2  A    between atoms: C_7  and  C_2 
REMARK    3  A    between atoms: N_4  and  C_8 
REMARK    4  A    between atoms: C_9  and  C_5 
ROOT
ATOM      1  C   UNL d   1      -3.984  -1.500  -0.301  0.00  0.00     0.041 A 
ATOM      2  C   UNL d   1      -3.792  -0.541  -1.325  0.00  0.00    -0.029 A 
ATOM      3  C   UNL d   1      -5.196  -2.202  -0.244  0.00  0.00     0.030 A 
ATOM      4  C   UNL d   1      -4.789  -0.386  -2.308  0.00  0.00     0.009 A 
ATOM      5  C   UNL d   1      -6.175  -2.028  -1.226  0.00  0.00     0.002 A 
ATOM      6  C   UNL d   1      -5.965  -1.133  -2.266  0.00  0.00     0.001 A 
ENDROOT
BRANCH   2   7
ATOM      7  C   UNL d   1      -2.595   0.400  -1.395  0.00  0.00     0.081 C 
BRANCH   7   8
ATOM      8  C   UNL d   1      -1.287  -0.139  -2.056  0.00  0.00     0.260 C 
ATOM      9  N   UNL d   1      -0.061   0.610  -1.657  0.00  0.00     0.093 N 
ATOM     10  C   UNL d   1      -0.063   1.972  -2.199  0.00  0.00     0.277 C 
ATOM     11  C   UNL d   1       0.218   0.593  -0.228  0.00  0.00     0.310 C 
ATOM     12  C   UNL d   1       0.050   1.937  -3.725  0.00  0.00     0.069 C 
ATOM     13  C   UNL d   1      -0.807   0.874  -4.365  0.00  0.00    -0.048 A 
ATOM     14  C   UNL d   1      -1.397  -0.145  -3.591  0.00  0.00    -0.018 A 
ATOM     15  C   UNL d   1      -0.917   0.851  -5.766  0.00  0.00     0.008 A 
ATOM     16  C   UNL d   1      -2.086  -1.176  -4.249  0.00  0.00     0.010 A 
ATOM     17  C   UNL d   1      -2.196  -1.186  -5.645  0.00  0.00     0.001 A 
ATOM     18  C   UNL d   1      -1.615  -0.175  -6.401  0.00  0.00     0.001 A 
ENDBRANCH   7   8
ENDBRANCH   2   7
BRANCH   1  19
ATOM     19  N   UNL d   1      -2.989  -1.650   0.700  0.00  0.00    -0.323 N 
ATOM     20  C   UNL d   1      -3.005  -2.459   1.803  0.00  0.00     0.251 C 
ATOM     21  O   UNL d   1      -2.899  -1.932   2.914  0.00  0.00    -0.268 OA
ATOM     22  H   UNL d   1      -2.612  -0.750   0.973  0.00  0.00     0.169 HD
BRANCH  20  23
ATOM     23  C   UNL d   1      -2.821  -3.955   1.674  0.00  0.00     0.002 C 
ATOM     24  C   UNL d   1      -3.249  -4.716   0.649  0.00  0.00    -0.019 C 
ATOM     25  C   UNL d   1      -3.171  -6.212   0.569  0.00  0.00     0.036 C 
ATOM     26  C   UNL d   1      -2.034  -4.527   2.831  0.00  0.00     0.054 C 
ENDBRANCH  20  23
ENDBRANCH   1  19
TORSDOF 4
