REMARK  3 active torsions:
REMARK  status: ('A' for Active; 'I' for Inactive)
REMARK    1  A    between atoms: C_2  and  C_1 
REMARK       I    between atoms: N_3  and  C_1 
REMARK    2  A    between atoms: C_11  and  N_3 
REMARK    3  A    between atoms: N_8  and  C_5 
ROOT
ATOM      1  C   UNL d   1      -3.994  -1.079  -1.039  0.00  0.00     0.029 A 
ATOM      2  C   UNL d   1      -1.134  -1.064  -0.775  0.00  0.00     0.035 A 
ATOM      3  C   UNL d   1      -3.262  -2.239  -0.757  0.00  0.00     0.031 A 
ATOM      4  C   UNL d   1      -3.234   0.090  -1.213  0.00  0.00     0.031 A 
ATOM      5  C   UNL d   1      -1.866  -2.236  -0.624  0.00  0.00     0.032 A 
ATOM      6  C   UNL d   1      -1.832   0.104  -1.077  0.00  0.00     0.032 A 
ENDROOT
BRANCH   2   7
ATOM      7  N   UNL d   1       0.266  -0.991  -0.607  0.00  0.00    -0.323 N 
ATOM      8  C   UNL d   1       1.144  -2.054  -0.451  0.00  0.00     0.263 C 
ATOM      9  O   UNL d   1       0.816  -3.238  -0.555  0.00  0.00    -0.267 OA
ATOM     10  H   UNL d   1       0.683  -0.068  -0.610  0.00  0.00     0.169 HD
BRANCH   8  11
ATOM     11  C   UNL d   1       2.534  -1.706  -0.170  0.00  0.00     0.072 A 
ATOM     12  S   UNL d   1       3.082  -0.096   0.041  0.00  0.00    -0.097 SA
ATOM     13  C   UNL d   1       4.692  -0.608   0.320  0.00  0.00     0.050 A 
ATOM     14  C   UNL d   1       4.819  -1.976   0.261  0.00  0.00     0.009 A 
ATOM     15  C   UNL d   1       3.576  -2.607  -0.018  0.00  0.00     0.025 A 
ENDBRANCH   8  11
ENDBRANCH   2   7
BRANCH   1  16
ATOM     16  N   UNL d   1      -5.377  -1.077  -1.092  0.00  0.00    -0.390 N 
ATOM     17  C   UNL d   1      -6.117  -0.176  -1.970  0.00  0.00     0.149 C 
ATOM     18  C   UNL d   1      -6.175  -2.124  -0.461  0.00  0.00     0.149 C 
ENDBRANCH   1  16
TORSDOF 3
