REMARK  7 active torsions:
REMARK  status: ('A' for Active; 'I' for Inactive)
REMARK    1  A    between atoms: N_8  and  C_1 
REMARK    2  A    between atoms: C_10  and  N_4 
REMARK    3  A    between atoms: S_19  and  C_7 
REMARK    4  A    between atoms: C_15  and  N_8 
REMARK    5  A    between atoms: C_11  and  C_13 
REMARK    6  A    between atoms: C_12  and  C_14 
REMARK    7  A    between atoms: N_26  and  C_15 
ROOT
ATOM      1  C   UNL d   1      -0.217  -1.315   0.069  0.00  0.00     0.707 A 
ATOM      2  N   UNL d   1       0.993  -0.788   0.076  0.00  0.00    -0.167 N 
ATOM      3  HN  UNL d   1       1.885  -1.269   0.189  1.00  0.00     0.186 HD
ATOM      4  N   UNL d   1      -1.151  -0.271  -0.048  0.00  0.00    -0.084 N 
ATOM      5  N   UNL d   1      -0.489   0.904  -0.228  0.00  0.00    -0.258 N 
ATOM      6  HN  UNL d   1      -0.873   1.831  -0.415  1.00  0.00     0.190 HD
ATOM      7  C   UNL d   1       0.781   0.541  -0.099  0.00  0.00     0.174 A 
ENDROOT
BRANCH   4   8
ATOM      8  C   UNL d   1      -2.578  -0.264   0.047  0.00  0.00     0.076 A 
ATOM      9  C   UNL d   1      -3.303  -1.395   0.443  0.00  0.00     0.048 A 
ATOM     10  C   UNL d   1      -4.698  -1.330   0.616  0.00  0.00     0.051 A 
ATOM     11  C   UNL d   1      -5.366  -0.121   0.362  0.00  0.00     0.032 A 
ATOM     12  C   UNL d   1      -4.663   1.022  -0.047  0.00  0.00     0.051 A 
ATOM     13  C   UNL d   1      -3.270   0.938  -0.201  0.00  0.00     0.048 A 
BRANCH  10  14
ATOM     14  C   UNL d   1      -5.477  -2.527   1.113  0.00  0.00     0.417 C 
ATOM     15  F   UNL d   1      -4.710  -3.631   1.330  0.00  0.00    -0.166 F 
ATOM     16  F   UNL d   1      -6.108  -2.274   2.293  0.00  0.00    -0.166 F 
ATOM     17  F   UNL d   1      -6.451  -2.913   0.244  0.00  0.00    -0.166 F 
ENDBRANCH  10  14
BRANCH  12  18
ATOM     18  C   UNL d   1      -5.404   2.318  -0.286  0.00  0.00     0.417 C 
ATOM     19  F   UNL d   1      -4.600   3.356  -0.643  0.00  0.00    -0.166 F 
ATOM     20  F   UNL d   1      -6.335   2.206  -1.273  0.00  0.00    -0.166 F 
ATOM     21  F   UNL d   1      -6.082   2.732   0.821  0.00  0.00    -0.166 F 
ENDBRANCH  12  18
ENDBRANCH   4   8
BRANCH   1  22
ATOM     22  N   UNL d   1      -0.570  -2.629   0.132  0.00  0.00    -0.186 N 
ATOM     23  HN  UNL d   1      -1.540  -2.936   0.068  1.00  0.00     0.185 HD
BRANCH  22  24
ATOM     24  C   UNL d   1       0.407  -3.460   0.279  0.00  0.00     0.195 C 
BRANCH  24  25
ATOM     25  N   UNL d   1       0.311  -4.833   0.350  0.00  0.00    -0.385 N 
ATOM     26  C   UNL d   1      -0.953  -5.531   0.188  0.00  0.00     0.149 C 
ATOM     27  C   UNL d   1       1.488  -5.676   0.481  0.00  0.00     0.149 C 
ENDBRANCH  24  25
ENDBRANCH  22  24
ENDBRANCH   1  22
BRANCH   7  28
ATOM     28  S   UNL d   1       2.054   1.728  -0.154  0.00  0.00    -0.097 SA
ATOM     29  C   UNL d   1       3.465   0.721   0.343  0.00  0.00     0.099 C 
ENDBRANCH   7  28
TORSDOF 7
