REMARK  5 active torsions:
REMARK  status: ('A' for Active; 'I' for Inactive)
REMARK    1  A    between atoms: C_6  and  C_1 
REMARK    2  A    between atoms: C_5  and  C_2 
REMARK    3  A    between atoms: O_16  and  C_3 
REMARK    4  A    between atoms: O_17  and  C_4 
REMARK    5  A    between atoms: O_18  and  C_10 
ROOT
ATOM      1  C   UNL d   1      -1.003  -0.748   0.858  0.00  0.00     0.062 C 
ATOM      2  C   UNL d   1       0.221  -1.044   0.370  0.00  0.00     0.038 C 
ATOM      3  C   UNL d   1      -1.530  -1.451   1.991  0.00  0.00     0.101 C 
ATOM      4  N   UNL d   1      -1.957  -2.023   2.910  0.00  0.00    -0.191 NA
ENDROOT
BRANCH   1   5
ATOM      5  C   UNL d   1      -1.735   0.334   0.249  0.00  0.00     0.025 A 
ATOM      6  S   UNL d   1      -2.802   1.317   1.196  0.00  0.00    -0.101 SA
ATOM      7  C   UNL d   1      -3.200   2.317  -0.125  0.00  0.00     0.050 A 
ATOM      8  C   UNL d   1      -2.554   1.934  -1.275  0.00  0.00     0.008 A 
ATOM      9  C   UNL d   1      -1.722   0.796  -1.062  0.00  0.00     0.021 A 
ENDBRANCH   1   5
BRANCH   2  10
ATOM     10  C   UNL d   1       1.125  -2.064   0.921  0.00  0.00     0.002 A 
ATOM     11  C   UNL d   1       2.026  -1.870   1.992  0.00  0.00     0.114 A 
ATOM     12  C   UNL d   1       2.812  -2.970   2.449  0.00  0.00     0.136 A 
ATOM     13  C   UNL d   1       2.708  -4.226   1.819  0.00  0.00     0.104 A 
ATOM     14  C   UNL d   1       1.805  -4.391   0.766  0.00  0.00     0.040 A 
ATOM     15  C   UNL d   1       1.029  -3.328   0.318  0.00  0.00     0.017 A 
BRANCH  11  16
ATOM     16  O   UNL d   1       2.194  -0.705   2.696  0.00  0.00    -0.352 OA
ATOM     17  C   UNL d   1       1.934   0.563   2.124  0.00  0.00     0.210 C 
ENDBRANCH  11  16
BRANCH  12  18
ATOM     18  O   UNL d   1       3.763  -2.840   3.436  0.00  0.00    -0.351 OA
ATOM     19  C   UNL d   1       3.399  -2.098   4.594  0.00  0.00     0.210 C 
ENDBRANCH  12  18
BRANCH  13  20
ATOM     20  O   UNL d   1       3.368  -5.395   2.102  0.00  0.00    -0.353 OA
ATOM     21  C   UNL d   1       4.416  -5.391   3.058  0.00  0.00     0.210 C 
ENDBRANCH  13  20
ENDBRANCH   2  10
TORSDOF 5
