REMARK  2 active torsions:
REMARK  status: ('A' for Active; 'I' for Inactive)
REMARK    1  A    between atoms: C_3  and  C_1 
REMARK       I    between atoms: N_7  and  C_3 
REMARK    2  A    between atoms: C_11  and  N_7 
ROOT
ATOM      1  C   UNL d   1       3.233  -0.544  -0.115  0.00  0.00     0.102 A 
ATOM      2  N   UNL d   1       2.244  -1.502  -0.207  0.00  0.00    -0.351 N 
ATOM      3  C   UNL d   1       2.585   0.679  -0.064  0.00  0.00     0.049 A 
ATOM      4  C   UNL d   1       1.183   0.449  -0.195  0.00  0.00    -0.005 A 
ATOM      5  C   UNL d   1       1.002  -0.928  -0.301  0.00  0.00     0.043 A 
ATOM      6  C   UNL d   1       0.053   1.287  -0.257  0.00  0.00     0.037 A 
ATOM      7  C   UNL d   1      -0.253  -1.522  -0.479  0.00  0.00     0.032 A 
ATOM      8  C   UNL d   1      -1.208   0.707  -0.438  0.00  0.00     0.035 A 
ATOM      9  C   UNL d   1      -1.361  -0.673  -0.552  0.00  0.00     0.026 A 
ATOM     10 CL   UNL d   1      -2.598   1.722  -0.532  0.00  0.00    -0.084 Cl
ATOM     11  H   UNL d   1       2.438  -2.494  -0.258  0.00  0.00     0.166 HD
ENDROOT
BRANCH   1  12
ATOM     12  C   UNL d   1       4.629  -0.940  -0.131  0.00  0.00     0.272 C 
ATOM     13  N   UNL d   1       5.534   0.101  -0.092  0.00  0.00    -0.322 N 
ATOM     14  H   UNL d   1       5.165   1.018   0.114  0.00  0.00     0.169 HD
ATOM     15  O   UNL d   1       4.924  -2.130  -0.191  0.00  0.00    -0.266 OA
BRANCH  13  16
ATOM     16  C   UNL d   1       6.923   0.027  -0.334  0.00  0.00     0.035 A 
ATOM     17  C   UNL d   1       7.568  -1.125  -0.799  0.00  0.00     0.032 A 
ATOM     18  C   UNL d   1       8.938  -1.110  -1.077  0.00  0.00     0.044 A 
ATOM     19  C   UNL d   1       9.665   0.055  -0.885  0.00  0.00     0.116 A 
ATOM     20  C   UNL d   1       9.048   1.208  -0.416  0.00  0.00     0.044 A 
ATOM     21  F   UNL d   1      10.975   0.071  -1.162  0.00  0.00    -0.206 F 
ATOM     22  C   UNL d   1       7.676   1.195  -0.145  0.00  0.00     0.032 A 
ENDBRANCH  13  16
ENDBRANCH   1  12
TORSDOF 2
