REMARK  5 active torsions:
REMARK  status: ('A' for Active; 'I' for Inactive)
REMARK    1  A    between atoms: C_5  and  N_1 
REMARK    2  A    between atoms: O_14  and  C_11 
REMARK    3  A    between atoms: C_15  and  O_14 
REMARK    4  A    between atoms: C_16  and  C_15 
REMARK    5  A    between atoms: C_17  and  C_16 
ROOT
ATOM      1  C   UNL d   1       0.167  -2.375  -0.025  0.00  0.00     0.044 A 
ATOM      2  C   UNL d   1       0.807  -3.259   0.853  0.00  0.00     0.033 A 
ATOM      3  C   UNL d   1      -0.641  -2.917  -1.033  0.00  0.00     0.033 A 
ATOM      4  C   UNL d   1      -0.226  -5.169  -0.238  0.00  0.00     0.068 A 
ATOM      5  C   UNL d   1      -0.834  -4.298  -1.141  0.00  0.00     0.039 A 
ATOM      6  C   UNL d   1       0.600  -4.641   0.755  0.00  0.00     0.039 A 
ENDROOT
BRANCH   1   7
ATOM      7  N   UNL d   1       0.363  -0.963   0.065  0.00  0.00    -0.266 N 
ATOM      8  C   UNL d   1      -0.665  -0.033  -0.003  0.00  0.00     0.148 A 
ATOM      9  S   UNL d   1      -0.014   1.599  -0.051  0.00  0.00    -0.090 SA
ATOM     10  S   UNL d   1      -2.324  -0.261   0.057  0.00  0.00    -0.052 SA
ATOM     11  C   UNL d   1       1.679   1.050   0.154  0.00  0.00     0.185 A 
ATOM     12  C   UNL d   1       1.649  -0.453   0.210  0.00  0.00     0.239 A 
ATOM     13  O   UNL d   1       2.689  -1.097   0.333  0.00  0.00    -0.272 OA
ENDBRANCH   1   7
BRANCH   4  14
ATOM     14  O   UNL d   1      -0.361  -6.533  -0.233  0.00  0.00    -0.351 OA
BRANCH  14  15
ATOM     15  C   UNL d   1      -1.173  -7.080  -1.274  0.00  0.00     0.175 C 
BRANCH  15  16
ATOM     16  C   UNL d   1      -1.266  -8.594  -1.115  0.00  0.00     0.026 C 
BRANCH  16  17
ATOM     17  C   UNL d   1      -2.096  -9.194  -2.251  0.00  0.00    -0.002 C 
ATOM     18  C   UNL d   1      -2.241 -10.700  -2.122  0.00  0.00     0.005 C 
ENDBRANCH  16  17
ENDBRANCH  15  16
ENDBRANCH  14  15
ENDBRANCH   4  14
TORSDOF 5
