REMARK  3 active torsions:
REMARK  status: ('A' for Active; 'I' for Inactive)
REMARK    1  A    between atoms: C_14  and  C_3 
REMARK    2  A    between atoms: C_16  and  C_4 
REMARK    3  A    between atoms: C_9  and  C_15 
ROOT
ATOM      1  N   UNL d   1       0.785   0.264  -0.957  0.00  0.00    -0.319 N 
ATOM      2  HN  UNL d   1       1.390   0.483  -1.748  1.00  0.00     0.169 HD
ATOM      3  C   UNL d   1       0.259   1.119  -0.012  0.00  0.00     0.138 A 
ATOM      4  C   UNL d   1       0.311  -0.905  -0.585  0.00  0.00     0.182 A 
ATOM      5  N   UNL d   1      -0.514   0.511   0.902  0.00  0.00    -0.242 N 
ATOM      6  HN  UNL d   1      -1.009   0.932   1.689  1.00  0.00     0.196 HD
ATOM      7  O   UNL d   1      -0.481  -0.828   0.524  0.00  0.00    -0.217 OA
ENDROOT
BRANCH   3   8
ATOM      8  C   UNL d   1       0.537   2.551  -0.023  0.00  0.00     0.010 A 
ATOM      9  C   UNL d   1       1.305   3.112  -1.053  0.00  0.00     0.016 A 
ATOM     10  C   UNL d   1       1.583   4.484  -1.075  0.00  0.00     0.014 A 
ATOM     11  C   UNL d   1       1.099   5.325  -0.063  0.00  0.00    -0.008 A 
ATOM     12  C   UNL d   1       0.340   4.763   0.972  0.00  0.00     0.014 A 
ATOM     13  C   UNL d   1       0.058   3.392   0.990  0.00  0.00     0.016 A 
BRANCH  11  14
ATOM     14  C   UNL d   1       1.380   6.754  -0.057  0.00  0.00     0.063 A 
ATOM     15  N   UNL d   1       1.479   7.463   1.135  0.00  0.00    -0.292 N 
ATOM     16  N   UNL d   1       1.739   8.744   0.930  0.00  0.00    -0.061 NA
ATOM     17  HN  UNL d   1       1.365   7.045   2.059  1.00  0.00     0.183 HD
ATOM     18  S   UNL d   1       1.850   9.132  -0.692  0.00  0.00    -0.010 SA
ATOM     19  C   UNL d   1       1.544   7.521  -1.198  0.00  0.00     0.096 A 
ENDBRANCH  11  14
ENDBRANCH   3   8
BRANCH   4  20
ATOM     20  C   UNL d   1       0.526  -2.227  -1.160  0.00  0.00     0.017 A 
ATOM     21  C   UNL d   1       1.389  -2.374  -2.258  0.00  0.00     0.016 A 
ATOM     22  C   UNL d   1       1.629  -3.632  -2.816  0.00  0.00     0.001 A 
ATOM     23  C   UNL d   1       1.007  -4.759  -2.285  0.00  0.00     0.000 A 
ATOM     24  C   UNL d   1       0.141  -4.630  -1.201  0.00  0.00     0.001 A 
ATOM     25  C   UNL d   1      -0.099  -3.372  -0.642  0.00  0.00     0.016 A 
ENDBRANCH   4  20
TORSDOF 3
