REMARK  5 active torsions:
REMARK  status: ('A' for Active; 'I' for Inactive)
REMARK    1  A    between atoms: N_2  and  C_1 
REMARK    2  A    between atoms: C_7  and  C_3 
REMARK    3  A    between atoms: N_6  and  C_4 
REMARK    4  A    between atoms: C_5  and  C_14 
REMARK    5  A    between atoms: O_17  and  C_7 
ROOT
ATOM      1  C   UNL d   1      -1.344   1.773   1.530  0.00  0.00     0.120 C 
ATOM      2  C   UNL d   1      -1.072   2.640   0.534  0.00  0.00     0.040 C 
ATOM      3  C   UNL d   1      -0.665   1.809   2.778  0.00  0.00     0.105 C 
ATOM      4  N   UNL d   1      -0.093   1.857   3.786  0.00  0.00    -0.191 NA
ENDROOT
BRANCH   1   5
ATOM      5  C   UNL d   1      -2.407   0.761   1.287  0.00  0.00     0.303 C 
ATOM      6  O   UNL d   1      -3.022   0.646   0.235  0.00  0.00    -0.258 OA
BRANCH   5   7
ATOM      7  O   UNL d   1      -2.604  -0.004   2.392  0.00  0.00    -0.322 OA
ATOM      8  C   UNL d   1      -3.613  -1.010   2.262  0.00  0.00     0.213 C 
ENDBRANCH   5   7
ENDBRANCH   1   5
BRANCH   2   9
ATOM      9  C   UNL d   1      -0.084   3.725   0.579  0.00  0.00    -0.032 A 
ATOM     10  C   UNL d   1       1.251   3.503   0.247  0.00  0.00     0.050 A 
ATOM     11  C   UNL d   1       2.137   4.598   0.145  0.00  0.00     0.130 A 
ATOM     12  C   UNL d   1       1.735   5.934   0.341  0.00  0.00     0.063 A 
ATOM     13  C   UNL d   1       0.406   6.098   0.779  0.00  0.00     0.033 A 
ATOM     14  C   UNL d   1      -0.489   5.022   0.894  0.00  0.00     0.014 A 
BRANCH  11  15
ATOM     15  N   UNL d   1       3.520   4.266  -0.142  0.00  0.00    -0.113 N 
ATOM     16  O   UNL d   1       4.381   4.611   0.679  0.00  0.00    -0.532 OA
ATOM     17  O   UNL d   1       3.738   3.621  -1.179  0.00  0.00    -0.532 OA
ENDBRANCH  11  15
BRANCH  12  18
ATOM     18  N   UNL d   1       2.455   7.084   0.030  0.00  0.00    -0.379 N 
ATOM     19  C   UNL d   1       3.407   7.115  -1.086  0.00  0.00     0.123 C 
ATOM     20  C   UNL d   1       3.343   8.486  -1.757  0.00  0.00     0.020 C 
ATOM     21  C   UNL d   1       3.611   9.600  -0.749  0.00  0.00     0.003 C 
ATOM     22  C   UNL d   1       2.666   9.491   0.448  0.00  0.00     0.020 C 
ATOM     23  C   UNL d   1       2.685   8.092   1.074  0.00  0.00     0.123 C 
ENDBRANCH  12  18
ENDBRANCH   2   9
TORSDOF 5
