REMARK  5 active torsions:
REMARK  status: ('A' for Active; 'I' for Inactive)
REMARK    1  A    between atoms: C_3  and  C_1 
REMARK    2  A    between atoms: C_2  and  C_6 
REMARK       I    between atoms: N_7  and  C_3 
REMARK    3  A    between atoms: O_14  and  C_4 
REMARK    4  A    between atoms: C_13  and  N_7 
REMARK    5  A    between atoms: C_12  and  O_14 
ROOT
ATOM      1  C   UNL d   1      -0.529   2.561  -0.135  0.00  0.00     0.281 C 
ATOM      2  N   UNL d   1      -1.906   2.694  -0.085  0.00  0.00    -0.307 N 
ATOM      3  O   UNL d   1       0.275   3.485  -0.181  0.00  0.00    -0.265 OA
ATOM      4  H   UNL d   1      -2.447   1.857   0.075  0.00  0.00     0.170 HD
ENDROOT
BRANCH   1   5
ATOM      5  C   UNL d   1      -0.051   1.190  -0.105  0.00  0.00     0.146 A 
ATOM      6  O   UNL d   1      -0.913   0.123  -0.022  0.00  0.00    -0.282 OA
ATOM      7  C   UNL d   1      -0.139  -1.004  -0.013  0.00  0.00     0.191 A 
ATOM      8  C   UNL d   1       1.194  -0.674  -0.140  0.00  0.00     0.067 A 
ATOM      9  C   UNL d   1       1.251   0.733  -0.166  0.00  0.00     0.048 A 
BRANCH   7  10
ATOM     10  O   UNL d   1      -0.816  -2.145   0.124  0.00  0.00    -0.288 OA
BRANCH  10  11
ATOM     11  C   UNL d   1      -0.172  -3.256   0.626  0.00  0.00     0.081 A 
ATOM     12  C   UNL d   1       0.631  -3.187   1.769  0.00  0.00     0.061 A 
ATOM     13  C   UNL d   1       1.265  -4.335   2.240  0.00  0.00     0.038 A 
ATOM     14 CL   UNL d   1       2.291  -4.231   3.618  0.00  0.00    -0.084 Cl
ATOM     15  C   UNL d   1       1.080  -5.558   1.604  0.00  0.00     0.048 A 
ATOM     16  C   UNL d   1       0.247  -5.625   0.488  0.00  0.00     0.038 A 
ATOM     17  C   UNL d   1      -0.383  -4.481  -0.006  0.00  0.00     0.061 A 
ATOM     18 CL   UNL d   1      -0.003  -7.141  -0.289  0.00  0.00    -0.084 Cl
ENDBRANCH  10  11
ENDBRANCH   7  10
ENDBRANCH   1   5
BRANCH   2  19
ATOM     19  C   UNL d   1      -2.574   3.910  -0.285  0.00  0.00     0.107 A 
ATOM     20  N   UNL d   1      -1.885   4.992  -0.692  0.00  0.00    -0.351 N 
ATOM     21  C   UNL d   1      -2.549   6.142  -0.936  0.00  0.00     0.106 A 
ATOM     22  HN  UNL d   1      -0.874   4.943  -0.816  1.00  0.00     0.166 HD
ATOM     23  C   UNL d   1      -3.914   6.284  -0.789  0.00  0.00     0.063 A 
ATOM     24  C   UNL d   1      -4.624   5.162  -0.350  0.00  0.00     0.021 A 
ATOM     25  C   UNL d   1      -3.950   3.960  -0.101  0.00  0.00     0.049 A 
BRANCH  23  26
ATOM     26  C   UNL d   1      -4.579   7.587  -1.106  0.00  0.00     0.418 C 
ATOM     27  F   UNL d   1      -3.722   8.548  -1.546  0.00  0.00    -0.166 F 
ATOM     28  F   UNL d   1      -5.525   7.462  -2.078  0.00  0.00    -0.166 F 
ATOM     29  F   UNL d   1      -5.220   8.123  -0.030  0.00  0.00    -0.166 F 
ENDBRANCH  23  26
ENDBRANCH   2  19
TORSDOF 5
