REMARK  5 active torsions:
REMARK  status: ('A' for Active; 'I' for Inactive)
REMARK    1  A    between atoms: C_2  and  N_1 
REMARK    2  A    between atoms: N_10  and  C_3 
REMARK    3  A    between atoms: N_4  and  N_10 
REMARK    4  A    between atoms: C_12  and  C_11 
REMARK    5  A    between atoms: O_19  and  C_13 
ROOT
ATOM      1  N   UNL d   1      -1.450  -1.296  -0.884  0.00  0.00    -0.284 N 
ATOM      2  H   UNL d   1      -2.397  -1.517  -1.201  0.00  0.00     0.188 HD
ENDROOT
BRANCH   1   3
ATOM      3  N   UNL d   1      -0.590  -0.666  -1.735  0.00  0.00    -0.309 N 
ATOM      4  C   UNL d   1      -1.034  -0.491  -2.939  0.00  0.00     0.118 C 
ATOM      5  HN  UNL d   1       0.336  -0.354  -1.444  1.00  0.00     0.186 HD
BRANCH   4   6
ATOM      6  C   UNL d   1      -0.255   0.239  -3.957  0.00  0.00    -0.019 A 
ATOM      7  C   UNL d   1      -0.636   0.145  -5.299  0.00  0.00     0.015 A 
ATOM      8  C   UNL d   1       0.068   0.863  -6.267  0.00  0.00     0.037 A 
ATOM      9  C   UNL d   1       1.131   1.677  -5.887  0.00  0.00     0.065 A 
ATOM     10  C   UNL d   1       1.519   1.774  -4.553  0.00  0.00     0.037 A 
ATOM     11  C   UNL d   1       0.826   1.045  -3.584  0.00  0.00     0.015 A 
BRANCH   9  12
ATOM     12  O   UNL d   1       1.774   2.377  -6.865  0.00  0.00    -0.361 OA
ATOM     13  H   UNL d   1       2.463   2.924  -6.453  0.00  0.00     0.217 HD
ENDBRANCH   9  12
ENDBRANCH   4   6
ENDBRANCH   1   3
BRANCH   1  14
ATOM     14  C   UNL d   1      -0.934  -2.308  -0.033  0.00  0.00     0.153 A 
ATOM     15  C   UNL d   1      -1.722  -2.874   0.976  0.00  0.00     0.148 A 
ATOM     16  C   UNL d   1      -1.185  -3.830   1.853  0.00  0.00     0.041 A 
ATOM     17  C   UNL d   1       0.141  -4.209   1.700  0.00  0.00     0.020 A 
ATOM     18  C   UNL d   1       0.868  -3.619   0.683  0.00  0.00     0.090 A 
ATOM     19  N   UNL d   1       0.365  -2.689  -0.161  0.00  0.00    -0.349 N 
ATOM     20  HN  UNL d   1       0.953  -2.279  -0.886  1.00  0.00     0.167 HD
BRANCH  15  21
ATOM     21  N   UNL d   1      -3.118  -2.501   1.128  0.00  0.00    -0.112 N 
ATOM     22  O   UNL d   1      -3.749  -2.192   0.104  0.00  0.00    -0.532 OA
ATOM     23  O   UNL d   1      -3.608  -2.565   2.264  0.00  0.00    -0.532 OA
ENDBRANCH  15  21
ENDBRANCH   1  14
TORSDOF 5
