REMARK  2 active torsions:
REMARK  status: ('A' for Active; 'I' for Inactive)
REMARK    1  A    between atoms: C_6  and  N_1 
REMARK    2  A    between atoms: C_14  and  C_13 
ROOT
ATOM      1  C   UNL d   1       0.050   2.293  -0.025  0.00  0.00     0.045 A 
ATOM      2  C   UNL d   1      -0.627   3.007   0.975  0.00  0.00     0.031 A 
ATOM      3  C   UNL d   1       0.750   3.032  -0.990  0.00  0.00     0.031 A 
ATOM      4  C   UNL d   1      -0.575   4.406   1.029  0.00  0.00     0.009 A 
ATOM      5  C   UNL d   1       0.785   4.430  -0.951  0.00  0.00     0.009 A 
ATOM      6  C   UNL d   1       0.137   5.129   0.069  0.00  0.00    -0.058 A 
ENDROOT
BRANCH   1   7
ATOM      7  N   UNL d   1       0.042   0.873  -0.051  0.00  0.00    -0.245 N 
ATOM      8  C   UNL d   1      -0.877   0.069   0.568  0.00  0.00     0.255 A 
ATOM      9  C   UNL d   1      -0.490  -1.323   0.305  0.00  0.00     0.080 A 
ATOM     10  O   UNL d   1      -1.880   0.334   1.207  0.00  0.00    -0.268 OA
ATOM     11  C   UNL d   1       0.619  -1.308  -0.427  0.00  0.00     0.080 A 
ATOM     12  C   UNL d   1       0.982   0.092  -0.668  0.00  0.00     0.255 A 
ATOM     13  O   UNL d   1       1.997   0.383  -1.278  0.00  0.00    -0.268 OA
ENDBRANCH   1   7
BRANCH   6  14
ATOM     14  C   UNL d   1       0.182   6.634   0.113  0.00  0.00     0.034 C 
ATOM     15  C   UNL d   1      -0.989   7.256  -0.631  0.00  0.00     0.010 C 
ENDBRANCH   6  14
TORSDOF 2
