REMARK  6 active torsions:
REMARK  status: ('A' for Active; 'I' for Inactive)
REMARK    1  A    between atoms: N_13  and  C_1 
REMARK    2  A    between atoms: C_19  and  N_2 
REMARK    3  A    between atoms: C_18  and  C_7 
REMARK    4  A    between atoms: C_10  and  S_20 
REMARK       I    between atoms: C_17  and  N_13 
REMARK    5  A    between atoms: C_24  and  C_17 
REMARK    6  A    between atoms: S_20  and  C_24 
ROOT
ATOM      1  C   UNL d   1       1.004  -0.938  -0.205  0.00  0.00     0.152 C 
ATOM      2  N   UNL d   1       0.826   0.082  -1.147  0.00  0.00    -0.239 N 
ATOM      3  N   UNL d   1      -0.232   0.875  -0.835  0.00  0.00    -0.302 N 
ATOM      4  HN  UNL d   1      -0.491   1.768  -1.254  1.00  0.00     0.186 HD
ATOM      5  C   UNL d   1      -0.137  -0.908   0.582  0.00  0.00     0.107 C 
ATOM      6  C   UNL d   1      -0.852   0.220   0.146  0.00  0.00     0.134 C 
ATOM      7  C   UNL d   1      -0.468  -1.703   1.719  0.00  0.00     0.105 C 
ATOM      8  N   UNL d   1      -0.762  -2.277   2.683  0.00  0.00    -0.191 NA
ENDROOT
BRANCH   1   9
ATOM      9  N   UNL d   1       2.171  -1.699  -0.122  0.00  0.00    -0.310 N 
ATOM     10  C   UNL d   1       2.125  -3.081   0.013  0.00  0.00     0.233 C 
ATOM     11  O   UNL d   1       1.090  -3.729   0.136  0.00  0.00    -0.272 OA
ATOM     12  H   UNL d   1       3.003  -1.333  -0.579  0.00  0.00     0.170 HD
BRANCH  10  13
ATOM     13  C   UNL d   1       3.498  -3.755  -0.021  0.00  0.00     0.186 C 
BRANCH  13  14
ATOM     14  S   UNL d   1       4.462  -3.158  -1.445  0.00  0.00    -0.075 SA
BRANCH  14  15
ATOM     15  C   UNL d   1       5.935  -4.056  -1.296  0.00  0.00     0.204 A 
ATOM     16  O   UNL d   1       6.948  -3.945  -2.212  0.00  0.00    -0.267 OA
ATOM     17  C   UNL d   1       7.891  -4.801  -1.710  0.00  0.00     0.175 A 
ATOM     18  N   UNL d   1       7.495  -5.378  -0.591  0.00  0.00    -0.277 N 
ATOM     19  N   UNL d   1       6.229  -4.893  -0.324  0.00  0.00    -0.272 N 
ATOM     20  HN  UNL d   1       8.021  -6.051  -0.033  1.00  0.00     0.189 HD
ATOM     21  HN  UNL d   1       5.638  -5.136   0.471  1.00  0.00     0.189 HD
BRANCH  17  22
ATOM     22  C   UNL d   1       9.135  -4.944  -2.457  0.00  0.00     0.017 A 
ATOM     23  C   UNL d   1       9.390  -4.211  -3.630  0.00  0.00     0.017 A 
ATOM     24  C   UNL d   1      10.593  -4.374  -4.329  0.00  0.00     0.025 A 
ATOM     25  C   UNL d   1      11.552  -5.269  -3.862  0.00  0.00     0.034 A 
ATOM     26  C   UNL d   1      11.321  -6.002  -2.703  0.00  0.00     0.025 A 
ATOM     27 CL   UNL d   1      13.027  -5.469  -4.724  0.00  0.00    -0.084 Cl
ATOM     28  C   UNL d   1      10.120  -5.839  -2.005  0.00  0.00     0.017 A 
ENDBRANCH  17  22
ENDBRANCH  14  15
ENDBRANCH  13  14
ENDBRANCH  10  13
ENDBRANCH   1   9
BRANCH   2  29
ATOM     29  C   UNL d   1       1.554   0.311  -2.350  0.00  0.00     0.058 A 
ATOM     30  C   UNL d   1       2.204  -0.741  -3.008  0.00  0.00     0.031 A 
ATOM     31  C   UNL d   1       2.932  -0.504  -4.175  0.00  0.00     0.002 A 
ATOM     32  C   UNL d   1       2.988   0.780  -4.707  0.00  0.00     0.000 A 
ATOM     33  C   UNL d   1       2.303   1.825  -4.086  0.00  0.00     0.002 A 
ATOM     34  C   UNL d   1       1.577   1.592  -2.914  0.00  0.00     0.031 A 
ENDBRANCH   2  29
TORSDOF 6
