REMARK  8 active torsions:
REMARK  status: ('A' for Active; 'I' for Inactive)
REMARK    1  A    between atoms: C_5  and  C_1 
REMARK    2  A    between atoms: C_6  and  C_1 
REMARK    3  A    between atoms: S_3  and  C_2 
REMARK    4  A    between atoms: C_13  and  S_3 
REMARK    5  A    between atoms: C_14  and  C_5 
REMARK    6  A    between atoms: C_17  and  C_5 
REMARK    7  A    between atoms: C_15  and  C_6 
REMARK    8  A    between atoms: C_16  and  C_6 
ROOT
ATOM      1  C   UNL d   1      -0.028   2.134   1.391  0.00  0.00     0.114 C 
ATOM      2  C   UNL d   1      -1.287   2.946   1.172  0.00  0.00     0.080 C 
ATOM      3  N   UNL d   1      -2.308   3.501   1.113  0.00  0.00    -0.196 NA
ENDROOT
BRANCH   1   4
ATOM      4  C   UNL d   1      -0.036   1.179   0.065  0.00  0.00     0.037 A 
ATOM      5  C   UNL d   1       0.666  -0.219  -0.015  0.00  0.00     0.128 A 
ATOM      6  C   UNL d   1      -0.811  -0.150   0.199  0.00  0.00     0.037 A 
BRANCH   5   7
ATOM      7  S   UNL d   1       1.519  -1.117   1.312  0.00  0.00     0.180 S 
ATOM      8  O   UNL d   1       2.615  -0.297   1.780  0.00  0.00    -0.222 OA
ATOM      9  O   UNL d   1       0.540  -1.683   2.214  0.00  0.00    -0.222 OA
BRANCH   7  10
ATOM     10  C   UNL d   1       2.241  -2.487   0.412  0.00  0.00     0.059 A 
ATOM     11  C   UNL d   1       3.588  -2.449   0.027  0.00  0.00     0.023 A 
ATOM     12  C   UNL d   1       4.123  -3.514  -0.710  0.00  0.00     0.002 A 
ATOM     13  C   UNL d   1       3.322  -4.604  -1.046  0.00  0.00     0.000 A 
ATOM     14  C   UNL d   1       1.984  -4.644  -0.644  0.00  0.00     0.002 A 
ATOM     15  C   UNL d   1       1.441  -3.588   0.091  0.00  0.00     0.023 A 
ENDBRANCH   7  10
ENDBRANCH   5   7
BRANCH   4  16
ATOM     16  C   UNL d   1      -0.019   1.962  -1.462  0.00  0.00     0.114 C 
ATOM     17  C   UNL d   1       1.462   2.047  -1.708  0.00  0.00     0.080 C 
ATOM     18  N   UNL d   1       2.595   2.061  -1.947  0.00  0.00    -0.196 NA
BRANCH  16  19
ATOM     19  C   UNL d   1      -0.615   1.039  -2.608  0.00  0.00    -0.030 A 
ATOM     20  C   UNL d   1      -1.973   0.665  -2.634  0.00  0.00     0.009 A 
ATOM     21  C   UNL d   1      -2.542   0.032  -3.745  0.00  0.00     0.001 A 
ATOM     22  C   UNL d   1      -1.759  -0.297  -4.845  0.00  0.00     0.000 A 
ATOM     23  C   UNL d   1      -0.399  -0.025  -4.820  0.00  0.00     0.001 A 
ATOM     24  C   UNL d   1       0.162   0.634  -3.723  0.00  0.00     0.009 A 
ENDBRANCH  16  19
BRANCH  16  25
ATOM     25  C   UNL d   1      -0.606   3.415  -1.532  0.00  0.00    -0.030 C 
ATOM     26  C   UNL d   1       0.147   4.537  -1.115  0.00  0.00     0.009 C 
ATOM     27  C   UNL d   1      -0.420   5.812  -0.981  0.00  0.00     0.001 C 
ATOM     28  C   UNL d   1      -1.739   6.034  -1.342  0.00  0.00     0.000 C 
ATOM     29  C   UNL d   1      -2.473   4.990  -1.882  0.00  0.00     0.001 C 
ATOM     30  C   UNL d   1      -1.913   3.708  -1.980  0.00  0.00     0.009 C 
ENDBRANCH  16  25
ENDBRANCH   4  16
ENDBRANCH   1   4
BRANCH   1  31
ATOM     31  C   UNL d   1      -0.292   1.469   2.804  0.00  0.00    -0.030 C 
ATOM     32  C   UNL d   1       0.719   1.391   3.782  0.00  0.00     0.009 C 
ATOM     33  C   UNL d   1       0.410   1.245   5.141  0.00  0.00     0.001 C 
ATOM     34  C   UNL d   1      -0.912   1.153   5.560  0.00  0.00     0.000 C 
ATOM     35  C   UNL d   1      -1.926   1.117   4.615  0.00  0.00     0.001 C 
ATOM     36  C   UNL d   1      -1.618   1.231   3.257  0.00  0.00     0.009 C 
ENDBRANCH   1  31
BRANCH   1  37
ATOM     37  C   UNL d   1       1.213   3.070   1.479  0.00  0.00    -0.030 A 
ATOM     38  C   UNL d   1       2.497   2.680   1.068  0.00  0.00     0.009 A 
ATOM     39  C   UNL d   1       3.595   3.544   1.129  0.00  0.00     0.001 A 
ATOM     40  C   UNL d   1       3.451   4.815   1.665  0.00  0.00     0.000 A 
ATOM     41  C   UNL d   1       2.216   5.206   2.166  0.00  0.00     0.001 A 
ATOM     42  C   UNL d   1       1.115   4.345   2.086  0.00  0.00     0.009 A 
ENDBRANCH   1  37
TORSDOF 8
