REMARK  4 active torsions:
REMARK  status: ('A' for Active; 'I' for Inactive)
REMARK    1  A    between atoms: C_13  and  N_3 
REMARK    2  A    between atoms: C_12  and  C_13 
REMARK       I    between atoms: N_17  and  C_12 
REMARK    3  A    between atoms: N_14  and  N_17 
REMARK    4  A    between atoms: C_20  and  C_19 
ROOT
ATOM      1  C   UNL d   1      -2.478  -3.117  -0.620  0.00  0.00     0.254 C 
ATOM      2  N   UNL d   1      -2.835  -2.818  -1.935  0.00  0.00    -0.269 N 
ATOM      3  O   UNL d   1      -3.221  -3.609   0.225  0.00  0.00    -0.270 OA
ATOM      4  H   UNL d   1      -2.100  -2.598  -2.604  0.00  0.00     0.190 HD
ENDROOT
BRANCH   1   5
ATOM      5  C   UNL d   1      -1.022  -2.756  -0.278  0.00  0.00     0.252 C 
BRANCH   5   6
ATOM      6  N   UNL d   1      -0.935  -1.386   0.275  0.00  0.00    -0.176 N 
ATOM      7  C   UNL d   1      -0.605  -0.402  -0.611  0.00  0.00     0.710 A 
ATOM      8  N   UNL d   1      -0.713   0.918  -0.223  0.00  0.00    -0.047 N 
ATOM      9  N   UNL d   1      -0.153  -0.464  -1.843  0.00  0.00    -0.184 N 
ATOM     10  C   UNL d   1      -1.163   1.352   1.023  0.00  0.00     0.284 C 
ATOM     11  N   UNL d   1      -0.293   1.739  -1.221  0.00  0.00    -0.272 N 
ATOM     12  O   UNL d   1      -1.309   2.535   1.296  0.00  0.00    -0.266 OA
ATOM     13  C   UNL d   1      -1.397   0.247   1.983  0.00  0.00     0.102 C 
ATOM     14  C   UNL d   1      -1.258  -1.040   1.601  0.00  0.00     0.031 C 
ATOM     15  C   UNL d   1      -1.379  -2.122   2.646  0.00  0.00     0.069 C 
ATOM     16  C   UNL d   1       0.061   0.852  -2.154  0.00  0.00     0.216 A 
ATOM     17  HN  UNL d   1      -0.258   2.758  -1.249  1.00  0.00     0.189 HD
ATOM     18  HN  UNL d   1       0.001  -1.289  -2.423  1.00  0.00     0.185 HD
ENDBRANCH   5   6
ENDBRANCH   1   5
BRANCH   2  19
ATOM     19  N   UNL d   1      -4.075  -2.993  -2.514  0.00  0.00    -0.308 N 
ATOM     20  C   UNL d   1      -5.126  -2.943  -1.758  0.00  0.00     0.118 C 
ATOM     21  HN  UNL d   1      -4.162  -3.157  -3.517  1.00  0.00     0.186 HD
BRANCH  20  22
ATOM     22  C   UNL d   1      -6.506  -3.056  -2.290  0.00  0.00    -0.019 A 
ATOM     23  C   UNL d   1      -6.761  -3.281  -3.646  0.00  0.00     0.014 A 
ATOM     24  C   UNL d   1      -8.082  -3.267  -4.114  0.00  0.00     0.024 A 
ATOM     25  C   UNL d   1      -9.132  -3.031  -3.230  0.00  0.00     0.034 A 
ATOM     26  C   UNL d   1      -8.883  -2.836  -1.873  0.00  0.00     0.024 A 
ATOM     27 CL   UNL d   1     -10.749  -2.959  -3.816  0.00  0.00    -0.084 Cl
ATOM     28  C   UNL d   1      -7.568  -2.853  -1.400  0.00  0.00     0.014 A 
ENDBRANCH  20  22
ENDBRANCH   2  19
TORSDOF 4
