REMARK  8 active torsions:
REMARK  status: ('A' for Active; 'I' for Inactive)
REMARK    1  A    between atoms: C_10  and  N_1 
REMARK    2  A    between atoms: C_9  and  C_2 
REMARK    3  A    between atoms: C_16  and  C_8 
REMARK    4  A    between atoms: C_13  and  C_9 
REMARK    5  A    between atoms: C_14  and  C_9 
REMARK    6  A    between atoms: N_11  and  C_10 
REMARK    7  A    between atoms: N_12  and  C_13 
REMARK    8  A    between atoms: O_24  and  C_21 
ROOT
ATOM      1  N   UNL d   1      -0.707   1.375  -0.023  0.00  0.00    -0.226 N 
ATOM      2  C   UNL d   1      -0.589  -1.007   0.027  0.00  0.00     0.091 C 
ATOM      3  C   UNL d   1      -1.168   0.253   0.644  0.00  0.00     0.287 C 
ATOM      4  N   UNL d   1       0.612  -0.977  -0.474  0.00  0.00    -0.339 N 
ATOM      5  HN  UNL d   1       1.054  -1.811  -0.860  1.00  0.00     0.167 HD
ATOM      6  N   UNL d   1       0.643   1.389  -0.351  0.00  0.00    -0.278 N 
ATOM      7  HN  UNL d   1       1.137   2.267  -0.506  1.00  0.00     0.189 HD
ATOM      8  C   UNL d   1       1.256   0.247  -0.455  0.00  0.00     0.131 C 
ATOM      9  O   UNL d   1      -1.884   0.232   1.632  0.00  0.00    -0.264 OA
ENDROOT
BRANCH   2  10
ATOM     10  C   UNL d   1      -1.375  -2.315   0.144  0.00  0.00     0.102 C 
BRANCH  10  11
ATOM     11  C   UNL d   1      -2.887  -2.188   0.493  0.00  0.00     0.288 C 
BRANCH  11  12
ATOM     12  N   UNL d   1      -3.737  -1.267  -0.297  0.00  0.00     0.093 N 
ATOM     13  C   UNL d   1      -4.031  -1.744  -1.665  0.00  0.00     0.298 C 
ATOM     14  C   UNL d   1      -4.918  -2.997  -1.710  0.00  0.00     0.198 C 
ATOM     15  O   UNL d   1      -6.173  -2.751  -1.063  0.00  0.00    -0.388 OA
ATOM     16  C   UNL d   1      -5.981  -2.321   0.291  0.00  0.00     0.198 C 
ATOM     17  C   UNL d   1      -5.055  -1.090   0.379  0.00  0.00     0.298 C 
ENDBRANCH  11  12
ENDBRANCH  10  11
BRANCH  10  18
ATOM     18  C   UNL d   1      -1.112  -3.395  -0.919  0.00  0.00    -0.046 A 
ATOM     19  C   UNL d   1      -1.166  -4.745  -0.520  0.00  0.00     0.011 A 
ATOM     20  C   UNL d   1      -0.905  -5.787  -1.417  0.00  0.00     0.037 A 
ATOM     21  C   UNL d   1      -0.591  -5.500  -2.740  0.00  0.00     0.068 A 
ATOM     22  C   UNL d   1      -0.608  -4.176  -3.175  0.00  0.00     0.037 A 
ATOM     23  C   UNL d   1      -0.846  -3.129  -2.271  0.00  0.00     0.011 A 
BRANCH  21  24
ATOM     24  O   UNL d   1      -0.294  -6.451  -3.678  0.00  0.00    -0.356 OA
ATOM     25  C   UNL d   1       0.545  -7.500  -3.192  0.00  0.00     0.210 C 
ENDBRANCH  21  24
ENDBRANCH  10  18
ENDBRANCH   2  10
BRANCH   1  26
ATOM     26  C   UNL d   1      -1.335   2.664   0.249  0.00  0.00     0.424 C 
BRANCH  26  27
ATOM     27  N   UNL d   1      -1.452   3.439  -0.994  0.00  0.00     0.111 N 
ATOM     28  C   UNL d   1      -2.324   2.785  -1.992  0.00  0.00     0.300 C 
ATOM     29  C   UNL d   1      -3.816   2.839  -1.633  0.00  0.00     0.198 C 
ATOM     30  O   UNL d   1      -4.251   4.197  -1.499  0.00  0.00    -0.388 OA
ATOM     31  C   UNL d   1      -3.491   4.891  -0.503  0.00  0.00     0.198 C 
ATOM     32  C   UNL d   1      -1.971   4.799  -0.746  0.00  0.00     0.300 C 
ENDBRANCH  26  27
ENDBRANCH   1  26
BRANCH   8  33
ATOM     33  C   UNL d   1       2.753   0.198  -0.461  0.00  0.00     0.009 A 
ATOM     34  C   UNL d   1       3.435  -1.014  -0.613  0.00  0.00     0.015 A 
ATOM     35  C   UNL d   1       4.821  -1.069  -0.434  0.00  0.00     0.001 A 
ATOM     36  C   UNL d   1       5.531   0.085  -0.106  0.00  0.00     0.000 A 
ATOM     37  C   UNL d   1       4.863   1.302   0.027  0.00  0.00     0.001 A 
ATOM     38  C   UNL d   1       3.480   1.363  -0.154  0.00  0.00     0.015 A 
ENDBRANCH   8  33
TORSDOF 8
