REMARK  1 active torsions:
REMARK  status: ('A' for Active; 'I' for Inactive)
REMARK    1  A    between atoms: C_8  and  C_3 
ROOT
ATOM      1  C   UNL d   1      -0.740   0.341   0.003  0.00  0.00     0.050 C 
ATOM      2  C   UNL d   1      -1.383  -0.840   0.009  0.00  0.00    -0.025 C 
ATOM      3  C   UNL d   1      -2.889  -0.904  -0.124  0.00  0.00     0.155 C 
ATOM      4  N   UNL d   1      -1.488   1.492  -0.087  0.00  0.00    -0.332 N 
ATOM      5  C   UNL d   1      -2.844   1.540   0.021  0.00  0.00     0.173 C 
ATOM      6  N   UNL d   1      -3.482   0.365   0.250  0.00  0.00    -0.354 N 
ATOM      7  C   UNL d   1       0.740   0.404   0.046  0.00  0.00    -0.003 A 
ATOM      8  C   UNL d   1      -0.684  -2.167   0.079  0.00  0.00     0.043 C 
ATOM      9  S   UNL d   1      -3.678   2.972  -0.097  0.00  0.00    -0.041 SA
ATOM     10  C   UNL d   1       1.492  -0.786   0.032  0.00  0.00    -0.045 A 
ATOM     11  C   UNL d   1       0.841  -2.142  -0.030  0.00  0.00     0.044 C 
ATOM     12  C   UNL d   1       1.441   1.624   0.096  0.00  0.00     0.014 A 
ATOM     13  C   UNL d   1       2.900  -0.735   0.039  0.00  0.00     0.008 A 
ATOM     14  C   UNL d   1       2.839   1.663   0.101  0.00  0.00     0.001 A 
ATOM     15  C   UNL d   1       3.568   0.483   0.069  0.00  0.00     0.001 A 
ATOM     16  H   UNL d   1      -1.035   2.385  -0.207  0.00  0.00     0.168 HD
ATOM     17  H   UNL d   1      -4.491   0.412   0.271  0.00  0.00     0.163 HD
ENDROOT
BRANCH   3  18
ATOM     18  C   UNL d   1      -3.371  -1.223  -1.518  0.00  0.00     0.009 A 
ATOM     19  S   UNL d   1      -4.317  -2.617  -1.822  0.00  0.00    -0.104 SA
ATOM     20  C   UNL d   1      -4.433  -2.255  -3.489  0.00  0.00     0.050 A 
ATOM     21  C   UNL d   1      -3.766  -1.097  -3.817  0.00  0.00     0.008 A 
ATOM     22  C   UNL d   1      -3.147  -0.506  -2.686  0.00  0.00     0.017 A 
ENDBRANCH   3  18
TORSDOF 1
