REMARK  3 active torsions:
REMARK  status: ('A' for Active; 'I' for Inactive)
REMARK    1  A    between atoms: C_2  and  C_1 
REMARK    2  A    between atoms: S_14  and  C_7 
REMARK    3  A    between atoms: S_15  and  C_11 
ROOT
ATOM      1  C   UNL d   1      -1.481  -0.771   0.021  0.00  0.00     0.069 A 
ATOM      2  N   UNL d   1      -0.074   1.115   0.166  0.00  0.00    -0.319 N 
ATOM      3  HN  UNL d   1       0.196   2.096   0.245  1.00  0.00     0.175 HD
ATOM      4  C   UNL d   1      -0.234  -1.380   0.005  0.00  0.00     0.074 A 
ATOM      5  C   UNL d   1      -1.323   0.660   0.101  0.00  0.00     0.091 A 
ATOM      6  S   UNL d   1       0.967  -0.162   0.097  0.00  0.00    -0.006 SA
ENDROOT
BRANCH   1   7
ATOM      7  C   UNL d   1      -2.770  -1.459  -0.037  0.00  0.00     0.149 A 
ATOM      8  N   UNL d   1      -3.834  -0.953  -0.737  0.00  0.00    -0.266 N 
ATOM      9  N   UNL d   1      -4.823  -1.827  -0.611  0.00  0.00    -0.005 NA
ATOM     10  HN  UNL d   1      -3.860  -0.075  -1.254  1.00  0.00     0.186 HD
ATOM     11  N   UNL d   1      -4.310  -2.810   0.136  0.00  0.00    -0.225 N 
ATOM     12  N   UNL d   1      -3.041  -2.642   0.540  0.00  0.00    -0.271 N 
ATOM     13  H   UNL d   1      -4.852  -3.635   0.376  0.00  0.00     0.205 HD
ATOM     14  HN  UNL d   1      -2.452  -3.241   1.120  1.00  0.00     0.190 HD
ENDBRANCH   1   7
BRANCH   4  15
ATOM     15  S   UNL d   1       0.198  -3.075  -0.159  0.00  0.00    -0.125 SA
ATOM     16  C   UNL d   1       0.366  -3.533   1.582  0.00  0.00     0.096 C 
ENDBRANCH   4  15
BRANCH   5  17
ATOM     17  S   UNL d   1      -2.650   1.829   0.165  0.00  0.00    -0.115 SA
ATOM     18  C   UNL d   1      -1.774   3.409   0.163  0.00  0.00     0.097 C 
ENDBRANCH   5  17
TORSDOF 3
