REMARK  2 active torsions:
REMARK  status: ('A' for Active; 'I' for Inactive)
REMARK    1  A    between atoms: S_2  and  C_1 
REMARK    2  A    between atoms: C_8  and  S_2 
ROOT
ATOM      1  C   UNL d   1      -3.109   0.255   0.040  0.00  0.00     0.176 A 
ATOM      2  N   UNL d   1      -2.378   1.353   0.020  0.00  0.00    -0.340 N 
ATOM      3  HN  UNL d   1      -2.744   2.305   0.024  1.00  0.00     0.167 HD
ATOM      4  S   UNL d   1      -2.257  -1.224   0.047  0.00  0.00    -0.058 SA
ATOM      5  C   UNL d   1      -0.766  -0.359   0.017  0.00  0.00     0.036 A 
ATOM      6  C   UNL d   1      -1.039   1.011  -0.008  0.00  0.00     0.051 A 
ATOM      7  C   UNL d   1       0.550  -0.855   0.018  0.00  0.00     0.045 A 
ATOM      8  C   UNL d   1       0.037   1.919  -0.049  0.00  0.00     0.032 A 
ATOM      9  C   UNL d   1       1.596   0.072  -0.009  0.00  0.00     0.035 A 
ATOM     10  C   UNL d   1       1.351   1.441  -0.047  0.00  0.00     0.026 A 
ATOM     11 CL   UNL d   1       3.223  -0.493   0.008  0.00  0.00    -0.084 Cl
ENDROOT
BRANCH   1  12
ATOM     12  S   UNL d   1      -4.883   0.226   0.103  0.00  0.00     0.229 S 
ATOM     13  O   UNL d   1      -5.345   1.027  -1.014  0.00  0.00    -0.215 OA
ATOM     14  O   UNL d   1      -5.301  -1.158   0.257  0.00  0.00    -0.215 OA
BRANCH  12  15
ATOM     15  C   UNL d   1      -5.300   1.079   1.609  0.00  0.00     0.066 A 
ATOM     16  C   UNL d   1      -5.521   2.460   1.586  0.00  0.00     0.025 A 
ATOM     17  C   UNL d   1      -5.922   3.111   2.756  0.00  0.00     0.025 A 
ATOM     18  C   UNL d   1      -6.106   2.381   3.931  0.00  0.00     0.034 A 
ATOM     19  C   UNL d   1      -5.873   1.005   3.955  0.00  0.00     0.025 A 
ATOM     20 CL   UNL d   1      -6.638   3.180   5.359  0.00  0.00    -0.084 Cl
ATOM     21  C   UNL d   1      -5.470   0.347   2.790  0.00  0.00     0.025 A 
ENDBRANCH  12  15
ENDBRANCH   1  12
TORSDOF 2
