REMARK  7 active torsions:
REMARK  status: ('A' for Active; 'I' for Inactive)
REMARK    1  A    between atoms: C_8  and  N_1 
REMARK    2  A    between atoms: S_9  and  C_2 
REMARK    3  A    between atoms: O_19  and  C_3 
REMARK    4  A    between atoms: C_10  and  C_8 
REMARK    5  A    between atoms: C_18  and  S_9 
REMARK    6  A    between atoms: C_11  and  C_18 
REMARK       I    between atoms: N_13  and  C_11 
REMARK    7  A    between atoms: C_20  and  N_13 
ROOT
ATOM      1  N   UNL d   1      -0.098   0.145  -0.730  0.00  0.00    -0.285 N 
ATOM      2  C   UNL d   1       0.990  -0.600  -0.375  0.00  0.00     0.165 C 
ATOM      3  C   UNL d   1      -0.685   0.502   0.455  0.00  0.00     0.240 C 
ATOM      4  N   UNL d   1       0.971  -0.812   0.924  0.00  0.00    -0.277 N 
ATOM      5  HN  UNL d   1       1.632  -1.385   1.448  1.00  0.00     0.189 HD
ATOM      6  N   UNL d   1      -0.098  -0.124   1.447  0.00  0.00    -0.263 N 
ATOM      7  HN  UNL d   1      -0.383  -0.104   2.426  1.00  0.00     0.190 HD
ENDROOT
BRANCH   2   8
ATOM      8  S   UNL d   1       2.241  -1.098  -1.453  0.00  0.00    -0.083 SA
BRANCH   8   9
ATOM      9  C   UNL d   1       2.557  -2.801  -0.920  0.00  0.00     0.185 C 
BRANCH   9  10
ATOM     10  C   UNL d   1       3.544  -2.937   0.235  0.00  0.00     0.231 C 
ATOM     11  N   UNL d   1       3.079  -2.415   1.422  0.00  0.00    -0.327 N 
ATOM     12  H   UNL d   1       2.235  -1.848   1.370  0.00  0.00     0.169 HD
ATOM     13  O   UNL d   1       4.584  -3.577   0.086  0.00  0.00    -0.272 OA
BRANCH  11  14
ATOM     14  C   UNL d   1       3.546  -2.635   2.729  0.00  0.00     0.034 A 
ATOM     15  C   UNL d   1       4.684  -3.374   3.046  0.00  0.00     0.029 A 
ATOM     16  C   UNL d   1       5.002  -3.626   4.385  0.00  0.00     0.002 A 
ATOM     17  C   UNL d   1       4.187  -3.143   5.409  0.00  0.00     0.000 A 
ATOM     18  C   UNL d   1       3.066  -2.380   5.098  0.00  0.00     0.002 A 
ATOM     19  C   UNL d   1       2.755  -2.118   3.764  0.00  0.00     0.029 A 
ENDBRANCH  11  14
ENDBRANCH   9  10
ENDBRANCH   8   9
ENDBRANCH   2   8
BRANCH   1  20
ATOM     20  C   UNL d   1      -0.654   0.352  -2.046  0.00  0.00     0.200 C 
BRANCH  20  21
ATOM     21  C   UNL d   1      -0.271   1.679  -2.571  0.00  0.00     0.070 A 
ATOM     22  O   UNL d   1      -0.884   2.758  -2.003  0.00  0.00    -0.325 OA
ATOM     23  C   UNL d   1      -0.398   3.859  -2.635  0.00  0.00     0.142 A 
ATOM     24  C   UNL d   1       0.512   3.499  -3.600  0.00  0.00     0.027 A 
ATOM     25  C   UNL d   1       0.596   2.087  -3.559  0.00  0.00     0.036 A 
ENDBRANCH  20  21
ENDBRANCH   1  20
BRANCH   3  26
ATOM     26  O   UNL d   1      -1.701   1.338   0.594  0.00  0.00    -0.331 OA
ATOM     27  H   UNL d   1      -1.653   1.990  -0.129  0.00  0.00     0.221 HD
ENDBRANCH   3  26
TORSDOF 7
