REMARK  5 active torsions:
REMARK  status: ('A' for Active; 'I' for Inactive)
REMARK    1  A    between atoms: N_8  and  S_1 
REMARK    2  A    between atoms: C_10  and  S_1 
REMARK    3  A    between atoms: C_7  and  C_2 
REMARK    4  A    between atoms: C_6  and  C_14 
REMARK    5  A    between atoms: C_14  and  N_8 
ROOT
ATOM      1  N   UNL d   1       0.465   0.501  -1.408  0.00  0.00    -0.310 N 
ATOM      2  H   UNL d   1      -0.499   0.259  -1.641  0.00  0.00     0.172 HD
ENDROOT
BRANCH   1   3
ATOM      3  S   UNL d   1       0.994  -0.046   0.082  0.00  0.00     0.259 S 
ATOM      4  O   UNL d   1       2.413   0.220   0.180  0.00  0.00    -0.201 OA
ATOM      5  O   UNL d   1       0.449  -1.371   0.263  0.00  0.00    -0.201 OA
BRANCH   3   6
ATOM      6  C   UNL d   1       0.162   1.036   1.226  0.00  0.00     0.079 A 
ATOM      7  C   UNL d   1      -1.079   0.656   1.750  0.00  0.00     0.027 A 
ATOM      8  C   UNL d   1      -1.711   1.476   2.687  0.00  0.00     0.025 A 
ATOM      9  C   UNL d   1      -1.100   2.662   3.098  0.00  0.00     0.034 A 
ATOM     10  C   UNL d   1       0.144   3.033   2.586  0.00  0.00     0.025 A 
ATOM     11 CL   UNL d   1      -1.881   3.667   4.254  0.00  0.00    -0.084 Cl
ATOM     12  C   UNL d   1       0.786   2.213   1.655  0.00  0.00     0.027 A 
ENDBRANCH   3   6
ENDBRANCH   1   3
BRANCH   1  13
ATOM     13  C   UNL d   1       0.907   1.820  -1.850  0.00  0.00     0.189 C 
BRANCH  13  14
ATOM     14  C   UNL d   1       0.458   2.017  -3.265  0.00  0.00     0.035 A 
ATOM     15  N   UNL d   1      -0.906   2.027  -3.553  0.00  0.00    -0.351 N 
ATOM     16  C   UNL d   1      -1.105   2.237  -4.843  0.00  0.00     0.091 A 
ATOM     17  HN  UNL d   1      -1.647   1.890  -2.865  1.00  0.00     0.166 HD
ATOM     18  S   UNL d   1       0.336   2.428  -5.769  0.00  0.00    -0.081 SA
ATOM     19  C   UNL d   1       1.276   2.208  -4.361  0.00  0.00     0.078 A 
BRANCH  16  20
ATOM     20  C   UNL d   1      -2.437   2.304  -5.406  0.00  0.00     0.038 A 
ATOM     21  S   UNL d   1      -2.753   2.538  -7.081  0.00  0.00    -0.099 SA
ATOM     22  C   UNL d   1      -4.444   2.476  -6.855  0.00  0.00     0.050 A 
ATOM     23  C   UNL d   1      -4.780   2.288  -5.535  0.00  0.00     0.008 A 
ATOM     24  C   UNL d   1      -3.626   2.192  -4.702  0.00  0.00     0.022 A 
ENDBRANCH  16  20
ENDBRANCH  13  14
ENDBRANCH   1  13
TORSDOF 5
