REMARK  6 active torsions:
REMARK  status: ('A' for Active; 'I' for Inactive)
REMARK    1  A    between atoms: C_10  and  C_1 
REMARK    2  A    between atoms: C_6  and  C_2 
REMARK    3  A    between atoms: C_17  and  N_3 
REMARK    4  A    between atoms: C_19  and  C_9 
REMARK    5  A    between atoms: N_13  and  C_18 
REMARK    6  A    between atoms: C_16  and  C_20 
ROOT
ATOM      1  C   UNL d   1       1.018  -0.941  -0.034  0.00  0.00     0.156 A 
ATOM      2  C   UNL d   1      -0.313  -1.331  -0.060  0.00  0.00     0.068 A 
ATOM      3  N   UNL d   1       1.003   0.448  -0.035  0.00  0.00    -0.251 N 
ATOM      4  N   UNL d   1      -0.267   0.929   0.066  0.00  0.00    -0.303 N 
ATOM      5  HN  UNL d   1      -0.555   1.900   0.186  1.00  0.00     0.186 HD
ATOM      6  C   UNL d   1      -1.050  -0.142  -0.025  0.00  0.00     0.126 A 
ENDROOT
BRANCH   2   7
ATOM      7  C   UNL d   1      -0.887  -2.701  -0.037  0.00  0.00     0.186 A 
ATOM      8  N   UNL d   1      -0.186  -3.803   0.090  0.00  0.00    -0.318 N 
ATOM      9  C   UNL d   1      -1.145  -4.787   0.203  0.00  0.00     0.138 A 
ATOM     10  HN  UNL d   1       0.829  -3.906   0.102  1.00  0.00     0.169 HD
ATOM     11  N   UNL d   1      -2.398  -4.325   0.065  0.00  0.00    -0.242 N 
ATOM     12  O   UNL d   1      -2.233  -2.952  -0.087  0.00  0.00    -0.217 OA
ATOM     13  HN  UNL d   1      -3.268  -4.857   0.070  1.00  0.00     0.196 HD
BRANCH   9  14
ATOM     14  C   UNL d   1      -0.809  -6.172   0.518  0.00  0.00     0.010 A 
ATOM     15  C   UNL d   1       0.522  -6.554   0.744  0.00  0.00     0.016 A 
ATOM     16  C   UNL d   1       0.842  -7.873   1.099  0.00  0.00     0.017 A 
ATOM     17  C   UNL d   1      -0.168  -8.836   1.240  0.00  0.00     0.048 A 
ATOM     18  C   UNL d   1      -1.499  -8.458   1.007  0.00  0.00     0.017 A 
ATOM     19  C   UNL d   1      -1.815  -7.143   0.651  0.00  0.00     0.016 A 
BRANCH  17  20
ATOM     20  C   UNL d   1       0.181 -10.249   1.641  0.00  0.00     0.417 C 
ATOM     21  F   UNL d   1      -0.902 -11.071   1.739  0.00  0.00    -0.166 F 
ATOM     22  F   UNL d   1       1.025 -10.849   0.757  0.00  0.00    -0.166 F 
ATOM     23  F   UNL d   1       0.803 -10.309   2.851  0.00  0.00    -0.166 F 
ENDBRANCH  17  20
ENDBRANCH   9  14
ENDBRANCH   2   7
BRANCH   1  24
ATOM     24  C   UNL d   1       2.264  -1.714   0.083  0.00  0.00     0.435 C 
ATOM     25  F   UNL d   1       2.099  -2.991   0.497  0.00  0.00    -0.165 F 
ATOM     26  F   UNL d   1       2.919  -1.788  -1.103  0.00  0.00    -0.165 F 
ATOM     27  F   UNL d   1       3.119  -1.156   0.978  0.00  0.00    -0.165 F 
ENDBRANCH   1  24
BRANCH   3  28
ATOM     28  C   UNL d   1       2.074   1.393  -0.097  0.00  0.00     0.057 A 
ATOM     29  C   UNL d   1       3.251   1.134  -0.809  0.00  0.00     0.034 A 
ATOM     30  C   UNL d   1       4.304   2.054  -0.801  0.00  0.00     0.038 A 
ATOM     31  C   UNL d   1       4.176   3.252  -0.092  0.00  0.00     0.103 A 
ATOM     32  C   UNL d   1       2.985   3.551   0.578  0.00  0.00     0.038 A 
ATOM     33  C   UNL d   1       1.930   2.629   0.562  0.00  0.00     0.034 A 
BRANCH  31  34
ATOM     34  N   UNL d   1       5.296   4.200  -0.062  0.00  0.00    -0.116 N 
ATOM     35  O   UNL d   1       5.142   5.256   0.568  0.00  0.00    -0.532 OA
ATOM     36  O   UNL d   1       6.333   3.885  -0.666  0.00  0.00    -0.532 OA
ENDBRANCH  31  34
ENDBRANCH   3  28
TORSDOF 6
