REMARK  9 active torsions:
REMARK  status: ('A' for Active; 'I' for Inactive)
REMARK    1  A    between atoms: C_15  and  C_1 
REMARK    2  A    between atoms: O_14  and  C_2 
REMARK       I    between atoms: N_5  and  C_9 
REMARK    3  A    between atoms: C_8  and  N_5 
REMARK    4  A    between atoms: C_16  and  C_6 
REMARK    5  A    between atoms: C_9  and  C_17 
REMARK    6  A    between atoms: O_18  and  C_11 
REMARK    7  A    between atoms: S_13  and  C_16 
REMARK    8  A    between atoms: C_17  and  S_13 
REMARK    9  A    between atoms: O_19  and  C_15 
ROOT
ATOM      1  S   UNL d   1       3.100   3.215  -1.456  0.00  0.00    -0.155 SA
ENDROOT
BRANCH   1   2
ATOM      2  C   UNL d   1       3.957   1.665  -1.058  0.00  0.00     0.115 C 
BRANCH   2   3
ATOM      3  C   UNL d   1       3.444   0.433  -1.763  0.00  0.00    -0.022 A 
ATOM      4  C   UNL d   1       2.474  -0.441  -1.222  0.00  0.00     0.009 A 
ATOM      5  C   UNL d   1       2.264  -1.671  -1.877  0.00  0.00     0.096 A 
ATOM      6  C   UNL d   1       2.944  -1.959  -3.063  0.00  0.00     0.039 A 
ATOM      7  C   UNL d   1       2.735  -3.252  -3.797  0.00  0.00     0.071 C 
ATOM      8  N   UNL d   1       3.802  -1.082  -3.634  0.00  0.00    -0.367 N 
ATOM      9  C   UNL d   1       4.037   0.073  -2.975  0.00  0.00     0.096 A 
ATOM     10  HN  UNL d   1       4.253  -1.284  -4.526  1.00  0.00     0.165 HD
BRANCH   4  11
ATOM     11  C   UNL d   1       1.724  -0.050   0.031  0.00  0.00     0.206 C 
BRANCH  11  12
ATOM     12  O   UNL d   1       0.684  -0.975   0.348  0.00  0.00    -0.396 OA
ATOM     13  H   UNL d   1      -0.103  -0.678  -0.149  0.00  0.00     0.209 HD
ENDBRANCH  11  12
ENDBRANCH   4  11
BRANCH   5  14
ATOM     14  O   UNL d   1       1.431  -2.629  -1.364  0.00  0.00    -0.358 OA
ATOM     15  H   UNL d   1       1.165  -2.342  -0.464  0.00  0.00     0.217 HD
ENDBRANCH   5  14
ENDBRANCH   2   3
ENDBRANCH   1   2
BRANCH   1  16
ATOM     16  C   UNL d   1       4.244   4.328  -0.570  0.00  0.00     0.177 C 
BRANCH  16  17
ATOM     17  C   UNL d   1       3.751   5.759  -0.448  0.00  0.00     0.231 C 
ATOM     18  N   UNL d   1       3.444   6.368  -1.650  0.00  0.00    -0.324 N 
ATOM     19  H   UNL d   1       3.208   5.758  -2.424  0.00  0.00     0.169 HD
ATOM     20  O   UNL d   1       3.701   6.304   0.653  0.00  0.00    -0.272 OA
BRANCH  18  21
ATOM     21  C   UNL d   1       3.093   7.730  -1.786  0.00  0.00     0.068 A 
ATOM     22  C   UNL d   1       2.151   8.126  -2.753  0.00  0.00     0.095 A 
ATOM     23  C   UNL d   1       1.883   9.484  -2.955  0.00  0.00     0.039 A 
ATOM     24  C   UNL d   1       2.538  10.458  -2.195  0.00  0.00     0.003 A 
ATOM     25  C   UNL d   1       3.463  10.070  -1.228  0.00  0.00     0.002 A 
ATOM     26  C   UNL d   1       3.730   8.714  -1.020  0.00  0.00     0.032 A 
BRANCH  22  27
ATOM     27  O   UNL d   1       1.464   7.262  -3.568  0.00  0.00    -0.354 OA
ATOM     28  C   UNL d   1       0.767   6.220  -2.885  0.00  0.00     0.210 C 
ENDBRANCH  22  27
ENDBRANCH  18  21
ENDBRANCH  16  17
ENDBRANCH   1  16
TORSDOF 9
