REMARK  2 active torsions:
REMARK  status: ('A' for Active; 'I' for Inactive)
REMARK    1  A    between atoms: N_4  and  C_1 
REMARK       I    between atoms: C_6  and  N_4 
REMARK    2  A    between atoms: C_10  and  C_6 
ROOT
ATOM      1  C   UNL d   1      -4.660   1.223  -0.725  0.00  0.00     0.152 A 
ATOM      2  N   UNL d   1      -3.815   2.226  -0.703  0.00  0.00    -0.335 N 
ATOM      3  HN  UNL d   1      -2.977   2.276  -0.123  1.00  0.00     0.168 HD
ATOM      4  S   UNL d   1      -5.971   1.373  -1.799  0.00  0.00    -0.052 SA
ATOM      5  C   UNL d   1      -5.385   2.904  -2.316  0.00  0.00     0.036 A 
ATOM      6  C   UNL d   1      -4.232   3.209  -1.588  0.00  0.00     0.051 A 
ATOM      7  C   UNL d   1      -5.906   3.770  -3.291  0.00  0.00     0.045 A 
ATOM      8  C   UNL d   1      -3.599   4.448  -1.815  0.00  0.00     0.032 A 
ATOM      9  C   UNL d   1      -5.241   4.978  -3.512  0.00  0.00     0.035 A 
ATOM     10  C   UNL d   1      -4.111   5.325  -2.780  0.00  0.00     0.026 A 
ATOM     11 CL   UNL d   1      -5.831   6.053  -4.721  0.00  0.00    -0.084 Cl
ENDROOT
BRANCH   1  12
ATOM     12  N   UNL d   1      -4.454   0.109   0.055  0.00  0.00    -0.303 N 
ATOM     13  C   UNL d   1      -5.332  -0.936   0.240  0.00  0.00     0.257 C 
ATOM     14  O   UNL d   1      -6.449  -1.046  -0.257  0.00  0.00    -0.267 OA
ATOM     15  H   UNL d   1      -3.559   0.122   0.518  0.00  0.00     0.171 HD
BRANCH  13  16
ATOM     16  C   UNL d   1      -4.867  -2.039   1.137  0.00  0.00     0.032 A 
ATOM     17  C   UNL d   1      -3.914  -1.859   2.147  0.00  0.00     0.017 A 
ATOM     18  C   UNL d   1      -3.543  -2.934   2.964  0.00  0.00     0.007 A 
ATOM     19  C   UNL d   1      -4.125  -4.197   2.795  0.00  0.00    -0.062 A 
ATOM     20  C   UNL d   1      -5.082  -4.373   1.792  0.00  0.00     0.007 A 
ATOM     21  C   UNL d   1      -3.718  -5.340   3.678  0.00  0.00     0.048 C 
ATOM     22  C   UNL d   1      -5.452  -3.304   0.974  0.00  0.00     0.017 A 
ENDBRANCH  13  16
ENDBRANCH   1  12
TORSDOF 2
