REMARK  5 active torsions:
REMARK  status: ('A' for Active; 'I' for Inactive)
REMARK    1  A    between atoms: C_2  and  C_1 
REMARK       I    between atoms: N_8  and  C_1 
REMARK    2  A    between atoms: O_10  and  C_3 
REMARK    3  A    between atoms: C_13  and  C_4 
REMARK    4  A    between atoms: C_7  and  N_8 
REMARK    5  A    between atoms: C_17  and  O_10 
ROOT
ATOM      1  C   UNL d   1       1.050  -0.454  -0.012  0.00  0.00     0.260 C 
ATOM      2  N   UNL d   1       0.231  -0.899   1.014  0.00  0.00    -0.322 N 
ATOM      3  O   UNL d   1       2.274  -0.469  -0.023  0.00  0.00    -0.267 OA
ATOM      4  H   UNL d   1      -0.760  -0.999   0.841  0.00  0.00     0.169 HD
ENDROOT
BRANCH   1   5
ATOM      5  C   UNL d   1       0.332   0.132  -1.167  0.00  0.00     0.083 A 
ATOM      6  C   UNL d   1       0.717  -0.121  -2.480  0.00  0.00     0.163 A 
ATOM      7  N   UNL d   1       0.154   0.510  -3.547  0.00  0.00    -0.346 N 
ATOM      8  C   UNL d   1      -0.834   1.395  -3.300  0.00  0.00     0.090 A 
ATOM      9  HN  UNL d   1       0.469   0.322  -4.499  1.00  0.00     0.167 HD
ATOM     10  C   UNL d   1      -1.305   1.682  -2.031  0.00  0.00     0.018 A 
ATOM     11  C   UNL d   1      -0.708   1.046  -0.946  0.00  0.00     0.023 A 
BRANCH   6  12
ATOM     12  O   UNL d   1       1.720  -1.050  -2.716  0.00  0.00    -0.293 OA
BRANCH  12  13
ATOM     13  C   UNL d   1       1.700  -1.771  -3.889  0.00  0.00     0.077 A 
ATOM     14  C   UNL d   1       2.945  -2.123  -4.418  0.00  0.00     0.039 A 
ATOM     15  C   UNL d   1       3.025  -2.901  -5.576  0.00  0.00     0.026 A 
ATOM     16  C   UNL d   1       1.856  -3.335  -6.199  0.00  0.00     0.034 A 
ATOM     17  C   UNL d   1       0.610  -3.006  -5.668  0.00  0.00     0.026 A 
ATOM     18 CL   UNL d   1       1.948  -4.293  -7.625  0.00  0.00    -0.084 Cl
ATOM     19  C   UNL d   1       0.533  -2.236  -4.504  0.00  0.00     0.039 A 
ENDBRANCH  12  13
ENDBRANCH   6  12
ENDBRANCH   1   5
BRANCH   2  20
ATOM     20  C   UNL d   1       0.675  -1.240   2.289  0.00  0.00     0.042 A 
ATOM     21  C   UNL d   1       1.988  -1.081   2.828  0.00  0.00     0.049 A 
ATOM     22  C   UNL d   1       2.113  -1.479   4.152  0.00  0.00     0.017 A 
ATOM     23  S   UNL d   1       0.604  -2.076   4.721  0.00  0.00    -0.099 SA
ATOM     24  C   UNL d   1      -0.178  -1.763   3.235  0.00  0.00     0.080 A 
BRANCH  22  25
ATOM     25  C   UNL d   1       3.315  -1.442   5.017  0.00  0.00    -0.019 A 
ATOM     26  C   UNL d   1       3.244  -1.518   6.420  0.00  0.00     0.014 A 
ATOM     27  C   UNL d   1       4.399  -1.464   7.210  0.00  0.00     0.024 A 
ATOM     28  C   UNL d   1       5.645  -1.323   6.610  0.00  0.00     0.034 A 
ATOM     29  C   UNL d   1       5.747  -1.242   5.227  0.00  0.00     0.024 A 
ATOM     30 CL   UNL d   1       7.063  -1.248   7.581  0.00  0.00    -0.084 Cl
ATOM     31  C   UNL d   1       4.591  -1.304   4.440  0.00  0.00     0.014 A 
ENDBRANCH  22  25
ENDBRANCH   2  20
TORSDOF 5
