REMARK  4 active torsions:
REMARK  status: ('A' for Active; 'I' for Inactive)
REMARK    1  A    between atoms: C_8  and  C_3 
REMARK    2  A    between atoms: C_11  and  N_4 
REMARK    3  A    between atoms: S_5  and  N_9 
REMARK       I    between atoms: N_10  and  C_8 
REMARK    4  A    between atoms: N_9  and  N_10 
ROOT
ATOM      1  N   UNL d   1       0.922  -0.708  -0.030  0.00  0.00    -0.292 N 
ATOM      2  HN  UNL d   1       1.768  -1.278  -0.069  1.00  0.00     0.187 HD
ATOM      3  C   UNL d   1      -0.349  -1.141   0.025  0.00  0.00     0.119 A 
ATOM      4  N   UNL d   1       0.842   0.654  -0.021  0.00  0.00    -0.287 N 
ATOM      5  C   UNL d   1      -1.244  -0.052   0.034  0.00  0.00     0.063 A 
ATOM      6  C   UNL d   1      -0.472   1.090   0.008  0.00  0.00     0.028 A 
ATOM      7  C   UNL d   1      -0.969   2.489   0.025  0.00  0.00     0.070 C 
ENDROOT
BRANCH   3   8
ATOM      8  C   UNL d   1      -0.724  -2.559   0.082  0.00  0.00     0.288 C 
ATOM      9  N   UNL d   1       0.329  -3.444  -0.036  0.00  0.00    -0.255 N 
ATOM     10  H   UNL d   1       1.282  -3.105  -0.161  0.00  0.00     0.191 HD
ATOM     11  O   UNL d   1      -1.889  -2.942   0.226  0.00  0.00    -0.264 OA
BRANCH   9  12
ATOM     12  N   UNL d   1       0.057  -4.874   0.027  0.00  0.00    -0.224 N 
ATOM     13  H   UNL d   1      -0.871  -5.143   0.372  0.00  0.00     0.200 HD
BRANCH  12  14
ATOM     14  S   UNL d   1       1.343  -5.950   0.122  0.00  0.00     0.240 S 
ATOM     15  O   UNL d   1       2.139  -5.782  -1.075  0.00  0.00    -0.205 OA
ATOM     16  O   UNL d   1       1.931  -5.813   1.438  0.00  0.00    -0.205 OA
ATOM     17  C   UNL d   1       0.510  -7.521   0.037  0.00  0.00     0.187 C 
ENDBRANCH  12  14
ENDBRANCH   9  12
ENDBRANCH   3   8
BRANCH   4  18
ATOM     18  C   UNL d   1       2.093   1.447  -0.003  0.00  0.00     0.043 C 
ATOM     19  C   UNL d   1       3.351   0.539  -0.075  0.00  0.00     0.039 C 
ATOM     20  C   UNL d   1       2.174   2.391  -1.220  0.00  0.00     0.039 C 
ATOM     21  C   UNL d   1       2.204   2.243   1.314  0.00  0.00     0.039 C 
ENDBRANCH   4  18
TORSDOF 4
