REMARK  3 active torsions:
REMARK  status: ('A' for Active; 'I' for Inactive)
REMARK       I    between atoms: N_4  and  C_1 
REMARK    1  A    between atoms: O_12  and  C_1 
REMARK    2  A    between atoms: C_2  and  N_4 
REMARK    3  A    between atoms: C_15  and  O_12 
ROOT
ATOM      1  C   UNL d   1       3.598   0.577   2.037  0.00  0.00    -0.091 C 
ATOM      2  C   UNL d   1       4.128   0.396   3.098  0.00  0.00     0.014 C 
ATOM      3  C   UNL d   1       2.981   0.876   0.737  0.00  0.00     0.273 C 
ENDROOT
BRANCH   3   4
ATOM      4  O   UNL d   1       2.319  -0.277   0.200  0.00  0.00    -0.292 OA
BRANCH   4   5
ATOM      5  C   UNL d   1       0.977  -0.189   0.063  0.00  0.00     0.366 C 
ATOM      6  N   UNL d   1       0.389  -1.171  -0.697  0.00  0.00    -0.303 N 
ATOM      7  H   UNL d   1      -0.602  -0.990  -0.804  0.00  0.00     0.171 HD
ATOM      8  O   UNL d   1       0.287   0.722   0.510  0.00  0.00    -0.238 OA
BRANCH   6   9
ATOM      9  C   UNL d   1       0.947  -2.185  -1.501  0.00  0.00     0.040 A 
ATOM     10  C   UNL d   1       2.283  -2.587  -1.461  0.00  0.00     0.053 A 
ATOM     11  C   UNL d   1       2.770  -3.500  -2.400  0.00  0.00     0.037 A 
ATOM     12 CL   UNL d   1       4.435  -3.940  -2.372  0.00  0.00    -0.084 Cl
ATOM     13  C   UNL d   1       1.936  -4.043  -3.372  0.00  0.00     0.048 A 
ATOM     14  C   UNL d   1       0.592  -3.691  -3.374  0.00  0.00     0.037 A 
ATOM     15  C   UNL d   1       0.093  -2.780  -2.441  0.00  0.00     0.053 A 
ATOM     16 CL   UNL d   1      -0.460  -4.354  -4.564  0.00  0.00    -0.084 Cl
ENDBRANCH   6   9
ENDBRANCH   4   5
ENDBRANCH   3   4
TORSDOF 3
