REMARK  10 active torsions:
REMARK  status: ('A' for Active; 'I' for Inactive)
REMARK    1  A    between atoms: C_6  and  C_1 
REMARK    2  A    between atoms: S_2  and  C_11 
REMARK    3  A    between atoms: N_12  and  S_2 
REMARK    4  A    between atoms: C_8  and  C_3 
REMARK       I    between atoms: N_13  and  C_8 
REMARK       I    between atoms: C_10  and  N_14 
REMARK    5  A    between atoms: C_17  and  C_10 
REMARK    6  A    between atoms: C_28  and  N_12 
REMARK    7  A    between atoms: C_29  and  N_12 
REMARK    8  A    between atoms: N_14  and  N_13 
REMARK    9  A    between atoms: C_31  and  C_28 
REMARK   10  A    between atoms: C_32  and  C_29 
ROOT
ATOM      1  C   UNL d   1      -2.787  -4.489  -0.648  0.00  0.00     0.270 C 
ATOM      2  N   UNL d   1      -2.536  -3.519   0.305  0.00  0.00    -0.263 N 
ATOM      3  O   UNL d   1      -3.195  -4.191  -1.771  0.00  0.00    -0.266 OA
ATOM      4  H   UNL d   1      -2.286  -3.689   1.276  0.00  0.00     0.190 HD
ENDROOT
BRANCH   2   5
ATOM      5  N   UNL d   1      -2.753  -2.181  -0.083  0.00  0.00    -0.263 N 
ATOM      6  C   UNL d   1      -2.081  -1.159   0.567  0.00  0.00     0.275 C 
ATOM      7  O   UNL d   1      -1.406  -1.374   1.573  0.00  0.00    -0.266 OA
ATOM      8  H   UNL d   1      -3.078  -2.075  -1.043  0.00  0.00     0.190 HD
BRANCH   6   9
ATOM      9  C   UNL d   1      -2.200   0.159  -0.039  0.00  0.00     0.094 A 
ATOM     10  C   UNL d   1      -1.285   1.275   0.037  0.00  0.00     0.085 A 
ATOM     11  N   UNL d   1      -1.762   2.303  -0.684  0.00  0.00    -0.259 N 
ATOM     12  O   UNL d   1      -2.975   1.923  -1.175  0.00  0.00    -0.241 OA
ATOM     13  HN  UNL d   1      -1.302   3.200  -0.836  1.00  0.00     0.195 HD
ATOM     14  C   UNL d   1      -3.246   0.648  -0.808  0.00  0.00     0.090 A 
ATOM     15  C   UNL d   1      -4.549   0.164  -1.308  0.00  0.00     0.080 C 
BRANCH  10  16
ATOM     16  C   UNL d   1       0.052   1.398   0.640  0.00  0.00     0.015 A 
ATOM     17  C   UNL d   1       0.501   2.578   1.271  0.00  0.00     0.046 A 
ATOM     18 CL   UNL d   1      -0.528   3.931   1.616  0.00  0.00    -0.083 Cl
ATOM     19  C   UNL d   1       1.835   2.704   1.684  0.00  0.00     0.025 A 
ATOM     20  C   UNL d   1       2.733   1.656   1.503  0.00  0.00     0.002 A 
ATOM     21  C   UNL d   1       2.298   0.471   0.918  0.00  0.00     0.001 A 
ATOM     22  C   UNL d   1       0.973   0.348   0.483  0.00  0.00     0.015 A 
ENDBRANCH  10  16
ENDBRANCH   6   9
ENDBRANCH   2   5
BRANCH   1  23
ATOM     23  C   UNL d   1      -2.546  -5.917  -0.292  0.00  0.00     0.033 A 
ATOM     24  C   UNL d   1      -3.173  -6.900  -1.076  0.00  0.00     0.018 A 
ATOM     25  C   UNL d   1      -2.890  -8.256  -0.884  0.00  0.00     0.026 A 
ATOM     26  C   UNL d   1      -1.972  -8.638   0.096  0.00  0.00     0.074 A 
ATOM     27  C   UNL d   1      -1.399  -7.673   0.931  0.00  0.00     0.026 A 
ATOM     28  C   UNL d   1      -1.671  -6.311   0.728  0.00  0.00     0.018 A 
BRANCH  26  29
ATOM     29  S   UNL d   1      -1.558 -10.368   0.292  0.00  0.00     0.243 S 
ATOM     30  O   UNL d   1      -1.672 -10.669   1.701  0.00  0.00    -0.206 OA
ATOM     31  O   UNL d   1      -2.338 -11.101  -0.688  0.00  0.00    -0.206 OA
BRANCH  29  32
ATOM     32  N   UNL d   1       0.128 -10.406  -0.161  0.00  0.00    -0.206 NA
BRANCH  32  33
ATOM     33  C   UNL d   1       1.014 -10.355   1.062  0.00  0.00     0.107 C 
BRANCH  33  34
ATOM     34  C   UNL d   1       2.496 -10.100   0.794  0.00  0.00     0.011 C 
ATOM     35  C   UNL d   1       2.776  -8.799   0.063  0.00  0.00     0.006 C 
ENDBRANCH  33  34
ENDBRANCH  32  33
BRANCH  32  36
ATOM     36  C   UNL d   1       0.526 -11.498  -1.110  0.00  0.00     0.107 C 
BRANCH  36  37
ATOM     37  C   UNL d   1      -0.020 -11.370  -2.534  0.00  0.00     0.011 C 
ATOM     38  C   UNL d   1       0.267 -10.037  -3.206  0.00  0.00     0.006 C 
ENDBRANCH  36  37
ENDBRANCH  32  36
ENDBRANCH  29  32
ENDBRANCH  26  29
ENDBRANCH   1  23
TORSDOF 10
