REMARK  19 active torsions:
REMARK  status: ('A' for Active; 'I' for Inactive)
REMARK    1  A    between atoms: S_8  and  C_2 
REMARK    2  A    between atoms: N_9  and  C_3 
REMARK    3  A    between atoms: C_10  and  S_8 
REMARK    4  A    between atoms: C_11  and  C_10 
REMARK    5  A    between atoms: C_25  and  C_11 
REMARK    6  A    between atoms: C_12  and  C_13 
REMARK    7  A    between atoms: C_13  and  C_24 
REMARK    8  A    between atoms: C_14  and  C_26 
REMARK    9  A    between atoms: C_15  and  C_14 
REMARK   10  A    between atoms: C_16  and  C_15 
REMARK   11  A    between atoms: C_17  and  C_16 
REMARK   12  A    between atoms: C_18  and  C_17 
REMARK   13  A    between atoms: C_19  and  C_18 
REMARK   14  A    between atoms: C_20  and  C_19 
REMARK   15  A    between atoms: C_21  and  C_20 
REMARK   16  A    between atoms: C_22  and  C_21 
REMARK   17  A    between atoms: C_23  and  C_22 
REMARK   18  A    between atoms: C_24  and  C_23 
REMARK   19  A    between atoms: C_26  and  C_25 
ROOT
ATOM      1  C   UNL d   1       8.179   0.894  -0.153  0.00  0.00     0.000 C 
ENDROOT
BRANCH   1   2
ATOM      2  C   UNL d   1       9.139   2.075  -0.169  0.00  0.00     0.000 C 
BRANCH   2   3
ATOM      3  C   UNL d   1      10.578   1.587  -0.200  0.00  0.00     0.000 C 
BRANCH   3   4
ATOM      4  C   UNL d   1      11.530   2.771  -0.216  0.00  0.00     0.000 C 
BRANCH   4   5
ATOM      5  C   UNL d   1      12.966   2.281  -0.248  0.00  0.00     0.000 C 
BRANCH   5   6
ATOM      6  C   UNL d   1      13.916   3.464  -0.264  0.00  0.00     0.000 C 
BRANCH   6   7
ATOM      7  C   UNL d   1      15.352   2.973  -0.297  0.00  0.00     0.000 C 
BRANCH   7   8
ATOM      8  C   UNL d   1      16.301   4.156  -0.311  0.00  0.00     0.000 C 
BRANCH   8   9
ATOM      9  C   UNL d   1      17.736   3.666  -0.344  0.00  0.00     0.000 C 
BRANCH   9  10
ATOM     10  C   UNL d   1      18.686   4.849  -0.356  0.00  0.00     0.000 C 
BRANCH  10  11
ATOM     11  C   UNL d   1      20.123   4.361  -0.389  0.00  0.00     0.000 C 
BRANCH  11  12
ATOM     12  C   UNL d   1      21.075   5.545  -0.401  0.00  0.00     0.000 C 
BRANCH  12  13
ATOM     13  C   UNL d   1      22.514   5.057  -0.436  0.00  0.00    -0.000 C 
BRANCH  13  14
ATOM     14  C   UNL d   1      23.475   6.237  -0.451  0.00  0.00    -0.005 C 
ATOM     15  C   UNL d   1      24.910   5.748  -0.486  0.00  0.00     0.005 C 
ENDBRANCH  13  14
ENDBRANCH  12  13
ENDBRANCH  11  12
ENDBRANCH  10  11
ENDBRANCH   9  10
ENDBRANCH   8   9
ENDBRANCH   7   8
ENDBRANCH   6   7
ENDBRANCH   5   6
ENDBRANCH   4   5
ENDBRANCH   3   4
ENDBRANCH   2   3
ENDBRANCH   1   2
BRANCH   1  16
ATOM     16  C   UNL d   1       6.734   1.382  -0.122  0.00  0.00     0.001 C 
BRANCH  16  17
ATOM     17  C   UNL d   1       5.761   0.203  -0.103  0.00  0.00     0.010 C 
BRANCH  17  18
ATOM     18  C   UNL d   1       4.302   0.677  -0.071  0.00  0.00     0.081 C 
BRANCH  18  19
ATOM     19  S   UNL d   1       3.218  -0.782  -0.049  0.00  0.00    -0.103 SA
BRANCH  19  20
ATOM     20  C   UNL d   1       1.591  -0.130  -0.016  0.00  0.00     0.130 A 
ATOM     21  S   UNL d   1       0.212  -1.163   0.011  0.00  0.00    -0.027 SA
ATOM     22  C   UNL d   1      -0.783   0.240   0.029  0.00  0.00     0.159 A 
ATOM     23  N   UNL d   1      -0.083   1.362   0.013  0.00  0.00    -0.279 N 
ATOM     24  N   UNL d   1       1.294   1.151  -0.013  0.00  0.00    -0.286 N 
ATOM     25  HN  UNL d   1      -0.509   2.289   0.018  1.00  0.00     0.189 HD
ATOM     26  HN  UNL d   1       1.987   1.899  -0.028  1.00  0.00     0.188 HD
BRANCH  22  27
ATOM     27  N   UNL d   1      -2.132   0.170   0.061  0.00  0.00    -0.379 N 
ATOM     28  H   UNL d   1      -2.634  -0.703  -0.002  0.00  0.00     0.158 HD
ATOM     29  H   UNL d   1      -2.674   1.019  -0.002  0.00  0.00     0.158 HD
ENDBRANCH  22  27
ENDBRANCH  19  20
ENDBRANCH  18  19
ENDBRANCH  17  18
ENDBRANCH  16  17
ENDBRANCH   1  16
TORSDOF 19
