REMARK  0 active torsions:
REMARK  status: ('A' for Active; 'I' for Inactive)
ROOT
ATOM      1  N   UNL d   1      -1.164  -0.655   0.049  0.00  0.00    -0.294 N 
ATOM      2  C   UNL d   1      -1.073   0.724   0.042  0.00  0.00     0.149 A 
ATOM      3  C   UNL d   1      -0.005  -1.429  -0.045  0.00  0.00     0.262 A 
ATOM      4  N   UNL d   1       0.040   1.381   0.033  0.00  0.00    -0.336 N 
ATOM      5  HN  UNL d   1       0.040   2.401   0.037  1.00  0.00     0.168 HD
ATOM      6  C   UNL d   1       1.280  -0.716  -0.021  0.00  0.00     0.059 A 
ATOM      7  C   UNL d   1       1.242   0.672   0.018  0.00  0.00     0.049 A 
ATOM      8  S   UNL d   1      -2.510   1.719   0.090  0.00  0.00    -0.093 SA
ATOM      9  O   UNL d   1      -0.007  -2.653  -0.166  0.00  0.00    -0.267 OA
ATOM     10  C   UNL d   1      -2.405  -1.416  -0.029  0.00  0.00     0.135 C 
ATOM     11  C   UNL d   1       2.496  -1.410  -0.047  0.00  0.00     0.019 A 
ATOM     12  C   UNL d   1      -3.663  -0.688   0.388  0.00  0.00     0.031 C 
ATOM     13  C   UNL d   1      -3.798   0.581  -0.416  0.00  0.00     0.084 C 
ATOM     14  C   UNL d   1       2.448   1.376   0.037  0.00  0.00     0.030 A 
ATOM     15  C   UNL d   1       3.694  -0.697  -0.028  0.00  0.00     0.001 A 
ATOM     16  C   UNL d   1       3.670   0.696   0.015  0.00  0.00     0.002 A 
ENDROOT
TORSDOF 0
