REMARK  2 active torsions:
REMARK  status: ('A' for Active; 'I' for Inactive)
REMARK    1  A    between atoms: O_12  and  C_8 
REMARK    2  A    between atoms: C_15  and  O_12 
ROOT
ATOM      1  C   UNL d   1       1.145   0.697  -0.048  0.00  0.00     0.090 A 
ATOM      2  C   UNL d   1       0.645  -0.596   0.031  0.00  0.00     0.056 A 
ATOM      3  S   UNL d   1      -0.070   1.887  -0.097  0.00  0.00    -0.075 SA
ATOM      4  C   UNL d   1      -0.801  -0.579   0.023  0.00  0.00    -0.028 A 
ATOM      5  C   UNL d   1      -1.295   0.715  -0.008  0.00  0.00    -0.008 A 
ATOM      6  N   UNL d   1       2.438   1.064  -0.080  0.00  0.00    -0.346 N 
ATOM      7  HN  UNL d   1       2.750   2.033  -0.145  1.00  0.00     0.167 HD
ATOM      8  C   UNL d   1       1.626  -1.600   0.109  0.00  0.00     0.157 A 
ATOM      9  N   UNL d   1       2.937  -1.272   0.080  0.00  0.00    -0.332 N 
ATOM     10  HN  UNL d   1       3.657  -1.992   0.132  1.00  0.00     0.168 HD
ATOM     11  C   UNL d   1       3.265   0.022  -0.017  0.00  0.00     0.183 A 
ATOM     12  C   UNL d   1      -1.723  -1.764   0.088  0.00  0.00     0.041 C 
ATOM     13  C   UNL d   1      -2.742   1.101  -0.001  0.00  0.00     0.047 C 
ATOM     14  C   UNL d   1      -3.177  -1.384  -0.253  0.00  0.00     0.005 C 
ATOM     15  C   UNL d   1      -3.609  -0.085   0.442  0.00  0.00     0.005 C 
ENDROOT
BRANCH   8  16
ATOM     16  O   UNL d   1       1.276  -2.939   0.203  0.00  0.00    -0.335 OA
BRANCH  16  17
ATOM     17  C   UNL d   1       2.380  -3.753   0.620  0.00  0.00     0.173 C 
ATOM     18  C   UNL d   1       1.961  -5.212   0.619  0.00  0.00     0.034 C 
ENDBRANCH  16  17
ENDBRANCH   8  16
TORSDOF 2
