REMARK  3 active torsions:
REMARK  status: ('A' for Active; 'I' for Inactive)
REMARK    1  A    between atoms: C_4  and  C_1 
REMARK    2  A    between atoms: C_3  and  C_2 
REMARK       I    between atoms: N_13  and  C_4 
REMARK    3  A    between atoms: N_17  and  N_13 
ROOT
ATOM      1  C   UNL d   1      -0.351   1.175   0.103  0.00  0.00     0.129 A 
ATOM      2  C   UNL d   1       1.022   0.778   0.012  0.00  0.00     0.026 A 
ATOM      3  N   UNL d   1      -1.170   0.100   0.022  0.00  0.00    -0.295 N 
ATOM      4  HN  UNL d   1      -2.189   0.087   0.053  1.00  0.00     0.187 HD
ATOM      5  N   UNL d   1      -0.338  -0.943  -0.109  0.00  0.00    -0.310 N 
ATOM      6  C   UNL d   1       0.973  -0.589  -0.167  0.00  0.00     0.122 A 
ATOM      7  H   UNL d   1      -0.737  -1.874  -0.173  0.00  0.00     0.186 HD
ENDROOT
BRANCH   2   8
ATOM      8  C   UNL d   1       2.266   1.541  -0.026  0.00  0.00    -0.000 A 
ATOM      9  C   UNL d   1       3.398   1.218   0.751  0.00  0.00     0.046 A 
ATOM     10  C   UNL d   1       4.584   1.952   0.623  0.00  0.00     0.048 A 
ATOM     11 CL   UNL d   1       3.405  -0.060   1.921  0.00  0.00    -0.083 Cl
ATOM     12  C   UNL d   1       4.646   3.023  -0.262  0.00  0.00     0.035 A 
ATOM     13  C   UNL d   1       3.536   3.372  -1.022  0.00  0.00     0.025 A 
ATOM     14 CL   UNL d   1       6.105   3.922  -0.416  0.00  0.00    -0.084 Cl
ATOM     15  C   UNL d   1       2.357   2.629  -0.911  0.00  0.00     0.016 A 
ENDBRANCH   2   8
BRANCH   1  16
ATOM     16  C   UNL d   1      -0.923   2.527   0.242  0.00  0.00     0.284 C 
ATOM     17  O   UNL d   1      -0.260   3.550   0.398  0.00  0.00    -0.265 OA
ATOM     18  N   UNL d   1      -2.313   2.536   0.140  0.00  0.00    -0.288 N 
ATOM     19  H   UNL d   1      -2.757   1.643  -0.086  0.00  0.00     0.183 HD
BRANCH  18  20
ATOM     20  N   UNL d   1      -3.034   3.749   0.059  0.00  0.00    -0.247 NA
ATOM     21  H   UNL d   1      -2.346   4.503  -0.067  0.00  0.00     0.143 HD
ATOM     22  H   UNL d   1      -3.439   3.931   0.982  0.00  0.00     0.143 HD
ENDBRANCH  18  20
ENDBRANCH   1  16
TORSDOF 3
