REMARK  2 active torsions:
REMARK  status: ('A' for Active; 'I' for Inactive)
REMARK    1  A    between atoms: N_14  and  N_9 
REMARK    2  A    between atoms: C_20  and  C_19 
ROOT
ATOM      1  C   UNL d   1       1.235   0.896   0.036  0.00  0.00     0.104 A 
ATOM      2  C   UNL d   1       0.752  -0.383   0.016  0.00  0.00     0.069 A 
ATOM      3  C   UNL d   1       2.640   1.216   0.069  0.00  0.00     0.286 A 
ATOM      4  S   UNL d   1      -0.009   2.045   0.019  0.00  0.00    -0.064 SA
ATOM      5  C   UNL d   1      -0.675  -0.471   0.001  0.00  0.00     0.032 A 
ATOM      6  C   UNL d   1      -1.206   0.820   0.003  0.00  0.00     0.088 A 
ATOM      7  N   UNL d   1       1.603  -1.496   0.016  0.00  0.00    -0.349 N 
ATOM      8  HN  UNL d   1       1.257  -2.456  -0.008  1.00  0.00     0.167 HD
ATOM      9  N   UNL d   1       3.447   0.056   0.087  0.00  0.00    -0.215 N 
ATOM     10  C   UNL d   1       2.868  -1.203   0.049  0.00  0.00     0.211 A 
ATOM     11  N   UNL d   1      -2.511   1.161  -0.005  0.00  0.00    -0.354 N 
ATOM     12  HN  UNL d   1      -2.827   2.131  -0.007  1.00  0.00     0.166 HD
ATOM     13  C   UNL d   1      -1.600  -1.548  -0.009  0.00  0.00    -0.045 A 
ATOM     14  O   UNL d   1       3.080   2.364   0.081  0.00  0.00    -0.265 OA
ATOM     15  C   UNL d   1      -2.964  -1.212  -0.013  0.00  0.00     0.032 A 
ATOM     16  C   UNL d   1      -3.364   0.119  -0.011  0.00  0.00     0.006 A 
ATOM     17  C   UNL d   1      -1.237  -3.008  -0.010  0.00  0.00     0.049 C 
ATOM     18  C   UNL d   1      -4.832   0.438  -0.010  0.00  0.00     0.068 C 
ENDROOT
BRANCH   9  19
ATOM     19  N   UNL d   1       4.817   0.285   0.105  0.00  0.00    -0.301 N 
ATOM     20  C   UNL d   1       5.688  -0.668   0.145  0.00  0.00     0.119 C 
ATOM     21  HN  UNL d   1       5.151   1.248   0.085  1.00  0.00     0.186 HD
BRANCH  20  22
ATOM     22  C   UNL d   1       7.139  -0.379   0.121  0.00  0.00    -0.019 A 
ATOM     23  C   UNL d   1       7.608   0.938   0.113  0.00  0.00     0.013 A 
ATOM     24  C   UNL d   1       8.980   1.182   0.042  0.00  0.00     0.001 A 
ATOM     25  C   UNL d   1       9.877   0.116  -0.023  0.00  0.00     0.000 A 
ATOM     26  C   UNL d   1       9.409  -1.198  -0.002  0.00  0.00     0.001 A 
ATOM     27  C   UNL d   1       8.038  -1.450   0.075  0.00  0.00     0.013 A 
ENDBRANCH  20  22
ENDBRANCH   9  19
TORSDOF 2
