REMARK  4 active torsions:
REMARK  status: ('A' for Active; 'I' for Inactive)
REMARK    1  A    between atoms: S_8  and  C_2 
REMARK    2  A    between atoms: N_9  and  C_3 
REMARK    3  A    between atoms: C_10  and  S_8 
REMARK    4  A    between atoms: C_11  and  C_10 
ROOT
ATOM      1  S   UNL d   1       0.312  -0.998   0.721  0.00  0.00    -0.027 SA
ATOM      2  C   UNL d   1       1.629  -0.172   0.001  0.00  0.00     0.130 A 
ATOM      3  C   UNL d   1      -0.666   0.351   0.307  0.00  0.00     0.159 A 
ATOM      4  N   UNL d   1       1.322   1.001  -0.506  0.00  0.00    -0.286 N 
ATOM      5  HN  UNL d   1       1.989   1.615  -0.972  1.00  0.00     0.188 HD
ATOM      6  N   UNL d   1      -0.019   1.300  -0.331  0.00  0.00    -0.279 N 
ATOM      7  HN  UNL d   1      -0.456   2.161  -0.660  1.00  0.00     0.189 HD
ENDROOT
BRANCH   2   8
ATOM      8  S   UNL d   1       3.231  -0.864  -0.073  0.00  0.00    -0.103 SA
BRANCH   8   9
ATOM      9  C   UNL d   1       4.266   0.631  -0.092  0.00  0.00     0.081 C 
BRANCH   9  10
ATOM     10  C   UNL d   1       5.736   0.209  -0.109  0.00  0.00     0.006 C 
ATOM     11  C   UNL d   1       6.671   1.409  -0.113  0.00  0.00     0.006 C 
ENDBRANCH   9  10
ENDBRANCH   8   9
ENDBRANCH   2   8
BRANCH   3  12
ATOM     12  N   UNL d   1      -1.977   0.384   0.617  0.00  0.00    -0.379 N 
ATOM     13  H   UNL d   1      -2.448  -0.487   0.826  0.00  0.00     0.158 HD
ATOM     14  H   UNL d   1      -2.543   1.063   0.119  0.00  0.00     0.158 HD
ENDBRANCH   3  12
TORSDOF 4
