REMARK  3 active torsions:
REMARK  status: ('A' for Active; 'I' for Inactive)
REMARK    1  A    between atoms: N_2  and  S_1 
REMARK    2  A    between atoms: C_10  and  N_2 
REMARK    3  A    between atoms: C_5  and  C_6 
ROOT
ATOM      1  C   UNL d   1       1.358   5.185   1.303  0.00  0.00     0.009 A 
ATOM      2  C   UNL d   1       0.073   4.819   0.876  0.00  0.00     0.017 A 
ATOM      3  C   UNL d   1       2.436   4.330   1.048  0.00  0.00     0.017 A 
ATOM      4  C   UNL d   1       0.935   2.746  -0.005  0.00  0.00     0.022 A 
ATOM      5  C   UNL d   1      -0.138   3.603   0.221  0.00  0.00     0.025 A 
ATOM      6  C   UNL d   1       2.223   3.111   0.393  0.00  0.00     0.025 A 
ENDROOT
BRANCH   4   7
ATOM      7  N   UNL d   1       0.715   1.516  -0.688  0.00  0.00    -0.186 NA
ATOM      8  H   UNL d   1       1.211   0.712  -0.296  0.00  0.00     0.145 HD
BRANCH   7   9
ATOM      9  S   UNL d   1       0.934   1.502  -2.367  0.00  0.00     0.210 S 
ATOM     10  O   UNL d   1       1.410   0.170  -2.671  0.00  0.00    -0.211 OA
ATOM     11  O   UNL d   1       1.669   2.675  -2.787  0.00  0.00    -0.211 OA
ATOM     12  C   UNL d   1      -0.744   1.620  -2.947  0.00  0.00     0.180 C 
ENDBRANCH   7   9
ENDBRANCH   4   7
BRANCH   1  13
ATOM     13  C   UNL d   1       1.518   6.497   1.991  0.00  0.00     0.155 C 
ATOM     14  O   UNL d   1       0.707   7.394   1.764  0.00  0.00    -0.293 OA
ATOM     15  C   UNL d   1       2.631   6.699   2.986  0.00  0.00     0.096 C 
ENDBRANCH   1  13
TORSDOF 3
