REMARK  4 active torsions:
REMARK  status: ('A' for Active; 'I' for Inactive)
REMARK    1  A    between atoms: C_2  and  S_1 
REMARK    2  A    between atoms: N_8  and  S_1 
REMARK    3  A    between atoms: C_16  and  N_8 
REMARK    4  A    between atoms: C_17  and  C_16 
ROOT
ATOM      1  N   UNL d   1       0.552   1.559  -0.198  0.00  0.00    -0.311 N 
ATOM      2  H   UNL d   1      -0.461   1.589  -0.100  0.00  0.00     0.172 HD
ENDROOT
BRANCH   1   3
ATOM      3  S   UNL d   1       1.205   0.029  -0.005  0.00  0.00     0.263 S 
ATOM      4  O   UNL d   1       0.332  -0.892  -0.695  0.00  0.00    -0.200 OA
ATOM      5  O   UNL d   1       2.624   0.097  -0.268  0.00  0.00    -0.200 OA
BRANCH   3   6
ATOM      6  C   UNL d   1       1.062  -0.439   1.631  0.00  0.00     0.134 A 
ATOM      7  C   UNL d   1      -0.110  -0.571   2.339  0.00  0.00     0.098 A 
ATOM      8  O   UNL d   1       0.182  -0.984   3.601  0.00  0.00    -0.241 OA
ATOM      9  C   UNL d   1      -1.544  -0.399   2.044  0.00  0.00     0.081 C 
ATOM     10  N   UNL d   1       1.547  -1.129   3.736  0.00  0.00    -0.264 N 
ATOM     11  C   UNL d   1       2.077  -0.814   2.545  0.00  0.00     0.054 A 
ATOM     12  HN  UNL d   1       2.052  -1.419   4.574  1.00  0.00     0.194 HD
ATOM     13  C   UNL d   1       3.547  -0.910   2.371  0.00  0.00     0.072 C 
ENDBRANCH   3   6
ENDBRANCH   1   3
BRANCH   1  14
ATOM     14  C   UNL d   1       1.279   2.692   0.378  0.00  0.00     0.170 C 
BRANCH  14  15
ATOM     15  C   UNL d   1       0.560   3.998   0.099  0.00  0.00    -0.039 A 
ATOM     16  C   UNL d   1       0.168   4.841   1.154  0.00  0.00     0.019 A 
ATOM     17  C   UNL d   1      -0.516   6.008   0.851  0.00  0.00    -0.022 A 
ATOM     18  C   UNL d   1      -1.006   7.085   1.742  0.00  0.00     0.068 C 
ATOM     19  C   UNL d   1      -0.791   6.355  -0.463  0.00  0.00     0.075 A 
ATOM     20  C   UNL d   1      -1.950   7.782   0.761  0.00  0.00     0.180 C 
ATOM     21  O   UNL d   1      -1.481   7.534  -0.586  0.00  0.00    -0.350 OA
ATOM     22  C   UNL d   1      -0.387   5.574  -1.523  0.00  0.00     0.038 A 
ATOM     23  C   UNL d   1       0.289   4.384  -1.236  0.00  0.00     0.011 A 
ENDBRANCH  14  15
ENDBRANCH   1  14
TORSDOF 4
