REMARK  5 active torsions:
REMARK  status: ('A' for Active; 'I' for Inactive)
REMARK    1  A    between atoms: C_4  and  N_1 
REMARK    2  A    between atoms: C_5  and  C_2 
REMARK    3  A    between atoms: C_7  and  C_17 
REMARK    4  A    between atoms: N_11  and  N_22 
REMARK    5  A    between atoms: N_22  and  C_15 
ROOT
ATOM      1  N   UNL d   1      -1.205  -3.391  -4.921  0.00  0.00    -0.309 N 
ATOM      2  HN  UNL d   1      -0.650  -4.010  -4.329  1.00  0.00     0.186 HD
ATOM      3  C   UNL d   1      -1.689  -3.786  -6.056  0.00  0.00     0.126 C 
ENDROOT
BRANCH   1   4
ATOM      4  N   UNL d   1      -1.476  -2.111  -4.560  0.00  0.00    -0.286 N 
ATOM      5  H   UNL d   1      -2.367  -1.667  -4.779  0.00  0.00     0.188 HD
BRANCH   4   6
ATOM      6  C   UNL d   1      -1.017  -1.672  -3.306  0.00  0.00     0.119 A 
ATOM      7  C   UNL d   1       0.109  -2.247  -2.709  0.00  0.00     0.052 A 
ATOM      8  C   UNL d   1       0.562  -1.777  -1.477  0.00  0.00     0.041 A 
ATOM      9  C   UNL d   1      -0.130  -0.731  -0.875  0.00  0.00     0.118 A 
ATOM     10  C   UNL d   1      -1.238  -0.204  -1.519  0.00  0.00     0.125 A 
ATOM     11  N   UNL d   1      -1.688  -0.652  -2.723  0.00  0.00    -0.349 N 
ATOM     12  HN  UNL d   1      -2.504  -0.234  -3.170  1.00  0.00     0.167 HD
BRANCH   9  13
ATOM     13  N   UNL d   1       0.301  -0.185   0.403  0.00  0.00    -0.114 N 
ATOM     14  O   UNL d   1      -0.361   0.744   0.886  0.00  0.00    -0.532 OA
ATOM     15  O   UNL d   1       1.306  -0.681   0.931  0.00  0.00    -0.532 OA
ENDBRANCH   9  13
ENDBRANCH   4   6
ENDBRANCH   1   4
BRANCH   3  16
ATOM     16  C   UNL d   1      -1.432  -5.138  -6.488  0.00  0.00     0.022 A 
ATOM     17  S   UNL d   1      -1.983  -5.682  -8.007  0.00  0.00    -0.088 SA
ATOM     18  C   UNL d   1      -1.334  -7.259  -7.771  0.00  0.00     0.022 A 
ATOM     19  C   UNL d   1      -0.697  -7.344  -6.545  0.00  0.00     0.021 A 
ATOM     20  C   UNL d   1      -0.754  -6.128  -5.810  0.00  0.00     0.021 A 
BRANCH  18  21
ATOM     21  C   UNL d   1      -1.485  -8.308  -8.756  0.00  0.00     0.021 A 
ATOM     22  S   UNL d   1      -1.461  -9.969  -8.302  0.00  0.00    -0.101 SA
ATOM     23  C   UNL d   1      -1.713 -10.493  -9.906  0.00  0.00     0.050 A 
ATOM     24  C   UNL d   1      -1.801  -9.438 -10.784  0.00  0.00     0.008 A 
ATOM     25  C   UNL d   1      -1.667  -8.181 -10.122  0.00  0.00     0.021 A 
ENDBRANCH  18  21
ENDBRANCH   3  16
TORSDOF 5
