REMARK  4 active torsions:
REMARK  status: ('A' for Active; 'I' for Inactive)
REMARK    1  A    between atoms: C_3  and  C_1 
REMARK       I    between atoms: C_2  and  N_4 
REMARK    2  A    between atoms: C_14  and  C_2 
REMARK    3  A    between atoms: N_4  and  N_6 
REMARK    4  A    between atoms: N_6  and  C_5 
ROOT
ATOM      1  C   UNL d   1      -0.804   1.224   2.740  0.00  0.00     0.052 A 
ATOM      2  C   UNL d   1       0.331   3.224   1.998  0.00  0.00     0.099 A 
ATOM      3  N   UNL d   1       1.422   2.512   1.631  0.00  0.00    -0.356 N 
ATOM      4  HN  UNL d   1       2.225   2.966   1.194  1.00  0.00     0.166 HD
ATOM      5  C   UNL d   1      -0.791   2.611   2.550  0.00  0.00     0.060 A 
ATOM      6  C   UNL d   1       1.414   1.180   1.860  0.00  0.00     0.090 A 
ATOM      7  C   UNL d   1       0.339   0.498   2.401  0.00  0.00     0.033 A 
ENDROOT
BRANCH   2   8
ATOM      8  N   UNL d   1       0.256   4.610   1.731  0.00  0.00    -0.188 NA
ATOM      9  H   UNL d   1       0.018   5.146   2.570  0.00  0.00     0.154 HD
BRANCH   8  10
ATOM     10  N   UNL d   1       1.408   5.120   1.111  0.00  0.00    -0.285 N 
ATOM     11  C   UNL d   1       1.543   6.494   1.090  0.00  0.00     0.235 C 
ATOM     12  O   UNL d   1       0.900   7.230   1.839  0.00  0.00    -0.272 OA
ATOM     13  H   UNL d   1       1.846   4.493   0.439  0.00  0.00     0.184 HD
BRANCH  11  14
ATOM     14  C   UNL d   1       2.511   7.007   0.027  0.00  0.00     0.071 C 
ATOM     15  C   UNL d   1       2.514   8.535  -0.009  0.00  0.00     0.019 C 
ATOM     16  C   UNL d   1       3.926   6.479   0.246  0.00  0.00     0.019 C 
ENDBRANCH  11  14
ENDBRANCH   8  10
ENDBRANCH   2   8
BRANCH   1  17
ATOM     17  C   UNL d   1      -2.026   0.521   3.263  0.00  0.00     0.417 C 
ATOM     18  F   UNL d   1      -3.070   1.358   3.517  0.00  0.00    -0.166 F 
ATOM     19  F   UNL d   1      -1.787  -0.144   4.425  0.00  0.00    -0.166 F 
ATOM     20  F   UNL d   1      -2.499  -0.410   2.389  0.00  0.00    -0.166 F 
ENDBRANCH   1  17
TORSDOF 4
