REMARK  5 active torsions:
REMARK  status: ('A' for Active; 'I' for Inactive)
REMARK    1  A    between atoms: N_13  and  C_1 
REMARK    2  A    between atoms: C_20  and  N_2 
REMARK    3  A    between atoms: C_10  and  S_21 
REMARK       I    between atoms: C_18  and  N_13 
REMARK    4  A    between atoms: C_26  and  C_18 
REMARK    5  A    between atoms: S_21  and  C_26 
ROOT
ATOM      1  C   UNL d   1       0.870  -0.937   0.031  0.00  0.00     0.152 A 
ATOM      2  N   UNL d   1       0.655   0.020   1.029  0.00  0.00    -0.239 N 
ATOM      3  N   UNL d   1      -0.490   0.724   0.805  0.00  0.00    -0.302 N 
ATOM      4  HN  UNL d   1      -0.844   1.521   1.335  1.00  0.00     0.186 HD
ATOM      5  C   UNL d   1      -0.238  -0.867  -0.797  0.00  0.00     0.107 A 
ATOM      6  C   UNL d   1      -1.044   0.142  -0.256  0.00  0.00     0.134 A 
ATOM      7  C   UNL d   1      -0.471  -1.527  -2.043  0.00  0.00     0.105 C 
ATOM      8  N   UNL d   1      -0.672  -1.970  -3.094  0.00  0.00    -0.191 NA
ENDROOT
BRANCH   1   9
ATOM      9  N   UNL d   1       2.031  -1.700  -0.081  0.00  0.00    -0.310 N 
ATOM     10  C   UNL d   1       1.928  -3.078  -0.246  0.00  0.00     0.233 C 
ATOM     11  O   UNL d   1       0.861  -3.681  -0.309  0.00  0.00    -0.272 OA
ATOM     12  H   UNL d   1       2.891  -1.320   0.301  0.00  0.00     0.170 HD
BRANCH  10  13
ATOM     13  C   UNL d   1       3.271  -3.797  -0.267  0.00  0.00     0.186 C 
BRANCH  13  14
ATOM     14  S   UNL d   1       3.441  -4.818  -1.754  0.00  0.00    -0.075 SA
BRANCH  14  15
ATOM     15  C   UNL d   1       3.309  -3.604  -2.989  0.00  0.00     0.204 A 
ATOM     16  O   UNL d   1       3.231  -2.269  -2.717  0.00  0.00    -0.265 OA
ATOM     17  C   UNL d   1       3.133  -1.714  -3.966  0.00  0.00     0.199 A 
ATOM     18  C   UNL d   1       3.034  -0.306  -4.185  0.00  0.00     0.127 A 
ATOM     19  N   UNL d   1       3.193  -2.629  -4.915  0.00  0.00    -0.275 N 
ATOM     20  O   UNL d   1       2.986   0.607  -3.157  0.00  0.00    -0.318 OA
ATOM     21  C   UNL d   1       2.996   0.382  -5.386  0.00  0.00     0.043 A 
ATOM     22  C   UNL d   1       2.933   1.845  -3.708  0.00  0.00     0.142 A 
ATOM     23  C   UNL d   1       2.944   1.763  -5.079  0.00  0.00     0.027 A 
ATOM     24  N   UNL d   1       3.311  -3.852  -4.280  0.00  0.00    -0.272 N 
ATOM     25  HN  UNL d   1       3.159  -2.466  -5.921  1.00  0.00     0.189 HD
ATOM     26  HN  UNL d   1       3.385  -4.767  -4.726  1.00  0.00     0.189 HD
ENDBRANCH  14  15
ENDBRANCH  13  14
ENDBRANCH  10  13
ENDBRANCH   1   9
BRANCH   2  27
ATOM     27  C   UNL d   1       1.417   0.290   2.205  0.00  0.00     0.058 A 
ATOM     28  C   UNL d   1       1.248   1.525   2.851  0.00  0.00     0.031 A 
ATOM     29  C   UNL d   1       1.982   1.828   3.999  0.00  0.00     0.002 A 
ATOM     30  C   UNL d   1       2.877   0.898   4.521  0.00  0.00     0.000 A 
ATOM     31  C   UNL d   1       3.027  -0.343   3.907  0.00  0.00     0.002 A 
ATOM     32  C   UNL d   1       2.295  -0.653   2.758  0.00  0.00     0.031 A 
ENDBRANCH   2  27
TORSDOF 5
