REMARK  4 active torsions:
REMARK  status: ('A' for Active; 'I' for Inactive)
REMARK    1  A    between atoms: C_3  and  C_1 
REMARK    2  A    between atoms: C_12  and  N_2 
REMARK    3  A    between atoms: C_10  and  C_11 
REMARK    4  A    between atoms: C_23  and  C_13 
ROOT
ATOM      1  C   UNL d   1      -0.289  -1.351   0.434  0.00  0.00     0.157 A 
ATOM      2  N   UNL d   1       0.948  -0.722   0.237  0.00  0.00    -0.222 N 
ATOM      3  N   UNL d   1       0.750   0.612   0.342  0.00  0.00    -0.219 N 
ATOM      4  HN  UNL d   1       1.463   1.339   0.284  1.00  0.00     0.210 HD
ATOM      5  N   UNL d   1      -0.544   0.790   0.534  0.00  0.00    -0.226 N 
ATOM      6  HN  UNL d   1      -0.994   1.701   0.623  1.00  0.00     0.210 HD
ATOM      7  N   UNL d   1      -1.198  -0.402   0.600  0.00  0.00    -0.268 N 
ATOM      8  HN  UNL d   1      -2.197  -0.538   0.749  1.00  0.00     0.190 HD
ENDROOT
BRANCH   1   9
ATOM      9  C   UNL d   1      -0.580  -2.777   0.572  0.00  0.00     0.042 A 
ATOM     10  C   UNL d   1      -1.701  -3.393  -0.016  0.00  0.00     0.064 A 
ATOM     11  C   UNL d   1      -1.919  -4.764   0.219  0.00  0.00     0.034 A 
ATOM     12  C   UNL d   1      -1.027  -5.470   1.004  0.00  0.00     0.088 A 
ATOM     13  N   UNL d   1       0.048  -4.906   1.582  0.00  0.00    -0.374 N 
ATOM     14  C   UNL d   1       0.234  -3.582   1.374  0.00  0.00     0.103 A 
ATOM     15  HN  UNL d   1       0.695  -5.452   2.152  1.00  0.00     0.164 HD
BRANCH  10  16
ATOM     16  C   UNL d   1      -2.719  -2.658  -0.858  0.00  0.00     0.418 C 
ATOM     17  F   UNL d   1      -2.223  -1.606  -1.560  0.00  0.00    -0.166 F 
ATOM     18  F   UNL d   1      -3.272  -3.475  -1.804  0.00  0.00    -0.166 F 
ATOM     19  F   UNL d   1      -3.765  -2.195  -0.124  0.00  0.00    -0.166 F 
ENDBRANCH  10  16
ENDBRANCH   1   9
BRANCH   2  20
ATOM     20  C   UNL d   1       2.232  -1.265  -0.058  0.00  0.00     0.066 A 
ATOM     21  C   UNL d   1       3.433  -0.654   0.383  0.00  0.00    -0.030 A 
ATOM     22  C   UNL d   1       4.654  -1.297   0.084  0.00  0.00     0.009 A 
ATOM     23  C   UNL d   1       4.697  -2.486  -0.641  0.00  0.00     0.001 A 
ATOM     24  C   UNL d   1       3.520  -3.057  -1.100  0.00  0.00     0.002 A 
ATOM     25  C   UNL d   1       2.297  -2.450  -0.818  0.00  0.00     0.032 A 
BRANCH  21  26
ATOM     26  C   UNL d   1       3.531   0.614   1.210  0.00  0.00     0.036 C 
ATOM     27  C   UNL d   1       3.051   0.445   2.645  0.00  0.00     0.010 C 
ENDBRANCH  21  26
ENDBRANCH   2  20
TORSDOF 4
