REMARK  1 active torsions:
REMARK  status: ('A' for Active; 'I' for Inactive)
REMARK    1  A    between atoms: C_8  and  N_1 
ROOT
ATOM      1  N   UNL d   1       0.938  -0.745  -0.067  0.00  0.00    -0.271 N 
ATOM      2  C   UNL d   1       0.884   0.632   0.005  0.00  0.00     0.146 A 
ATOM      3  N   UNL d   1      -0.332   1.113   0.040  0.00  0.00    -0.282 N 
ATOM      4  HN  UNL d   1      -0.612   2.092   0.102  1.00  0.00     0.188 HD
ATOM      5  C   UNL d   1      -0.391  -1.145  -0.066  0.00  0.00     0.199 A 
ATOM      6  N   UNL d   1      -1.141   0.023  -0.023  0.00  0.00    -0.274 N 
ATOM      7  C   UNL d   1       2.033   1.511  -0.029  0.00  0.00     0.050 A 
ATOM      8  S   UNL d   1       2.028   2.929   0.941  0.00  0.00    -0.098 SA
ATOM      9  S   UNL d   1      -1.117  -2.638  -0.014  0.00  0.00    -0.039 SA
ATOM     10  C   UNL d   1       3.203   1.418  -0.762  0.00  0.00     0.023 A 
ATOM     11  C   UNL d   1       3.608   3.356   0.452  0.00  0.00     0.050 A 
ATOM     12  C   UNL d   1       4.125   2.463  -0.458  0.00  0.00     0.009 A 
ATOM     13  H   UNL d   1      -2.150   0.095   0.043  0.00  0.00     0.189 HD
ENDROOT
BRANCH   1  14
ATOM     14  C   UNL d   1       2.080  -1.585  -0.010  0.00  0.00     0.043 A 
ATOM     15  C   UNL d   1       3.164  -1.282   0.829  0.00  0.00     0.032 A 
ATOM     16  C   UNL d   1       4.316  -2.076   0.837  0.00  0.00     0.026 A 
ATOM     17  C   UNL d   1       4.386  -3.202   0.023  0.00  0.00     0.034 A 
ATOM     18  C   UNL d   1       3.312  -3.540  -0.793  0.00  0.00     0.026 A 
ATOM     19 CL   UNL d   1       5.806  -4.171   0.021  0.00  0.00    -0.084 Cl
ATOM     20  C   UNL d   1       2.168  -2.735  -0.811  0.00  0.00     0.032 A 
ENDBRANCH   1  14
TORSDOF 1
