REMARK  7 active torsions:
REMARK  status: ('A' for Active; 'I' for Inactive)
REMARK    1  A    between atoms: C_3  and  N_1 
REMARK    2  A    between atoms: C_4  and  C_2 
REMARK       I    between atoms: N_11  and  C_4 
REMARK    3  A    between atoms: O_16  and  C_6 
REMARK    4  A    between atoms: O_17  and  C_8 
REMARK    5  A    between atoms: C_18  and  N_11 
REMARK    6  A    between atoms: C_13  and  C_20 
REMARK    7  A    between atoms: C_20  and  C_18 
ROOT
ATOM      1  C   UNL d   1       2.821  -0.534  -1.621  0.00  0.00     0.254 C 
ATOM      2  O   UNL d   1       3.809  -0.186  -2.261  0.00  0.00    -0.268 OA
ATOM      3  N   UNL d   1       2.873  -1.511  -0.656  0.00  0.00    -0.356 N 
ATOM      4  H   UNL d   1       2.071  -1.707  -0.062  0.00  0.00     0.162 HD
ENDROOT
BRANCH   3   5
ATOM      5  C   UNL d   1       4.114  -2.182  -0.310  0.00  0.00     0.127 C 
BRANCH   5   6
ATOM      6  C   UNL d   1       4.832  -1.458   0.830  0.00  0.00     0.058 C 
BRANCH   6   7
ATOM      7  C   UNL d   1       6.092  -2.170   1.250  0.00  0.00    -0.054 A 
ATOM      8  C   UNL d   1       6.034  -3.204   2.200  0.00  0.00     0.046 A 
ATOM      9  C   UNL d   1       7.187  -3.897   2.601  0.00  0.00     0.102 A 
ATOM     10  C   UNL d   1       8.419  -3.555   2.016  0.00  0.00     0.101 A 
ATOM     11  C   UNL d   1       8.478  -2.510   1.084  0.00  0.00     0.040 A 
ATOM     12  C   UNL d   1       7.325  -1.828   0.695  0.00  0.00     0.010 A 
BRANCH   9  13
ATOM     13  O   UNL d   1       7.178  -4.877   3.558  0.00  0.00    -0.353 OA
ATOM     14  C   UNL d   1       5.935  -5.197   4.170  0.00  0.00     0.210 C 
ENDBRANCH   9  13
BRANCH  10  15
ATOM     15  O   UNL d   1       9.645  -4.105   2.293  0.00  0.00    -0.353 OA
ATOM     16  C   UNL d   1       9.662  -5.495   2.592  0.00  0.00     0.210 C 
ENDBRANCH  10  15
ENDBRANCH   6   7
ENDBRANCH   5   6
ENDBRANCH   3   5
BRANCH   1  17
ATOM     17  C   UNL d   1       1.534   0.181  -1.842  0.00  0.00     0.065 A 
ATOM     18  C   UNL d   1       0.249  -0.366  -1.772  0.00  0.00     0.118 A 
ATOM     19  C   UNL d   1      -0.899   0.399  -2.041  0.00  0.00     0.037 A 
ATOM     20  C   UNL d   1      -0.765   1.739  -2.396  0.00  0.00     0.002 A 
ATOM     21  C   UNL d   1       0.505   2.305  -2.488  0.00  0.00     0.001 A 
ATOM     22  C   UNL d   1       1.641   1.533  -2.219  0.00  0.00     0.020 A 
BRANCH  18  23
ATOM     23  N   UNL d   1       0.029  -1.756  -1.452  0.00  0.00    -0.115 N 
ATOM     24  O   UNL d   1       0.285  -2.111  -0.290  0.00  0.00    -0.532 OA
ATOM     25  O   UNL d   1      -0.459  -2.471  -2.334  0.00  0.00    -0.532 OA
ENDBRANCH  18  23
ENDBRANCH   1  17
TORSDOF 7
