REMARK  4 active torsions:
REMARK  status: ('A' for Active; 'I' for Inactive)
REMARK    1  A    between atoms: C_2  and  C_1 
REMARK       I    between atoms: N_3  and  C_1 
REMARK    2  A    between atoms: C_6  and  N_3 
REMARK    3  A    between atoms: C_4  and  C_5 
REMARK    4  A    between atoms: O_16  and  C_7 
ROOT
ATOM      1  C   UNL d   1       0.321  -0.627  -0.968  0.00  0.00     0.098 A 
ATOM      2  C   UNL d   1      -1.021  -0.507  -1.364  0.00  0.00     0.069 A 
ATOM      3  C   UNL d   1       1.097  -1.626  -1.561  0.00  0.00     0.158 A 
ATOM      4  N   UNL d   1       0.611  -2.518  -2.461  0.00  0.00    -0.346 N 
ATOM      5  HN  UNL d   1       1.201  -3.253  -2.849  1.00  0.00     0.167 HD
ATOM      6  C   UNL d   1      -0.678  -2.395  -2.822  0.00  0.00     0.091 A 
ATOM      7  C   UNL d   1      -1.519  -1.428  -2.305  0.00  0.00     0.034 A 
ENDROOT
BRANCH   1   8
ATOM      8  C   UNL d   1       0.981   0.341  -0.065  0.00  0.00     0.261 C 
ATOM      9  N   UNL d   1       0.449   0.426   1.211  0.00  0.00    -0.322 N 
ATOM     10  H   UNL d   1      -0.077  -0.378   1.516  0.00  0.00     0.169 HD
ATOM     11  O   UNL d   1       1.939   0.958  -0.514  0.00  0.00    -0.267 OA
BRANCH   9  12
ATOM     12  C   UNL d   1       0.812   1.365   2.218  0.00  0.00     0.046 C 
ATOM     13  C   UNL d   1       1.253   2.684   1.931  0.00  0.00    -0.035 C 
ATOM     14  C   UNL d   1       1.725   3.506   2.976  0.00  0.00     0.009 C 
ATOM     15  C   UNL d   1       1.210   3.350   0.580  0.00  0.00     0.050 C 
ATOM     16  C   UNL d   1       1.690   3.085   4.295  0.00  0.00     0.001 C 
ATOM     17  C   UNL d   1       1.152   1.843   4.594  0.00  0.00     0.009 C 
ATOM     18  C   UNL d   1       0.689   0.981   3.577  0.00  0.00    -0.035 C 
ATOM     19  C   UNL d   1       0.146  -0.341   4.061  0.00  0.00     0.050 C 
ENDBRANCH   9  12
ENDBRANCH   1   8
BRANCH   2  20
ATOM     20  C   UNL d   1      -1.976   0.533  -0.850  0.00  0.00     0.418 C 
ATOM     21  F   UNL d   1      -1.421   1.630  -0.288  0.00  0.00    -0.166 F 
ATOM     22  F   UNL d   1      -2.789   1.010  -1.837  0.00  0.00    -0.166 F 
ATOM     23  F   UNL d   1      -2.813   0.009   0.089  0.00  0.00    -0.166 F 
ENDBRANCH   2  20
BRANCH   3  24
ATOM     24  O   UNL d   1       2.403  -1.787  -1.151  0.00  0.00    -0.340 OA
ATOM     25  C   UNL d   1       3.206  -2.458  -2.119  0.00  0.00     0.211 C 
ENDBRANCH   3  24
TORSDOF 4
