REMARK  4 active torsions:
REMARK  status: ('A' for Active; 'I' for Inactive)
REMARK    1  A    between atoms: C_4  and  C_1 
REMARK    2  A    between atoms: C_2  and  C_3 
REMARK       I    between atoms: N_5  and  C_4 
REMARK    3  A    between atoms: C_7  and  N_5 
REMARK    4  A    between atoms: C_6  and  C_7 
ROOT
ATOM      1  C   UNL d   1       1.220   2.598   0.012  0.00  0.00     0.254 C 
ATOM      2  N   UNL d   1       0.562   3.788   0.208  0.00  0.00    -0.353 N 
ATOM      3  O   UNL d   1       0.644   1.522  -0.105  0.00  0.00    -0.268 OA
ATOM      4  H   UNL d   1       1.059   4.655   0.356  0.00  0.00     0.163 HD
ENDROOT
BRANCH   1   5
ATOM      5  C   UNL d   1       2.701   2.623  -0.018  0.00  0.00     0.062 A 
ATOM      6  C   UNL d   1       3.514   3.553  -0.680  0.00  0.00     0.066 A 
ATOM      7  C   UNL d   1       4.914   3.381  -0.605  0.00  0.00     0.034 A 
ATOM      8  C   UNL d   1       5.439   2.300   0.080  0.00  0.00     0.088 A 
ATOM      9  N   UNL d   1       4.675   1.383   0.698  0.00  0.00    -0.374 N 
ATOM     10  C   UNL d   1       3.331   1.558   0.627  0.00  0.00     0.105 A 
ATOM     11  HN  UNL d   1       5.085   0.594   1.196  1.00  0.00     0.164 HD
BRANCH   6  12
ATOM     12  C   UNL d   1       3.029   4.715  -1.499  0.00  0.00     0.418 C 
ATOM     13  F   UNL d   1       1.704   4.744  -1.783  0.00  0.00    -0.166 F 
ATOM     14  F   UNL d   1       3.297   5.900  -0.879  0.00  0.00    -0.166 F 
ATOM     15  F   UNL d   1       3.654   4.787  -2.709  0.00  0.00    -0.166 F 
ENDBRANCH   6  12
ENDBRANCH   1   5
BRANCH   2  16
ATOM     16  C   UNL d   1      -0.874   3.888   0.054  0.00  0.00     0.163 C 
BRANCH  16  17
ATOM     17  C   UNL d   1      -1.577   3.990   1.381  0.00  0.00    -0.019 A 
ATOM     18  C   UNL d   1      -1.765   5.207   2.052  0.00  0.00     0.042 A 
ATOM     19 CL   UNL d   1      -1.168   6.700   1.418  0.00  0.00    -0.084 Cl
ATOM     20  C   UNL d   1      -2.447   5.248   3.273  0.00  0.00     0.024 A 
ATOM     21  C   UNL d   1      -2.939   4.074   3.847  0.00  0.00     0.002 A 
ATOM     22  C   UNL d   1      -2.739   2.857   3.200  0.00  0.00     0.001 A 
ATOM     23  C   UNL d   1      -2.060   2.814   1.981  0.00  0.00     0.010 A 
ENDBRANCH  16  17
ENDBRANCH   2  16
TORSDOF 4
