REMARK  4 active torsions:
REMARK  status: ('A' for Active; 'I' for Inactive)
REMARK    1  A    between atoms: C_9  and  C_3 
REMARK    2  A    between atoms: C_7  and  C_4 
REMARK    3  A    between atoms: C_8  and  C_7 
REMARK    4  A    between atoms: O_12  and  C_8 
ROOT
ATOM      1  N   UNL d   1      -0.500   1.389   0.012  0.00  0.00    -0.316 N 
ATOM      2  HN  UNL d   1      -1.103   2.211  -0.009  1.00  0.00     0.169 HD
ATOM      3  C   UNL d   1       0.793   1.449   0.028  0.00  0.00     0.088 A 
ATOM      4  C   UNL d   1       0.132  -0.908   0.037  0.00  0.00     0.080 A 
ATOM      5  C   UNL d   1      -0.977   0.092   0.025  0.00  0.00     0.263 A 
ATOM      6  S   UNL d   1       1.632  -0.081   0.018  0.00  0.00    -0.066 SA
ATOM      7  O   UNL d   1      -2.157  -0.223   0.030  0.00  0.00    -0.267 OA
ENDROOT
BRANCH   3   8
ATOM      8  C   UNL d   1       1.573   2.705   0.013  0.00  0.00    -0.002 A 
ATOM      9  C   UNL d   1       2.888   2.764   0.501  0.00  0.00     0.014 A 
ATOM     10  C   UNL d   1       3.610   3.957   0.440  0.00  0.00     0.001 A 
ATOM     11  C   UNL d   1       3.025   5.098  -0.104  0.00  0.00     0.000 A 
ATOM     12  C   UNL d   1       1.713   5.053  -0.575  0.00  0.00     0.001 A 
ATOM     13  C   UNL d   1       0.984   3.862  -0.509  0.00  0.00     0.014 A 
ENDBRANCH   3   8
BRANCH   4  14
ATOM     14  C   UNL d   1      -0.098  -2.225   0.042  0.00  0.00     0.106 C 
BRANCH  14  15
ATOM     15  C   UNL d   1       0.972  -3.239   0.066  0.00  0.00     0.283 C 
ATOM     16  O   UNL d   1       2.125  -3.058   0.418  0.00  0.00    -0.260 OA
BRANCH  15  17
ATOM     17  O   UNL d   1       0.455  -4.412  -0.376  0.00  0.00    -0.323 OA
ATOM     18  C   UNL d   1       1.421  -5.464  -0.432  0.00  0.00     0.213 C 
ENDBRANCH  15  17
ENDBRANCH  14  15
ENDBRANCH   4  14
TORSDOF 4
