REMARK  1 active torsions:
REMARK  status: ('A' for Active; 'I' for Inactive)
REMARK    1  A    between atoms: C_12  and  N_2 
ROOT
ATOM      1  C   UNL d   1       3.103   0.310  -0.619  0.00  0.00     0.036 A 
ATOM      2  N   UNL d   1       4.247  -0.366  -1.199  0.00  0.00    -0.248 NA
ATOM      3  C   UNL d   1       1.977  -0.289  -0.050  0.00  0.00     0.016 A 
ATOM      4  C   UNL d   1       3.204   1.699  -0.698  0.00  0.00    -0.012 A 
ATOM      5  N   UNL d   1       1.177   1.939   0.507  0.00  0.00    -0.359 N 
ATOM      6  HN  UNL d   1       0.482   2.533   0.958  1.00  0.00     0.166 HD
ATOM      7  C   UNL d   1       1.019   0.599   0.486  0.00  0.00     0.044 A 
ATOM      8  C   UNL d   1       2.268   2.488  -0.078  0.00  0.00     0.013 A 
ATOM      9  C   UNL d   1       4.690   0.712  -2.143  0.00  0.00     0.106 C 
ATOM     10  C   UNL d   1       4.425   2.064  -1.459  0.00  0.00     0.057 C 
ATOM     11  C   UNL d   1       1.741  -1.679  -0.044  0.00  0.00     0.058 A 
ATOM     12  C   UNL d   1      -0.159   0.063   0.998  0.00  0.00     0.033 A 
ATOM     13  C   UNL d   1       0.544  -2.171   0.460  0.00  0.00     0.117 A 
ATOM     14  C   UNL d   1      -0.412  -1.312   0.979  0.00  0.00     0.044 A 
ATOM     15  F   UNL d   1       0.298  -3.486   0.426  0.00  0.00    -0.206 F 
ATOM     16  C   UNL d   1       2.430   3.973   0.005  0.00  0.00     0.068 C 
ENDROOT
BRANCH   2  17
ATOM     17  C   UNL d   1       5.394  -0.727  -0.406  0.00  0.00     0.015 A 
ATOM     18  C   UNL d   1       5.564  -0.298   0.920  0.00  0.00     0.024 A 
ATOM     19  C   UNL d   1       6.774  -0.506   1.590  0.00  0.00     0.002 A 
ATOM     20  C   UNL d   1       7.820  -1.171   0.956  0.00  0.00     0.000 A 
ATOM     21  C   UNL d   1       7.647  -1.660  -0.337  0.00  0.00     0.002 A 
ATOM     22  C   UNL d   1       6.439  -1.450  -1.007  0.00  0.00     0.024 A 
ENDBRANCH   2  17
TORSDOF 1
