REMARK  4 active torsions:
REMARK  status: ('A' for Active; 'I' for Inactive)
REMARK    1  A    between atoms: C_13  and  C_1 
REMARK    2  A    between atoms: C_18  and  C_5 
REMARK    3  A    between atoms: C_16  and  C_12 
REMARK    4  A    between atoms: C_14  and  C_15 
ROOT
ATOM      1  C   UNL d   1       0.128   1.214  -0.055  0.00  0.00     0.100 A 
ATOM      2  C   UNL d   1      -0.221  -2.663   0.006  0.00  0.00     0.181 A 
ATOM      3  S   UNL d   1      -1.038  -0.056  -0.114  0.00  0.00    -0.081 SA
ATOM      4  C   UNL d   1       0.141  -1.278  -0.035  0.00  0.00     0.059 A 
ATOM      5  C   UNL d   1       1.427   0.705  -0.037  0.00  0.00    -0.003 A 
ATOM      6  O   UNL d   1      -1.517  -3.115  -0.045  0.00  0.00    -0.272 OA
ATOM      7  N   UNL d   1       0.638  -3.661   0.115  0.00  0.00    -0.277 N 
ATOM      8  HN  UNL d   1       1.654  -3.584   0.168  1.00  0.00     0.189 HD
ATOM      9  C   UNL d   1       1.408  -0.739  -0.015  0.00  0.00     0.037 A 
ATOM     10  N   UNL d   1      -0.101  -4.829   0.142  0.00  0.00    -0.277 N 
ATOM     11  HN  UNL d   1       0.260  -5.780   0.222  1.00  0.00     0.189 HD
ATOM     12  C   UNL d   1      -1.363  -4.471   0.046  0.00  0.00     0.174 A 
ENDROOT
BRANCH  12  13
ATOM     13  C   UNL d   1      -2.583  -5.268   0.034  0.00  0.00     0.017 A 
ATOM     14  C   UNL d   1      -3.848  -4.673  -0.098  0.00  0.00     0.032 A 
ATOM     15  C   UNL d   1      -5.024  -5.442  -0.098  0.00  0.00     0.048 A 
ATOM     16  C   UNL d   1      -4.922  -6.834   0.034  0.00  0.00     0.016 A 
ATOM     17  C   UNL d   1      -3.673  -7.442   0.161  0.00  0.00     0.002 A 
ATOM     18  C   UNL d   1      -2.510  -6.664   0.161  0.00  0.00     0.016 A 
BRANCH  15  19
ATOM     19  C   UNL d   1      -6.379  -4.790  -0.234  0.00  0.00     0.417 C 
ATOM     20  F   UNL d   1      -6.321  -3.433  -0.339  0.00  0.00    -0.166 F 
ATOM     21  F   UNL d   1      -7.057  -5.220  -1.333  0.00  0.00    -0.166 F 
ATOM     22  F   UNL d   1      -7.188  -5.047   0.831  0.00  0.00    -0.166 F 
ENDBRANCH  15  19
ENDBRANCH  12  13
BRANCH   1  23
ATOM     23  C   UNL d   1      -0.391   2.622  -0.016  0.00  0.00     0.424 C 
ATOM     24  F   UNL d   1      -1.741   2.692   0.146  0.00  0.00    -0.166 F 
ATOM     25  F   UNL d   1       0.148   3.338   1.002  0.00  0.00    -0.166 F 
ATOM     26  F   UNL d   1      -0.127   3.297  -1.165  0.00  0.00    -0.166 F 
ENDBRANCH   1  23
BRANCH   5  27
ATOM     27  C   UNL d   1       2.655   1.514   0.005  0.00  0.00    -0.025 A 
ATOM     28  C   UNL d   1       3.762   1.058   0.742  0.00  0.00     0.012 A 
ATOM     29  C   UNL d   1       4.964   1.774   0.761  0.00  0.00     0.001 A 
ATOM     30  C   UNL d   1       5.072   2.971   0.062  0.00  0.00     0.000 A 
ATOM     31  C   UNL d   1       3.989   3.438  -0.674  0.00  0.00     0.001 A 
ATOM     32  C   UNL d   1       2.799   2.703  -0.721  0.00  0.00     0.012 A 
ENDBRANCH   5  27
TORSDOF 4
