REMARK  3 active torsions:
REMARK  status: ('A' for Active; 'I' for Inactive)
REMARK    1  A    between atoms: C_11  and  C_6 
REMARK    2  A    between atoms: O_24  and  C_7 
REMARK       I    between atoms: C_16  and  N_18 
REMARK    3  A    between atoms: N_18  and  C_19 
ROOT
ATOM      1  C   UNL d   1      -0.804  -0.354  -0.009  0.00  0.00     0.052 A 
ATOM      2  C   UNL d   1      -1.240   0.974   0.022  0.00  0.00    -0.012 A 
ATOM      3  N   UNL d   1      -1.603  -1.425  -0.034  0.00  0.00    -0.335 N 
ATOM      4  HN  UNL d   1      -1.242  -2.379  -0.056  1.00  0.00     0.168 HD
ATOM      5  C   UNL d   1      -3.475   0.151   0.003  0.00  0.00     0.109 A 
ATOM      6  C   UNL d   1      -2.604   1.260   0.035  0.00  0.00     0.032 A 
ATOM      7  C   UNL d   1      -2.930  -1.147  -0.028  0.00  0.00     0.164 A 
ATOM      8  C   UNL d   1       0.639  -0.393  -0.021  0.00  0.00    -0.002 A 
ATOM      9  C   UNL d   1       1.123   0.928  -0.012  0.00  0.00    -0.039 A 
ATOM     10  C   UNL d   1      -0.039   1.901   0.017  0.00  0.00     0.081 A 
ATOM     11  C   UNL d   1      -4.902   0.303   0.015  0.00  0.00     0.105 C 
ATOM     12  N   UNL d   1      -6.052   0.456   0.009  0.00  0.00    -0.191 NA
ATOM     13  C   UNL d   1       1.518  -1.457  -0.026  0.00  0.00     0.016 A 
ATOM     14  C   UNL d   1       2.483   1.206  -0.011  0.00  0.00     0.038 A 
ATOM     15  C   UNL d   1       3.388   0.132  -0.013  0.00  0.00     0.035 A 
ATOM     16  C   UNL d   1       2.894  -1.186  -0.020  0.00  0.00     0.030 A 
ENDROOT
BRANCH   7  17
ATOM     17  O   UNL d   1      -3.818  -2.209  -0.059  0.00  0.00    -0.340 OA
ATOM     18  C   UNL d   1      -3.187  -3.487  -0.036  0.00  0.00     0.211 C 
ENDBRANCH   7  17
BRANCH   6  19
ATOM     19  C   UNL d   1      -3.060   2.648   0.080  0.00  0.00     0.087 A 
ATOM     20  O   UNL d   1      -2.268   3.498   0.803  0.00  0.00    -0.322 OA
ATOM     21  C   UNL d   1      -2.810   4.737   0.728  0.00  0.00     0.142 A 
ATOM     22  C   UNL d   1      -3.957   4.708  -0.026  0.00  0.00     0.027 A 
ATOM     23  C   UNL d   1      -4.124   3.361  -0.440  0.00  0.00     0.040 A 
ENDBRANCH   6  19
BRANCH  15  24
ATOM     24  N   UNL d   1       4.765   0.453  -0.002  0.00  0.00    -0.327 N 
ATOM     25  C   UNL d   1       5.830  -0.431   0.005  0.00  0.00     0.218 C 
ATOM     26  O   UNL d   1       5.769  -1.656  -0.000  0.00  0.00    -0.274 OA
ATOM     27  C   UNL d   1       7.176   0.252   0.019  0.00  0.00     0.117 C 
ATOM     28  H   UNL d   1       4.987   1.439   0.005  0.00  0.00     0.169 HD
ENDBRANCH  15  24
TORSDOF 3
