REMARK  3 active torsions:
REMARK  status: ('A' for Active; 'I' for Inactive)
REMARK    1  A    between atoms: N_4  and  C_1 
REMARK       I    between atoms: C_6  and  N_4 
REMARK    2  A    between atoms: C_9  and  C_6 
REMARK    3  A    between atoms: O_15  and  C_10 
ROOT
ATOM      1  C   UNL d   1      -1.409  -1.311  -0.048  0.00  0.00     0.144 A 
ATOM      2  N   UNL d   1      -2.245  -0.274   0.090  0.00  0.00    -0.243 N 
ATOM      3  HN  UNL d   1      -3.258  -0.321   0.195  1.00  0.00     0.196 HD
ATOM      4  C   UNL d   1      -0.059  -0.851  -0.178  0.00  0.00     0.079 A 
ATOM      5  O   UNL d   1      -1.478   0.864   0.065  0.00  0.00    -0.235 OA
ATOM      6  C   UNL d   1      -0.177   0.526  -0.095  0.00  0.00     0.115 A 
ATOM      7  C   UNL d   1       1.229  -1.408  -0.348  0.00  0.00     0.085 A 
ATOM      8  C   UNL d   1       2.143   0.875  -0.333  0.00  0.00     0.006 A 
ATOM      9  C   UNL d   1       0.877   1.429  -0.167  0.00  0.00     0.040 A 
ATOM     10  C   UNL d   1       2.318  -0.512  -0.418  0.00  0.00     0.038 A 
ENDROOT
BRANCH   1  11
ATOM     11  N   UNL d   1      -1.815  -2.642  -0.074  0.00  0.00    -0.307 N 
ATOM     12  C   UNL d   1      -3.135  -3.026   0.121  0.00  0.00     0.257 C 
ATOM     13  O   UNL d   1      -4.062  -2.284   0.422  0.00  0.00    -0.267 OA
ATOM     14  H   UNL d   1      -1.075  -3.320  -0.200  0.00  0.00     0.170 HD
BRANCH  12  15
ATOM     15  C   UNL d   1      -3.460  -4.477  -0.021  0.00  0.00     0.034 A 
ATOM     16  C   UNL d   1      -2.691  -5.367  -0.778  0.00  0.00     0.041 A 
ATOM     17  C   UNL d   1      -3.112  -6.693  -0.915  0.00  0.00     0.035 A 
ATOM     18 CL   UNL d   1      -2.174  -7.786  -1.858  0.00  0.00    -0.084 Cl
ATOM     19  C   UNL d   1      -4.289  -7.144  -0.314  0.00  0.00     0.024 A 
ATOM     20  C   UNL d   1      -5.062  -6.263   0.435  0.00  0.00     0.003 A 
ATOM     21  C   UNL d   1      -4.649  -4.937   0.578  0.00  0.00     0.017 A 
ENDBRANCH  12  15
ENDBRANCH   1  11
BRANCH   7  22
ATOM     22  O   UNL d   1       1.332  -2.772  -0.454  0.00  0.00    -0.355 OA
ATOM     23  C   UNL d   1       2.650  -3.318  -0.403  0.00  0.00     0.210 C 
ENDBRANCH   7  22
TORSDOF 3
