REMARK  3 active torsions:
REMARK  status: ('A' for Active; 'I' for Inactive)
REMARK    1  A    between atoms: C_9  and  C_3 
REMARK    2  A    between atoms: N_4  and  C_13 
REMARK    3  A    between atoms: C_14  and  C_10 
ROOT
ATOM      1  C   UNL d   1       1.500  -2.146  -0.033  0.00  0.00    -0.001 A 
ATOM      2  C   UNL d   1       1.410  -3.049  -1.102  0.00  0.00     0.016 A 
ATOM      3  C   UNL d   1       2.469  -2.387   0.950  0.00  0.00     0.016 A 
ATOM      4  C   UNL d   1       3.179  -4.434  -0.167  0.00  0.00     0.031 A 
ATOM      5  C   UNL d   1       3.296  -3.518   0.880  0.00  0.00     0.030 A 
ATOM      6  C   UNL d   1       2.249  -4.169  -1.174  0.00  0.00     0.030 A 
ENDROOT
BRANCH   4   7
ATOM      7  N   UNL d   1       4.024  -5.559  -0.153  0.00  0.00    -0.365 N 
ATOM      8  C   UNL d   1       3.559  -6.697  -0.557  0.00  0.00     0.099 C 
ATOM      9  HN  UNL d   1       4.988  -5.478   0.171  1.00  0.00     0.165 HD
BRANCH   8  10
ATOM     10  C   UNL d   1       4.357  -7.939  -0.498  0.00  0.00    -0.021 A 
ATOM     11  C   UNL d   1       5.603  -7.965   0.135  0.00  0.00     0.014 A 
ATOM     12  C   UNL d   1       6.303  -9.170   0.240  0.00  0.00     0.024 A 
ATOM     13  C   UNL d   1       5.758 -10.338  -0.293  0.00  0.00     0.034 A 
ATOM     14  C   UNL d   1       4.521 -10.312  -0.938  0.00  0.00     0.024 A 
ATOM     15 CL   UNL d   1       6.609 -11.825  -0.144  0.00  0.00    -0.084 Cl
ATOM     16  C   UNL d   1       3.816  -9.110  -1.041  0.00  0.00     0.014 A 
ENDBRANCH   8  10
ENDBRANCH   4   7
BRANCH   1  17
ATOM     17  C   UNL d   1       0.603  -1.002   0.038  0.00  0.00     0.102 A 
ATOM     18  C   UNL d   1      -0.495  -0.565  -0.675  0.00  0.00     0.127 A 
ATOM     19  N   UNL d   1      -0.972   0.611  -0.153  0.00  0.00    -0.354 N 
ATOM     20  C   UNL d   1      -0.157   0.847   0.849  0.00  0.00     0.233 A 
ATOM     21  HN  UNL d   1      -1.767   1.167  -0.467  1.00  0.00     0.166 HD
ATOM     22  O   UNL d   1       0.821  -0.082   1.034  0.00  0.00    -0.304 OA
ENDBRANCH   1  17
TORSDOF 3
