REMARK  2 active torsions:
REMARK  status: ('A' for Active; 'I' for Inactive)
REMARK    1  A    between atoms: C_12  and  N_5 
REMARK    2  A    between atoms: C_14  and  C_12 
ROOT
ATOM      1  C   UNL d   1       1.240  -0.880  -0.040  0.00  0.00     0.140 A 
ATOM      2  C   UNL d   1       0.784   0.545  -0.034  0.00  0.00     0.105 A 
ATOM      3  N   UNL d   1       2.486  -1.175  -0.083  0.00  0.00    -0.316 N 
ATOM      4  HN  UNL d   1       2.796  -2.147  -0.079  1.00  0.00     0.170 HD
ATOM      5  N   UNL d   1       0.111  -1.675   0.007  0.00  0.00    -0.326 N 
ATOM      6  N   UNL d   1       1.590   1.548  -0.028  0.00  0.00    -0.292 N 
ATOM      7  HN  UNL d   1       1.266   2.515  -0.007  1.00  0.00     0.187 HD
ATOM      8  C   UNL d   1       3.398  -0.135  -0.134  0.00  0.00     0.194 A 
ATOM      9  C   UNL d   1      -0.667   0.510  -0.016  0.00  0.00     0.023 A 
ATOM     10  N   UNL d   1       2.939   1.206  -0.054  0.00  0.00    -0.271 N 
ATOM     11  C   UNL d   1      -1.018  -0.859   0.002  0.00  0.00     0.049 A 
ATOM     12  S   UNL d   1       5.035  -0.548  -0.297  0.00  0.00    -0.039 SA
ATOM     13  C   UNL d   1      -1.581   1.545  -0.008  0.00  0.00     0.016 A 
ATOM     14  C   UNL d   1       3.814   2.381  -0.022  0.00  0.00     0.180 C 
ATOM     15  C   UNL d   1      -2.359  -1.194   0.017  0.00  0.00     0.030 A 
ATOM     16  C   UNL d   1      -2.928   1.191   0.014  0.00  0.00     0.001 A 
ATOM     17  C   UNL d   1      -3.312  -0.164   0.024  0.00  0.00     0.002 A 
ENDROOT
BRANCH   5  18
ATOM     18  C   UNL d   1       0.112  -3.122   0.040  0.00  0.00     0.169 C 
BRANCH  18  19
ATOM     19  C   UNL d   1       0.011  -3.714  -1.349  0.00  0.00    -0.040 A 
ATOM     20  C   UNL d   1       1.075  -3.577  -2.259  0.00  0.00     0.012 A 
ATOM     21  C   UNL d   1       0.977  -4.097  -3.550  0.00  0.00     0.043 A 
ATOM     22  C   UNL d   1      -0.178  -4.764  -3.932  0.00  0.00     0.116 A 
ATOM     23  C   UNL d   1      -1.234  -4.933  -3.044  0.00  0.00     0.043 A 
ATOM     24  F   UNL d   1      -0.277  -5.255  -5.174  0.00  0.00    -0.206 F 
ATOM     25  C   UNL d   1      -1.141  -4.410  -1.753  0.00  0.00     0.012 A 
ENDBRANCH  18  19
ENDBRANCH   5  18
TORSDOF 2
