REMARK  4 active torsions:
REMARK  status: ('A' for Active; 'I' for Inactive)
REMARK    1  A    between atoms: C_2  and  C_1 
REMARK    2  A    between atoms: O_14  and  C_2 
REMARK    3  A    between atoms: C_6  and  C_15 
REMARK    4  A    between atoms: C_19  and  O_14 
ROOT
ATOM      1  C   UNL d   1      -4.987   1.623   0.385  0.00  0.00    -0.008 A 
ATOM      2  C   UNL d   1      -4.012   1.451   1.381  0.00  0.00     0.016 A 
ATOM      3  C   UNL d   1      -4.711   2.475  -0.693  0.00  0.00     0.016 A 
ATOM      4  C   UNL d   1      -2.481   2.845   0.156  0.00  0.00     0.079 A 
ATOM      5  C   UNL d   1      -3.458   3.078  -0.813  0.00  0.00     0.038 A 
ATOM      6  C   UNL d   1      -2.754   2.057   1.268  0.00  0.00     0.038 A 
ENDROOT
BRANCH   4   7
ATOM      7  O   UNL d   1      -1.199   3.351  -0.164  0.00  0.00    -0.275 OA
BRANCH   7   8
ATOM      8  C   UNL d   1      -0.081   3.462   0.673  0.00  0.00     0.303 C 
ATOM      9  O   UNL d   1      -0.108   3.351   1.890  0.00  0.00    -0.259 OA
BRANCH   8  10
ATOM     10  C   UNL d   1       1.128   3.726  -0.087  0.00  0.00     0.095 A 
ATOM     11  C   UNL d   1       1.287   3.680  -1.459  0.00  0.00     0.090 A 
ATOM     12  O   UNL d   1       2.571   3.983  -1.779  0.00  0.00    -0.242 OA
ATOM     13  C   UNL d   1       0.407   3.362  -2.604  0.00  0.00     0.080 C 
ATOM     14  N   UNL d   1       3.289   4.225  -0.630  0.00  0.00    -0.265 N 
ATOM     15  C   UNL d   1       2.430   4.057   0.383  0.00  0.00     0.047 A 
ATOM     16  HN  UNL d   1       4.275   4.480  -0.563  1.00  0.00     0.194 HD
ATOM     17  C   UNL d   1       2.913   4.243   1.773  0.00  0.00     0.071 C 
ENDBRANCH   8  10
ENDBRANCH   7   8
ENDBRANCH   4   7
BRANCH   1  18
ATOM     18  C   UNL d   1      -6.248   0.893   0.407  0.00  0.00     0.063 A 
ATOM     19  N   UNL d   1      -7.408   1.428  -0.143  0.00  0.00    -0.292 N 
ATOM     20  N   UNL d   1      -8.420   0.577  -0.089  0.00  0.00    -0.061 NA
ATOM     21  HN  UNL d   1      -7.472   2.366  -0.539  1.00  0.00     0.183 HD
ATOM     22  S   UNL d   1      -8.000  -0.889   0.597  0.00  0.00    -0.010 SA
ATOM     23  C   UNL d   1      -6.378  -0.405   0.874  0.00  0.00     0.096 A 
ENDBRANCH   1  18
TORSDOF 4
