REMARK  5 active torsions:
REMARK  status: ('A' for Active; 'I' for Inactive)
REMARK    1  A    between atoms: C_14  and  C_3 
REMARK    2  A    between atoms: C_17  and  C_7 
REMARK    3  A    between atoms: C_10  and  N_16 
REMARK    4  A    between atoms: N_18  and  C_10 
REMARK    5  A    between atoms: N_16  and  N_12 
ROOT
ATOM      1  C   UNL d   1       1.876   5.925  -0.847  0.00  0.00    -0.018 C 
ATOM      2  C   UNL d   1       1.069   5.861   0.369  0.00  0.00    -0.008 C 
ATOM      3  C   UNL d   1       0.142   4.914   0.122  0.00  0.00    -0.007 C 
ATOM      4  C   UNL d   1       3.153   6.343  -0.917  0.00  0.00     0.020 C 
ATOM      5  C   UNL d   1       1.144   5.238  -1.905  0.00  0.00    -0.050 C 
ATOM      6  C   UNL d   1       0.168   4.544  -1.289  0.00  0.00     0.021 C 
ATOM      7  C   UNL d   1       4.009   6.721   0.213  0.00  0.00    -0.054 C 
ATOM      8  C   UNL d   1       1.089   6.831   1.452  0.00  0.00    -0.050 C 
ATOM      9  C   UNL d   1       3.561   7.206   1.390  0.00  0.00     0.008 C 
ATOM     10  C   UNL d   1       2.211   7.465   1.829  0.00  0.00     0.008 C 
ATOM     11  C   UNL d   1       1.417   5.347  -3.360  0.00  0.00     0.049 C 
ATOM     12  C   UNL d   1      -0.248   7.307   1.963  0.00  0.00     0.049 C 
ENDROOT
BRANCH   3  13
ATOM     13  C   UNL d   1      -0.710   4.274   1.143  0.00  0.00     0.119 C 
ATOM     14  N   UNL d   1      -1.984   4.062   1.173  0.00  0.00    -0.309 N 
ATOM     15  HN  UNL d   1      -2.407   3.475   1.891  1.00  0.00     0.186 HD
BRANCH  14  16
ATOM     16  N   UNL d   1      -2.744   4.656   0.206  0.00  0.00    -0.277 N 
ATOM     17  H   UNL d   1      -2.378   5.456  -0.302  0.00  0.00     0.189 HD
BRANCH  16  18
ATOM     18  C   UNL d   1      -4.084   4.395   0.127  0.00  0.00     0.184 C 
ATOM     19  S   UNL d   1      -5.115   5.308  -0.796  0.00  0.00    -0.040 SA
BRANCH  18  20
ATOM     20  N   UNL d   1      -4.511   3.326   0.842  0.00  0.00    -0.375 N 
ATOM     21  H   UNL d   1      -3.821   2.846   1.408  0.00  0.00     0.158 HD
ATOM     22  H   UNL d   1      -5.482   3.055   0.869  0.00  0.00     0.158 HD
ENDBRANCH  18  20
ENDBRANCH  16  18
ENDBRANCH  14  16
ENDBRANCH   3  13
BRANCH   7  23
ATOM     23  C   UNL d   1       5.531   6.519   0.088  0.00  0.00     0.010 C 
ATOM     24  C   UNL d   1       5.976   5.243   0.820  0.00  0.00     0.015 C 
ATOM     25  C   UNL d   1       6.118   6.523  -1.328  0.00  0.00     0.015 C 
ENDBRANCH   7  23
TORSDOF 5
