REMARK  3 active torsions:
REMARK  status: ('A' for Active; 'I' for Inactive)
REMARK    1  A    between atoms: C_9  and  C_3 
REMARK    2  A    between atoms: C_8  and  C_7 
REMARK    3  A    between atoms: N_12  and  C_11 
ROOT
ATOM      1  N   UNL d   1      -0.756   0.039   0.008  0.00  0.00    -0.331 N 
ATOM      2  HN  UNL d   1      -1.741  -0.217   0.061  1.00  0.00     0.168 HD
ATOM      3  C   UNL d   1      -0.233   1.219  -0.043  0.00  0.00     0.162 A 
ATOM      4  O   UNL d   1       1.118   1.306  -0.118  0.00  0.00    -0.256 OA
ATOM      5  C   UNL d   1       1.586   0.023  -0.110  0.00  0.00     0.316 A 
ATOM      6  C   UNL d   1       0.341  -0.783  -0.027  0.00  0.00     0.110 A 
ATOM      7  C   UNL d   1       0.311  -2.122   0.005  0.00  0.00     0.037 C 
ATOM      8  O   UNL d   1       2.743  -0.343  -0.160  0.00  0.00    -0.257 OA
ENDROOT
BRANCH   3   9
ATOM      9  C   UNL d   1      -0.979   2.486  -0.008  0.00  0.00     0.015 A 
ATOM     10  C   UNL d   1      -2.375   2.437   0.109  0.00  0.00     0.016 A 
ATOM     11  C   UNL d   1      -3.114   3.618   0.189  0.00  0.00     0.001 A 
ATOM     12  C   UNL d   1      -2.462   4.848   0.149  0.00  0.00     0.000 A 
ATOM     13  C   UNL d   1      -1.073   4.901   0.017  0.00  0.00     0.001 A 
ATOM     14  C   UNL d   1      -0.328   3.722  -0.063  0.00  0.00     0.016 A 
ENDBRANCH   3   9
BRANCH   7  15
ATOM     15  C   UNL d   1      -0.947  -2.838   0.067  0.00  0.00     0.019 C 
ATOM     16  C   UNL d   1      -1.094  -4.168   0.068  0.00  0.00     0.084 C 
BRANCH  16  17
ATOM     17  N   UNL d   1      -2.272  -4.901   0.103  0.00  0.00    -0.398 N 
ATOM     18  C   UNL d   1      -3.614  -4.313   0.105  0.00  0.00     0.148 C 
ATOM     19  C   UNL d   1      -2.272  -6.363   0.089  0.00  0.00     0.148 C 
ENDBRANCH  16  17
ENDBRANCH   7  15
TORSDOF 3
