REMARK  9 active torsions:
REMARK  status: ('A' for Active; 'I' for Inactive)
REMARK    1  A    between atoms: C_2  and  C_1 
REMARK    2  A    between atoms: C_19  and  N_3 
REMARK    3  A    between atoms: N_21  and  C_4 
REMARK    4  A    between atoms: S_23  and  C_10 
REMARK    5  A    between atoms: C_18  and  C_11 
REMARK    6  A    between atoms: C_25  and  C_16 
REMARK    7  A    between atoms: C_29  and  C_19 
REMARK    8  A    between atoms: C_30  and  S_23 
REMARK    9  A    between atoms: C_27  and  C_30 
ROOT
ATOM      1  C   UNL d   1       2.505   0.065  -0.273  0.00  0.00     0.150 A 
ATOM      2  C   UNL d   1       1.733   1.210  -0.413  0.00  0.00     0.079 A 
ATOM      3  C   UNL d   1       0.363   0.833  -0.365  0.00  0.00     0.058 A 
ATOM      4  C   UNL d   1       0.381  -0.561  -0.328  0.00  0.00     0.162 A 
ATOM      5  O   UNL d   1       1.667  -1.021  -0.278  0.00  0.00    -0.287 OA
ATOM      6  C   UNL d   1      -0.904   1.452  -0.336  0.00  0.00     0.017 A 
ATOM      7  N   UNL d   1      -0.679  -1.394  -0.306  0.00  0.00    -0.335 N 
ATOM      8  HN  UNL d   1      -0.581  -2.409  -0.286  1.00  0.00     0.168 HD
ATOM      9  C   UNL d   1      -1.883  -0.774  -0.311  0.00  0.00     0.045 A 
ATOM     10  C   UNL d   1      -2.027   0.614  -0.315  0.00  0.00     0.045 A 
ENDROOT
BRANCH   1  11
ATOM     11  C   UNL d   1       3.920  -0.004  -0.046  0.00  0.00     0.161 A 
ATOM     12  N   UNL d   1       4.797  -1.017  -0.363  0.00  0.00    -0.305 N 
ATOM     13  C   UNL d   1       5.986  -0.657   0.222  0.00  0.00     0.163 A 
ATOM     14  N   UNL d   1       5.874   0.529   0.771  0.00  0.00    -0.278 N 
ATOM     15  N   UNL d   1       4.585   0.949   0.588  0.00  0.00    -0.281 N 
ATOM     16  HN  UNL d   1       6.614   1.044   1.248  1.00  0.00     0.189 HD
ATOM     17  HN  UNL d   1       4.201   1.845   0.888  1.00  0.00     0.188 HD
BRANCH  12  18
ATOM     18  C   UNL d   1       4.507  -2.225  -1.111  0.00  0.00     0.171 C 
BRANCH  18  19
ATOM     19  C   UNL d   1       4.123  -1.961  -2.549  0.00  0.00    -0.040 A 
ATOM     20  C   UNL d   1       4.952  -1.226  -3.412  0.00  0.00     0.009 A 
ATOM     21  C   UNL d   1       4.585  -1.033  -4.748  0.00  0.00     0.001 A 
ATOM     22  C   UNL d   1       3.402  -1.579  -5.236  0.00  0.00     0.000 A 
ATOM     23  C   UNL d   1       2.578  -2.321  -4.391  0.00  0.00     0.001 A 
ATOM     24  C   UNL d   1       2.939  -2.513  -3.058  0.00  0.00     0.009 A 
ENDBRANCH  18  19
ENDBRANCH  12  18
BRANCH  13  25
ATOM     25  S   UNL d   1       7.419  -1.626   0.240  0.00  0.00    -0.089 SA
BRANCH  25  26
ATOM     26  C   UNL d   1       8.150  -1.090   1.819  0.00  0.00     0.108 C 
BRANCH  26  27
ATOM     27  C   UNL d   1       9.466  -1.790   2.023  0.00  0.00    -0.026 C 
ATOM     28  C   UNL d   1      10.633  -1.163   2.224  0.00  0.00     0.007 C 
ENDBRANCH  26  27
ENDBRANCH  25  26
ENDBRANCH  13  25
ENDBRANCH   1  11
BRANCH   2  29
ATOM     29  N   UNL d   1       2.218   2.468  -0.529  0.00  0.00    -0.396 N 
ATOM     30  H   UNL d   1       3.187   2.650  -0.261  0.00  0.00     0.156 HD
ATOM     31  H   UNL d   1       1.604   3.256  -0.324  0.00  0.00     0.156 HD
ENDBRANCH   2  29
BRANCH   6  32
ATOM     32  C   UNL d   1      -1.073   2.895  -0.263  0.00  0.00     0.086 A 
ATOM     33  O   UNL d   1      -0.133   3.598   0.437  0.00  0.00    -0.322 OA
ATOM     34  C   UNL d   1      -0.527   4.897   0.463  0.00  0.00     0.142 A 
ATOM     35  C   UNL d   1      -1.716   5.050  -0.207  0.00  0.00     0.027 A 
ATOM     36  C   UNL d   1      -2.070   3.761  -0.675  0.00  0.00     0.040 A 
ENDBRANCH   6  32
BRANCH   9  37
ATOM     37  C   UNL d   1      -3.074  -1.658  -0.273  0.00  0.00    -0.009 A 
ATOM     38  C   UNL d   1      -3.058  -2.866   0.447  0.00  0.00     0.013 A 
ATOM     39  C   UNL d   1      -4.189  -3.689   0.513  0.00  0.00     0.001 A 
ATOM     40  C   UNL d   1      -5.360  -3.326  -0.146  0.00  0.00     0.000 A 
ATOM     41  C   UNL d   1      -5.402  -2.142  -0.874  0.00  0.00     0.001 A 
ATOM     42  C   UNL d   1      -4.271  -1.320  -0.938  0.00  0.00     0.013 A 
ENDBRANCH   9  37
TORSDOF 9
