REMARK  5 active torsions:
REMARK  status: ('A' for Active; 'I' for Inactive)
REMARK    1  A    between atoms: C_2  and  S_1 
REMARK    2  A    between atoms: N_9  and  S_1 
REMARK    3  A    between atoms: C_7  and  O_10 
REMARK    4  A    between atoms: C_17  and  N_9 
REMARK    5  A    between atoms: O_10  and  C_15 
ROOT
ATOM      1  N   UNL d   1      -0.101  -4.365  -2.221  0.00  0.00    -0.345 N 
ATOM      2  HN  UNL d   1      -0.824  -5.024  -2.510  1.00  0.00     0.167 HD
ATOM      3  C   UNL d   1       1.106  -4.312  -2.834  0.00  0.00     0.148 A 
ATOM      4  C   UNL d   1       0.670  -2.599  -0.752  0.00  0.00     0.038 A 
ATOM      5  C   UNL d   1      -0.294  -3.493  -1.203  0.00  0.00     0.114 A 
ATOM      6  C   UNL d   1       2.146  -3.491  -2.423  0.00  0.00     0.058 A 
ATOM      7  C   UNL d   1       1.916  -2.611  -1.369  0.00  0.00     0.030 A 
ENDROOT
BRANCH   4   8
ATOM      8  N   UNL d   1       0.376  -1.631   0.256  0.00  0.00    -0.180 NA
ATOM      9  H   UNL d   1      -0.303  -1.913   0.963  0.00  0.00     0.146 HD
BRANCH   8  10
ATOM     10  S   UNL d   1       0.061  -0.048  -0.265  0.00  0.00     0.248 S 
ATOM     11  O   UNL d   1      -0.293   0.705   0.918  0.00  0.00    -0.205 OA
ATOM     12  O   UNL d   1       1.095   0.391  -1.176  0.00  0.00    -0.205 OA
BRANCH  10  13
ATOM     13  C   UNL d   1      -1.379  -0.042  -1.193  0.00  0.00     0.108 A 
ATOM     14  C   UNL d   1      -1.535  -0.098  -2.562  0.00  0.00     0.135 A 
ATOM     15  N   UNL d   1      -2.878  -0.019  -2.784  0.00  0.00    -0.307 N 
ATOM     16  C   UNL d   1      -3.551   0.056  -4.058  0.00  0.00     0.177 C 
ATOM     17  N   UNL d   1      -3.606   0.032  -1.648  0.00  0.00    -0.309 N 
ATOM     18  C   UNL d   1      -2.683   0.050  -0.681  0.00  0.00     0.133 A 
ATOM     19  HN  UNL d   1      -4.621   0.052  -1.550  1.00  0.00     0.186 HD
ENDBRANCH  10  13
ENDBRANCH   8  10
ENDBRANCH   4   8
BRANCH   3  20
ATOM     20  O   UNL d   1       1.331  -5.047  -3.993  0.00  0.00    -0.290 OA
BRANCH  20  21
ATOM     21  C   UNL d   1       0.222  -5.464  -4.697  0.00  0.00     0.121 A 
ATOM     22  C   UNL d   1      -0.751  -4.583  -5.200  0.00  0.00     0.069 A 
ATOM     23 CL   UNL d   1      -0.623  -2.861  -5.072  0.00  0.00    -0.081 Cl
ATOM     24  C   UNL d   1      -1.853  -5.079  -5.905  0.00  0.00     0.027 A 
ATOM     25  C   UNL d   1      -1.962  -6.442  -6.173  0.00  0.00     0.003 A 
ATOM     26  C   UNL d   1      -0.964  -7.314  -5.743  0.00  0.00     0.027 A 
ATOM     27  C   UNL d   1       0.122  -6.827  -5.007  0.00  0.00     0.069 A 
ATOM     28 CL   UNL d   1       1.342  -7.953  -4.524  0.00  0.00    -0.081 Cl
ENDBRANCH  20  21
ENDBRANCH   3  20
TORSDOF 5
