REMARK  2 active torsions:
REMARK  status: ('A' for Active; 'I' for Inactive)
REMARK    1  A    between atoms: C_10  and  C_4 
REMARK    2  A    between atoms: C_8  and  C_7 
ROOT
ATOM      1  N   UNL d   1       1.478   0.376   0.010  0.00  0.00    -0.337 N 
ATOM      2  HN  UNL d   1       2.304   0.975   0.027  1.00  0.00     0.167 HD
ATOM      3  N   UNL d   1       0.192  -1.462  -0.026  0.00  0.00    -0.307 N 
ATOM      4  C   UNL d   1       1.436  -0.922  -0.042  0.00  0.00     0.119 A 
ATOM      5  C   UNL d   1       0.148   0.762   0.036  0.00  0.00     0.103 A 
ATOM      6  C   UNL d   1      -0.717  -0.458   0.019  0.00  0.00     0.273 A 
ATOM      7  C   UNL d   1      -0.253   2.038   0.058  0.00  0.00     0.054 C 
ATOM      8  O   UNL d   1      -1.928  -0.570   0.014  0.00  0.00    -0.266 OA
ATOM      9  H   UNL d   1      -0.073  -2.432  -0.032  0.00  0.00     0.170 HD
ENDROOT
BRANCH   4  10
ATOM     10  C   UNL d   1       2.607  -1.805  -0.129  0.00  0.00     0.008 A 
ATOM     11  C   UNL d   1       2.519  -3.029  -0.804  0.00  0.00     0.015 A 
ATOM     12  C   UNL d   1       3.650  -3.833  -0.934  0.00  0.00     0.001 A 
ATOM     13  C   UNL d   1       4.864  -3.422  -0.388  0.00  0.00     0.000 A 
ATOM     14  C   UNL d   1       4.952  -2.207   0.294  0.00  0.00     0.001 A 
ATOM     15  C   UNL d   1       3.825  -1.393   0.420  0.00  0.00     0.015 A 
ENDBRANCH   4  10
BRANCH   7  16
ATOM     16  C   UNL d   1      -1.614   2.427   0.117  0.00  0.00     0.007 A 
ATOM     17  S   UNL d   1      -2.343   2.754   1.640  0.00  0.00    -0.102 SA
ATOM     18  C   UNL d   1      -3.832   3.174   0.916  0.00  0.00     0.050 A 
ATOM     19  C   UNL d   1      -3.788   3.072  -0.455  0.00  0.00     0.008 A 
ATOM     20  C   UNL d   1      -2.510   2.637  -0.915  0.00  0.00     0.019 A 
ENDBRANCH   7  16
TORSDOF 2
