REMARK  3 active torsions:
REMARK  status: ('A' for Active; 'I' for Inactive)
REMARK    1  A    between atoms: C_2  and  S_1 
REMARK    2  A    between atoms: C_8  and  S_1 
REMARK    3  A    between atoms: C_4  and  C_3 
ROOT
ATOM      1  C   UNL d   1       0.401   0.754  -1.423  0.00  0.00     0.142 C 
ATOM      2  C   UNL d   1      -0.342  -0.003  -2.276  0.00  0.00     0.072 C 
ATOM      3  C   UNL d   1       0.949   0.246  -0.176  0.00  0.00     0.111 C 
ATOM      4  N   UNL d   1       1.327  -0.210   0.817  0.00  0.00    -0.191 NA
ENDROOT
BRANCH   1   5
ATOM      5  S   UNL d   1       0.846   2.396  -1.918  0.00  0.00     0.193 S 
ATOM      6  O   UNL d   1       0.796   2.500  -3.362  0.00  0.00    -0.221 OA
ATOM      7  O   UNL d   1       2.091   2.733  -1.239  0.00  0.00    -0.221 OA
BRANCH   5   8
ATOM      8  C   UNL d   1      -0.427   3.546  -1.254  0.00  0.00     0.058 C 
ATOM      9  C   UNL d   1      -0.494   3.417   0.269  0.00  0.00     0.031 C 
ATOM     10  C   UNL d   1      -0.026   5.021  -1.551  0.00  0.00     0.031 C 
ATOM     11  C   UNL d   1      -1.821   3.231  -1.820  0.00  0.00     0.031 C 
ENDBRANCH   5   8
ENDBRANCH   1   5
BRANCH   2  12
ATOM     12  C   UNL d   1      -0.724  -1.334  -1.940  0.00  0.00     0.079 A 
ATOM     13  O   UNL d   1      -0.904  -1.767  -0.646  0.00  0.00    -0.310 OA
ATOM     14  C   UNL d   1      -1.234  -3.082  -0.661  0.00  0.00     0.086 A 
ATOM     15  C   UNL d   1      -1.467  -3.874   0.461  0.00  0.00     0.038 A 
ATOM     16  C   UNL d   1      -1.308  -3.535  -1.967  0.00  0.00     0.000 A 
ATOM     17  C   UNL d   1      -1.795  -5.212   0.219  0.00  0.00     0.003 A 
ATOM     18  C   UNL d   1      -1.880  -5.709  -1.085  0.00  0.00     0.001 A 
ATOM     19  C   UNL d   1      -1.640  -4.882  -2.192  0.00  0.00     0.014 A 
ATOM     20  C   UNL d   1      -0.997  -2.410  -2.777  0.00  0.00     0.051 A 
ENDBRANCH   2  12
TORSDOF 3
