REMARK  4 active torsions:
REMARK  status: ('A' for Active; 'I' for Inactive)
REMARK    1  A    between atoms: C_2  and  C_1 
REMARK       I    between atoms: N_3  and  C_1 
REMARK    2  A    between atoms: C_4  and  N_3 
REMARK    3  A    between atoms: O_10  and  C_7 
REMARK    4  A    between atoms: O_11  and  C_8 
ROOT
ATOM      1  C   UNL d   1       0.916  -0.410  -0.620  0.00  0.00     0.261 C 
ATOM      2  N   UNL d   1       0.617   0.938  -0.755  0.00  0.00    -0.322 N 
ATOM      3  O   UNL d   1       1.582  -1.093  -1.396  0.00  0.00    -0.267 OA
ATOM      4  H   UNL d   1       0.201   1.393   0.044  0.00  0.00     0.169 HD
ENDROOT
BRANCH   1   5
ATOM      5  C   UNL d   1       0.372  -1.089   0.581  0.00  0.00     0.098 A 
ATOM      6  C   UNL d   1      -1.020  -1.257   0.702  0.00  0.00     0.086 A 
ATOM      7  C   UNL d   1      -1.517  -2.099   1.702  0.00  0.00     0.038 A 
ATOM      8  C   UNL d   1      -0.643  -2.773   2.557  0.00  0.00     0.005 A 
ATOM      9  C   UNL d   1       0.735  -2.587   2.447  0.00  0.00     0.038 A 
ATOM     10  C   UNL d   1       1.256  -1.748   1.457  0.00  0.00     0.086 A 
BRANCH   6  11
ATOM     11  O   UNL d   1      -1.818  -0.563  -0.169  0.00  0.00    -0.355 OA
ATOM     12  C   UNL d   1      -3.125  -1.079  -0.393  0.00  0.00     0.210 C 
ENDBRANCH   6  11
BRANCH  10  13
ATOM     13  O   UNL d   1       2.594  -1.478   1.328  0.00  0.00    -0.355 OA
ATOM     14  C   UNL d   1       3.491  -2.481   1.790  0.00  0.00     0.210 C 
ENDBRANCH  10  13
ENDBRANCH   1   5
BRANCH   2  15
ATOM     15  C   UNL d   1       0.834   1.715  -1.923  0.00  0.00     0.041 A 
ATOM     16  C   UNL d   1       0.884   3.131  -1.867  0.00  0.00    -0.029 A 
ATOM     17  C   UNL d   1       1.042   3.867  -3.074  0.00  0.00    -0.054 A 
ATOM     18  C   UNL d   1       0.836   3.886  -0.560  0.00  0.00     0.051 C 
ATOM     19  C   UNL d   1       1.162   5.370  -3.127  0.00  0.00     0.049 C 
ATOM     20  C   UNL d   1       1.155   3.189  -4.299  0.00  0.00     0.007 A 
ATOM     21  C   UNL d   1       1.105   1.805  -4.347  0.00  0.00     0.003 A 
ATOM     22  C   UNL d   1       0.946   1.080  -3.170  0.00  0.00     0.030 A 
ENDBRANCH   2  15
TORSDOF 4
