REMARK  3 active torsions:
REMARK  status: ('A' for Active; 'I' for Inactive)
REMARK    1  A    between atoms: N_12  and  C_2 
REMARK    2  A    between atoms: C_11  and  C_6 
REMARK    3  A    between atoms: O_20  and  C_17 
ROOT
ATOM      1  C   UNL d   1       2.596   0.157   0.020  0.00  0.00     0.080 C 
ATOM      2  C   UNL d   1       1.985  -1.039   0.116  0.00  0.00     0.138 C 
ATOM      3  C   UNL d   1      -0.206  -0.067   0.005  0.00  0.00     0.095 A 
ATOM      4  O   UNL d   1       0.612  -1.176  -0.034  0.00  0.00    -0.296 OA
ATOM      5  C   UNL d   1       0.322   1.227  -0.020  0.00  0.00    -0.009 A 
ATOM      6  C   UNL d   1       1.809   1.422  -0.232  0.00  0.00     0.102 C 
ATOM      7  C   UNL d   1       4.008   0.277   0.168  0.00  0.00     0.100 C 
ATOM      8  C   UNL d   1      -1.600  -0.288   0.037  0.00  0.00     0.009 A 
ATOM      9  N   UNL d   1       5.159   0.374   0.274  0.00  0.00    -0.191 NA
ATOM     10  C   UNL d   1      -0.546   2.323   0.065  0.00  0.00     0.012 A 
ATOM     11  C   UNL d   1      -2.466   0.830   0.087  0.00  0.00    -0.023 A 
ATOM     12  C   UNL d   1      -1.925   2.124   0.122  0.00  0.00     0.013 A 
ATOM     13  C   UNL d   1      -2.166  -1.579   0.000  0.00  0.00     0.015 A 
ATOM     14  C   UNL d   1      -3.856   0.628   0.088  0.00  0.00     0.012 A 
ATOM     15  C   UNL d   1      -3.549  -1.762  -0.008  0.00  0.00     0.001 A 
ATOM     16  C   UNL d   1      -4.393  -0.659   0.034  0.00  0.00     0.001 A 
ENDROOT
BRANCH   2  17
ATOM     17  N   UNL d   1       2.614  -2.245   0.332  0.00  0.00    -0.282 NA
ATOM     18  H   UNL d   1       3.587  -2.292   0.043  0.00  0.00     0.126 HD
ATOM     19  H   UNL d   1       2.058  -3.029  -0.001  0.00  0.00     0.126 HD
ENDBRANCH   2  17
BRANCH   6  20
ATOM     20  C   UNL d   1       2.093   1.983  -1.626  0.00  0.00    -0.044 A 
ATOM     21  C   UNL d   1       2.733   3.221  -1.767  0.00  0.00     0.011 A 
ATOM     22  C   UNL d   1       2.994   3.747  -3.036  0.00  0.00     0.037 A 
ATOM     23  C   UNL d   1       2.617   3.048  -4.183  0.00  0.00     0.068 A 
ATOM     24  C   UNL d   1       1.985   1.811  -4.050  0.00  0.00     0.037 A 
ATOM     25  C   UNL d   1       1.723   1.281  -2.786  0.00  0.00     0.011 A 
BRANCH  23  26
ATOM     26  O   UNL d   1       2.804   3.467  -5.472  0.00  0.00    -0.356 OA
ATOM     27  C   UNL d   1       3.442   4.727  -5.639  0.00  0.00     0.210 C 
ENDBRANCH  23  26
ENDBRANCH   6  20
TORSDOF 3
