REMARK  4 active torsions:
REMARK  status: ('A' for Active; 'I' for Inactive)
REMARK    1  A    between atoms: C_7  and  C_1 
REMARK    2  A    between atoms: C_8  and  C_3 
REMARK       I    between atoms: N_10  and  C_7 
REMARK    3  A    between atoms: N_9  and  C_13 
REMARK    4  A    between atoms: C_19  and  N_10 
ROOT
ATOM      1  C   UNL d   1      -1.580  -2.959  -0.229  0.00  0.00     0.097 A 
ATOM      2  S   UNL d   1      -1.889  -4.561  -0.733  0.00  0.00    -0.064 SA
ATOM      3  C   UNL d   1      -3.578  -4.208  -0.831  0.00  0.00     0.085 A 
ATOM      4  N   UNL d   1      -3.911  -2.999  -0.427  0.00  0.00    -0.352 N 
ATOM      5  HN  UNL d   1      -4.863  -2.634  -0.405  1.00  0.00     0.166 HD
ATOM      6  C   UNL d   1      -2.784  -2.293  -0.038  0.00  0.00     0.029 A 
ATOM      7  C   UNL d   1      -2.966  -0.921   0.520  0.00  0.00     0.070 C 
ENDROOT
BRANCH   1   8
ATOM      8  C   UNL d   1      -0.249  -2.411  -0.032  0.00  0.00     0.265 C 
ATOM      9  N   UNL d   1       0.829  -3.285  -0.147  0.00  0.00    -0.322 N 
ATOM     10  H   UNL d   1       0.630  -4.223  -0.467  0.00  0.00     0.169 HD
ATOM     11  O   UNL d   1      -0.117  -1.210   0.202  0.00  0.00    -0.267 OA
BRANCH   9  12
ATOM     12  C   UNL d   1       2.172  -2.979   0.179  0.00  0.00     0.035 A 
ATOM     13  C   UNL d   1       2.541  -1.813   0.844  0.00  0.00     0.032 A 
ATOM     14  C   UNL d   1       3.860  -1.601   1.253  0.00  0.00     0.031 A 
ATOM     15  C   UNL d   1       4.870  -2.538   1.028  0.00  0.00     0.030 A 
ATOM     16  C   UNL d   1       4.509  -3.669   0.283  0.00  0.00     0.031 A 
ATOM     17  C   UNL d   1       3.178  -3.898  -0.125  0.00  0.00     0.032 A 
BRANCH  15  18
ATOM     18  N   UNL d   1       6.136  -2.336   1.536  0.00  0.00    -0.381 N 
ATOM     19  C   UNL d   1       7.350  -2.838   0.901  0.00  0.00     0.123 C 
ATOM     20  C   UNL d   1       8.318  -1.665   0.712  0.00  0.00     0.020 C 
ATOM     21  C   UNL d   1       8.565  -0.906   2.018  0.00  0.00     0.003 C 
ATOM     22  C   UNL d   1       7.252  -0.499   2.687  0.00  0.00     0.020 C 
ATOM     23  C   UNL d   1       6.328  -1.702   2.846  0.00  0.00     0.123 C 
ENDBRANCH  15  18
ENDBRANCH   9  12
ENDBRANCH   1   8
BRANCH   3  24
ATOM     24  C   UNL d   1      -4.522  -5.192  -1.381  0.00  0.00     0.000 A 
ATOM     25  C   UNL d   1      -4.408  -6.559  -1.092  0.00  0.00     0.051 A 
ATOM     26  C   UNL d   1      -5.317  -7.429  -1.661  0.00  0.00     0.076 A 
ATOM     27  O   UNL d   1      -5.294  -8.786  -1.470  0.00  0.00    -0.350 OA
ATOM     28  C   UNL d   1      -6.324  -6.997  -2.508  0.00  0.00    -0.023 A 
ATOM     29  C   UNL d   1      -6.562  -9.221  -2.012  0.00  0.00     0.180 C 
ATOM     30  C   UNL d   1      -7.061  -8.180  -3.016  0.00  0.00     0.068 C 
ATOM     31  C   UNL d   1      -6.471  -5.660  -2.808  0.00  0.00     0.011 A 
ATOM     32  C   UNL d   1      -5.572  -4.754  -2.226  0.00  0.00     0.015 A 
ENDBRANCH   3  24
TORSDOF 4
