REMARK  4 active torsions:
REMARK  status: ('A' for Active; 'I' for Inactive)
REMARK    1  A    between atoms: C_9  and  N_1 
REMARK       I    between atoms: C_7  and  N_10 
REMARK       I    between atoms: N_11  and  C_7 
REMARK    2  A    between atoms: C_8  and  C_9 
REMARK       I    between atoms: N_12  and  C_8 
REMARK    3  A    between atoms: N_10  and  N_12 
REMARK    4  A    between atoms: C_15  and  N_11 
ROOT
ATOM      1  C   UNL d   1       1.373  -2.720   2.154  0.00  0.00     0.254 C 
ATOM      2  N   UNL d   1       2.355  -1.772   2.352  0.00  0.00    -0.265 N 
ATOM      3  O   UNL d   1       1.487  -3.866   2.604  0.00  0.00    -0.270 OA
ATOM      4  H   UNL d   1       2.383  -0.913   1.801  0.00  0.00     0.190 HD
ENDROOT
BRANCH   1   5
ATOM      5  C   UNL d   1       0.075  -2.290   1.459  0.00  0.00     0.234 C 
BRANCH   5   6
ATOM      6  N   UNL d   1       0.151  -1.083   0.614  0.00  0.00    -0.336 N 
ATOM      7  C   UNL d   1       1.115  -0.975  -0.416  0.00  0.00     0.052 A 
ATOM      8  C   UNL d   1       1.466   0.307  -0.905  0.00  0.00     0.032 A 
ATOM      9  C   UNL d   1       1.710  -2.093  -1.019  0.00  0.00     0.031 A 
ATOM     10  C   UNL d   1       2.410   0.454  -1.926  0.00  0.00     0.021 A 
ATOM     11  S   UNL d   1       0.691   1.782  -0.240  0.00  0.00    -0.086 SA
ATOM     12  C   UNL d   1       2.987  -0.673  -2.507  0.00  0.00     0.002 A 
ATOM     13  C   UNL d   1       2.629  -1.943  -2.063  0.00  0.00     0.002 A 
ATOM     14  C   UNL d   1      -0.911   1.080   0.150  0.00  0.00     0.032 A 
ATOM     15  C   UNL d   1      -1.020  -0.274   0.544  0.00  0.00     0.052 A 
ATOM     16  C   UNL d   1      -2.050   1.886   0.019  0.00  0.00     0.021 A 
ATOM     17  C   UNL d   1      -2.313  -0.790   0.752  0.00  0.00     0.031 A 
ATOM     18  C   UNL d   1      -3.449   0.010   0.588  0.00  0.00     0.002 A 
ATOM     19  C   UNL d   1      -3.317   1.348   0.233  0.00  0.00     0.002 A 
ENDBRANCH   5   6
ENDBRANCH   1   5
BRANCH   2  20
ATOM     20  N   UNL d   1       3.597  -2.259   2.813  0.00  0.00    -0.249 N 
ATOM     21  C   UNL d   1       4.755  -1.528   2.604  0.00  0.00     0.339 C 
ATOM     22  N   UNL d   1       5.860  -2.232   3.046  0.00  0.00    -0.308 N 
ATOM     23  O   UNL d   1       4.748  -0.433   2.050  0.00  0.00    -0.245 OA
ATOM     24  H   UNL d   1       5.706  -3.224   3.169  0.00  0.00     0.170 HD
ATOM     25  H   UNL d   1       3.542  -2.917   3.583  0.00  0.00     0.192 HD
BRANCH  22  26
ATOM     26  C   UNL d   1       7.199  -1.795   3.085  0.00  0.00     0.036 A 
ATOM     27  C   UNL d   1       7.572  -0.456   2.995  0.00  0.00     0.030 A 
ATOM     28  C   UNL d   1       8.923  -0.091   3.064  0.00  0.00     0.009 A 
ATOM     29  C   UNL d   1       9.920  -1.059   3.220  0.00  0.00    -0.062 A 
ATOM     30  C   UNL d   1       9.545  -2.402   3.312  0.00  0.00     0.009 A 
ATOM     31  C   UNL d   1      11.361  -0.649   3.291  0.00  0.00     0.048 C 
ATOM     32  C   UNL d   1       8.195  -2.765   3.257  0.00  0.00     0.030 A 
ENDBRANCH  22  26
ENDBRANCH   2  20
TORSDOF 4
