REMARK  5 active torsions:
REMARK  status: ('A' for Active; 'I' for Inactive)
REMARK       I    between atoms: N_2  and  C_1 
REMARK    1  A    between atoms: C_4  and  C_1 
REMARK    2  A    between atoms: C_8  and  N_2 
REMARK    3  A    between atoms: S_3  and  C_4 
REMARK    4  A    between atoms: C_11  and  S_3 
REMARK    5  A    between atoms: C_5  and  C_6 
ROOT
ATOM      1  C   UNL d   1       1.088  -0.204  -0.014  0.00  0.00     0.236 C 
ATOM      2  N   UNL d   1       0.490   0.939  -0.534  0.00  0.00    -0.326 N 
ATOM      3  O   UNL d   1       2.261  -0.519  -0.194  0.00  0.00    -0.272 OA
ATOM      4  H   UNL d   1      -0.436   1.162  -0.189  0.00  0.00     0.169 HD
ENDROOT
BRANCH   1   5
ATOM      5  C   UNL d   1       0.214  -1.006   0.954  0.00  0.00     0.140 C 
ATOM      6  C   UNL d   1       0.791  -2.402   1.176  0.00  0.00     0.031 C 
BRANCH   5   7
ATOM      7  S   UNL d   1      -1.567  -1.036   0.493  0.00  0.00    -0.116 SA
BRANCH   7   8
ATOM      8  C   UNL d   1      -1.543  -1.852  -1.093  0.00  0.00     0.001 A 
ATOM      9  C   UNL d   1      -1.550  -3.246  -1.177  0.00  0.00     0.019 A 
ATOM     10  C   UNL d   1      -1.615  -3.880  -2.422  0.00  0.00     0.008 A 
ATOM     11  C   UNL d   1      -1.696  -3.127  -3.599  0.00  0.00    -0.062 A 
ATOM     12  C   UNL d   1      -1.697  -1.731  -3.512  0.00  0.00     0.008 A 
ATOM     13  C   UNL d   1      -1.793  -3.817  -4.927  0.00  0.00     0.048 C 
ATOM     14  C   UNL d   1      -1.628  -1.099  -2.267  0.00  0.00     0.019 A 
ENDBRANCH   7   8
ENDBRANCH   5   7
ENDBRANCH   1   5
BRANCH   2  15
ATOM     15  C   UNL d   1       1.054   1.807  -1.490  0.00  0.00     0.034 A 
ATOM     16  C   UNL d   1       2.218   1.513  -2.192  0.00  0.00     0.030 A 
ATOM     17  C   UNL d   1       2.747   2.417  -3.112  0.00  0.00     0.010 A 
ATOM     18  C   UNL d   1       2.126   3.645  -3.381  0.00  0.00    -0.051 A 
ATOM     19  C   UNL d   1       0.935   3.920  -2.688  0.00  0.00     0.010 A 
ATOM     20  C   UNL d   1       0.399   3.010  -1.764  0.00  0.00     0.030 A 
BRANCH  18  21
ATOM     21  C   UNL d   1       2.768   4.616  -4.384  0.00  0.00    -0.024 C 
ATOM     22  C   UNL d   1       1.961   5.917  -4.583  0.00  0.00     0.019 C 
ATOM     23  C   UNL d   1       4.179   5.015  -3.897  0.00  0.00     0.019 C 
ATOM     24  C   UNL d   1       2.891   3.935  -5.766  0.00  0.00     0.019 C 
ENDBRANCH  18  21
ENDBRANCH   2  15
TORSDOF 5
