REMARK  9 active torsions:
REMARK  status: ('A' for Active; 'I' for Inactive)
REMARK    1  A    between atoms: C_4  and  C_1 
REMARK    2  A    between atoms: N_5  and  C_2 
REMARK    3  A    between atoms: C_9  and  C_4 
REMARK       I    between atoms: C_8  and  N_5 
REMARK    4  A    between atoms: C_23  and  C_7 
REMARK    5  A    between atoms: C_16  and  C_8 
REMARK    6  A    between atoms: C_10  and  C_17 
REMARK    7  A    between atoms: O_19  and  C_10 
REMARK    8  A    between atoms: C_17  and  C_16 
REMARK    9  A    between atoms: O_22  and  C_18 
ROOT
ATOM      1  C   UNL d   1       1.577   0.801   0.140  0.00  0.00     0.050 A 
ATOM      2  C   UNL d   1       0.317   1.366   0.129  0.00  0.00     0.091 A 
ATOM      3  S   UNL d   1      -0.946   0.230   0.207  0.00  0.00    -0.076 SA
ATOM      4  C   UNL d   1       1.449  -0.639   0.123  0.00  0.00     0.033 A 
ATOM      5  C   UNL d   1       0.142  -1.079   0.092  0.00  0.00    -0.015 A 
ENDROOT
BRANCH   1   6
ATOM      6  C   UNL d   1       2.841   1.547   0.259  0.00  0.00     0.195 C 
ATOM      7  O   UNL d   1       2.929   2.631   0.832  0.00  0.00    -0.287 OA
BRANCH   6   8
ATOM      8  C   UNL d   1       4.087   0.882  -0.216  0.00  0.00     0.015 A 
ATOM      9  C   UNL d   1       5.240   0.929   0.578  0.00  0.00     0.018 A 
ATOM     10  C   UNL d   1       6.396   0.235   0.190  0.00  0.00     0.037 A 
ATOM     11  C   UNL d   1       6.406  -0.498  -0.998  0.00  0.00     0.068 A 
ATOM     12  C   UNL d   1       5.263  -0.514  -1.803  0.00  0.00     0.037 A 
ATOM     13  C   UNL d   1       4.113   0.182  -1.426  0.00  0.00     0.018 A 
BRANCH  11  14
ATOM     14  O   UNL d   1       7.449  -1.232  -1.490  0.00  0.00    -0.356 OA
ATOM     15  C   UNL d   1       8.645  -1.264  -0.722  0.00  0.00     0.210 C 
ENDBRANCH  11  14
ENDBRANCH   6   8
ENDBRANCH   1   6
BRANCH   2  16
ATOM     16  N   UNL d   1      -0.141   2.662   0.074  0.00  0.00    -0.321 N 
ATOM     17  C   UNL d   1       0.365   3.552  -0.856  0.00  0.00     0.223 C 
ATOM     18  O   UNL d   1       1.197   3.293  -1.723  0.00  0.00    -0.273 OA
ATOM     19  H   UNL d   1      -1.109   2.800   0.367  0.00  0.00     0.169 HD
BRANCH  17  20
ATOM     20  C   UNL d   1      -0.324   4.907  -0.815  0.00  0.00     0.113 C 
BRANCH  20  21
ATOM     21  C   UNL d   1      -1.582   4.932  -1.682  0.00  0.00     0.119 C 
BRANCH  21  22
ATOM     22  C   UNL d   1      -2.666   4.038  -1.134  0.00  0.00     0.139 C 
ATOM     23  O   UNL d   1      -2.705   3.629   0.020  0.00  0.00    -0.650 OA
BRANCH  22  24
ATOM     24  O   UNL d   1      -3.610   3.716  -2.042  0.00  0.00    -0.776 OA
ATOM     25  H   UNL d   1      -3.448   4.072  -2.937  0.00  0.00     0.167 HD
ENDBRANCH  22  24
ENDBRANCH  21  22
ENDBRANCH  20  21
ENDBRANCH  17  20
ENDBRANCH   2  16
BRANCH   5  26
ATOM     26  C   UNL d   1      -0.353  -2.492   0.021  0.00  0.00     0.042 C 
ATOM     27  C   UNL d   1      -0.405  -3.001  -1.413  0.00  0.00     0.010 C 
ENDBRANCH   5  26
TORSDOF 9
