REMARK  2 active torsions:
REMARK  status: ('A' for Active; 'I' for Inactive)
REMARK    1  A    between atoms: C_9  and  C_3 
REMARK    2  A    between atoms: C_10  and  C_6 
ROOT
ATOM      1  N   UNL d   1      -1.194  -0.005   0.061  0.00  0.00    -0.339 N 
ATOM      2  HN  UNL d   1      -2.213   0.031   0.090  1.00  0.00     0.167 HD
ATOM      3  C   UNL d   1      -0.401  -1.137   0.003  0.00  0.00     0.072 A 
ATOM      4  C   UNL d   1      -0.363   1.015   0.070  0.00  0.00     0.123 A 
ATOM      5  N   UNL d   1       0.933   0.578   0.057  0.00  0.00    -0.339 N 
ATOM      6  C   UNL d   1       0.953  -0.801   0.024  0.00  0.00     0.072 A 
ATOM      7  C   UNL d   1      -0.743   2.403   0.093  0.00  0.00     0.049 A 
ATOM      8  S   UNL d   1       0.414   3.672   0.025  0.00  0.00    -0.098 SA
ATOM      9  C   UNL d   1      -2.024   2.907   0.161  0.00  0.00     0.023 A 
ATOM     10  C   UNL d   1      -0.796   4.877   0.086  0.00  0.00     0.050 A 
ATOM     11  C   UNL d   1      -2.060   4.333   0.160  0.00  0.00     0.009 A 
ATOM     12  H   UNL d   1       1.740   1.181   0.089  0.00  0.00     0.167 HD
ENDROOT
BRANCH   3  13
ATOM     13  C   UNL d   1      -0.972  -2.478  -0.022  0.00  0.00    -0.007 A 
ATOM     14  C   UNL d   1      -0.386  -3.518  -0.759  0.00  0.00     0.014 A 
ATOM     15  C   UNL d   1      -0.837  -4.832  -0.620  0.00  0.00     0.001 A 
ATOM     16  C   UNL d   1      -1.925  -5.110   0.202  0.00  0.00     0.000 A 
ATOM     17  C   UNL d   1      -2.578  -4.071   0.864  0.00  0.00     0.001 A 
ATOM     18  C   UNL d   1      -2.104  -2.761   0.753  0.00  0.00     0.014 A 
ENDBRANCH   3  13
BRANCH   6  19
ATOM     19  C   UNL d   1       2.204  -1.568   0.021  0.00  0.00    -0.007 A 
ATOM     20  C   UNL d   1       3.325  -1.105  -0.685  0.00  0.00     0.014 A 
ATOM     21  C   UNL d   1       4.481  -1.885  -0.784  0.00  0.00     0.001 A 
ATOM     22  C   UNL d   1       4.528  -3.144  -0.193  0.00  0.00     0.000 A 
ATOM     23  C   UNL d   1       3.440  -3.602   0.543  0.00  0.00     0.001 A 
ATOM     24  C   UNL d   1       2.302  -2.804   0.677  0.00  0.00     0.014 A 
ENDBRANCH   6  19
TORSDOF 2
