REMARK  2 active torsions:
REMARK  status: ('A' for Active; 'I' for Inactive)
REMARK    1  A    between atoms: C_12  and  N_3 
REMARK    2  A    between atoms: C_14  and  C_12 
ROOT
ATOM      1  C   UNL d   1       1.128   0.330  -1.129  0.00  0.00     0.153 A 
ATOM      2  C   UNL d   1       0.600  -0.815  -0.575  0.00  0.00     0.129 A 
ATOM      3  N   UNL d   1       1.449   1.091  -0.041  0.00  0.00    -0.254 N 
ATOM      4  N   UNL d   1       0.642  -0.748   0.786  0.00  0.00    -0.278 N 
ATOM      5  HN  UNL d   1       0.321  -1.466   1.436  1.00  0.00     0.184 HD
ATOM      6  N   UNL d   1       1.181   0.427   1.111  0.00  0.00    -0.018 NA
ATOM      7  N   UNL d   1       1.269   0.644  -2.443  0.00  0.00    -0.336 N 
ATOM      8  HN  UNL d   1       1.676   1.518  -2.776  1.00  0.00     0.168 HD
ATOM      9  C   UNL d   1       0.118  -1.822  -1.473  0.00  0.00     0.133 A 
ATOM     10  N   UNL d   1       0.266  -1.492  -2.810  0.00  0.00    -0.341 N 
ATOM     11  C   UNL d   1       0.827  -0.294  -3.229  0.00  0.00     0.183 A 
ATOM     12  S   UNL d   1      -0.553  -3.235  -0.940  0.00  0.00    -0.058 SA
ATOM     13  H   UNL d   1      -0.059  -2.165  -3.492  0.00  0.00     0.167 HD
ENDROOT
BRANCH   3  14
ATOM     14  C   UNL d   1       1.967   2.444  -0.013  0.00  0.00     0.187 C 
BRANCH  14  15
ATOM     15  C   UNL d   1       0.834   3.441   0.021  0.00  0.00    -0.038 A 
ATOM     16  C   UNL d   1       0.293   3.860   1.248  0.00  0.00     0.012 A 
ATOM     17  C   UNL d   1      -0.827   4.692   1.277  0.00  0.00     0.043 A 
ATOM     18  C   UNL d   1      -1.405   5.106   0.083  0.00  0.00     0.116 A 
ATOM     19  C   UNL d   1      -0.873   4.720  -1.142  0.00  0.00     0.043 A 
ATOM     20  F   UNL d   1      -2.499   5.877   0.111  0.00  0.00    -0.206 F 
ATOM     21  C   UNL d   1       0.248   3.889  -1.175  0.00  0.00     0.012 A 
ENDBRANCH  14  15
ENDBRANCH   3  14
TORSDOF 2
