REMARK  6 active torsions:
REMARK  status: ('A' for Active; 'I' for Inactive)
REMARK    1  A    between atoms: N_2  and  C_1 
REMARK    2  A    between atoms: N_4  and  C_1 
REMARK    3  A    between atoms: C_5  and  N_2 
REMARK    4  A    between atoms: C_7  and  N_4 
REMARK    5  A    between atoms: O_6  and  C_8 
REMARK    6  A    between atoms: C_8  and  C_7 
ROOT
ATOM      1  C   UNL d   1       1.091  -0.026  -0.066  0.00  0.00     0.172 C 
ATOM      2  S   UNL d   1       2.128   0.496  -1.269  0.00  0.00    -0.041 SA
ENDROOT
BRANCH   1   3
ATOM      3  N   UNL d   1       0.490   0.716   0.919  0.00  0.00    -0.333 N 
ATOM      4  H   UNL d   1      -0.448   0.390   1.151  0.00  0.00     0.168 HD
BRANCH   3   5
ATOM      5  C   UNL d   1       0.841   1.986   1.422  0.00  0.00     0.034 A 
ATOM      6  C   UNL d   1      -0.180   2.795   1.929  0.00  0.00     0.029 A 
ATOM      7  C   UNL d   1       0.111   4.057   2.455  0.00  0.00     0.002 A 
ATOM      8  C   UNL d   1       1.431   4.502   2.513  0.00  0.00     0.000 A 
ATOM      9  C   UNL d   1       2.457   3.683   2.048  0.00  0.00     0.002 A 
ATOM     10  C   UNL d   1       2.163   2.430   1.505  0.00  0.00     0.029 A 
ENDBRANCH   3   5
ENDBRANCH   1   3
BRANCH   1  11
ATOM     11  N   UNL d   1       0.753  -1.353  -0.082  0.00  0.00    -0.365 N 
ATOM     12  H   UNL d   1       1.206  -1.875  -0.826  0.00  0.00     0.161 HD
BRANCH  11  13
ATOM     13  C   UNL d   1       0.108  -2.116   0.979  0.00  0.00     0.148 C 
BRANCH  13  14
ATOM     14  C   UNL d   1      -1.419  -2.023   0.943  0.00  0.00     0.183 C 
BRANCH  14  15
ATOM     15  O   UNL d   1      -1.855  -0.727   1.356  0.00  0.00    -0.399 OA
ATOM     16  H   UNL d   1      -2.830  -0.750   1.341  0.00  0.00     0.209 HD
ENDBRANCH  14  15
ENDBRANCH  13  14
ENDBRANCH  11  13
ENDBRANCH   1  11
TORSDOF 6
