REMARK  2 active torsions:
REMARK  status: ('A' for Active; 'I' for Inactive)
REMARK    1  A    between atoms: N_14  and  N_9 
REMARK    2  A    between atoms: C_17  and  C_16 
ROOT
ATOM      1  C   UNL d   1       1.194   0.920  -0.012  0.00  0.00     0.104 A 
ATOM      2  C   UNL d   1       0.737  -0.369  -0.012  0.00  0.00     0.069 A 
ATOM      3  C   UNL d   1       2.588   1.271  -0.017  0.00  0.00     0.286 C 
ATOM      4  S   UNL d   1      -0.061   2.053  -0.013  0.00  0.00    -0.064 SA
ATOM      5  C   UNL d   1      -0.691  -0.473  -0.008  0.00  0.00     0.032 A 
ATOM      6  C   UNL d   1      -1.236   0.813  -0.007  0.00  0.00     0.088 A 
ATOM      7  N   UNL d   1       1.615  -1.465  -0.030  0.00  0.00    -0.349 N 
ATOM      8  HN  UNL d   1       1.294  -2.432  -0.083  1.00  0.00     0.167 HD
ATOM      9  N   UNL d   1       3.410   0.137   0.109  0.00  0.00    -0.215 N 
ATOM     10  C   UNL d   1       2.871  -1.140   0.028  0.00  0.00     0.211 C 
ATOM     11  N   UNL d   1      -2.542   1.144  -0.003  0.00  0.00    -0.354 N 
ATOM     12  HN  UNL d   1      -2.864   2.112  -0.001  1.00  0.00     0.166 HD
ATOM     13  C   UNL d   1      -1.609  -1.556  -0.007  0.00  0.00    -0.045 A 
ATOM     14  O   UNL d   1       2.997   2.423  -0.156  0.00  0.00    -0.265 OA
ATOM     15  C   UNL d   1      -2.977  -1.230  -0.005  0.00  0.00     0.032 A 
ATOM     16  C   UNL d   1      -3.387   0.099  -0.003  0.00  0.00     0.006 A 
ATOM     17  C   UNL d   1      -1.236  -3.013  -0.008  0.00  0.00     0.049 C 
ATOM     18  C   UNL d   1      -4.854   0.416  -0.005  0.00  0.00     0.068 C 
ENDROOT
BRANCH   9  19
ATOM     19  N   UNL d   1       4.797   0.192   0.099  0.00  0.00    -0.301 N 
ATOM     20  C   UNL d   1       5.380   1.229   0.618  0.00  0.00     0.120 C 
ATOM     21  HN  UNL d   1       5.346  -0.566  -0.307  1.00  0.00     0.186 HD
BRANCH  20  22
ATOM     22  C   UNL d   1       6.852   1.393   0.551  0.00  0.00     0.002 A 
ATOM     23  C   UNL d   1       7.503   2.481   1.145  0.00  0.00     0.045 A 
ATOM     24 CL   UNL d   1       6.673   3.716   2.024  0.00  0.00    -0.083 Cl
ATOM     25  C   UNL d   1       8.894   2.601   1.039  0.00  0.00     0.024 A 
ATOM     26  C   UNL d   1       9.634   1.648   0.336  0.00  0.00     0.002 A 
ATOM     27  C   UNL d   1       8.989   0.566  -0.256  0.00  0.00     0.001 A 
ATOM     28  C   UNL d   1       7.604   0.434  -0.146  0.00  0.00     0.014 A 
ENDBRANCH  20  22
ENDBRANCH   9  19
TORSDOF 2
