REMARK  8 active torsions:
REMARK  status: ('A' for Active; 'I' for Inactive)
REMARK    1  A    between atoms: C_15  and  C_3 
REMARK    2  A    between atoms: C_3  and  O_25 
REMARK    3  A    between atoms: C_7  and  O_13 
REMARK    4  A    between atoms: C_16  and  O_13 
REMARK    5  A    between atoms: C_30  and  C_16 
REMARK    6  A    between atoms: C_17  and  O_20 
REMARK    7  A    between atoms: C_31  and  C_17 
REMARK    8  A    between atoms: O_20  and  C_21 
ROOT
ATOM      1  C   UNL d   1      15.189  12.225   3.815  0.00  0.00     0.001 C 
ATOM      2  C   UNL d   1      14.590  12.343   5.259  0.00  0.00     0.002 C 
ATOM      3  C   UNL d   1      15.050  10.678   3.570  0.00  0.00     0.128 C 
ATOM      4  C   UNL d   1      13.127  12.844   5.329  0.00  0.00    -0.002 C 
ATOM      5  C   UNL d   1      12.262  15.368   5.252  0.00  0.00    -0.034 C 
ATOM      6  C   UNL d   1      12.789  14.103   4.449  0.00  0.00     0.028 C 
ATOM      7  C   UNL d   1      13.930  14.395   3.423  0.00  0.00     0.138 C 
ATOM      8  C   UNL d   1      14.481  13.112   2.784  0.00  0.00     0.046 C 
ATOM      9  C   UNL d   1      15.656  10.167   4.894  0.00  0.00     0.025 C 
ATOM     10  C   UNL d   1      14.762  10.909   5.891  0.00  0.00     0.013 C 
ATOM     11  C   UNL d   1      11.236  14.959   6.367  0.00  0.00    -0.004 C 
ATOM     12  C   UNL d   1      12.749  12.964   6.809  0.00  0.00     0.006 C 
ATOM     13  C   UNL d   1      11.586  16.371   4.247  0.00  0.00     0.012 C 
ATOM     14  C   UNL d   1      11.392  13.572   6.993  0.00  0.00     0.006 C 
ATOM     15  C   UNL d   1       9.794  15.045   5.872  0.00  0.00     0.038 C 
ATOM     16  C   UNL d   1       9.402  16.483   5.610  0.00  0.00     0.132 C 
ATOM     17  C   UNL d   1      16.664  12.748   3.888  0.00  0.00     0.019 C 
ATOM     18  C   UNL d   1      10.414  17.225   4.740  0.00  0.00     0.033 C 
ATOM     19  C   UNL d   1      13.460  16.102   5.916  0.00  0.00     0.016 C 
ATOM     20  C   UNL d   1      15.838   8.677   5.106  0.00  0.00     0.013 C 
ENDROOT
BRANCH   3  21
ATOM     21  C   UNL d   1      15.631  10.024   2.311  0.00  0.00     0.158 C 
ATOM     22  O   UNL d   1      16.634  10.450   1.738  0.00  0.00    -0.295 OA
ATOM     23  C   UNL d   1      14.882   8.811   1.764  0.00  0.00     0.094 C 
ENDBRANCH   3  21
BRANCH   3  24
ATOM     24  O   UNL d   1      13.645  10.328   3.550  0.00  0.00    -0.381 OA
ATOM     25  H   UNL d   1      13.209  10.803   2.818  0.00  0.00     0.211 HD
ENDBRANCH   3  24
BRANCH   7  26
ATOM     26  O   UNL d   1      13.624  15.384   2.407  0.00  0.00    -0.316 OA
BRANCH  26  27
ATOM     27  C   UNL d   1      12.775  15.087   1.394  0.00  0.00     0.258 C 
ATOM     28  O   UNL d   1      12.130  14.064   1.281  0.00  0.00    -0.265 OA
BRANCH  27  29
ATOM     29  C   UNL d   1      12.780  16.237   0.392  0.00  0.00     0.106 C 
ATOM     30  C   UNL d   1      11.707  16.091  -0.665  0.00  0.00     0.015 C 
ENDBRANCH  27  29
ENDBRANCH  26  27
ENDBRANCH   7  26
BRANCH  16  31
ATOM     31  O   UNL d   1       8.113  16.429   4.971  0.00  0.00    -0.316 OA
BRANCH  31  32
ATOM     32  C   UNL d   1       7.301  17.498   5.192  0.00  0.00     0.258 C 
ATOM     33  O   UNL d   1       7.605  18.498   5.827  0.00  0.00    -0.265 OA
BRANCH  32  34
ATOM     34  C   UNL d   1       5.968  17.238   4.555  0.00  0.00     0.106 C 
ATOM     35  C   UNL d   1       5.074  18.468   4.625  0.00  0.00     0.015 C 
ENDBRANCH  32  34
ENDBRANCH  31  32
ENDBRANCH  16  31
TORSDOF 8
