REMARK  7 active torsions:
REMARK  status: ('A' for Active; 'I' for Inactive)
REMARK    1  A    between atoms: C_10  and  C_1 
REMARK    2  A    between atoms: N_12  and  C_4 
REMARK    3  A    between atoms: S_15  and  C_8 
REMARK    4  A    between atoms: C_14  and  C_10 
REMARK    5  A    between atoms: N_11  and  C_17 
REMARK    6  A    between atoms: C_16  and  S_15 
REMARK    7  A    between atoms: C_17  and  C_16 
ROOT
ATOM      1  C   UNL d   1      -2.080   0.382   0.052  0.00  0.00     0.085 A 
ATOM      2  C   UNL d   1       0.265   0.732   0.018  0.00  0.00     0.051 A 
ATOM      3  C   UNL d   1       0.073  -0.641   0.125  0.00  0.00     0.095 A 
ATOM      4  C   UNL d   1      -1.029   1.325   0.015  0.00  0.00     0.062 A 
ATOM      5  S   UNL d   1      -1.546  -1.304   0.229  0.00  0.00    -0.065 SA
ATOM      6  N   UNL d   1       1.071  -1.474   0.159  0.00  0.00    -0.319 N 
ATOM      7  HN  UNL d   1       1.036  -2.492   0.212  1.00  0.00     0.175 HD
ATOM      8  C   UNL d   1       1.588   1.047  -0.043  0.00  0.00     0.073 A 
ATOM      9  S   UNL d   1       2.439  -0.484   0.095  0.00  0.00    -0.006 SA
ENDROOT
BRANCH   1  10
ATOM     10  C   UNL d   1      -3.517   0.659   0.045  0.00  0.00     0.201 C 
ATOM     11  O   UNL d   1      -4.000   1.680   0.538  0.00  0.00    -0.286 OA
BRANCH  10  12
ATOM     12  C   UNL d   1      -4.469  -0.298  -0.591  0.00  0.00     0.015 A 
ATOM     13  C   UNL d   1      -4.159  -0.943  -1.802  0.00  0.00     0.015 A 
ATOM     14  C   UNL d   1      -5.055  -1.853  -2.364  0.00  0.00     0.001 A 
ATOM     15  C   UNL d   1      -6.280  -2.103  -1.741  0.00  0.00     0.000 A 
ATOM     16  C   UNL d   1      -6.610  -1.439  -0.560  0.00  0.00     0.001 A 
ATOM     17  C   UNL d   1      -5.712  -0.531   0.013  0.00  0.00     0.015 A 
ENDBRANCH  10  12
ENDBRANCH   1  10
BRANCH   4  18
ATOM     18  N   UNL d   1      -1.244   2.665  -0.034  0.00  0.00    -0.397 N 
ATOM     19  H   UNL d   1      -0.491   3.322   0.163  0.00  0.00     0.156 HD
ATOM     20  H   UNL d   1      -2.163   3.034   0.221  0.00  0.00     0.156 HD
ENDBRANCH   4  18
BRANCH   8  21
ATOM     21  S   UNL d   1       2.400   2.596  -0.179  0.00  0.00    -0.118 SA
BRANCH  21  22
ATOM     22  C   UNL d   1       3.485   2.278  -1.620  0.00  0.00     0.110 C 
BRANCH  22  23
ATOM     23  C   UNL d   1       4.599   3.326  -1.782  0.00  0.00     0.283 C 
BRANCH  23  24
ATOM     24  N   UNL d   1       5.360   3.116  -3.028  0.00  0.00     0.089 N 
ATOM     25  C   UNL d   1       6.125   1.861  -3.068  0.00  0.00     0.272 C 
ATOM     26  C   UNL d   1       7.581   2.246  -3.256  0.00  0.00     0.032 C 
ATOM     27  C   UNL d   1       7.498   3.581  -3.960  0.00  0.00     0.032 C 
ATOM     28  C   UNL d   1       6.284   4.225  -3.311  0.00  0.00     0.272 C 
ENDBRANCH  23  24
ENDBRANCH  22  23
ENDBRANCH  21  22
ENDBRANCH   8  21
TORSDOF 7
