REMARK  1 active torsions:
REMARK  status: ('A' for Active; 'I' for Inactive)
REMARK    1  A    between atoms: C_4  and  C_1 
REMARK       I    between atoms: N_3  and  C_4 
ROOT
ATOM      1  C   UNL d   1      -3.033  -0.907  -0.572  0.00  0.00     0.096 A 
ATOM      2  N   UNL d   1      -2.345   0.281  -0.442  0.00  0.00    -0.351 N 
ATOM      3  C   UNL d   1      -2.066  -1.883  -0.764  0.00  0.00     0.049 A 
ATOM      4  C   UNL d   1      -0.988   0.095  -0.441  0.00  0.00     0.044 A 
ATOM      5  C   UNL d   1      -0.761  -1.268  -0.621  0.00  0.00    -0.001 A 
ATOM      6  C   UNL d   1       0.588  -1.721  -0.574  0.00  0.00    -0.049 A 
ATOM      7  C   UNL d   1       0.022   1.044  -0.249  0.00  0.00     0.037 A 
ATOM      8  C   UNL d   1       1.615  -0.756  -0.392  0.00  0.00     0.014 A 
ATOM      9  C   UNL d   1       1.346   0.606  -0.225  0.00  0.00    -0.059 A 
ATOM     10  C   UNL d   1       1.015  -3.159  -0.684  0.00  0.00     0.049 C 
ATOM     11  C   UNL d   1       2.466   1.589  -0.037  0.00  0.00     0.048 C 
ATOM     12  H   UNL d   1      -2.796   1.159  -0.238  0.00  0.00     0.166 HD
ENDROOT
BRANCH   1  13
ATOM     13  C   UNL d   1      -4.455  -0.875  -0.294  0.00  0.00     0.250 C 
ATOM     14  N   UNL d   1      -5.390  -1.272  -1.275  0.00  0.00    -0.243 NA
ATOM     15  C   UNL d   1      -5.706  -2.709  -1.279  0.00  0.00     0.138 C 
ATOM     16  C   UNL d   1      -6.561  -0.383  -1.244  0.00  0.00     0.103 C 
ATOM     17  C   UNL d   1      -7.040  -3.118  -1.882  0.00  0.00    -0.038 A 
ATOM     18  C   UNL d   1      -7.362  -4.481  -2.024  0.00  0.00     0.009 A 
ATOM     19  C   UNL d   1      -8.015  -2.176  -2.243  0.00  0.00    -0.050 A 
ATOM     20  C   UNL d   1      -8.608  -4.887  -2.515  0.00  0.00     0.001 A 
ATOM     21  C   UNL d   1      -9.565  -3.941  -2.869  0.00  0.00     0.001 A 
ATOM     22  C   UNL d   1      -9.267  -2.592  -2.740  0.00  0.00     0.007 A 
ATOM     23  C   UNL d   1      -7.727  -0.712  -2.158  0.00  0.00     0.054 C 
ATOM     24  O   UNL d   1      -4.834  -0.262   0.711  0.00  0.00    -0.272 OA
ENDBRANCH   1  13
TORSDOF 1
