REMARK  3 active torsions:
REMARK  status: ('A' for Active; 'I' for Inactive)
REMARK    1  A    between atoms: N_2  and  S_1 
REMARK    2  A    between atoms: C_3  and  S_1 
REMARK    3  A    between atoms: C_6  and  C_3 
ROOT
ATOM      1  S   UNL d   1       1.082  -0.085  -0.126  0.00  0.00     0.215 S 
ATOM      2  O   UNL d   1       0.575  -1.287   0.507  0.00  0.00    -0.211 OA
ATOM      3  O   UNL d   1       2.490   0.066  -0.430  0.00  0.00    -0.211 OA
ENDROOT
BRANCH   1   4
ATOM      4  N   UNL d   1       0.653   1.250   0.900  0.00  0.00    -0.210 NA
ATOM      5  C   UNL d   1       0.996   2.592   0.337  0.00  0.00     0.107 C 
ATOM      6  C   UNL d   1       1.352   3.697   1.327  0.00  0.00     0.015 C 
ATOM      7  C   UNL d   1       0.252   4.034   2.328  0.00  0.00     0.001 C 
ATOM      8  C   UNL d   1       0.277   3.138   3.558  0.00  0.00     0.001 C 
ATOM      9  C   UNL d   1      -0.001   1.670   3.261  0.00  0.00     0.015 C 
ATOM     10  C   UNL d   1       1.018   1.016   2.327  0.00  0.00     0.107 C 
ENDBRANCH   1   4
BRANCH   1  11
ATOM     11  C   UNL d   1       0.100   0.238  -1.599  0.00  0.00     0.196 C 
BRANCH  11  12
ATOM     12  C   UNL d   1       0.336  -0.845  -2.630  0.00  0.00    -0.043 A 
ATOM     13  C   UNL d   1      -0.465  -1.997  -2.655  0.00  0.00     0.010 A 
ATOM     14  C   UNL d   1      -0.287  -2.965  -3.647  0.00  0.00     0.024 A 
ATOM     15  C   UNL d   1       0.695  -2.793  -4.618  0.00  0.00     0.034 A 
ATOM     16  C   UNL d   1       1.518  -1.670  -4.591  0.00  0.00     0.024 A 
ATOM     17 CL   UNL d   1       0.889  -3.968  -5.860  0.00  0.00    -0.084 Cl
ATOM     18  C   UNL d   1       1.342  -0.702  -3.599  0.00  0.00     0.010 A 
ENDBRANCH  11  12
ENDBRANCH   1  11
TORSDOF 3
