REMARK  3 active torsions:
REMARK  status: ('A' for Active; 'I' for Inactive)
REMARK    1  A    between atoms: C_7  and  C_1 
REMARK    2  A    between atoms: C_6  and  C_2 
REMARK    3  A    between atoms: C_9  and  C_4 
REMARK       I    between atoms: N_8  and  C_6 
ROOT
ATOM      1  C   UNL d   1       0.158   1.289   0.084  0.00  0.00     0.100 C 
ATOM      2  C   UNL d   1       0.055  -1.206  -0.011  0.00  0.00     0.074 C 
ATOM      3  S   UNL d   1      -1.024   0.065   0.317  0.00  0.00    -0.079 SA
ATOM      4  C   UNL d   1       1.425   0.733  -0.049  0.00  0.00    -0.003 C 
ATOM      5  C   UNL d   1       1.342  -0.704  -0.124  0.00  0.00     0.038 C 
ENDROOT
BRANCH   2   6
ATOM      6  C   UNL d   1      -0.309  -2.624   0.037  0.00  0.00     0.260 C 
ATOM      7  N   UNL d   1      -1.581  -3.064  -0.322  0.00  0.00    -0.347 N 
ATOM      8  C   UNL d   1      -2.629  -2.406  -1.085  0.00  0.00     0.126 C 
ATOM      9  C   UNL d   1      -1.930  -4.465  -0.124  0.00  0.00     0.126 C 
ATOM     10  C   UNL d   1      -3.879  -3.154  -0.661  0.00  0.00     0.021 C 
ATOM     11  C   UNL d   1      -3.389  -4.593  -0.558  0.00  0.00     0.021 C 
ATOM     12  O   UNL d   1       0.523  -3.455   0.407  0.00  0.00    -0.267 OA
ENDBRANCH   2   6
BRANCH   1  13
ATOM     13  C   UNL d   1      -0.305   2.713   0.110  0.00  0.00     0.424 C 
ATOM     14  F   UNL d   1      -1.623   2.849   0.425  0.00  0.00    -0.166 F 
ATOM     15  F   UNL d   1       0.375   3.467   1.012  0.00  0.00    -0.166 F 
ATOM     16  F   UNL d   1      -0.155   3.310  -1.102  0.00  0.00    -0.166 F 
ENDBRANCH   1  13
BRANCH   4  17
ATOM     17  C   UNL d   1       2.679   1.500  -0.042  0.00  0.00    -0.025 A 
ATOM     18  C   UNL d   1       3.777   1.002   0.680  0.00  0.00     0.012 A 
ATOM     19  C   UNL d   1       4.983   1.708   0.739  0.00  0.00     0.001 A 
ATOM     20  C   UNL d   1       5.105   2.930   0.086  0.00  0.00     0.000 A 
ATOM     21  C   UNL d   1       4.032   3.430  -0.646  0.00  0.00     0.001 A 
ATOM     22  C   UNL d   1       2.835   2.710  -0.727  0.00  0.00     0.012 A 
ENDBRANCH   4  17
TORSDOF 3
