REMARK  7 active torsions:
REMARK  status: ('A' for Active; 'I' for Inactive)
REMARK    1  A    between atoms: C_8  and  N_1 
REMARK    2  A    between atoms: C_11  and  C_4 
REMARK    3  A    between atoms: N_7  and  C_9 
REMARK    4  A    between atoms: C_19  and  C_11 
REMARK    5  A    between atoms: N_20  and  N_13 
REMARK    6  A    between atoms: C_21  and  N_20 
REMARK    7  A    between atoms: C_27  and  C_26 
ROOT
ATOM      1  C   UNL d   1      -2.823  -0.342  -0.113  0.00  0.00     0.125 C 
ENDROOT
BRANCH   1   2
ATOM      2  C   UNL d   1      -1.349  -0.207  -0.090  0.00  0.00     0.119 A 
ATOM      3  N   UNL d   1      -0.425  -1.249  -0.011  0.00  0.00    -0.229 N 
ATOM      4  N   UNL d   1       0.804  -0.684   0.111  0.00  0.00     0.000 NA
ATOM      5  N   UNL d   1       0.633   0.623   0.022  0.00  0.00    -0.007 NA
ATOM      6  N   UNL d   1      -0.685   0.934  -0.110  0.00  0.00    -0.273 N 
ATOM      7  HN  UNL d   1      -1.084   1.868  -0.206  1.00  0.00     0.185 HD
BRANCH   3   8
ATOM      8  C   UNL d   1      -0.565  -2.668  -0.031  0.00  0.00     0.056 A 
ATOM      9  C   UNL d   1       0.548  -3.465   0.291  0.00  0.00     0.032 A 
ATOM     10  C   UNL d   1       0.443  -4.860   0.336  0.00  0.00     0.009 A 
ATOM     11  C   UNL d   1      -0.774  -5.489   0.060  0.00  0.00    -0.058 A 
ATOM     12  C   UNL d   1      -1.867  -4.701  -0.314  0.00  0.00     0.009 A 
ATOM     13  C   UNL d   1      -1.765  -3.304  -0.365  0.00  0.00     0.032 A 
BRANCH  11  14
ATOM     14  C   UNL d   1      -0.914  -6.987   0.154  0.00  0.00     0.034 C 
ATOM     15  C   UNL d   1      -0.667  -7.682  -1.175  0.00  0.00     0.010 C 
ENDBRANCH  11  14
ENDBRANCH   3   8
ENDBRANCH   1   2
BRANCH   1  16
ATOM     16  C   UNL d   1      -3.482   0.957   0.264  0.00  0.00     0.087 C 
ATOM     17  N   UNL d   1      -4.317   0.993   1.252  0.00  0.00    -0.315 N 
ATOM     18  HN  UNL d   1      -4.515   0.176   1.831  1.00  0.00     0.185 HD
BRANCH  17  19
ATOM     19  N   UNL d   1      -4.910   2.195   1.463  0.00  0.00    -0.301 N 
ATOM     20  H   UNL d   1      -4.482   3.050   1.111  0.00  0.00     0.187 HD
BRANCH  19  21
ATOM     21  C   UNL d   1      -5.684   2.375   2.629  0.00  0.00     0.048 A 
ATOM     22  C   UNL d   1      -5.957   1.326   3.521  0.00  0.00     0.033 A 
ATOM     23  C   UNL d   1      -6.781   1.516   4.636  0.00  0.00     0.038 A 
ATOM     24  C   UNL d   1      -7.369   2.766   4.850  0.00  0.00     0.103 A 
ATOM     25  C   UNL d   1      -7.141   3.818   3.955  0.00  0.00     0.038 A 
ATOM     26  C   UNL d   1      -6.308   3.613   2.849  0.00  0.00     0.033 A 
BRANCH  24  27
ATOM     27  N   UNL d   1      -8.240   2.975   6.012  0.00  0.00    -0.116 N 
ATOM     28  O   UNL d   1      -8.415   2.019   6.782  0.00  0.00    -0.532 OA
ATOM     29  O   UNL d   1      -8.750   4.095   6.158  0.00  0.00    -0.532 OA
ENDBRANCH  24  27
ENDBRANCH  19  21
ENDBRANCH  17  19
ENDBRANCH   1  16
TORSDOF 7
