REMARK  4 active torsions:
REMARK  status: ('A' for Active; 'I' for Inactive)
REMARK    1  A    between atoms: N_8  and  C_3 
REMARK    2  A    between atoms: C_4  and  C_7 
REMARK    3  A    between atoms: N_10  and  N_8 
REMARK    4  A    between atoms: C_9  and  N_10 
ROOT
ATOM      1  N   UNL d   1       1.861  -3.611   1.064  0.00  0.00    -0.223 NA
ATOM      2  H   UNL d   1       2.770  -3.292   0.701  0.00  0.00     0.147 HD
ENDROOT
BRANCH   1   3
ATOM      3  C   UNL d   1       2.068  -4.449   2.199  0.00  0.00     0.044 A 
ATOM      4  C   UNL d   1       3.092  -5.416   2.196  0.00  0.00     0.057 A 
ATOM      5  C   UNL d   1       3.249  -6.311   3.264  0.00  0.00     0.041 A 
ATOM      6 CL   UNL d   1       4.192  -5.540   0.866  0.00  0.00    -0.082 Cl
ATOM      7  C   UNL d   1       2.381  -6.267   4.363  0.00  0.00     0.049 A 
ATOM      8  C   UNL d   1       1.357  -5.312   4.372  0.00  0.00     0.018 A 
ATOM      9  C   UNL d   1       1.198  -4.427   3.302  0.00  0.00     0.027 A 
BRANCH   7  10
ATOM     10  C   UNL d   1       2.520  -7.218   5.524  0.00  0.00     0.417 C 
ATOM     11  F   UNL d   1       3.532  -8.117   5.376  0.00  0.00    -0.166 F 
ATOM     12  F   UNL d   1       2.760  -6.572   6.698  0.00  0.00    -0.166 F 
ATOM     13  F   UNL d   1       1.392  -7.955   5.727  0.00  0.00    -0.166 F 
ENDBRANCH   7  10
ENDBRANCH   1   3
BRANCH   1  14
ATOM     14  N   UNL d   1       0.842  -2.632   1.140  0.00  0.00    -0.224 NA
ATOM     15  H   UNL d   1      -0.061  -3.106   1.192  0.00  0.00     0.144 HD
BRANCH  14  16
ATOM     16  C   UNL d   1       0.822  -1.803  -0.066  0.00  0.00     0.253 A 
ATOM     17  O   UNL d   1       2.056  -1.075  -0.232  0.00  0.00    -0.291 OA
ATOM     18  C   UNL d   1       1.857   0.275  -0.203  0.00  0.00     0.295 A 
ATOM     19  C   UNL d   1       0.430   0.493  -0.018  0.00  0.00     0.049 A 
ATOM     20  O   UNL d   1       2.707   1.135  -0.329  0.00  0.00    -0.259 OA
ATOM     21  C   UNL d   1      -0.257   1.691   0.087  0.00  0.00     0.018 A 
ATOM     22  C   UNL d   1      -0.198  -0.731   0.053  0.00  0.00     0.003 A 
ATOM     23  C   UNL d   1      -1.639   1.629   0.275  0.00  0.00     0.001 A 
ATOM     24  C   UNL d   1      -2.292   0.387   0.347  0.00  0.00     0.001 A 
ATOM     25  C   UNL d   1      -1.572  -0.806   0.232  0.00  0.00     0.012 A 
ENDBRANCH  14  16
ENDBRANCH   1  14
TORSDOF 4
