REMARK  1 active torsions:
REMARK  status: ('A' for Active; 'I' for Inactive)
REMARK    1  A    between atoms: C_13  and  N_1 
ROOT
ATOM      1  N   UNL d   1       2.343   0.052   0.294  0.00  0.00    -0.223 N 
ATOM      2  N   UNL d   1       0.293  -0.828   0.694  0.00  0.00    -0.147 NA
ATOM      3  N   UNL d   1       0.135   0.540   0.272  0.00  0.00    -0.147 NA
ATOM      4  C   UNL d   1       1.657  -1.144   0.534  0.00  0.00     0.326 C 
ATOM      5  C   UNL d   1       1.408   1.026  -0.060  0.00  0.00     0.326 C 
ATOM      6  C   UNL d   1      -0.959   0.513  -0.721  0.00  0.00     0.110 C 
ATOM      7  C   UNL d   1      -0.760  -1.576  -0.022  0.00  0.00     0.110 C 
ATOM      8  C   UNL d   1      -0.763  -0.862  -1.377  0.00  0.00     0.051 C 
ATOM      9  C   UNL d   1      -2.204   0.212   0.083  0.00  0.00    -0.008 C 
ATOM     10  C   UNL d   1      -2.079  -1.055   0.518  0.00  0.00    -0.008 C 
ATOM     11  O   UNL d   1       1.567   2.072  -0.676  0.00  0.00    -0.251 OA
ATOM     12  O   UNL d   1       2.063  -2.296   0.452  0.00  0.00    -0.251 OA
ENDROOT
BRANCH   1  13
ATOM     13  C   UNL d   1       3.759   0.171   0.141  0.00  0.00     0.048 A 
ATOM     14  C   UNL d   1       4.357   1.363  -0.303  0.00  0.00     0.030 A 
ATOM     15  C   UNL d   1       5.747   1.474  -0.463  0.00  0.00     0.002 A 
ATOM     16  C   UNL d   1       6.571   0.396  -0.166  0.00  0.00     0.000 A 
ATOM     17  C   UNL d   1       6.009  -0.782   0.306  0.00  0.00     0.002 A 
ATOM     18  C   UNL d   1       4.621  -0.890   0.465  0.00  0.00     0.030 A 
ENDBRANCH   1  13
TORSDOF 1
