REMARK  2 active torsions:
REMARK  status: ('A' for Active; 'I' for Inactive)
REMARK    1  A    between atoms: N_8  and  C_1 
REMARK       I    between atoms: C_4  and  N_7 
REMARK       I    between atoms: N_9  and  C_4 
REMARK    2  A    between atoms: C_10  and  N_9 
ROOT
ATOM      1  C   UNL d   1      -3.344   2.046   3.817  0.00  0.00     0.323 C 
ATOM      2  N   UNL d   1      -2.258   2.371   3.000  0.00  0.00    -0.331 N 
ATOM      3  N   UNL d   1       0.043   2.536   1.108  0.00  0.00     0.105 N 
ATOM      4  N   UNL d   1      -4.457   2.848   3.678  0.00  0.00    -0.309 N 
ATOM      5  O   UNL d   1      -3.285   1.090   4.588  0.00  0.00    -0.247 OA
ATOM      6  C   UNL d   1      -1.215   1.346   2.949  0.00  0.00     0.158 C 
ATOM      7  C   UNL d   1      -2.310   3.298   1.864  0.00  0.00     0.158 C 
ATOM      8  C   UNL d   1      -0.954   3.609   1.172  0.00  0.00     0.293 C 
ATOM      9  C   UNL d   1       0.117   1.867   2.416  0.00  0.00     0.293 C 
ATOM     10  H   UNL d   1      -4.471   3.475   2.895  0.00  0.00     0.170 HD
ENDROOT
BRANCH   3  11
ATOM     11  C   UNL d   1       0.024   1.682  -0.098  0.00  0.00     0.290 C 
ATOM     12  C   UNL d   1      -1.261   0.919  -0.408  0.00  0.00    -0.009 C 
ATOM     13  C   UNL d   1      -1.056  -0.471  -0.262  0.00  0.00    -0.017 C 
ATOM     14  C   UNL d   1      -2.479   1.404  -0.864  0.00  0.00     0.010 C 
ATOM     15  C   UNL d   1      -2.108  -1.360  -0.411  0.00  0.00     0.013 C 
ATOM     16  C   UNL d   1       0.350  -0.713  -0.019  0.00  0.00    -0.017 A 
ATOM     17  C   UNL d   1      -3.360  -0.859  -0.770  0.00  0.00     0.001 C 
ATOM     18  C   UNL d   1      -3.536   0.511  -1.022  0.00  0.00     0.001 C 
ATOM     19  C   UNL d   1       1.029   0.526   0.000  0.00  0.00    -0.009 A 
ATOM     20  C   UNL d   1       1.047  -1.898   0.146  0.00  0.00     0.013 A 
ATOM     21  C   UNL d   1       2.407   0.593   0.158  0.00  0.00     0.010 A 
ATOM     22  C   UNL d   1       3.107  -0.603   0.324  0.00  0.00     0.001 A 
ATOM     23  C   UNL d   1       2.433  -1.837   0.325  0.00  0.00     0.001 A 
ENDBRANCH   3  11
BRANCH   4  24
ATOM     24  C   UNL d   1      -5.672   2.723   4.394  0.00  0.00     0.039 A 
ATOM     25  C   UNL d   1      -5.827   1.926   5.532  0.00  0.00     0.053 A 
ATOM     26  C   UNL d   1      -7.071   1.815   6.156  0.00  0.00     0.037 A 
ATOM     27 CL   UNL d   1      -7.244   0.812   7.545  0.00  0.00    -0.084 Cl
ATOM     28  C   UNL d   1      -8.176   2.503   5.665  0.00  0.00     0.048 A 
ATOM     29  C   UNL d   1      -8.018   3.319   4.552  0.00  0.00     0.037 A 
ATOM     30  C   UNL d   1      -6.777   3.441   3.920  0.00  0.00     0.053 A 
ATOM     31 CL   UNL d   1      -9.373   4.181   3.931  0.00  0.00    -0.084 Cl
ENDBRANCH   4  24
TORSDOF 2
