REMARK  5 active torsions:
REMARK  status: ('A' for Active; 'I' for Inactive)
REMARK    1  A    between atoms: C_2  and  S_1 
REMARK    2  A    between atoms: N_3  and  S_1 
REMARK    3  A    between atoms: C_4  and  N_3 
REMARK    4  A    between atoms: C_5  and  O_10 
REMARK    5  A    between atoms: O_10  and  C_11 
ROOT
ATOM      1  C   UNL d   1       0.907   2.651   0.606  0.00  0.00     0.044 A 
ATOM      2  C   UNL d   1       2.202   2.897   1.081  0.00  0.00     0.058 A 
ATOM      3  C   UNL d   1       2.414   3.857   2.070  0.00  0.00     0.062 A 
ATOM      4  C   UNL d   1       1.338   4.574   2.602  0.00  0.00     0.080 A 
ATOM      5  C   UNL d   1      -0.158   3.414   1.087  0.00  0.00     0.029 A 
ATOM      6 CL   UNL d   1       3.553   1.990   0.502  0.00  0.00    -0.082 Cl
ATOM      7  C   UNL d   1       0.057   4.374   2.084  0.00  0.00     0.039 A 
ENDROOT
BRANCH   1   8
ATOM      8  N   UNL d   1       0.657   1.663  -0.406  0.00  0.00    -0.176 NA
ATOM      9  H   UNL d   1       1.299   0.864  -0.363  0.00  0.00     0.146 HD
BRANCH   8  10
ATOM     10  S   UNL d   1       0.666   2.220  -2.027  0.00  0.00     0.316 S 
ATOM     11  O   UNL d   1       1.392   3.479  -2.060  0.00  0.00    -0.202 OA
ATOM     12  O   UNL d   1       1.180   1.081  -2.767  0.00  0.00    -0.202 OA
BRANCH  10  13
ATOM     13  C   UNL d   1      -1.142   2.477  -2.432  0.00  0.00     0.512 C 
ATOM     14  F   UNL d   1      -1.954   2.207  -1.367  0.00  0.00    -0.156 F 
ATOM     15  F   UNL d   1      -1.408   3.763  -2.801  0.00  0.00    -0.156 F 
ATOM     16  F   UNL d   1      -1.564   1.679  -3.453  0.00  0.00    -0.156 F 
ENDBRANCH  10  13
ENDBRANCH   8  10
ENDBRANCH   1   8
BRANCH   4  17
ATOM     17  O   UNL d   1       1.672   5.426   3.614  0.00  0.00    -0.255 OA
BRANCH  17  18
ATOM     18  C   UNL d   1       0.635   5.840   4.493  0.00  0.00     0.530 C 
ATOM     19  F   UNL d   1      -0.174   4.813   4.833  0.00  0.00    -0.144 F 
ATOM     20  F   UNL d   1       1.194   6.321   5.623  0.00  0.00    -0.144 F 
ATOM     21  F   UNL d   1      -0.098   6.820   3.925  0.00  0.00    -0.144 F 
ENDBRANCH  17  18
ENDBRANCH   4  17
TORSDOF 5
