REMARK  5 active torsions:
REMARK  status: ('A' for Active; 'I' for Inactive)
REMARK    1  A    between atoms: N_5  and  C_2 
REMARK    2  A    between atoms: C_3  and  N_6 
REMARK    3  A    between atoms: N_14  and  C_3 
REMARK    4  A    between atoms: C_24  and  N_14 
REMARK    5  A    between atoms: C_17  and  C_24 
ROOT
ATOM      1  N   UNL d   1      -1.222  -2.969   0.136  0.00  0.00    -0.265 NA
ATOM      2  N   UNL d   1      -1.285  -5.865  -0.196  0.00  0.00    -0.356 N 
ATOM      3  C   UNL d   1      -1.866  -3.575  -1.070  0.00  0.00     0.117 C 
ATOM      4  C   UNL d   1      -0.061  -3.793   0.551  0.00  0.00     0.117 C 
ATOM      5  C   UNL d   1      -0.557  -5.222   0.913  0.00  0.00     0.140 C 
ATOM      6  C   UNL d   1      -2.330  -5.013  -0.784  0.00  0.00     0.140 C 
ENDROOT
BRANCH   1   7
ATOM      7  C   UNL d   1      -0.899  -1.609  -0.097  0.00  0.00     0.097 A 
ATOM      8  C   UNL d   1      -0.720  -0.613   0.914  0.00  0.00     0.043 A 
ATOM      9  C   UNL d   1      -0.555   0.687   0.438  0.00  0.00     0.088 A 
ATOM     10  C   UNL d   1      -0.702  -0.593   2.379  0.00  0.00    -0.039 A 
ATOM     11  S   UNL d   1      -0.388   1.862   1.657  0.00  0.00    -0.083 SA
ATOM     12  N   UNL d   1      -0.529   1.099  -0.840  0.00  0.00    -0.346 N 
ATOM     13  C   UNL d   1      -0.525   0.689   2.872  0.00  0.00     0.059 A 
ATOM     14  C   UNL d   1      -0.693   0.101  -1.692  0.00  0.00     0.182 A 
ATOM     15  HN  UNL d   1      -0.399   2.071  -1.121  1.00  0.00     0.167 HD
ATOM     16  N   UNL d   1      -0.871  -1.191  -1.396  0.00  0.00    -0.342 N 
ATOM     17  HN  UNL d   1      -0.986  -1.871  -2.148  1.00  0.00     0.167 HD
ATOM     18  C   UNL d   1      -0.839  -1.748   3.312  0.00  0.00     0.050 C 
ENDBRANCH   1   7
BRANCH   2  19
ATOM     19  C   UNL d   1      -0.614  -6.795  -0.961  0.00  0.00     0.169 C 
ATOM     20  S   UNL d   1       0.154  -6.483  -2.413  0.00  0.00    -0.041 SA
BRANCH  19  21
ATOM     21  N   UNL d   1      -0.574  -8.069  -0.468  0.00  0.00    -0.367 N 
ATOM     22  H   UNL d   1      -0.030  -8.711  -1.030  0.00  0.00     0.161 HD
BRANCH  21  23
ATOM     23  C   UNL d   1      -1.460  -8.647   0.524  0.00  0.00     0.126 C 
BRANCH  23  24
ATOM     24  C   UNL d   1      -2.084  -9.941   0.078  0.00  0.00     0.003 A 
ATOM     25  C   UNL d   1      -1.246 -11.107  -0.402  0.00  0.00     0.007 A 
ATOM     26  C   UNL d   1      -2.159 -10.397  -1.365  0.00  0.00     0.007 A 
ENDBRANCH  23  24
ENDBRANCH  21  23
ENDBRANCH  19  21
ENDBRANCH   2  19
TORSDOF 5
