REMARK  3 active torsions:
REMARK  status: ('A' for Active; 'I' for Inactive)
REMARK    1  A    between atoms: C_15  and  N_4 
REMARK    2  A    between atoms: C_16  and  N_5 
REMARK    3  A    between atoms: C_13  and  C_11 
ROOT
ATOM      1  C   UNL d   1      -1.383  -0.059  -0.020  0.00  0.00     0.117 C 
ATOM      2  C   UNL d   1      -2.606  -0.023  -0.588  0.00  0.00     0.093 C 
ATOM      3  C   UNL d   1      -3.434  -1.198  -0.989  0.00  0.00     0.282 C 
ATOM      4  N   UNL d   1      -0.570  -1.140   0.387  0.00  0.00    -0.248 N 
ATOM      5  N   UNL d   1      -4.339  -0.636  -1.906  0.00  0.00    -0.220 N 
ATOM      6  S   UNL d   1      -0.552   1.462   0.394  0.00  0.00    -0.047 SA
ATOM      7  N   UNL d   1       0.550  -0.788   1.164  0.00  0.00    -0.283 N 
ATOM      8  HN  UNL d   1       1.201  -1.441   1.601  1.00  0.00     0.188 HD
ATOM      9  N   UNL d   1      -4.356   0.746  -1.897  0.00  0.00    -0.294 N 
ATOM     10  HN  UNL d   1      -4.980   1.353  -2.429  1.00  0.00     0.187 HD
ATOM     11  C   UNL d   1       0.615   0.501   1.228  0.00  0.00     0.137 C 
ATOM     12  C   UNL d   1      -3.417   1.121  -1.072  0.00  0.00     0.041 C 
ATOM     13  O   UNL d   1      -3.342  -2.332  -0.569  0.00  0.00    -0.265 OA
ATOM     14  C   UNL d   1      -3.285   2.555  -0.669  0.00  0.00     0.071 C 
ENDROOT
BRANCH   4  15
ATOM     15  C   UNL d   1      -0.444  -2.420  -0.228  0.00  0.00     0.057 A 
ATOM     16  C   UNL d   1      -0.616  -2.627  -1.607  0.00  0.00     0.031 A 
ATOM     17  C   UNL d   1      -0.506  -3.908  -2.162  0.00  0.00     0.002 A 
ATOM     18  C   UNL d   1      -0.193  -4.999  -1.353  0.00  0.00     0.000 A 
ATOM     19  C   UNL d   1       0.022  -4.809   0.009  0.00  0.00     0.002 A 
ATOM     20  C   UNL d   1      -0.096  -3.532   0.561  0.00  0.00     0.031 A 
ENDBRANCH   4  15
BRANCH  11  21
ATOM     21  C   UNL d   1       1.617   1.372   1.922  0.00  0.00     0.180 C 
ATOM     22  O   UNL d   1       1.296   2.450   2.408  0.00  0.00    -0.291 OA
ATOM     23  C   UNL d   1       3.008   0.827   2.046  0.00  0.00     0.099 C 
ENDBRANCH  11  21
BRANCH   5  24
ATOM     24  C   UNL d   1      -5.239  -1.310  -2.768  0.00  0.00     0.060 A 
ATOM     25  C   UNL d   1      -5.370  -2.704  -2.768  0.00  0.00     0.031 A 
ATOM     26  C   UNL d   1      -6.239  -3.343  -3.661  0.00  0.00     0.002 A 
ATOM     27  C   UNL d   1      -6.979  -2.598  -4.576  0.00  0.00     0.000 A 
ATOM     28  C   UNL d   1      -6.859  -1.213  -4.595  0.00  0.00     0.002 A 
ATOM     29  C   UNL d   1      -6.001  -0.576  -3.695  0.00  0.00     0.031 A 
ENDBRANCH   5  24
TORSDOF 3
