REMARK  4 active torsions:
REMARK  status: ('A' for Active; 'I' for Inactive)
REMARK    1  A    between atoms: N_9  and  C_1 
REMARK    2  A    between atoms: C_6  and  S_17 
REMARK       I    between atoms: C_15  and  N_9 
REMARK    3  A    between atoms: C_20  and  C_15 
REMARK    4  A    between atoms: S_17  and  C_20 
ROOT
ATOM      1  C   UNL d   1       2.450  -0.993   0.097  0.00  0.00     0.098 C 
ATOM      2  C   UNL d   1       1.930   0.282   0.221  0.00  0.00     0.085 C 
ATOM      3  C   UNL d   1       0.493   0.298   0.153  0.00  0.00    -0.021 C 
ATOM      4  C   UNL d   1      -0.012  -0.984   0.121  0.00  0.00    -0.007 C 
ATOM      5  S   UNL d   1       1.199  -2.162   0.147  0.00  0.00    -0.075 SA
ATOM      6  C   UNL d   1       2.662   1.506   0.332  0.00  0.00     0.103 C 
ATOM      7  N   UNL d   1       3.163   2.548   0.493  0.00  0.00    -0.191 NA
ATOM      8  C   UNL d   1      -0.401   1.504   0.071  0.00  0.00     0.042 C 
ATOM      9  C   UNL d   1      -1.465  -1.346   0.080  0.00  0.00     0.051 C 
ATOM     10  C   UNL d   1      -1.886   1.149   0.261  0.00  0.00     0.009 C 
ATOM     11  C   UNL d   1      -2.307  -0.162  -0.441  0.00  0.00    -0.014 C 
ATOM     12  C   UNL d   1      -2.225  -0.047  -1.967  0.00  0.00     0.010 C 
ENDROOT
BRANCH   1  13
ATOM     13  N   UNL d   1       3.773  -1.438   0.040  0.00  0.00    -0.319 N 
ATOM     14  C   UNL d   1       4.164  -2.675  -0.488  0.00  0.00     0.232 C 
ATOM     15  O   UNL d   1       3.447  -3.460  -1.105  0.00  0.00    -0.272 OA
ATOM     16  H   UNL d   1       4.497  -0.747   0.191  0.00  0.00     0.169 HD
BRANCH  14  17
ATOM     17  C   UNL d   1       5.628  -3.037  -0.264  0.00  0.00     0.186 C 
BRANCH  17  18
ATOM     18  S   UNL d   1       6.676  -2.493  -1.639  0.00  0.00    -0.077 SA
BRANCH  18  19
ATOM     19  C   UNL d   1       6.784  -0.813  -1.226  0.00  0.00     0.188 A 
ATOM     20  N   UNL d   1       6.547   0.158  -2.083  0.00  0.00    -0.329 N 
ATOM     21  C   UNL d   1       6.455   1.276  -1.295  0.00  0.00     0.068 A 
ATOM     22  HN  UNL d   1       6.454   0.093  -3.097  1.00  0.00     0.168 HD
ATOM     23  C   UNL d   1       6.110   2.595  -1.604  0.00  0.00     0.032 A 
ATOM     24  C   UNL d   1       6.684   0.936   0.027  0.00  0.00     0.105 A 
ATOM     25  C   UNL d   1       5.975   3.499  -0.539  0.00  0.00     0.002 A 
ATOM     26  C   UNL d   1       6.216   3.108   0.787  0.00  0.00     0.003 A 
ATOM     27  C   UNL d   1       6.601   1.803   1.105  0.00  0.00     0.040 A 
ATOM     28  O   UNL d   1       6.912  -0.403   0.076  0.00  0.00    -0.285 OA
ENDBRANCH  18  19
ENDBRANCH  17  18
ENDBRANCH  14  17
ENDBRANCH   1  13
TORSDOF 4
