REMARK  4 active torsions:
REMARK  status: ('A' for Active; 'I' for Inactive)
REMARK    1  A    between atoms: N_3  and  C_1 
REMARK    2  A    between atoms: N_7  and  C_1 
REMARK    3  A    between atoms: C_2  and  N_3 
REMARK    4  A    between atoms: N_8  and  N_7 
ROOT
ATOM      1  N   UNL d   1       0.433   0.263  -1.146  0.00  0.00    -0.331 N 
ATOM      2  H   UNL d   1      -0.510   0.637  -1.083  0.00  0.00     0.168 HD
ENDROOT
BRANCH   1   3
ATOM      3  C   UNL d   1       1.025   0.349  -2.429  0.00  0.00     0.062 A 
ATOM      4  C   UNL d   1       0.583   1.393  -3.272  0.00  0.00     0.061 A 
ATOM      5 CL   UNL d   1      -0.673   2.478  -2.772  0.00  0.00    -0.082 Cl
ATOM      6  C   UNL d   1       1.170   1.614  -4.519  0.00  0.00     0.026 A 
ATOM      7  C   UNL d   1       2.191   0.780  -4.957  0.00  0.00     0.002 A 
ATOM      8  C   UNL d   1       2.581  -0.304  -4.173  0.00  0.00     0.009 A 
ATOM      9  C   UNL d   1       1.980  -0.560  -2.925  0.00  0.00    -0.034 A 
ATOM     10  C   UNL d   1       2.348  -1.859  -2.256  0.00  0.00     0.050 C 
ENDBRANCH   1   3
BRANCH   1  11
ATOM     11  C   UNL d   1       0.914  -0.192   0.041  0.00  0.00     0.186 C 
ATOM     12  S   UNL d   1      -0.157  -0.681   1.227  0.00  0.00    -0.040 SA
BRANCH  11  13
ATOM     13  N   UNL d   1       2.253  -0.158   0.325  0.00  0.00    -0.300 N 
ATOM     14  H   UNL d   1       2.467  -0.453   1.280  0.00  0.00     0.183 HD
BRANCH  13  15
ATOM     15  N   UNL d   1       3.104   0.849  -0.201  0.00  0.00    -0.248 NA
ATOM     16  H   UNL d   1       2.525   1.544  -0.683  0.00  0.00     0.143 HD
ATOM     17  H   UNL d   1       3.680   0.426  -0.932  0.00  0.00     0.143 HD
ENDBRANCH  13  15
ENDBRANCH  11  13
ENDBRANCH   1  11
TORSDOF 4
