REMARK  2 active torsions:
REMARK  status: ('A' for Active; 'I' for Inactive)
REMARK    1  A    between atoms: C_9  and  N_1 
REMARK    2  A    between atoms: C_7  and  C_6 
ROOT
ATOM      1  N   UNL d   1       0.155  -1.215  -0.089  0.00  0.00    -0.262 N 
ATOM      2  C   UNL d   1       0.971  -0.097   0.007  0.00  0.00     0.153 A 
ATOM      3  C   UNL d   1      -1.497   0.482  -0.089  0.00  0.00     0.077 A 
ATOM      4  C   UNL d   1      -1.214  -0.980  -0.229  0.00  0.00     0.271 A 
ATOM      5  S   UNL d   1      -0.016   1.361  -0.005  0.00  0.00    -0.054 SA
ATOM      6  C   UNL d   1      -2.683   1.097   0.029  0.00  0.00     0.043 C 
ATOM      7  S   UNL d   1       2.641   0.018   0.028  0.00  0.00    -0.052 SA
ATOM      8  O   UNL d   1      -2.084  -1.816  -0.430  0.00  0.00    -0.266 OA
ENDROOT
BRANCH   1   9
ATOM      9  C   UNL d   1       0.644  -2.555  -0.098  0.00  0.00     0.044 A 
ATOM     10  C   UNL d   1       0.271  -3.442  -1.116  0.00  0.00     0.030 A 
ATOM     11  C   UNL d   1       0.768  -4.748  -1.138  0.00  0.00     0.002 A 
ATOM     12  C   UNL d   1       1.617  -5.189  -0.125  0.00  0.00     0.000 A 
ATOM     13  C   UNL d   1       1.968  -4.328   0.911  0.00  0.00     0.002 A 
ATOM     14  C   UNL d   1       1.489  -3.016   0.923  0.00  0.00     0.030 A 
ENDBRANCH   1   9
BRANCH   6  15
ATOM     15  C   UNL d   1      -3.922   0.414   0.104  0.00  0.00     0.006 A 
ATOM     16  S   UNL d   1      -4.604   0.068   1.645  0.00  0.00    -0.102 SA
ATOM     17  C   UNL d   1      -5.983  -0.663   0.951  0.00  0.00     0.050 A 
ATOM     18  C   UNL d   1      -5.946  -0.632  -0.424  0.00  0.00     0.008 A 
ATOM     19  C   UNL d   1      -4.760  -0.008  -0.912  0.00  0.00     0.019 A 
ENDBRANCH   6  15
TORSDOF 2
