REMARK  5 active torsions:
REMARK  status: ('A' for Active; 'I' for Inactive)
REMARK    1  A    between atoms: C_14  and  N_3 
REMARK    2  A    between atoms: C_12  and  N_9 
REMARK    3  A    between atoms: C_13  and  C_12 
REMARK    4  A    between atoms: C_16  and  C_13 
REMARK    5  A    between atoms: C_21  and  C_14 
ROOT
ATOM      1  C   UNL d   1       0.323   0.537   0.186  0.00  0.00     0.155 A 
ATOM      2  C   UNL d   1       0.351  -0.762  -0.256  0.00  0.00     0.160 A 
ATOM      3  N   UNL d   1       1.591   0.985  -0.063  0.00  0.00    -0.254 N 
ATOM      4  N   UNL d   1      -0.730   1.222   0.695  0.00  0.00    -0.335 N 
ATOM      5  HN  UNL d   1      -0.667   2.173   1.059  1.00  0.00     0.168 HD
ATOM      6  N   UNL d   1       1.613  -1.111  -0.634  0.00  0.00    -0.276 N 
ATOM      7  HN  UNL d   1       1.913  -2.027  -0.965  1.00  0.00     0.184 HD
ATOM      8  N   UNL d   1       2.382  -0.032  -0.491  0.00  0.00    -0.018 NA
ATOM      9  N   UNL d   1      -1.975  -0.777   0.183  0.00  0.00    -0.301 N 
ATOM     10  C   UNL d   1      -0.872  -1.527  -0.262  0.00  0.00     0.280 A 
ATOM     11  C   UNL d   1      -1.831   0.526   0.667  0.00  0.00     0.188 A 
ATOM     12  O   UNL d   1      -0.939  -2.711  -0.583  0.00  0.00    -0.265 OA
ENDROOT
BRANCH   9  13
ATOM     13  C   UNL d   1      -3.289  -1.412   0.199  0.00  0.00     0.216 C 
BRANCH  13  14
ATOM     14  C   UNL d   1      -4.174  -1.046  -1.002  0.00  0.00     0.177 C 
ATOM     15  O   UNL d   1      -3.837  -0.215  -1.840  0.00  0.00    -0.291 OA
BRANCH  14  16
ATOM     16  C   UNL d   1      -5.530  -1.690  -1.098  0.00  0.00     0.011 A 
ATOM     17  C   UNL d   1      -6.009  -2.562  -0.105  0.00  0.00     0.016 A 
ATOM     18  C   UNL d   1      -7.290  -3.118  -0.200  0.00  0.00     0.020 A 
ATOM     19  C   UNL d   1      -8.105  -2.811  -1.286  0.00  0.00     0.011 A 
ATOM     20  C   UNL d   1      -7.647  -1.961  -2.286  0.00  0.00     0.020 A 
ATOM     21 BR   UNL d   1      -9.843  -3.546  -1.388  0.00  0.00    -0.051 Br
ATOM     22  C   UNL d   1      -6.363  -1.398  -2.192  0.00  0.00     0.016 A 
ENDBRANCH  14  16
ENDBRANCH  13  14
ENDBRANCH   9  13
BRANCH   3  23
ATOM     23  C   UNL d   1       2.120   2.328   0.064  0.00  0.00     0.187 C 
BRANCH  23  24
ATOM     24  C   UNL d   1       1.979   3.108  -1.223  0.00  0.00    -0.039 A 
ATOM     25  C   UNL d   1       0.826   3.868  -1.471  0.00  0.00     0.009 A 
ATOM     26  C   UNL d   1       0.686   4.577  -2.666  0.00  0.00     0.001 A 
ATOM     27  C   UNL d   1       1.692   4.533  -3.628  0.00  0.00     0.000 A 
ATOM     28  C   UNL d   1       2.840   3.776  -3.398  0.00  0.00     0.001 A 
ATOM     29  C   UNL d   1       2.982   3.064  -2.204  0.00  0.00     0.009 A 
ENDBRANCH  23  24
ENDBRANCH   3  23
TORSDOF 5
