REMARK  8 active torsions:
REMARK  status: ('A' for Active; 'I' for Inactive)
REMARK    1  A    between atoms: C_8  and  N_1 
REMARK    2  A    between atoms: S_9  and  C_2 
REMARK    3  A    between atoms: O_16  and  C_3 
REMARK    4  A    between atoms: C_13  and  C_8 
REMARK    5  A    between atoms: C_15  and  S_9 
REMARK    6  A    between atoms: C_10  and  C_15 
REMARK       I    between atoms: N_11  and  C_10 
REMARK    7  A    between atoms: C_19  and  N_11 
REMARK    8  A    between atoms: C_20  and  C_12 
ROOT
ATOM      1  N   UNL d   1      -0.046  -0.415  -1.277  0.00  0.00    -0.282 N 
ATOM      2  C   UNL d   1       0.698  -1.462  -0.794  0.00  0.00     0.165 A 
ATOM      3  C   UNL d   1      -1.120  -0.338  -0.415  0.00  0.00     0.241 A 
ATOM      4  N   UNL d   1       0.070  -2.032   0.212  0.00  0.00    -0.277 N 
ATOM      5  HN  UNL d   1       0.388  -2.851   0.731  1.00  0.00     0.189 HD
ATOM      6  N   UNL d   1      -1.086  -1.330   0.439  0.00  0.00    -0.263 N 
ATOM      7  HN  UNL d   1      -1.791  -1.542   1.145  1.00  0.00     0.190 HD
ENDROOT
BRANCH   2   8
ATOM      8  S   UNL d   1       2.262  -1.933  -1.363  0.00  0.00    -0.083 SA
BRANCH   8   9
ATOM      9  C   UNL d   1       2.698  -3.212  -0.144  0.00  0.00     0.185 C 
BRANCH   9  10
ATOM     10  C   UNL d   1       4.202  -3.474  -0.126  0.00  0.00     0.231 C 
ATOM     11  N   UNL d   1       4.509  -4.799   0.166  0.00  0.00    -0.327 N 
ATOM     12  H   UNL d   1       3.758  -5.476   0.111  0.00  0.00     0.169 HD
ATOM     13  O   UNL d   1       5.026  -2.582  -0.314  0.00  0.00    -0.272 OA
BRANCH  11  14
ATOM     14  C   UNL d   1       5.797  -5.327   0.406  0.00  0.00     0.034 A 
ATOM     15  C   UNL d   1       6.907  -4.541   0.714  0.00  0.00     0.030 A 
ATOM     16  C   UNL d   1       8.158  -5.128   0.940  0.00  0.00     0.010 A 
ATOM     17  C   UNL d   1       8.330  -6.516   0.849  0.00  0.00    -0.055 A 
ATOM     18  C   UNL d   1       7.207  -7.303   0.563  0.00  0.00     0.010 A 
ATOM     19  C   UNL d   1       5.952  -6.716   0.358  0.00  0.00     0.030 A 
BRANCH  17  20
ATOM     20  C   UNL d   1       9.683  -7.171   1.064  0.00  0.00     0.010 C 
ATOM     21  C   UNL d   1      10.760  -6.595   0.139  0.00  0.00     0.015 C 
ATOM     22  C   UNL d   1      10.118  -7.073   2.528  0.00  0.00     0.015 C 
ENDBRANCH  17  20
ENDBRANCH  11  14
ENDBRANCH   9  10
ENDBRANCH   8   9
ENDBRANCH   2   8
BRANCH   1  23
ATOM     23  C   UNL d   1       0.094   0.387  -2.489  0.00  0.00     0.124 C 
ATOM     24  C   UNL d   1       0.562  -0.376  -3.739  0.00  0.00     0.038 C 
BRANCH  23  25
ATOM     25  C   UNL d   1       0.871   1.684  -2.296  0.00  0.00    -0.035 A 
ATOM     26  C   UNL d   1       1.881   1.847  -1.335  0.00  0.00     0.009 A 
ATOM     27  C   UNL d   1       2.611   3.037  -1.259  0.00  0.00     0.001 A 
ATOM     28  C   UNL d   1       2.345   4.083  -2.138  0.00  0.00     0.000 A 
ATOM     29  C   UNL d   1       1.340   3.947  -3.089  0.00  0.00     0.001 A 
ATOM     30  C   UNL d   1       0.608   2.760  -3.166  0.00  0.00     0.009 A 
ENDBRANCH  23  25
ENDBRANCH   1  23
BRANCH   3  31
ATOM     31  O   UNL d   1      -2.077   0.574  -0.435  0.00  0.00    -0.331 OA
ATOM     32  H   UNL d   1      -1.696   1.411  -0.757  0.00  0.00     0.221 HD
ENDBRANCH   3  31
TORSDOF 8
