REMARK  2 active torsions:
REMARK  status: ('A' for Active; 'I' for Inactive)
REMARK    1  A    between atoms: C_12  and  N_1 
REMARK    2  A    between atoms: C_5  and  C_13 
ROOT
ATOM      1  C   UNL d   1       0.048   2.320  -0.009  0.00  0.00     0.045 A 
ATOM      2  C   UNL d   1       0.117   5.166   0.040  0.00  0.00    -0.008 A 
ATOM      3  C   UNL d   1      -0.665   3.050   0.953  0.00  0.00     0.031 A 
ATOM      4  C   UNL d   1       0.786   3.047  -0.954  0.00  0.00     0.031 A 
ATOM      5  C   UNL d   1      -0.624   4.452   0.986  0.00  0.00     0.016 A 
ATOM      6  C   UNL d   1       0.810   4.449  -0.939  0.00  0.00     0.016 A 
ENDROOT
BRANCH   1   7
ATOM      7  N   UNL d   1       0.024   0.898  -0.025  0.00  0.00    -0.245 N 
ATOM      8  C   UNL d   1       0.948   0.096  -0.636  0.00  0.00     0.255 A 
ATOM      9  C   UNL d   1       0.554  -1.297  -0.396  0.00  0.00     0.080 A 
ATOM     10  O   UNL d   1       1.972   0.365  -1.243  0.00  0.00    -0.268 OA
ATOM     11  C   UNL d   1      -0.560  -1.287   0.329  0.00  0.00     0.080 A 
ATOM     12  C   UNL d   1      -0.921   0.113   0.581  0.00  0.00     0.255 A 
ATOM     13  O   UNL d   1      -1.927   0.401   1.204  0.00  0.00    -0.268 OA
ENDBRANCH   1   7
BRANCH   2  14
ATOM     14  C   UNL d   1       0.168   6.621   0.045  0.00  0.00     0.063 A 
ATOM     15  N   UNL d   1       0.302   7.341  -1.138  0.00  0.00    -0.292 N 
ATOM     16  N   UNL d   1       0.328   8.646  -0.922  0.00  0.00    -0.061 NA
ATOM     17  HN  UNL d   1       0.371   6.914  -2.061  1.00  0.00     0.183 HD
ATOM     18  S   UNL d   1       0.216   9.039   0.699  0.00  0.00    -0.010 SA
ATOM     19  C   UNL d   1       0.118   7.398   1.190  0.00  0.00     0.096 A 
ENDBRANCH   2  14
TORSDOF 2
