REMARK  5 active torsions:
REMARK  status: ('A' for Active; 'I' for Inactive)
REMARK    1  A    between atoms: C_2  and  S_1 
REMARK    2  A    between atoms: N_3  and  S_1 
REMARK    3  A    between atoms: C_4  and  N_3 
REMARK    4  A    between atoms: C_5  and  O_7 
REMARK    5  A    between atoms: O_7  and  C_6 
ROOT
ATOM      1  C   UNL d   1       0.851   0.321   2.691  0.00  0.00     0.076 A 
ATOM      2  C   UNL d   1      -0.209   0.176   3.604  0.00  0.00     0.107 A 
ATOM      3  C   UNL d   1       0.059  -0.351   4.877  0.00  0.00     0.063 A 
ATOM      4  C   UNL d   1       2.147  -0.061   3.068  0.00  0.00     0.034 A 
ATOM      5  C   UNL d   1       1.347  -0.749   5.230  0.00  0.00     0.036 A 
ATOM      6  C   UNL d   1       2.396  -0.601   4.330  0.00  0.00     0.026 A 
ATOM      7 CL   UNL d   1       1.640  -1.432   6.780  0.00  0.00    -0.084 Cl
ENDROOT
BRANCH   1   8
ATOM      8  N   UNL d   1       0.713   0.845   1.375  0.00  0.00    -0.275 N 
ATOM      9  H   UNL d   1       0.026   0.388   0.768  0.00  0.00     0.179 HD
BRANCH   8  10
ATOM     10  S   UNL d   1       0.743   2.526   1.143  0.00  0.00     0.334 S 
ATOM     11  O   UNL d   1      -0.123   2.711  -0.012  0.00  0.00    -0.196 OA
ATOM     12  O   UNL d   1       0.393   3.150   2.403  0.00  0.00    -0.196 OA
BRANCH  10  13
ATOM     13  C   UNL d   1       2.515   2.895   0.663  0.00  0.00     0.517 C 
ATOM     14  F   UNL d   1       3.282   1.765   0.624  0.00  0.00    -0.155 F 
ATOM     15  F   UNL d   1       2.608   3.466  -0.571  0.00  0.00    -0.155 F 
ATOM     16  F   UNL d   1       3.121   3.745   1.539  0.00  0.00    -0.155 F 
ENDBRANCH  10  13
ENDBRANCH   8  10
ENDBRANCH   1   8
BRANCH   2  17
ATOM     17  O   UNL d   1      -1.507   0.565   3.463  0.00  0.00    -0.253 OA
BRANCH  17  18
ATOM     18  C   UNL d   1      -2.191   0.430   2.232  0.00  0.00     0.530 C 
ATOM     19  F   UNL d   1      -1.494  -0.247   1.293  0.00  0.00    -0.144 F 
ATOM     20  F   UNL d   1      -3.340  -0.248   2.453  0.00  0.00    -0.144 F 
ATOM     21  F   UNL d   1      -2.505   1.649   1.753  0.00  0.00    -0.144 F 
ENDBRANCH  17  18
ENDBRANCH   2  17
TORSDOF 5
