REMARK  3 active torsions:
REMARK  status: ('A' for Active; 'I' for Inactive)
REMARK    1  A    between atoms: C_2  and  C_1 
REMARK    2  A    between atoms: C_3  and  C_2 
REMARK    3  A    between atoms: N_5  and  C_4 
ROOT
ATOM      1  C   UNL d   1      -0.368   2.048   0.901  0.00  0.00     0.019 A 
ATOM      2  C   UNL d   1      -2.155   4.270   0.619  0.00  0.00     0.029 A 
ATOM      3  C   UNL d   1      -1.431   1.994   0.003  0.00  0.00     0.017 A 
ATOM      4  C   UNL d   1      -0.211   3.197   1.677  0.00  0.00     0.017 A 
ATOM      5  C   UNL d   1      -2.297   3.094  -0.138  0.00  0.00     0.030 A 
ATOM      6  C   UNL d   1      -1.092   4.279   1.536  0.00  0.00     0.030 A 
ENDROOT
BRANCH   1   7
ATOM      7  C   UNL d   1       0.601   0.933   1.109  0.00  0.00     0.265 C 
ATOM      8  O   UNL d   1       1.138   0.837   2.215  0.00  0.00    -0.282 OA
BRANCH   7   9
ATOM      9  C   UNL d   1       0.900  -0.025  -0.038  0.00  0.00     0.456 C 
ATOM     10  F   UNL d   1       0.349   0.316  -1.235  0.00  0.00    -0.163 F 
ATOM     11  F   UNL d   1       0.445  -1.283   0.231  0.00  0.00    -0.163 F 
ATOM     12  F   UNL d   1       2.239  -0.150  -0.264  0.00  0.00    -0.163 F 
ENDBRANCH   7   9
ENDBRANCH   1   7
BRANCH   2  13
ATOM     13  N   UNL d   1      -3.042   5.334   0.533  0.00  0.00    -0.390 N 
ATOM     14  C   UNL d   1      -2.583   6.710   0.731  0.00  0.00     0.149 C 
ATOM     15  C   UNL d   1      -4.315   5.222  -0.173  0.00  0.00     0.149 C 
ENDBRANCH   2  13
TORSDOF 3
