REMARK  7 active torsions:
REMARK  status: ('A' for Active; 'I' for Inactive)
REMARK    1  A    between atoms: S_13  and  C_2 
REMARK    2  A    between atoms: C_6  and  N_14 
REMARK    3  A    between atoms: N_8  and  C_6 
REMARK    4  A    between atoms: C_10  and  N_8 
REMARK    5  A    between atoms: C_9  and  C_19 
REMARK       I    between atoms: N_15  and  C_9 
REMARK    6  A    between atoms: C_19  and  S_13 
REMARK    7  A    between atoms: N_14  and  N_15 
ROOT
ATOM      1  C   UNL d   1       4.903   3.663  -0.151  0.00  0.00     0.245 C 
ATOM      2  N   UNL d   1       5.824   2.823  -0.757  0.00  0.00    -0.267 N 
ATOM      3  O   UNL d   1       4.162   3.291   0.755  0.00  0.00    -0.271 OA
ATOM      4  H   UNL d   1       6.572   3.186  -1.343  0.00  0.00     0.190 HD
ENDROOT
BRANCH   1   5
ATOM      5  C   UNL d   1       4.925   5.088  -0.672  0.00  0.00     0.186 C 
BRANCH   5   6
ATOM      6  S   UNL d   1       5.806   6.115   0.536  0.00  0.00    -0.095 SA
BRANCH   6   7
ATOM      7  C   UNL d   1       5.675   7.702  -0.190  0.00  0.00     0.115 A 
ATOM      8  S   UNL d   1       6.302   9.090   0.602  0.00  0.00    -0.045 SA
ATOM      9  C   UNL d   1       5.803  10.042  -0.715  0.00  0.00     0.103 A 
ATOM     10  C   UNL d   1       5.185   9.245  -1.676  0.00  0.00     0.067 A 
ATOM     11  N   UNL d   1       6.010  11.374  -0.768  0.00  0.00    -0.358 N 
ATOM     12  C   UNL d   1       4.714   9.892  -2.831  0.00  0.00     0.034 A 
ATOM     13  N   UNL d   1       5.116   7.895  -1.365  0.00  0.00    -0.343 N 
ATOM     14  C   UNL d   1       4.904  11.271  -2.933  0.00  0.00     0.019 A 
ATOM     15  C   UNL d   1       5.543  11.941  -1.901  0.00  0.00     0.089 A 
ATOM     16  HN  UNL d   1       4.700   7.171  -1.951  1.00  0.00     0.167 HD
ATOM     17  HN  UNL d   1       6.472  11.900  -0.027  1.00  0.00     0.166 HD
ENDBRANCH   6   7
ENDBRANCH   5   6
ENDBRANCH   1   5
BRANCH   2  18
ATOM     18  N   UNL d   1       6.089   1.593  -0.129  0.00  0.00    -0.274 N 
ATOM     19  H   UNL d   1       5.477   1.371   0.658  0.00  0.00     0.189 HD
BRANCH  18  20
ATOM     20  C   UNL d   1       6.856   0.630  -0.724  0.00  0.00     0.191 C 
ATOM     21  S   UNL d   1       7.466   0.745  -2.285  0.00  0.00    -0.039 SA
BRANCH  20  22
ATOM     22  N   UNL d   1       7.309  -0.410   0.042  0.00  0.00    -0.330 N 
ATOM     23  H   UNL d   1       8.086  -0.891  -0.398  0.00  0.00     0.168 HD
BRANCH  22  24
ATOM     24  C   UNL d   1       7.076  -0.721   1.399  0.00  0.00     0.073 A 
ATOM     25  C   UNL d   1       5.859  -0.532   2.060  0.00  0.00     0.143 A 
ATOM     26  F   UNL d   1       4.782  -0.088   1.397  0.00  0.00    -0.204 F 
ATOM     27  C   UNL d   1       5.714  -0.843   3.411  0.00  0.00     0.044 A 
ATOM     28  C   UNL d   1       6.798  -1.346   4.126  0.00  0.00     0.003 A 
ATOM     29  C   UNL d   1       8.012  -1.567   3.476  0.00  0.00     0.002 A 
ATOM     30  C   UNL d   1       8.143  -1.279   2.114  0.00  0.00     0.033 A 
ENDBRANCH  22  24
ENDBRANCH  20  22
ENDBRANCH  18  20
ENDBRANCH   2  18
TORSDOF 7
