REMARK  7 active torsions:
REMARK  status: ('A' for Active; 'I' for Inactive)
REMARK    1  A    between atoms: C_17  and  N_1 
REMARK    2  A    between atoms: C_2  and  N_13 
REMARK    3  A    between atoms: C_18  and  N_3 
REMARK    4  A    between atoms: C_19  and  C_4 
REMARK    5  A    between atoms: S_15  and  C_7 
REMARK       I    between atoms: N_13  and  C_16 
REMARK    6  A    between atoms: C_23  and  S_15 
REMARK    7  A    between atoms: C_16  and  C_23 
ROOT
ATOM      1  N   UNL d   1      -2.247  -1.343   3.631  0.00  0.00    -0.275 N 
ATOM      2  C   UNL d   1      -2.973  -2.071   4.589  0.00  0.00     0.139 A 
ATOM      3  N   UNL d   1      -4.206  -2.256   4.149  0.00  0.00    -0.282 N 
ATOM      4  HN  UNL d   1      -4.967  -2.684   4.676  1.00  0.00     0.188 HD
ATOM      5  C   UNL d   1      -3.134  -1.254   2.563  0.00  0.00     0.168 A 
ATOM      6  N   UNL d   1      -4.294  -1.780   2.877  0.00  0.00    -0.278 N 
ATOM      7  HN  UNL d   1      -5.116  -1.826   2.275  1.00  0.00     0.189 HD
ENDROOT
BRANCH   5   8
ATOM      8  S   UNL d   1      -2.856  -0.482   1.034  0.00  0.00    -0.083 SA
BRANCH   8   9
ATOM      9  C   UNL d   1      -3.693  -1.657  -0.075  0.00  0.00     0.185 C 
BRANCH   9  10
ATOM     10  C   UNL d   1      -5.184  -1.368  -0.202  0.00  0.00     0.233 C 
ATOM     11  N   UNL d   1      -5.939  -2.532  -0.265  0.00  0.00    -0.311 N 
ATOM     12  H   UNL d   1      -5.465  -3.427  -0.257  0.00  0.00     0.170 HD
ATOM     13  O   UNL d   1      -5.627  -0.222  -0.280  0.00  0.00    -0.272 OA
BRANCH  11  14
ATOM     14  C   UNL d   1      -7.330  -2.538  -0.245  0.00  0.00     0.132 C 
ATOM     15  N   UNL d   1      -8.106  -3.677  -0.001  0.00  0.00    -0.240 N 
ATOM     16  N   UNL d   1      -9.424  -3.439  -0.251  0.00  0.00    -0.297 N 
ATOM     17  C   UNL d   1      -9.505  -2.113  -0.394  0.00  0.00     0.026 C 
ATOM     18  HN  UNL d   1     -10.180  -4.120  -0.315  1.00  0.00     0.187 HD
ATOM     19  C   UNL d   1      -8.232  -1.515  -0.439  0.00  0.00     0.076 C 
ATOM     20  C   UNL d   1     -10.822  -1.440  -0.479  0.00  0.00     0.070 C 
BRANCH  15  21
ATOM     21  C   UNL d   1      -7.703  -4.949   0.510  0.00  0.00     0.058 A 
ATOM     22  C   UNL d   1      -6.541  -5.088   1.282  0.00  0.00     0.031 A 
ATOM     23  C   UNL d   1      -6.162  -6.341   1.765  0.00  0.00     0.002 A 
ATOM     24  C   UNL d   1      -6.954  -7.458   1.505  0.00  0.00     0.000 A 
ATOM     25  C   UNL d   1      -8.131  -7.323   0.772  0.00  0.00     0.002 A 
ATOM     26  C   UNL d   1      -8.518  -6.070   0.288  0.00  0.00     0.031 A 
ENDBRANCH  15  21
ENDBRANCH  11  14
ENDBRANCH   9  10
ENDBRANCH   8   9
ENDBRANCH   5   8
BRANCH   1  27
ATOM     27  C   UNL d   1      -0.898  -0.872   3.745  0.00  0.00     0.043 A 
ATOM     28  C   UNL d   1      -0.039  -0.848   2.638  0.00  0.00     0.030 A 
ATOM     29  C   UNL d   1       1.296  -0.454   2.781  0.00  0.00     0.002 A 
ATOM     30  C   UNL d   1       1.792  -0.094   4.029  0.00  0.00     0.000 A 
ATOM     31  C   UNL d   1       0.948  -0.100   5.135  0.00  0.00     0.002 A 
ATOM     32  C   UNL d   1      -0.394  -0.470   4.993  0.00  0.00     0.030 A 
ENDBRANCH   1  27
BRANCH   2  33
ATOM     33  C   UNL d   1      -2.486  -2.686   5.830  0.00  0.00     0.013 A 
ATOM     34  C   UNL d   1      -3.286  -2.651   6.976  0.00  0.00     0.032 A 
ATOM     35  C   UNL d   1      -2.825  -3.268   8.127  0.00  0.00     0.088 A 
ATOM     36  N   UNL d   1      -1.640  -3.908   8.210  0.00  0.00    -0.375 N 
ATOM     37  C   UNL d   1      -0.896  -3.958   7.088  0.00  0.00     0.088 A 
ATOM     38  HN  UNL d   1      -1.323  -4.334   9.081  1.00  0.00     0.164 HD
ATOM     39  C   UNL d   1      -1.276  -3.384   5.886  0.00  0.00     0.032 A 
ENDBRANCH   2  33
TORSDOF 7
