REMARK  3 active torsions:
REMARK  status: ('A' for Active; 'I' for Inactive)
REMARK    1  A    between atoms: C_10  and  C_3 
REMARK    2  A    between atoms: C_7  and  C_4 
REMARK    3  A    between atoms: C_11  and  C_12 
ROOT
ATOM      1  N   UNL d   1       1.246  -0.512   0.478  0.00  0.00    -0.349 N 
ATOM      2  HN  UNL d   1       2.014  -1.012   0.927  1.00  0.00     0.166 HD
ATOM      3  C   UNL d   1       0.185  -1.089  -0.058  0.00  0.00     0.084 A 
ATOM      4  C   UNL d   1       1.172   0.867   0.346  0.00  0.00     0.050 A 
ATOM      5  S   UNL d   1      -0.968   0.012  -0.720  0.00  0.00    -0.081 SA
ATOM      6  C   UNL d   1       0.039   1.326  -0.294  0.00  0.00     0.082 A 
ENDROOT
BRANCH   3   7
ATOM      7  C   UNL d   1      -0.057  -2.542  -0.081  0.00  0.00    -0.002 A 
ATOM      8  C   UNL d   1       0.465  -3.352   0.934  0.00  0.00     0.015 A 
ATOM      9  C   UNL d   1       0.254  -4.739   0.933  0.00  0.00     0.009 A 
ATOM     10  C   UNL d   1      -0.474  -5.373  -0.090  0.00  0.00    -0.051 A 
ATOM     11  C   UNL d   1      -0.989  -4.555  -1.105  0.00  0.00     0.009 A 
ATOM     12  C   UNL d   1      -0.784  -3.168  -1.102  0.00  0.00     0.015 A 
BRANCH  10  13
ATOM     13  C   UNL d   1      -0.664  -6.901  -0.083  0.00  0.00    -0.024 C 
ATOM     14  C   UNL d   1      -1.461  -7.435  -1.297  0.00  0.00     0.019 C 
ATOM     15  C   UNL d   1       0.715  -7.594  -0.105  0.00  0.00     0.019 C 
ATOM     16  C   UNL d   1      -1.429  -7.329   1.187  0.00  0.00     0.019 C 
ENDBRANCH  10  13
ENDBRANCH   3   7
BRANCH   4  17
ATOM     17  C   UNL d   1       2.240   1.736   0.827  0.00  0.00    -0.007 A 
ATOM     18  C   UNL d   1       3.563   1.270   0.832  0.00  0.00     0.039 A 
ATOM     19  C   UNL d   1       4.607   2.092   1.270  0.00  0.00     0.056 A 
ATOM     20 CL   UNL d   1       6.211   1.451   1.224  0.00  0.00    -0.083 Cl
ATOM     21  C   UNL d   1       4.335   3.389   1.720  0.00  0.00     0.055 A 
ATOM     22  C   UNL d   1       3.019   3.856   1.731  0.00  0.00     0.026 A 
ATOM     23 CL   UNL d   1       5.570   4.462   2.273  0.00  0.00    -0.083 Cl
ATOM     24  C   UNL d   1       1.977   3.034   1.288  0.00  0.00     0.015 A 
ENDBRANCH   4  17
TORSDOF 3
