REMARK  1 active torsions:
REMARK  status: ('A' for Active; 'I' for Inactive)
REMARK    1  A    between atoms: C_11  and  C_4 
ROOT
ATOM      1  C   UNL d   1       0.841  -0.195   0.021  0.00  0.00     0.135 A 
ATOM      2  N   UNL d   1      -1.548  -0.388   0.414  0.00  0.00    -0.299 N 
ATOM      3  C   UNL d   1      -0.360  -1.048   0.233  0.00  0.00     0.270 A 
ATOM      4  C   UNL d   1       0.690   1.152  -0.001  0.00  0.00     0.042 A 
ATOM      5  C   UNL d   1      -1.697   0.964   0.392  0.00  0.00     0.179 A 
ATOM      6  N   UNL d   1      -0.567   1.697   0.175  0.00  0.00    -0.335 N 
ATOM      7  C   UNL d   1       2.091  -0.849  -0.172  0.00  0.00     0.107 C 
ATOM      8  N   UNL d   1       3.134  -1.322  -0.344  0.00  0.00    -0.191 NA
ATOM      9  S   UNL d   1      -3.173   1.687   0.621  0.00  0.00    -0.040 SA
ATOM     10  O   UNL d   1      -0.306  -2.274   0.248  0.00  0.00    -0.266 OA
ATOM     11  H   UNL d   1      -2.364  -0.965   0.566  0.00  0.00     0.171 HD
ATOM     12  H   UNL d   1      -0.694   2.704   0.164  0.00  0.00     0.168 HD
ENDROOT
BRANCH   4  13
ATOM     13  C   UNL d   1       1.871   2.116  -0.191  0.00  0.00     0.037 C 
ATOM     14  C   UNL d   1       1.774   3.486   0.526  0.00  0.00     0.011 C 
ATOM     15  C   UNL d   1       1.206   4.646  -0.297  0.00  0.00     0.001 C 
ATOM     16  C   UNL d   1       1.759   4.689  -1.714  0.00  0.00     0.000 C 
ATOM     17  C   UNL d   1       1.528   3.358  -2.412  0.00  0.00     0.001 C 
ATOM     18  C   UNL d   1       2.263   2.245  -1.676  0.00  0.00     0.011 C 
ENDBRANCH   4  13
TORSDOF 1
