REMARK  3 active torsions:
REMARK  status: ('A' for Active; 'I' for Inactive)
REMARK    1  A    between atoms: C_6  and  C_2 
REMARK    2  A    between atoms: C_17  and  C_8 
REMARK    3  A    between atoms: C_15  and  C_18 
ROOT
ATOM      1  N   UNL d   1       4.537  -0.647   0.925  0.00  0.00    -0.318 N 
ATOM      2  HN  UNL d   1       4.445  -0.076   1.766  1.00  0.00     0.169 HD
ATOM      3  C   UNL d   1       3.620  -0.884  -0.002  0.00  0.00     0.189 A 
ATOM      4  C   UNL d   1       5.641  -1.347   0.497  0.00  0.00     0.138 A 
ATOM      5  N   UNL d   1       5.447  -1.998  -0.654  0.00  0.00    -0.242 N 
ATOM      6  HN  UNL d   1       6.110  -2.578  -1.169  1.00  0.00     0.196 HD
ATOM      7  O   UNL d   1       4.137  -1.703  -0.985  0.00  0.00    -0.217 OA
ENDROOT
BRANCH   3   8
ATOM      8  C   UNL d   1       2.287  -0.395  -0.025  0.00  0.00     0.101 A 
ATOM      9  C   UNL d   1       1.343  -0.788  -1.101  0.00  0.00     0.265 A 
ATOM     10  N   UNL d   1       0.077  -0.270  -0.977  0.00  0.00    -0.293 N 
ATOM     11  O   UNL d   1       1.668  -1.519  -2.031  0.00  0.00    -0.267 OA
ATOM     12  C   UNL d   1      -0.247   0.582   0.037  0.00  0.00     0.149 A 
ATOM     13  C   UNL d   1      -0.952  -0.560  -1.944  0.00  0.00     0.145 A 
ATOM     14  N   UNL d   1       0.552   0.956   0.977  0.00  0.00    -0.345 N 
ATOM     15  S   UNL d   1      -1.889   1.121  -0.083  0.00  0.00    -0.092 SA
ATOM     16  C   UNL d   1       1.824   0.436   0.923  0.00  0.00     0.111 A 
ATOM     17  HN  UNL d   1       0.259   1.597   1.714  1.00  0.00     0.167 HD
ATOM     18  C   UNL d   1      -2.250   0.119  -1.548  0.00  0.00     0.103 A 
ENDBRANCH   3   8
BRANCH   4  19
ATOM     19  C   UNL d   1       6.897  -1.361   1.234  0.00  0.00     0.010 A 
ATOM     20  C   UNL d   1       7.022  -0.657   2.439  0.00  0.00     0.016 A 
ATOM     21  C   UNL d   1       8.231  -0.659   3.141  0.00  0.00     0.017 A 
ATOM     22  C   UNL d   1       9.340  -1.364   2.650  0.00  0.00     0.048 A 
ATOM     23  C   UNL d   1       9.213  -2.075   1.449  0.00  0.00     0.017 A 
ATOM     24  C   UNL d   1       8.003  -2.075   0.750  0.00  0.00     0.016 A 
BRANCH  22  25
ATOM     25  C   UNL d   1      10.645  -1.345   3.407  0.00  0.00     0.417 C 
ATOM     26  F   UNL d   1      11.633  -2.067   2.808  0.00  0.00    -0.166 F 
ATOM     27  F   UNL d   1      11.141  -0.086   3.555  0.00  0.00    -0.166 F 
ATOM     28  F   UNL d   1      10.524  -1.851   4.666  0.00  0.00    -0.166 F 
ENDBRANCH  22  25
ENDBRANCH   4  19
TORSDOF 3
