REMARK  8 active torsions:
REMARK  status: ('A' for Active; 'I' for Inactive)
REMARK    1  A    between atoms: C_4  and  C_1 
REMARK    2  A    between atoms: C_10  and  C_1 
REMARK    3  A    between atoms: C_2  and  C_5 
REMARK    4  A    between atoms: C_9  and  C_2 
REMARK    5  A    between atoms: C_3  and  C_4 
REMARK    6  A    between atoms: C_5  and  C_3 
REMARK    7  A    between atoms: C_6  and  C_3 
REMARK    8  A    between atoms: O_16  and  C_13 
ROOT
ATOM      1  C   UNL d   1       1.250  -2.547   0.157  0.00  0.00     0.033 C 
ENDROOT
BRANCH   1   2
ATOM      2  C   UNL d   1       0.422  -1.292  -0.213  0.00  0.00     0.093 C 
BRANCH   2   3
ATOM      3  C   UNL d   1       1.246  -0.032  -0.448  0.00  0.00     0.160 C 
ATOM      4  O   UNL d   1       2.475  -0.028  -0.395  0.00  0.00    -0.292 OA
BRANCH   3   5
ATOM      5  C   UNL d   1       0.520   1.246  -0.750  0.00  0.00     0.010 A 
ATOM      6  C   UNL d   1      -0.857   1.279  -1.010  0.00  0.00     0.015 A 
ATOM      7  C   UNL d   1      -1.507   2.498  -1.228  0.00  0.00     0.001 A 
ATOM      8  C   UNL d   1      -0.790   3.693  -1.193  0.00  0.00     0.000 A 
ATOM      9  C   UNL d   1       0.585   3.669  -0.968  0.00  0.00     0.001 A 
ATOM     10  C   UNL d   1       1.238   2.451  -0.753  0.00  0.00     0.015 A 
ENDBRANCH   3   5
ENDBRANCH   2   3
ENDBRANCH   1   2
BRANCH   1  11
ATOM     11  C   UNL d   1       2.029  -2.484   1.498  0.00  0.00     0.093 C 
BRANCH  11  12
ATOM     12  C   UNL d   1       1.205  -2.245   2.757  0.00  0.00     0.160 C 
ATOM     13  O   UNL d   1       0.028  -1.890   2.715  0.00  0.00    -0.292 OA
BRANCH  12  14
ATOM     14  C   UNL d   1       1.853  -2.408   4.098  0.00  0.00     0.010 A 
ATOM     15  C   UNL d   1       3.207  -2.723   4.257  0.00  0.00     0.015 A 
ATOM     16  C   UNL d   1       3.752  -2.864   5.541  0.00  0.00     0.001 A 
ATOM     17  C   UNL d   1       2.951  -2.684   6.669  0.00  0.00     0.000 A 
ATOM     18  C   UNL d   1       1.606  -2.363   6.520  0.00  0.00     0.001 A 
ATOM     19  C   UNL d   1       1.061  -2.226   5.241  0.00  0.00     0.015 A 
ENDBRANCH  12  14
ENDBRANCH  11  12
ENDBRANCH   1  11
BRANCH   1  20
ATOM     20  C   UNL d   1       0.467  -3.859   0.056  0.00  0.00    -0.053 A 
ATOM     21  C   UNL d   1       1.153  -5.035  -0.290  0.00  0.00     0.010 A 
ATOM     22  C   UNL d   1       0.497  -6.271  -0.355  0.00  0.00     0.037 A 
ATOM     23  C   UNL d   1      -0.866  -6.354  -0.083  0.00  0.00     0.068 A 
ATOM     24  C   UNL d   1      -1.558  -5.194   0.268  0.00  0.00     0.037 A 
ATOM     25  C   UNL d   1      -0.903  -3.958   0.336  0.00  0.00     0.010 A 
BRANCH  23  26
ATOM     26  O   UNL d   1      -1.607  -7.503  -0.078  0.00  0.00    -0.356 OA
ATOM     27  C   UNL d   1      -1.117  -8.568  -0.884  0.00  0.00     0.210 C 
ENDBRANCH  23  26
ENDBRANCH   1  20
TORSDOF 8
