REMARK  2 active torsions:
REMARK  status: ('A' for Active; 'I' for Inactive)
REMARK    1  A    between atoms: C_3  and  C_1 
REMARK       I    between atoms: N_12  and  C_3 
REMARK    2  A    between atoms: C_19  and  N_12 
ROOT
ATOM      1  C   UNL d   1      -1.328  -2.685  -0.174  0.00  0.00     0.258 C 
ATOM      2  N   UNL d   1      -0.239  -3.532  -0.050  0.00  0.00    -0.323 N 
ATOM      3  O   UNL d   1      -1.302  -1.468  -0.012  0.00  0.00    -0.267 OA
ATOM      4  H   UNL d   1      -0.372  -4.501  -0.341  0.00  0.00     0.169 HD
ENDROOT
BRANCH   1   5
ATOM      5  C   UNL d   1      -2.633  -3.274  -0.544  0.00  0.00     0.061 A 
ATOM      6  C   UNL d   1      -2.880  -4.659  -0.716  0.00  0.00     0.082 A 
ATOM      7  N   UNL d   1      -1.997  -5.672  -0.623  0.00  0.00    -0.310 N 
ATOM      8  C   UNL d   1      -4.280  -5.142  -1.046  0.00  0.00     0.068 A 
ATOM      9  S   UNL d   1      -2.846  -7.075  -0.896  0.00  0.00     0.068 SA
ATOM     10  HN  UNL d   1      -1.000  -5.593  -0.423  1.00  0.00     0.176 HD
ATOM     11  N   UNL d   1      -4.366  -6.474  -1.169  0.00  0.00    -0.310 N 
ATOM     12  HN  UNL d   1      -5.204  -7.013  -1.388  1.00  0.00     0.176 HD
ATOM     13  C   UNL d   1      -5.358  -4.236  -1.194  0.00  0.00     0.032 A 
ATOM     14  C   UNL d   1      -5.056  -2.878  -1.016  0.00  0.00     0.003 A 
ATOM     15  C   UNL d   1      -3.756  -2.421  -0.706  0.00  0.00     0.019 A 
ENDBRANCH   1   5
BRANCH   2  16
ATOM     16  C   UNL d   1       1.032  -3.188   0.460  0.00  0.00     0.036 A 
ATOM     17  C   UNL d   1       1.285  -1.969   1.106  0.00  0.00     0.050 A 
ATOM     18  C   UNL d   1       2.560  -1.734   1.652  0.00  0.00     0.035 A 
ATOM     19  S   UNL d   1       3.122  -0.361   2.530  0.00  0.00    -0.083 SA
ATOM     20  C   UNL d   1       3.593  -2.666   1.547  0.00  0.00     0.049 A 
ATOM     21  C   UNL d   1       4.649  -1.112   2.702  0.00  0.00     0.139 A 
ATOM     22  N   UNL d   1       4.786  -2.295   2.148  0.00  0.00    -0.359 N 
ATOM     23  HN  UNL d   1       5.639  -2.855   2.158  1.00  0.00     0.166 HD
ATOM     24  C   UNL d   1       3.337  -3.873   0.870  0.00  0.00     0.033 A 
ATOM     25  C   UNL d   1       2.059  -4.127   0.346  0.00  0.00     0.032 A 
ENDBRANCH   2  16
TORSDOF 2
