REMARK  2 active torsions:
REMARK  status: ('A' for Active; 'I' for Inactive)
REMARK    1  A    between atoms: C_8  and  C_3 
REMARK    2  A    between atoms: C_7  and  C_4 
ROOT
ATOM      1  N   UNL d   1       1.422  -0.596  -0.051  0.00  0.00    -0.349 N 
ATOM      2  HN  UNL d   1       2.303  -1.110  -0.078  1.00  0.00     0.166 HD
ATOM      3  C   UNL d   1       0.224  -1.156  -0.060  0.00  0.00     0.084 A 
ATOM      4  C   UNL d   1       1.315   0.787   0.002  0.00  0.00     0.051 A 
ATOM      5  S   UNL d   1      -1.089  -0.035   0.007  0.00  0.00    -0.081 SA
ATOM      6  C   UNL d   1       0.020   1.265   0.025  0.00  0.00     0.082 A 
ENDROOT
BRANCH   4   7
ATOM      7  C   UNL d   1       2.488   1.646  -0.004  0.00  0.00     0.006 A 
ATOM      8  C   UNL d   1       2.501   2.889   0.626  0.00  0.00     0.101 A 
ATOM      9  N   UNL d   1       3.555   3.742   0.623  0.00  0.00    -0.374 N 
ATOM     10  C   UNL d   1       4.660   3.331  -0.034  0.00  0.00     0.087 A 
ATOM     11  HN  UNL d   1       3.516   4.647   1.092  1.00  0.00     0.164 HD
ATOM     12  C   UNL d   1       4.760   2.110  -0.680  0.00  0.00     0.018 A 
ATOM     13  C   UNL d   1       3.658   1.255  -0.658  0.00  0.00     0.016 A 
ENDBRANCH   4   7
BRANCH   3  14
ATOM     14  C   UNL d   1      -0.029  -2.606  -0.064  0.00  0.00    -0.002 A 
ATOM     15  C   UNL d   1       0.889  -3.471   0.552  0.00  0.00     0.014 A 
ATOM     16  C   UNL d   1       0.658  -4.849   0.598  0.00  0.00     0.001 A 
ATOM     17  C   UNL d   1      -0.489  -5.385   0.017  0.00  0.00     0.000 A 
ATOM     18  C   UNL d   1      -1.400  -4.546  -0.619  0.00  0.00     0.001 A 
ATOM     19  C   UNL d   1      -1.170  -3.168  -0.663  0.00  0.00     0.014 A 
ENDBRANCH   3  14
TORSDOF 2
