REMARK  5 active torsions:
REMARK  status: ('A' for Active; 'I' for Inactive)
REMARK    1  A    between atoms: N_7  and  C_2 
REMARK    2  A    between atoms: C_13  and  C_6 
REMARK    3  A    between atoms: O_22  and  C_14 
REMARK    4  A    between atoms: O_23  and  C_19 
REMARK    5  A    between atoms: C_26  and  O_22 
ROOT
ATOM      1  C   UNL d   1       3.824   5.013  -0.942  0.00  0.00     0.086 C 
ATOM      2  C   UNL d   1       3.092   4.009  -0.405  0.00  0.00     0.167 C 
ATOM      3  C   UNL d   1       1.350   5.520   0.283  0.00  0.00     0.096 A 
ATOM      4  O   UNL d   1       1.787   4.222   0.058  0.00  0.00    -0.291 OA
ATOM      5  C   UNL d   1       2.084   6.622  -0.175  0.00  0.00    -0.009 A 
ATOM      6  C   UNL d   1       3.285   6.408  -1.066  0.00  0.00     0.102 C 
ATOM      7  C   UNL d   1       5.180   4.809  -1.327  0.00  0.00     0.100 C 
ATOM      8  C   UNL d   1       0.135   5.718   0.989  0.00  0.00     0.009 A 
ATOM      9  N   UNL d   1       6.296   4.708  -1.640  0.00  0.00    -0.191 NA
ATOM     10  C   UNL d   1       1.665   7.924   0.136  0.00  0.00     0.012 A 
ATOM     11  C   UNL d   1      -0.282   7.045   1.276  0.00  0.00    -0.023 A 
ATOM     12  C   UNL d   1       0.500   8.130   0.864  0.00  0.00     0.013 A 
ATOM     13  C   UNL d   1      -0.695   4.660   1.412  0.00  0.00     0.015 A 
ATOM     14  C   UNL d   1      -1.483   7.274   1.964  0.00  0.00     0.012 A 
ATOM     15  C   UNL d   1      -1.897   4.906   2.084  0.00  0.00     0.001 A 
ATOM     16  C   UNL d   1      -2.290   6.211   2.361  0.00  0.00     0.001 A 
ENDROOT
BRANCH   2  17
ATOM     17  N   UNL d   1       3.710   2.804  -0.184  0.00  0.00    -0.327 N 
ATOM     18  C   UNL d   1       3.131   1.661  -0.332  0.00  0.00     0.228 C 
ATOM     19  HN  UNL d   1       4.686   2.813   0.115  1.00  0.00     0.169 HD
BRANCH  18  20
ATOM     20  O   UNL d   1       1.871   1.436  -0.730  0.00  0.00    -0.347 OA
BRANCH  20  21
ATOM     21  C   UNL d   1       1.298   0.103  -0.673  0.00  0.00     0.171 C 
ATOM     22  C   UNL d   1       2.240  -1.094  -0.586  0.00  0.00     0.034 C 
ENDBRANCH  20  21
ENDBRANCH  18  20
ENDBRANCH   2  17
BRANCH   6  23
ATOM     23  C   UNL d   1       2.977   6.789  -2.514  0.00  0.00    -0.044 A 
ATOM     24  C   UNL d   1       3.667   7.841  -3.135  0.00  0.00     0.011 A 
ATOM     25  C   UNL d   1       3.354   8.215  -4.445  0.00  0.00     0.037 A 
ATOM     26  C   UNL d   1       2.368   7.537  -5.163  0.00  0.00     0.068 A 
ATOM     27  C   UNL d   1       1.675   6.494  -4.554  0.00  0.00     0.037 A 
ATOM     28  C   UNL d   1       1.977   6.122  -3.242  0.00  0.00     0.011 A 
BRANCH  26  29
ATOM     29  O   UNL d   1       2.135   8.009  -6.426  0.00  0.00    -0.356 OA
ATOM     30  C   UNL d   1       1.576   7.075  -7.343  0.00  0.00     0.210 C 
ENDBRANCH  26  29
ENDBRANCH   6  23
TORSDOF 5
