REMARK  5 active torsions:
REMARK  status: ('A' for Active; 'I' for Inactive)
REMARK    1  A    between atoms: C_2  and  N_1 
REMARK    2  A    between atoms: N_6  and  C_2 
REMARK    3  A    between atoms: C_21  and  C_4 
REMARK    4  A    between atoms: C_8  and  N_6 
REMARK    5  A    between atoms: C_22  and  C_21 
ROOT
ATOM      1  N   UNL d   1      -2.552   0.379  -0.238  0.00  0.00    -0.349 N 
ATOM      2  C   UNL d   1      -0.186   0.788   0.222  0.00  0.00    -0.022 A 
ATOM      3  C   UNL d   1      -1.585   1.366   0.353  0.00  0.00     0.120 C 
ATOM      4  C   UNL d   1       0.059  -0.557   0.021  0.00  0.00    -0.008 A 
ATOM      5  C   UNL d   1      -2.365  -1.017   0.242  0.00  0.00     0.131 C 
ATOM      6  S   UNL d   1       1.715  -0.933  -0.057  0.00  0.00    -0.106 SA
ATOM      7  C   UNL d   1      -1.002  -1.591  -0.174  0.00  0.00     0.066 C 
ATOM      8  C   UNL d   1       1.042   1.526   0.231  0.00  0.00     0.017 A 
ATOM      9  C   UNL d   1       2.148   0.712   0.115  0.00  0.00     0.051 A 
ENDROOT
BRANCH   1  10
ATOM     10  C   UNL d   1      -3.375   0.701  -1.336  0.00  0.00     0.175 C 
ATOM     11  S   UNL d   1      -3.510   2.236  -2.019  0.00  0.00    -0.041 SA
BRANCH  10  12
ATOM     12  N   UNL d   1      -4.168  -0.352  -1.759  0.00  0.00    -0.332 N 
ATOM     13  H   UNL d   1      -4.748  -0.755  -1.029  0.00  0.00     0.168 HD
BRANCH  12  14
ATOM     14  C   UNL d   1      -4.564  -0.686  -3.080  0.00  0.00     0.056 A 
ATOM     15  C   UNL d   1      -5.732  -1.442  -3.283  0.00  0.00     0.062 A 
ATOM     16  C   UNL d   1      -6.114  -1.843  -4.565  0.00  0.00     0.050 A 
ATOM     17 CL   UNL d   1      -6.743  -1.892  -1.951  0.00  0.00    -0.082 Cl
ATOM     18  C   UNL d   1      -5.315  -1.504  -5.653  0.00  0.00     0.035 A 
ATOM     19  C   UNL d   1      -4.147  -0.768  -5.469  0.00  0.00     0.026 A 
ATOM     20 CL   UNL d   1      -5.759  -2.019  -7.233  0.00  0.00    -0.084 Cl
ATOM     21  C   UNL d   1      -3.770  -0.365  -4.186  0.00  0.00     0.033 A 
ENDBRANCH  12  14
ENDBRANCH  10  12
ENDBRANCH   1  10
BRANCH   3  22
ATOM     22  C   UNL d   1      -1.980   1.696   1.810  0.00  0.00     0.030 C 
BRANCH  22  23
ATOM     23  C   UNL d   1      -1.169   2.839   2.425  0.00  0.00    -0.002 C 
ATOM     24  C   UNL d   1      -1.662   3.193   3.819  0.00  0.00     0.005 C 
ENDBRANCH  22  23
ENDBRANCH   3  22
TORSDOF 5
