REMARK  7 active torsions:
REMARK  status: ('A' for Active; 'I' for Inactive)
REMARK    1  A    between atoms: C_9  and  N_1 
REMARK    2  A    between atoms: C_11  and  C_6 
REMARK       I    between atoms: C_8  and  N_12 
REMARK    3  A    between atoms: C_17  and  C_8 
REMARK    4  A    between atoms: O_20  and  C_10 
REMARK    5  A    between atoms: N_12  and  C_11 
REMARK    6  A    between atoms: O_22  and  C_13 
REMARK    7  A    between atoms: C_15  and  C_17 
ROOT
ATOM      1  C   UNL d   1       2.186   1.482   0.117  0.00  0.00     0.183 C 
ENDROOT
BRANCH   1   2
ATOM      2  C   UNL d   1       1.032   0.585  -0.158  0.00  0.00     0.069 A 
ATOM      3  N   UNL d   1       1.087  -0.741   0.041  0.00  0.00    -0.280 N 
ATOM      4  N   UNL d   1      -0.153  -1.149  -0.354  0.00  0.00    -0.197 N 
ATOM      5  HN  UNL d   1       1.861  -1.302   0.397  1.00  0.00     0.189 HD
ATOM      6  N   UNL d   1      -0.992  -0.164  -0.780  0.00  0.00    -0.282 N 
ATOM      7  C   UNL d   1      -0.249   0.938  -0.631  0.00  0.00     0.049 A 
ATOM      8  HN  UNL d   1      -1.947  -0.246  -1.127  1.00  0.00     0.189 HD
ATOM      9  C   UNL d   1      -0.774   2.286  -0.943  0.00  0.00     0.072 C 
BRANCH   4  10
ATOM     10  C   UNL d   1      -0.531  -2.516  -0.329  0.00  0.00     0.074 A 
ATOM     11  C   UNL d   1       0.326  -3.465   0.249  0.00  0.00     0.033 A 
ATOM     12  C   UNL d   1      -0.032  -4.814   0.263  0.00  0.00     0.002 A 
ATOM     13  C   UNL d   1      -1.237  -5.221  -0.307  0.00  0.00     0.000 A 
ATOM     14  C   UNL d   1      -2.094  -4.281  -0.881  0.00  0.00     0.002 A 
ATOM     15  C   UNL d   1      -1.750  -2.927  -0.886  0.00  0.00     0.033 A 
ENDBRANCH   4  10
ENDBRANCH   1   2
BRANCH   1  16
ATOM     16  N   UNL d   1       3.429   0.759  -0.013  0.00  0.00    -0.355 N 
ATOM     17  C   UNL d   1       4.627   1.412   0.117  0.00  0.00     0.222 C 
ATOM     18  O   UNL d   1       4.694   2.629   0.294  0.00  0.00    -0.273 OA
ATOM     19  H   UNL d   1       3.371  -0.254  -0.066  0.00  0.00     0.162 HD
BRANCH  17  20
ATOM     20  C   UNL d   1       5.859   0.538   0.011  0.00  0.00     0.141 C 
BRANCH  20  21
ATOM     21  C   UNL d   1       6.453   0.430  -1.377  0.00  0.00    -0.047 A 
ATOM     22  C   UNL d   1       7.200  -0.715  -1.711  0.00  0.00     0.047 A 
ATOM     23  C   UNL d   1       7.848  -0.841  -2.951  0.00  0.00     0.102 A 
ATOM     24  C   UNL d   1       7.731   0.204  -3.883  0.00  0.00     0.101 A 
ATOM     25  C   UNL d   1       7.009   1.353  -3.545  0.00  0.00     0.040 A 
ATOM     26  C   UNL d   1       6.379   1.471  -2.305  0.00  0.00     0.010 A 
BRANCH  23  27
ATOM     27  O   UNL d   1       8.629  -1.915  -3.287  0.00  0.00    -0.353 OA
ATOM     28  C   UNL d   1       8.766  -2.968  -2.342  0.00  0.00     0.210 C 
ENDBRANCH  23  27
BRANCH  24  29
ATOM     29  O   UNL d   1       8.312   0.283  -5.124  0.00  0.00    -0.353 OA
ATOM     30  C   UNL d   1       8.497  -0.939  -5.826  0.00  0.00     0.210 C 
ENDBRANCH  24  29
ENDBRANCH  20  21
ENDBRANCH  17  20
ENDBRANCH   1  16
TORSDOF 7
