REMARK  5 active torsions:
REMARK  status: ('A' for Active; 'I' for Inactive)
REMARK    1  A    between atoms: N_7  and  C_6 
REMARK    2  A    between atoms: C_17  and  N_7 
REMARK    3  A    between atoms: C_18  and  N_7 
REMARK    4  A    between atoms: C_20  and  C_17 
REMARK    5  A    between atoms: C_21  and  C_18 
ROOT
ATOM      1  C   UNL d   1       2.995   0.235  -1.594  0.00  0.00     0.078 A 
ATOM      2  S   UNL d   1       4.316   0.361  -2.681  0.00  0.00    -0.065 SA
ATOM      3  C   UNL d   1       3.700  -0.851  -3.681  0.00  0.00     0.088 A 
ATOM      4  C   UNL d   1       2.653  -1.563  -3.114  0.00  0.00     0.032 A 
ATOM      5  C   UNL d   1       2.281  -0.943  -1.857  0.00  0.00     0.067 A 
ATOM      6  C   UNL d   1       2.538   1.128  -0.599  0.00  0.00     0.124 A 
ATOM      7  N   UNL d   1       4.232  -1.014  -4.905  0.00  0.00    -0.354 N 
ATOM      8  HN  UNL d   1       5.036  -0.477  -5.230  1.00  0.00     0.166 HD
ATOM      9  C   UNL d   1       2.124  -2.634  -3.888  0.00  0.00    -0.045 A 
ATOM     10  N   UNL d   1       1.458   0.712   0.111  0.00  0.00    -0.338 N 
ATOM     11  HN  UNL d   1       1.062   1.318   0.829  1.00  0.00     0.168 HD
ATOM     12  N   UNL d   1       1.244  -1.345  -1.080  0.00  0.00    -0.350 N 
ATOM     13  HN  UNL d   1       0.761  -2.233  -1.218  1.00  0.00     0.166 HD
ATOM     14  C   UNL d   1       0.908  -0.485  -0.123  0.00  0.00     0.182 A 
ATOM     15  C   UNL d   1       2.627  -2.782  -5.195  0.00  0.00     0.032 A 
ATOM     16  C   UNL d   1       3.623  -1.937  -5.665  0.00  0.00     0.006 A 
ATOM     17  C   UNL d   1       1.039  -3.584  -3.450  0.00  0.00     0.049 C 
ATOM     18  C   UNL d   1       4.061  -2.003  -7.098  0.00  0.00     0.068 C 
ENDROOT
BRANCH   6  19
ATOM     19  N   UNL d   1       2.987   2.430  -0.411  0.00  0.00    -0.358 N 
BRANCH  19  20
ATOM     20  C   UNL d   1       1.972   3.451  -0.157  0.00  0.00     0.163 C 
BRANCH  20  21
ATOM     21  C   UNL d   1       1.720   3.873   1.281  0.00  0.00    -0.040 A 
ATOM     22  C   UNL d   1       1.271   5.188   1.509  0.00  0.00     0.009 A 
ATOM     23  C   UNL d   1       0.792   5.586   2.759  0.00  0.00     0.001 A 
ATOM     24  C   UNL d   1       0.759   4.675   3.810  0.00  0.00     0.000 A 
ATOM     25  C   UNL d   1       1.239   3.381   3.618  0.00  0.00     0.001 A 
ATOM     26  C   UNL d   1       1.722   2.984   2.364  0.00  0.00     0.009 A 
ENDBRANCH  20  21
ENDBRANCH  19  20
BRANCH  19  27
ATOM     27  C   UNL d   1       4.398   2.772  -0.265  0.00  0.00     0.163 C 
BRANCH  27  28
ATOM     28  C   UNL d   1       4.931   3.801  -1.261  0.00  0.00    -0.040 A 
ATOM     29  C   UNL d   1       5.975   4.651  -0.858  0.00  0.00     0.009 A 
ATOM     30  C   UNL d   1       6.558   5.566  -1.742  0.00  0.00     0.001 A 
ATOM     31  C   UNL d   1       6.110   5.637  -3.062  0.00  0.00     0.000 A 
ATOM     32  C   UNL d   1       5.088   4.796  -3.484  0.00  0.00     0.001 A 
ATOM     33  C   UNL d   1       4.499   3.888  -2.593  0.00  0.00     0.009 A 
ENDBRANCH  27  28
ENDBRANCH  19  27
ENDBRANCH   6  19
TORSDOF 5
