REMARK  5 active torsions:
REMARK  status: ('A' for Active; 'I' for Inactive)
REMARK    1  A    between atoms: C_5  and  C_1 
REMARK    2  A    between atoms: O_9  and  C_1 
REMARK    3  A    between atoms: C_3  and  C_2 
REMARK    4  A    between atoms: C_6  and  C_3 
REMARK    5  A    between atoms: C_4  and  O_9 
ROOT
ATOM      1  C   UNL d   1       4.503  -0.840   1.007  0.00  0.00     0.080 C 
ATOM      2  C   UNL d   1       3.171  -0.682   0.986  0.00  0.00     0.150 C 
ENDROOT
BRANCH   2   3
ATOM      3  O   UNL d   1       2.394   0.058   0.068  0.00  0.00    -0.287 OA
BRANCH   3   4
ATOM      4  C   UNL d   1       2.962   0.932  -0.813  0.00  0.00     0.297 C 
ATOM      5  O   UNL d   1       4.145   1.222  -0.907  0.00  0.00    -0.259 OA
BRANCH   4   6
ATOM      6  C   UNL d   1       1.948   1.527  -1.727  0.00  0.00     0.040 A 
ATOM      7  C   UNL d   1       2.429   2.330  -2.777  0.00  0.00     0.019 A 
ATOM      8  C   UNL d   1       1.551   2.921  -3.684  0.00  0.00     0.025 A 
ATOM      9  C   UNL d   1       0.182   2.716  -3.547  0.00  0.00     0.034 A 
ATOM     10  C   UNL d   1      -0.314   1.929  -2.506  0.00  0.00     0.025 A 
ATOM     11 CL   UNL d   1      -0.903   3.437  -4.671  0.00  0.00    -0.084 Cl
ATOM     12  C   UNL d   1       0.567   1.332  -1.593  0.00  0.00     0.019 A 
ENDBRANCH   4   6
ENDBRANCH   3   4
ENDBRANCH   2   3
BRANCH   1  13
ATOM     13  C   UNL d   1       5.141  -1.664   2.065  0.00  0.00     0.183 C 
ATOM     14  O   UNL d   1       4.583  -1.909   3.128  0.00  0.00    -0.288 OA
BRANCH  13  15
ATOM     15  C   UNL d   1       6.515  -2.172   1.798  0.00  0.00     0.014 A 
ATOM     16  C   UNL d   1       7.397  -2.325   2.876  0.00  0.00     0.017 A 
ATOM     17  C   UNL d   1       8.671  -2.865   2.671  0.00  0.00     0.025 A 
ATOM     18  C   UNL d   1       9.057  -3.262   1.391  0.00  0.00     0.034 A 
ATOM     19  C   UNL d   1       8.189  -3.108   0.312  0.00  0.00     0.025 A 
ATOM     20 CL   UNL d   1      10.606  -3.969   1.145  0.00  0.00    -0.084 Cl
ATOM     21  C   UNL d   1       6.917  -2.561   0.512  0.00  0.00     0.017 A 
ENDBRANCH  13  15
ENDBRANCH   1  13
TORSDOF 5
