REMARK  3 active torsions:
REMARK  status: ('A' for Active; 'I' for Inactive)
REMARK    1  A    between atoms: C_8  and  C_3 
REMARK    2  A    between atoms: C_9  and  C_4 
REMARK    3  A    between atoms: C_10  and  C_5 
ROOT
ATOM      1  N   UNL d   1      -1.330  -0.026  -0.028  0.00  0.00    -0.355 N 
ATOM      2  HN  UNL d   1      -2.349  -0.055  -0.027  1.00  0.00     0.166 HD
ATOM      3  C   UNL d   1      -0.672   1.161  -0.040  0.00  0.00     0.043 A 
ATOM      4  C   UNL d   1      -0.607  -1.174  -0.019  0.00  0.00     0.043 A 
ATOM      5  C   UNL d   1       1.487   0.054  -0.028  0.00  0.00    -0.022 A 
ATOM      6  C   UNL d   1       0.720   1.224  -0.011  0.00  0.00     0.042 A 
ATOM      7  C   UNL d   1       0.789  -1.157  -0.056  0.00  0.00     0.042 A 
ENDROOT
BRANCH   3   8
ATOM      8  C   UNL d   1      -1.514   2.378  -0.055  0.00  0.00    -0.009 A 
ATOM      9  C   UNL d   1      -2.781   2.389   0.561  0.00  0.00     0.017 A 
ATOM     10  C   UNL d   1      -3.569   3.545   0.584  0.00  0.00     0.043 A 
ATOM     11  C   UNL d   1      -3.102   4.705  -0.016  0.00  0.00     0.116 A 
ATOM     12  C   UNL d   1      -1.868   4.729  -0.649  0.00  0.00     0.043 A 
ATOM     13  F   UNL d   1      -3.850   5.816   0.013  0.00  0.00    -0.206 F 
ATOM     14  C   UNL d   1      -1.084   3.572  -0.672  0.00  0.00     0.017 A 
ENDBRANCH   3   8
BRANCH   4  15
ATOM     15  C   UNL d   1      -1.377  -2.436   0.051  0.00  0.00    -0.009 A 
ATOM     16  C   UNL d   1      -2.665  -2.534  -0.503  0.00  0.00     0.013 A 
ATOM     17  C   UNL d   1      -3.394  -3.727  -0.450  0.00  0.00     0.001 A 
ATOM     18  C   UNL d   1      -2.852  -4.852   0.167  0.00  0.00     0.000 A 
ATOM     19  C   UNL d   1      -1.586  -4.781   0.737  0.00  0.00     0.001 A 
ATOM     20  C   UNL d   1      -0.861  -3.587   0.684  0.00  0.00     0.013 A 
ENDBRANCH   4  15
BRANCH   5  21
ATOM     21  C   UNL d   1       2.967   0.099   0.014  0.00  0.00    -0.026 A 
ATOM     22  C   UNL d   1       3.692   1.125  -0.621  0.00  0.00     0.012 A 
ATOM     23  C   UNL d   1       5.087   1.185  -0.548  0.00  0.00     0.001 A 
ATOM     24  C   UNL d   1       5.792   0.211   0.150  0.00  0.00     0.000 A 
ATOM     25  C   UNL d   1       5.104  -0.823   0.775  0.00  0.00     0.001 A 
ATOM     26  C   UNL d   1       3.708  -0.874   0.711  0.00  0.00     0.012 A 
ENDBRANCH   5  21
TORSDOF 3
