REMARK  5 active torsions:
REMARK  status: ('A' for Active; 'I' for Inactive)
REMARK    1  A    between atoms: C_5  and  C_1 
REMARK       I    between atoms: C_2  and  N_7 
REMARK    2  A    between atoms: C_3  and  C_2 
REMARK    3  A    between atoms: C_4  and  C_6 
REMARK    4  A    between atoms: O_16  and  C_4 
REMARK    5  A    between atoms: N_7  and  C_15 
ROOT
ATOM      1  C   UNL d   1       0.456   1.075  -0.964  0.00  0.00     0.048 A 
ATOM      2  C   UNL d   1      -0.629   0.601  -1.712  0.00  0.00     0.018 A 
ATOM      3  C   UNL d   1       1.019   2.310  -1.311  0.00  0.00     0.018 A 
ATOM      4  C   UNL d   1      -0.466   2.502  -3.223  0.00  0.00     0.035 A 
ATOM      5  C   UNL d   1      -1.088   1.311  -2.828  0.00  0.00     0.030 A 
ATOM      6  C   UNL d   1       0.560   3.016  -2.428  0.00  0.00     0.030 A 
ENDROOT
BRANCH   4   7
ATOM      7  N   UNL d   1      -0.871   3.073  -4.452  0.00  0.00    -0.324 N 
ATOM      8  C   UNL d   1      -0.274   4.130  -5.097  0.00  0.00     0.245 C 
ATOM      9  O   UNL d   1       0.606   4.867  -4.669  0.00  0.00    -0.268 OA
ATOM     10  H   UNL d   1      -1.601   2.571  -4.942  0.00  0.00     0.169 HD
BRANCH   8  11
ATOM     11  C   UNL d   1      -0.778   4.303  -6.487  0.00  0.00     0.081 C 
ATOM     12  C   UNL d   1      -0.232   5.263  -7.248  0.00  0.00     0.086 C 
BRANCH  12  13
ATOM     13  C   UNL d   1      -0.680   5.409  -8.640  0.00  0.00     0.165 C 
ATOM     14  O   UNL d   1      -1.503   4.686  -9.173  0.00  0.00    -0.647 OA
BRANCH  13  15
ATOM     15  O   UNL d   1      -0.073   6.435  -9.267  0.00  0.00    -0.773 OA
ATOM     16  H   UNL d   1       0.565   6.941  -8.730  0.00  0.00     0.167 HD
ENDBRANCH  13  15
ENDBRANCH  12  13
ENDBRANCH   8  11
ENDBRANCH   4   7
BRANCH   1  17
ATOM     17  C   UNL d   1       1.052   0.270   0.164  0.00  0.00     0.417 C 
ATOM     18  F   UNL d   1       0.424  -0.921   0.373  0.00  0.00    -0.166 F 
ATOM     19  F   UNL d   1       1.022   0.925   1.356  0.00  0.00    -0.166 F 
ATOM     20  F   UNL d   1       2.361  -0.038  -0.062  0.00  0.00    -0.166 F 
ENDBRANCH   1  17
TORSDOF 5
