REMARK  3 active torsions:
REMARK  status: ('A' for Active; 'I' for Inactive)
REMARK    1  A    between atoms: N_2  and  S_1 
REMARK    2  A    between atoms: C_3  and  S_1 
REMARK    3  A    between atoms: C_9  and  N_2 
ROOT
ATOM      1  S   UNL d   1       0.940   0.062   0.125  0.00  0.00     0.260 S 
ATOM      2  O   UNL d   1       2.384   0.112   0.003  0.00  0.00    -0.200 OA
ATOM      3  O   UNL d   1       0.305  -1.070   0.753  0.00  0.00    -0.200 OA
ENDROOT
BRANCH   1   4
ATOM      4  N   UNL d   1       0.277   0.314  -1.461  0.00  0.00    -0.306 N 
ATOM      5  C   UNL d   1       1.007   1.379  -2.216  0.00  0.00     0.163 C 
BRANCH   4   6
ATOM      6  C   UNL d   1      -1.228   0.234  -1.659  0.00  0.00     0.095 C 
ATOM      7  C   UNL d   1      -1.846  -1.111  -1.240  0.00  0.00     0.026 C 
ATOM      8  C   UNL d   1      -1.411  -2.261  -2.140  0.00  0.00     0.002 C 
ATOM      9  C   UNL d   1      -1.831  -1.990  -3.580  0.00  0.00     0.000 C 
ATOM     10  C   UNL d   1      -1.300  -0.646  -4.072  0.00  0.00     0.002 C 
ATOM     11  C   UNL d   1      -1.660   0.496  -3.120  0.00  0.00     0.026 C 
ENDBRANCH   4   6
ENDBRANCH   1   4
BRANCH   1  12
ATOM     12  C   UNL d   1       0.486   1.496   1.091  0.00  0.00     0.080 A 
ATOM     13  C   UNL d   1       0.914   1.539   2.424  0.00  0.00     0.037 A 
ATOM     14  C   UNL d   1       0.609   2.656   3.220  0.00  0.00    -0.025 A 
ATOM     15  C   UNL d   1       0.991   2.741   4.568  0.00  0.00     0.012 A 
ATOM     16  C   UNL d   1      -0.110   3.734   2.656  0.00  0.00    -0.026 A 
ATOM     17  C   UNL d   1       0.655   3.863   5.330  0.00  0.00     0.001 A 
ATOM     18  C   UNL d   1      -0.045   4.919   4.758  0.00  0.00     0.001 A 
ATOM     19  C   UNL d   1      -0.426   4.862   3.424  0.00  0.00     0.012 A 
ATOM     20  C   UNL d   1      -0.523   3.678   1.328  0.00  0.00     0.014 A 
ATOM     21  C   UNL d   1      -0.244   2.555   0.563  0.00  0.00     0.026 A 
ENDBRANCH   1  12
TORSDOF 3
