REMARK  1 active torsions:
REMARK  status: ('A' for Active; 'I' for Inactive)
REMARK    1  A    between atoms: C_9  and  C_5 
ROOT
ATOM      1  N   UNL d   1       1.459  -1.568   0.002  0.00  0.00    -0.344 N 
ATOM      2  HN  UNL d   1       0.949  -2.451   0.012  1.00  0.00     0.167 HD
ATOM      3  C   UNL d   1       0.807  -0.386  -0.013  0.00  0.00     0.056 A 
ATOM      4  C   UNL d   1      -0.649  -0.403  -0.014  0.00  0.00     0.028 A 
ATOM      5  C   UNL d   1       2.806  -1.544   0.002  0.00  0.00     0.085 A 
ATOM      6  C   UNL d   1       1.456   0.822  -0.022  0.00  0.00     0.009 A 
ATOM      7  N   UNL d   1       3.517  -0.398  -0.013  0.00  0.00    -0.355 N 
ATOM      8  HN  UNL d   1       4.537  -0.408  -0.013  1.00  0.00     0.166 HD
ATOM      9  O   UNL d   1      -0.738   2.040   0.030  0.00  0.00    -0.346 OA
ATOM     10  C   UNL d   1      -1.346   0.815   0.005  0.00  0.00     0.081 A 
ATOM     11  C   UNL d   1       2.829   0.757  -0.026  0.00  0.00     0.101 A 
ATOM     12  C   UNL d   1      -1.391  -1.596  -0.028  0.00  0.00     0.058 A 
ATOM     13  C   UNL d   1       0.696   2.103  -0.038  0.00  0.00     0.218 A 
ATOM     14  C   UNL d   1      -2.745   0.840   0.013  0.00  0.00     0.041 A 
ATOM     15  C   UNL d   1      -2.781  -1.560  -0.021  0.00  0.00     0.117 A 
ATOM     16  C   UNL d   1      -3.466  -0.353  -0.002  0.00  0.00     0.045 A 
ATOM     17  F   UNL d   1      -3.470  -2.708  -0.033  0.00  0.00    -0.206 F 
ENDROOT
BRANCH   5  18
ATOM     18  C   UNL d   1       3.553  -2.853   0.058  0.00  0.00     0.053 A 
ATOM     19  C   UNL d   1       4.438  -3.272  -1.094  0.00  0.00     0.013 A 
ATOM     20  C   UNL d   1       3.158  -4.009  -0.835  0.00  0.00     0.013 A 
ENDBRANCH   5  18
TORSDOF 1
