REMARK  4 active torsions:
REMARK  status: ('A' for Active; 'I' for Inactive)
REMARK    1  A    between atoms: C_2  and  C_1 
REMARK       I    between atoms: N_3  and  C_1 
REMARK    2  A    between atoms: C_4  and  C_2 
REMARK    3  A    between atoms: C_5  and  C_2 
REMARK    4  A    between atoms: C_6  and  N_3 
ROOT
ATOM      1  C   UNL d   1       1.189  -0.650  -2.066  0.00  0.00     0.244 C 
ATOM      2  N   UNL d   1       0.287  -0.332  -1.072  0.00  0.00    -0.325 N 
ATOM      3  O   UNL d   1       0.872  -0.892  -3.240  0.00  0.00    -0.272 OA
ATOM      4  H   UNL d   1       0.600   0.345  -0.382  0.00  0.00     0.169 HD
ENDROOT
BRANCH   1   5
ATOM      5  C   UNL d   1       2.641  -0.705  -1.702  0.00  0.00     0.292 C 
BRANCH   5   6
ATOM      6  C   UNL d   1       3.178   0.593  -1.203  0.00  0.00     0.408 C 
ATOM      7  F   UNL d   1       2.214   1.538  -1.093  0.00  0.00    -0.170 F 
ATOM      8  F   UNL d   1       3.774   0.522   0.002  0.00  0.00    -0.170 F 
ATOM      9  F   UNL d   1       4.102   1.086  -2.062  0.00  0.00    -0.170 F 
ENDBRANCH   5   6
BRANCH   5  10
ATOM     10  C   UNL d   1       2.904  -1.814  -0.749  0.00  0.00     0.408 C 
ATOM     11  F   UNL d   1       2.098  -2.877  -0.965  0.00  0.00    -0.170 F 
ATOM     12  F   UNL d   1       4.171  -2.267  -0.909  0.00  0.00    -0.170 F 
ATOM     13  F   UNL d   1       2.752  -1.471   0.544  0.00  0.00    -0.170 F 
ENDBRANCH   5  10
ENDBRANCH   1   5
BRANCH   2  14
ATOM     14  C   UNL d   1      -1.124  -0.385  -1.254  0.00  0.00     0.046 A 
ATOM     15  C   UNL d   1      -1.780  -1.548  -1.726  0.00  0.00    -0.035 A 
ATOM     16  C   UNL d   1      -3.188  -1.565  -1.785  0.00  0.00     0.009 A 
ATOM     17  C   UNL d   1      -1.107  -2.828  -2.147  0.00  0.00     0.050 C 
ATOM     18  C   UNL d   1      -3.945  -0.476  -1.371  0.00  0.00     0.001 A 
ATOM     19  C   UNL d   1      -3.299   0.667  -0.916  0.00  0.00     0.009 A 
ATOM     20  C   UNL d   1      -1.895   0.736  -0.865  0.00  0.00    -0.035 A 
ATOM     21  C   UNL d   1      -1.314   2.068  -0.463  0.00  0.00     0.050 C 
ENDBRANCH   2  14
TORSDOF 4
