REMARK  6 active torsions:
REMARK  status: ('A' for Active; 'I' for Inactive)
REMARK    1  A    between atoms: N_11  and  N_2 
REMARK    2  A    between atoms: C_17  and  N_11 
REMARK    3  A    between atoms: N_13  and  C_12 
REMARK    4  A    between atoms: C_22  and  N_13 
REMARK    5  A    between atoms: C_23  and  N_13 
REMARK    6  A    between atoms: C_18  and  C_22 
ROOT
ATOM      1  N   UNL d   1      -4.330  10.308  -3.908  0.00  0.00    -0.197 NA
ATOM      2  C   UNL d   1      -4.460   9.492  -3.089  0.00  0.00     0.060 C 
ATOM      3  C   UNL d   1      -4.621   8.470  -2.050  0.00  0.00     0.143 C 
ENDROOT
BRANCH   3   4
ATOM      4  C   UNL d   1      -3.866   8.881  -0.783  0.00  0.00     0.137 C 
BRANCH   4   5
ATOM      5  N   UNL d   1      -4.100   7.950   0.341  0.00  0.00    -0.380 N 
BRANCH   5   6
ATOM      6  C   UNL d   1      -3.643   6.633   0.244  0.00  0.00     0.030 A 
ATOM      7  C   UNL d   1      -2.459   6.304  -0.440  0.00  0.00     0.031 A 
ATOM      8  C   UNL d   1      -1.991   4.983  -0.530  0.00  0.00     0.027 A 
ATOM      9  C   UNL d   1      -2.712   3.938   0.043  0.00  0.00     0.027 A 
ATOM     10  C   UNL d   1      -3.860   4.246   0.767  0.00  0.00     0.027 A 
ATOM     11  C   UNL d   1      -4.319   5.562   0.850  0.00  0.00     0.031 A 
BRANCH   9  12
ATOM     12  N   UNL d   1      -2.216   2.607  -0.030  0.00  0.00    -0.205 NA
ATOM     13  H   UNL d   1      -1.645   2.487   0.814  0.00  0.00     0.153 HD
BRANCH  12  14
ATOM     14  N   UNL d   1      -3.217   1.682  -0.083  0.00  0.00    -0.312 N 
ATOM     15  C   UNL d   1      -3.111   0.650  -0.870  0.00  0.00     0.104 C 
ATOM     16  C   UNL d   1      -1.972   0.243  -1.745  0.00  0.00     0.006 A 
ATOM     17  C   UNL d   1      -4.318  -0.294  -0.833  0.00  0.00     0.200 C 
ATOM     18  C   UNL d   1      -1.899  -1.103  -2.142  0.00  0.00    -0.023 A 
ATOM     19  C   UNL d   1      -0.966   1.130  -2.153  0.00  0.00     0.014 A 
ATOM     20  C   UNL d   1      -0.775  -1.553  -2.852  0.00  0.00     0.012 A 
ATOM     21  C   UNL d   1      -2.976  -2.054  -1.861  0.00  0.00     0.016 C 
ATOM     22  C   UNL d   1       0.252  -0.673  -3.192  0.00  0.00     0.001 A 
ATOM     23  C   UNL d   1       0.146   0.673  -2.861  0.00  0.00     0.001 A 
ATOM     24  C   UNL d   1      -4.116  -1.684  -1.271  0.00  0.00     0.058 C 
ATOM     25  O   UNL d   1      -5.415   0.073  -0.434  0.00  0.00    -0.286 OA
ATOM     26  HN  UNL d   1      -4.050   1.799   0.494  1.00  0.00     0.181 HD
ENDBRANCH  12  14
ENDBRANCH   9  12
ENDBRANCH   5   6
BRANCH   5  27
ATOM     27  C   UNL d   1      -5.213   8.288   1.246  0.00  0.00     0.118 C 
ATOM     28  C   UNL d   1      -4.799   8.193   2.712  0.00  0.00     0.026 C 
ENDBRANCH   5  27
ENDBRANCH   4   5
ENDBRANCH   3   4
TORSDOF 6
