REMARK  7 active torsions:
REMARK  status: ('A' for Active; 'I' for Inactive)
REMARK    1  A    between atoms: C_10  and  N_1 
REMARK    2  A    between atoms: C_9  and  C_2 
REMARK    3  A    between atoms: C_15  and  C_8 
REMARK    4  A    between atoms: C_13  and  C_9 
REMARK    5  A    between atoms: C_16  and  C_9 
REMARK    6  A    between atoms: N_11  and  C_10 
REMARK    7  A    between atoms: N_12  and  C_13 
ROOT
ATOM      1  N   UNL d   1      -0.712   1.418   0.072  0.00  0.00    -0.226 N 
ATOM      2  C   UNL d   1      -0.609  -0.970   0.110  0.00  0.00     0.091 C 
ATOM      3  C   UNL d   1      -1.206   0.294   0.703  0.00  0.00     0.287 C 
ATOM      4  N   UNL d   1       0.603  -0.934  -0.369  0.00  0.00    -0.339 N 
ATOM      5  HN  UNL d   1       1.055  -1.772  -0.735  1.00  0.00     0.167 HD
ATOM      6  N   UNL d   1       0.634   1.422  -0.253  0.00  0.00    -0.278 N 
ATOM      7  HN  UNL d   1       1.133   2.299  -0.404  1.00  0.00     0.189 HD
ATOM      8  C   UNL d   1       1.246   0.280  -0.359  0.00  0.00     0.131 C 
ATOM      9  O   UNL d   1      -1.975   0.268   1.652  0.00  0.00    -0.264 OA
ENDROOT
BRANCH   2  10
ATOM     10  C   UNL d   1      -1.388  -2.280   0.204  0.00  0.00     0.102 C 
BRANCH  10  11
ATOM     11  C   UNL d   1      -2.906  -2.164   0.522  0.00  0.00     0.288 C 
BRANCH  11  12
ATOM     12  N   UNL d   1      -3.731  -1.215  -0.263  0.00  0.00     0.093 N 
ATOM     13  C   UNL d   1      -4.029  -1.665  -1.639  0.00  0.00     0.298 C 
ATOM     14  C   UNL d   1      -4.951  -2.892  -1.708  0.00  0.00     0.198 C 
ATOM     15  O   UNL d   1      -6.199  -2.625  -1.055  0.00  0.00    -0.388 OA
ATOM     16  C   UNL d   1      -5.995  -2.224   0.306  0.00  0.00     0.198 C 
ATOM     17  C   UNL d   1      -5.045  -1.014   0.411  0.00  0.00     0.298 C 
ENDBRANCH  11  12
ENDBRANCH  10  11
BRANCH  10  18
ATOM     18  C   UNL d   1      -1.118  -3.328  -0.886  0.00  0.00    -0.046 A 
ATOM     19  C   UNL d   1      -1.204  -4.691  -0.540  0.00  0.00     0.008 A 
ATOM     20  C   UNL d   1      -1.024  -5.696  -1.492  0.00  0.00     0.001 A 
ATOM     21  C   UNL d   1      -0.757  -5.358  -2.816  0.00  0.00     0.000 A 
ATOM     22  C   UNL d   1      -0.668  -4.016  -3.182  0.00  0.00     0.001 A 
ATOM     23  C   UNL d   1      -0.838  -3.009  -2.223  0.00  0.00     0.008 A 
ENDBRANCH  10  18
ENDBRANCH   2  10
BRANCH   1  24
ATOM     24  C   UNL d   1      -1.338   2.705   0.343  0.00  0.00     0.424 C 
BRANCH  24  25
ATOM     25  N   UNL d   1      -1.478   3.472  -0.903  0.00  0.00     0.111 N 
ATOM     26  C   UNL d   1      -2.369   2.809  -1.880  0.00  0.00     0.300 C 
ATOM     27  C   UNL d   1      -3.856   2.864  -1.498  0.00  0.00     0.198 C 
ATOM     28  O   UNL d   1      -4.288   4.222  -1.347  0.00  0.00    -0.388 OA
ATOM     29  C   UNL d   1      -3.512   4.900  -0.352  0.00  0.00     0.198 C 
ATOM     30  C   UNL d   1      -2.000   4.830  -0.644  0.00  0.00     0.300 C 
ENDBRANCH  24  25
ENDBRANCH   1  24
BRANCH   8  31
ATOM     31  C   UNL d   1       2.740   0.233  -0.388  0.00  0.00     0.009 A 
ATOM     32  C   UNL d   1       3.417  -0.982  -0.558  0.00  0.00     0.015 A 
ATOM     33  C   UNL d   1       4.806  -1.039  -0.410  0.00  0.00     0.001 A 
ATOM     34  C   UNL d   1       5.523   0.114  -0.094  0.00  0.00     0.000 A 
ATOM     35  C   UNL d   1       4.860   1.332   0.054  0.00  0.00     0.001 A 
ATOM     36  C   UNL d   1       3.474   1.394  -0.097  0.00  0.00     0.015 A 
ENDBRANCH   8  31
TORSDOF 7
