REMARK  6 active torsions:
REMARK  status: ('A' for Active; 'I' for Inactive)
REMARK    1  A    between atoms: C_2  and  C_1 
REMARK       I    between atoms: N_7  and  C_1 
REMARK    2  A    between atoms: C_3  and  N_5 
REMARK    3  A    between atoms: N_6  and  C_3 
REMARK    4  A    between atoms: N_5  and  C_4 
REMARK    5  A    between atoms: C_8  and  N_6 
REMARK    6  A    between atoms: C_12  and  N_7 
ROOT
ATOM      1  C   UNL d   1       1.034  -0.708   2.003  0.00  0.00     0.059 A 
ATOM      2  C   UNL d   1       1.997  -0.706   3.043  0.00  0.00     0.050 A 
ATOM      3  C   UNL d   1      -0.138  -1.475   2.069  0.00  0.00     0.019 A 
ATOM      4  C   UNL d   1       1.696  -1.421   4.201  0.00  0.00     0.030 A 
ATOM      5  C   UNL d   1      -0.413  -2.185   3.229  0.00  0.00     0.001 A 
ATOM      6  C   UNL d   1       0.488  -2.140   4.295  0.00  0.00     0.002 A 
ENDROOT
BRANCH   2   7
ATOM      7  N   UNL d   1       3.137   0.129   2.896  0.00  0.00    -0.332 N 
ATOM      8  H   UNL d   1       2.996   0.861   2.205  0.00  0.00     0.168 HD
BRANCH   7   9
ATOM      9  C   UNL d   1       4.089   0.529   3.794  0.00  0.00     0.176 C 
ATOM     10  S   UNL d   1       4.230   2.194   3.969  0.00  0.00    -0.041 SA
BRANCH   9  11
ATOM     11  N   UNL d   1       4.902  -0.455   4.313  0.00  0.00    -0.333 N 
ATOM     12  H   UNL d   1       4.487  -1.372   4.396  0.00  0.00     0.168 HD
BRANCH  11  13
ATOM     13  C   UNL d   1       6.268  -0.350   4.728  0.00  0.00     0.040 A 
ATOM     14  C   UNL d   1       6.834  -1.314   5.588  0.00  0.00    -0.035 A 
ATOM     15  C   UNL d   1       6.064  -2.487   6.128  0.00  0.00     0.050 C 
ATOM     16  C   UNL d   1       8.196  -1.211   5.952  0.00  0.00     0.009 A 
ATOM     17  C   UNL d   1       8.997  -0.175   5.478  0.00  0.00     0.001 A 
ATOM     18  C   UNL d   1       8.455   0.755   4.608  0.00  0.00     0.002 A 
ATOM     19  C   UNL d   1       7.113   0.656   4.228  0.00  0.00     0.030 A 
ENDBRANCH  11  13
ENDBRANCH   9  11
ENDBRANCH   7   9
ENDBRANCH   2   7
BRANCH   1  20
ATOM     20  C   UNL d   1       1.173   0.144   0.812  0.00  0.00     0.258 C 
ATOM     21  N   UNL d   1       1.070   1.515   0.893  0.00  0.00    -0.323 N 
ATOM     22  H   UNL d   1       1.282   1.932  -0.013  0.00  0.00     0.169 HD
ATOM     23  O   UNL d   1       1.411  -0.393  -0.263  0.00  0.00    -0.267 OA
BRANCH  21  24
ATOM     24  C   UNL d   1       0.666   2.419   1.898  0.00  0.00     0.035 A 
ATOM     25  C   UNL d   1       0.176   2.071   3.161  0.00  0.00     0.032 A 
ATOM     26  C   UNL d   1      -0.184   3.056   4.088  0.00  0.00     0.044 A 
ATOM     27  C   UNL d   1      -0.086   4.396   3.745  0.00  0.00     0.116 A 
ATOM     28  C   UNL d   1       0.373   4.768   2.492  0.00  0.00     0.044 A 
ATOM     29  F   UNL d   1      -0.452   5.335   4.627  0.00  0.00    -0.206 F 
ATOM     30  C   UNL d   1       0.750   3.783   1.575  0.00  0.00     0.032 A 
ENDBRANCH  21  24
ENDBRANCH   1  20
TORSDOF 6
