REMARK  4 active torsions:
REMARK  status: ('A' for Active; 'I' for Inactive)
REMARK    1  A    between atoms: C_3  and  C_1 
REMARK    2  A    between atoms: C_4  and  C_1 
REMARK    3  A    between atoms: C_11  and  C_3 
REMARK    4  A    between atoms: N_5  and  C_4 
ROOT
ATOM      1  C   UNL d   1       1.045  -0.008   0.089  0.00  0.00     0.100 C 
ATOM      2  C   UNL d   1       0.378  -0.979  -0.580  0.00  0.00     0.060 C 
ATOM      3  S   UNL d   1      -1.364  -1.057  -0.703  0.00  0.00    -0.121 SA
ATOM      4  S   UNL d   1       1.255  -2.203  -1.495  0.00  0.00    -0.121 SA
ATOM      5  C   UNL d   1      -0.934  -3.808  -0.938  0.00  0.00     0.021 C 
ATOM      6  C   UNL d   1      -1.690  -2.749  -0.145  0.00  0.00     0.081 C 
ATOM      7  C   UNL d   1       0.574  -3.712  -0.764  0.00  0.00     0.081 C 
ENDROOT
BRANCH   1   8
ATOM      8  C   UNL d   1       0.389   1.145   0.792  0.00  0.00     0.203 C 
ATOM      9  O   UNL d   1      -0.653   1.655   0.390  0.00  0.00    -0.286 OA
BRANCH   8  10
ATOM     10  C   UNL d   1       1.061   1.772   1.964  0.00  0.00     0.015 A 
ATOM     11  C   UNL d   1       0.894   3.153   2.146  0.00  0.00     0.015 A 
ATOM     12  C   UNL d   1       1.508   3.806   3.216  0.00  0.00     0.001 A 
ATOM     13  C   UNL d   1       2.290   3.083   4.112  0.00  0.00     0.000 A 
ATOM     14  C   UNL d   1       2.440   1.705   3.955  0.00  0.00     0.001 A 
ATOM     15  C   UNL d   1       1.817   1.045   2.892  0.00  0.00     0.015 A 
ENDBRANCH   8  10
ENDBRANCH   1   8
BRANCH   1  16
ATOM     16  C   UNL d   1       2.565  -0.008   0.089  0.00  0.00    -0.031 C 
BRANCH  16  17
ATOM     17  N   UNL d   1       3.826  -0.008   0.089  0.00  0.00    -0.365 N 
ATOM     18  HN2 UNL d   1       2.806  -0.008   0.089  1.00  0.00     0.165 HD
ATOM     19  HN1 UNL d   1       4.846  -0.008   0.089  1.00  0.00     0.165 HD
ENDBRANCH  16  17
ENDBRANCH   1  16
TORSDOF 4
