REMARK  5 active torsions:
REMARK  status: ('A' for Active; 'I' for Inactive)
REMARK    1  A    between atoms: N_3  and  C_1 
REMARK    2  A    between atoms: N_10  and  C_1 
REMARK    3  A    between atoms: C_2  and  C_12 
REMARK    4  A    between atoms: C_4  and  N_3 
REMARK    5  A    between atoms: N_6  and  N_10 
ROOT
ATOM      1  N   UNL d   1       2.482  -0.122   0.194  0.00  0.00    -0.276 N 
ATOM      2  H   UNL d   1       2.989   0.588   0.718  0.00  0.00     0.189 HD
ENDROOT
BRANCH   1   3
ATOM      3  N   UNL d   1       3.166  -0.899  -0.692  0.00  0.00    -0.309 N 
ATOM      4  C   UNL d   1       4.457  -0.846  -0.649  0.00  0.00     0.120 C 
ATOM      5  HN  UNL d   1       2.679  -1.497  -1.360  1.00  0.00     0.186 HD
BRANCH   4   6
ATOM      6  C   UNL d   1       5.267  -1.658  -1.587  0.00  0.00     0.008 A 
ATOM      7  C   UNL d   1       6.459  -2.237  -1.110  0.00  0.00     0.046 A 
ATOM      8 CL   UNL d   1       7.069  -1.954   0.485  0.00  0.00    -0.083 Cl
ATOM      9  C   UNL d   1       7.198  -3.103  -1.922  0.00  0.00     0.025 A 
ATOM     10  C   UNL d   1       6.765  -3.395  -3.211  0.00  0.00     0.002 A 
ATOM     11  C   UNL d   1       5.611  -2.793  -3.706  0.00  0.00     0.007 A 
ATOM     12  C   UNL d   1       4.854  -1.907  -2.916  0.00  0.00    -0.049 A 
ATOM     13  C   UNL d   1       3.692  -1.238  -3.605  0.00  0.00     0.049 C 
ENDBRANCH   4   6
ENDBRANCH   1   3
BRANCH   1  14
ATOM     14  C   UNL d   1       1.128   0.042   0.079  0.00  0.00     0.191 C 
ATOM     15  S   UNL d   1       0.413   1.443   0.643  0.00  0.00    -0.039 SA
BRANCH  14  16
ATOM     16  N   UNL d   1       0.378  -0.872  -0.609  0.00  0.00    -0.331 N 
ATOM     17  H   UNL d   1      -0.408  -0.471  -1.104  0.00  0.00     0.168 HD
BRANCH  16  18
ATOM     18  C   UNL d   1       0.614  -2.256  -0.778  0.00  0.00     0.056 A 
ATOM     19  C   UNL d   1       1.215  -3.094   0.184  0.00  0.00     0.062 A 
ATOM     20  C   UNL d   1       1.485  -4.434  -0.115  0.00  0.00     0.050 A 
ATOM     21 CL   UNL d   1       1.497  -2.612   1.825  0.00  0.00    -0.082 Cl
ATOM     22  C   UNL d   1       1.120  -4.953  -1.352  0.00  0.00     0.035 A 
ATOM     23  C   UNL d   1       0.449  -4.162  -2.280  0.00  0.00     0.026 A 
ATOM     24 CL   UNL d   1       1.478  -6.593  -1.728  0.00  0.00    -0.084 Cl
ATOM     25  C   UNL d   1       0.183  -2.821  -1.988  0.00  0.00     0.033 A 
ENDBRANCH  16  18
ENDBRANCH  14  16
ENDBRANCH   1  14
TORSDOF 5
