REMARK  3 active torsions:
REMARK  status: ('A' for Active; 'I' for Inactive)
REMARK    1  A    between atoms: O_9  and  C_2 
REMARK    2  A    between atoms: C_8  and  C_13 
REMARK    3  A    between atoms: C_13  and  O_9 
ROOT
ATOM      1  C   UNL d   1      -1.615  -1.367   0.125  0.00  0.00     0.112 C 
ATOM      2  C   UNL d   1      -0.337  -1.756   0.015  0.00  0.00     0.086 C 
ATOM      3  C   UNL d   1      -1.987   0.060   0.185  0.00  0.00     0.248 C 
ATOM      4  N   UNL d   1      -0.963   0.966   0.198  0.00  0.00    -0.323 N 
ATOM      5  C   UNL d   1       0.728  -0.739  -0.145  0.00  0.00     0.024 A 
ATOM      6  C   UNL d   1       0.382   0.611   0.031  0.00  0.00     0.048 A 
ATOM      7  O   UNL d   1      -3.162   0.407   0.249  0.00  0.00    -0.268 OA
ATOM      8  C   UNL d   1       2.060  -1.043  -0.454  0.00  0.00     0.016 A 
ATOM      9  C   UNL d   1       1.353   1.615   0.007  0.00  0.00     0.030 A 
ATOM     10  C   UNL d   1       3.038  -0.043  -0.469  0.00  0.00     0.001 A 
ATOM     11  C   UNL d   1       2.687   1.280  -0.219  0.00  0.00     0.002 A 
ATOM     12  H   UNL d   1      -1.232   1.938   0.259  0.00  0.00     0.169 HD
ENDROOT
BRANCH   2  13
ATOM     13  O   UNL d   1      -0.029  -3.105  -0.004  0.00  0.00    -0.346 OA
BRANCH  13  14
ATOM     14  C   UNL d   1       0.916  -3.540   0.982  0.00  0.00     0.202 C 
BRANCH  14  15
ATOM     15  C   UNL d   1       0.266  -4.465   1.965  0.00  0.00    -0.011 C 
ATOM     16  C   UNL d   1       0.474  -4.399   3.285  0.00  0.00     0.009 C 
ENDBRANCH  14  15
ENDBRANCH  13  14
ENDBRANCH   2  13
TORSDOF 3
