REMARK  2 active torsions:
REMARK  status: ('A' for Active; 'I' for Inactive)
REMARK    1  A    between atoms: N_6  and  C_1 
REMARK    2  A    between atoms: C_2  and  C_3 
ROOT
ATOM      1  C   UNL d   1      -0.026   1.017   0.213  0.00  0.00     0.104 A 
ATOM      2  C   UNL d   1      -1.653  -1.248   0.117  0.00  0.00     0.065 A 
ATOM      3  N   UNL d   1      -0.510   0.582  -0.979  0.00  0.00    -0.354 N 
ATOM      4  HN  UNL d   1      -0.283   1.077  -1.841  1.00  0.00     0.166 HD
ATOM      5  C   UNL d   1      -0.352   0.333   1.401  0.00  0.00     0.073 A 
ATOM      6  C   UNL d   1      -1.172  -0.798   1.344  0.00  0.00     0.044 A 
ATOM      7  C   UNL d   1      -1.298  -0.519  -1.006  0.00  0.00     0.105 A 
ATOM      8 CL   UNL d   1       0.305   0.751   2.948  0.00  0.00    -0.081 Cl
ENDROOT
BRANCH   1   9
ATOM      9  N   UNL d   1       0.872   2.093   0.215  0.00  0.00    -0.265 NA
ATOM     10  C   UNL d   1       1.524   2.353  -1.085  0.00  0.00     0.127 C 
ATOM     11  C   UNL d   1       2.681   3.359  -0.874  0.00  0.00     0.284 C 
ATOM     12  N   UNL d   1       2.265   4.623  -0.228  0.00  0.00     0.085 N 
ATOM     13  C   UNL d   1       1.508   4.330   1.007  0.00  0.00     0.284 C 
ATOM     14  H   UNL d   1       3.099   5.155   0.015  0.00  0.00     0.315 HD
ATOM     15  C   UNL d   1       0.335   3.344   0.788  0.00  0.00     0.127 C 
ENDBRANCH   1   9
BRANCH   2  16
ATOM     16  C   UNL d   1      -2.483  -2.484  -0.026  0.00  0.00     0.418 C 
ATOM     17  F   UNL d   1      -2.752  -3.095   1.162  0.00  0.00    -0.166 F 
ATOM     18  F   UNL d   1      -3.690  -2.241  -0.603  0.00  0.00    -0.166 F 
ATOM     19  F   UNL d   1      -1.879  -3.427  -0.799  0.00  0.00    -0.166 F 
ENDBRANCH   2  16
TORSDOF 2
