REMARK  9 active torsions:
REMARK  status: ('A' for Active; 'I' for Inactive)
REMARK    1  A    between atoms: C_2  and  C_1 
REMARK    2  A    between atoms: C_30  and  N_3 
REMARK    3  A    between atoms: N_22  and  C_4 
REMARK    4  A    between atoms: S_19  and  C_10 
REMARK    5  A    between atoms: C_18  and  C_11 
REMARK    6  A    between atoms: C_26  and  C_16 
REMARK    7  A    between atoms: C_24  and  S_19 
REMARK    8  A    between atoms: C_21  and  C_24 
REMARK    9  A    between atoms: C_29  and  C_21 
ROOT
ATOM      1  C   UNL d   1       2.410   0.018  -0.071  0.00  0.00     0.150 A 
ATOM      2  C   UNL d   1       1.674   1.185  -0.245  0.00  0.00     0.079 A 
ATOM      3  C   UNL d   1       0.292   0.856  -0.131  0.00  0.00     0.058 A 
ATOM      4  C   UNL d   1       0.266  -0.532  -0.053  0.00  0.00     0.162 A 
ATOM      5  O   UNL d   1       1.531  -1.026   0.016  0.00  0.00    -0.287 OA
ATOM      6  C   UNL d   1      -0.956   1.510  -0.083  0.00  0.00     0.017 A 
ATOM      7  N   UNL d   1      -0.812  -1.336  -0.030  0.00  0.00    -0.335 N 
ATOM      8  HN  UNL d   1      -0.741  -2.353   0.013  1.00  0.00     0.168 HD
ATOM      9  C   UNL d   1      -1.998  -0.688  -0.068  0.00  0.00     0.045 A 
ATOM     10  C   UNL d   1      -2.104   0.704  -0.062  0.00  0.00     0.045 A 
ENDROOT
BRANCH   1  11
ATOM     11  C   UNL d   1       3.825  -0.120   0.087  0.00  0.00     0.161 A 
ATOM     12  N   UNL d   1       4.659  -1.130  -0.335  0.00  0.00    -0.309 N 
ATOM     13  C   UNL d   1       5.878  -0.835   0.239  0.00  0.00     0.163 A 
ATOM     14  N   UNL d   1       5.819   0.307   0.882  0.00  0.00    -0.278 N 
ATOM     15  N   UNL d   1       4.534   0.767   0.765  0.00  0.00    -0.281 N 
ATOM     16  HN  UNL d   1       6.585   0.766   1.376  1.00  0.00     0.189 HD
ATOM     17  HN  UNL d   1       4.181   1.648   1.139  1.00  0.00     0.188 HD
BRANCH  12  18
ATOM     18  C   UNL d   1       4.465  -2.229  -1.259  0.00  0.00     0.128 C 
ATOM     19  C   UNL d   1       3.128  -2.455  -1.933  0.00  0.00     0.027 C 
ENDBRANCH  12  18
BRANCH  13  20
ATOM     20  S   UNL d   1       7.296  -1.812   0.065  0.00  0.00    -0.085 SA
BRANCH  20  21
ATOM     21  C   UNL d   1       7.833  -1.926   1.794  0.00  0.00     0.166 C 
BRANCH  21  22
ATOM     22  C   UNL d   1       6.987  -2.891   2.613  0.00  0.00     0.169 C 
ATOM     23  O   UNL d   1       5.923  -3.376   2.232  0.00  0.00    -0.291 OA
BRANCH  22  24
ATOM     24  C   UNL d   1       7.534  -3.310   3.940  0.00  0.00     0.010 A 
ATOM     25  C   UNL d   1       8.425  -2.505   4.661  0.00  0.00     0.015 A 
ATOM     26  C   UNL d   1       8.964  -2.962   5.866  0.00  0.00     0.001 A 
ATOM     27  C   UNL d   1       8.617  -4.220   6.357  0.00  0.00     0.000 A 
ATOM     28  C   UNL d   1       7.712  -5.016   5.656  0.00  0.00     0.001 A 
ATOM     29  C   UNL d   1       7.165  -4.561   4.454  0.00  0.00     0.015 A 
ENDBRANCH  22  24
ENDBRANCH  21  22
ENDBRANCH  20  21
ENDBRANCH  13  20
ENDBRANCH   1  11
BRANCH   2  30
ATOM     30  N   UNL d   1       2.191   2.417  -0.465  0.00  0.00    -0.396 N 
ATOM     31  H   UNL d   1       3.170   2.590  -0.236  0.00  0.00     0.156 HD
ATOM     32  H   UNL d   1       1.605   3.232  -0.282  0.00  0.00     0.156 HD
ENDBRANCH   2  30
BRANCH   6  33
ATOM     33  C   UNL d   1      -1.058   2.958   0.002  0.00  0.00     0.086 A 
ATOM     34  O   UNL d   1      -0.064   3.603   0.683  0.00  0.00    -0.322 OA
ATOM     35  C   UNL d   1      -0.372   4.922   0.712  0.00  0.00     0.142 A 
ATOM     36  C   UNL d   1      -1.559   5.149   0.062  0.00  0.00     0.027 A 
ATOM     37  C   UNL d   1      -2.009   3.881  -0.388  0.00  0.00     0.040 A 
ENDBRANCH   6  33
BRANCH   9  38
ATOM     38  C   UNL d   1      -3.197  -1.559  -0.116  0.00  0.00    -0.009 A 
ATOM     39  C   UNL d   1      -3.213  -2.811   0.524  0.00  0.00     0.013 A 
ATOM     40  C   UNL d   1      -4.336  -3.643   0.473  0.00  0.00     0.001 A 
ATOM     41  C   UNL d   1      -5.472  -3.243  -0.225  0.00  0.00     0.000 A 
ATOM     42  C   UNL d   1      -5.483  -2.012  -0.874  0.00  0.00     0.001 A 
ATOM     43  C   UNL d   1      -4.358  -1.183  -0.821  0.00  0.00     0.013 A 
ENDBRANCH   9  38
TORSDOF 9
