REMARK  5 active torsions:
REMARK  status: ('A' for Active; 'I' for Inactive)
REMARK    1  A    between atoms: C_13  and  C_3 
REMARK    2  A    between atoms: C_7  and  C_4 
REMARK    3  A    between atoms: C_9  and  C_7 
REMARK       I    between atoms: C_8  and  N_10 
REMARK    4  A    between atoms: C_12  and  C_8 
REMARK       I    between atoms: N_11  and  C_9 
REMARK    5  A    between atoms: N_10  and  N_11 
ROOT
ATOM      1  C   UNL d   1       1.839  -2.742  -0.440  0.00  0.00     0.241 C 
ATOM      2  N   UNL d   1       2.714  -1.975   0.295  0.00  0.00    -0.267 N 
ATOM      3  O   UNL d   1       2.229  -3.498  -1.334  0.00  0.00    -0.271 OA
ATOM      4  H   UNL d   1       2.363  -1.234   0.912  0.00  0.00     0.190 HD
ENDROOT
BRANCH   1   5
ATOM      5  C   UNL d   1       0.380  -2.715  -0.001  0.00  0.00     0.162 C 
BRANCH   5   6
ATOM      6  C   UNL d   1      -0.103  -1.413   0.567  0.00  0.00     0.031 A 
ATOM      7  N   UNL d   1       0.610  -0.860   1.627  0.00  0.00    -0.352 N 
ATOM      8  C   UNL d   1       0.042   0.249   2.060  0.00  0.00     0.085 A 
ATOM      9  HN  UNL d   1       1.462  -1.262   2.018  1.00  0.00     0.166 HD
ATOM     10  S   UNL d   1      -1.389   0.687   1.215  0.00  0.00    -0.075 SA
ATOM     11  C   UNL d   1      -1.228  -0.689   0.203  0.00  0.00     0.004 A 
ATOM     12  C   UNL d   1      -2.247  -0.951  -0.851  0.00  0.00     0.058 C 
BRANCH   8  13
ATOM     13  C   UNL d   1       0.599   1.103   3.123  0.00  0.00    -0.002 A 
ATOM     14  C   UNL d   1       1.992   1.144   3.296  0.00  0.00     0.014 A 
ATOM     15  C   UNL d   1       2.575   1.965   4.263  0.00  0.00     0.001 A 
ATOM     16  C   UNL d   1       1.772   2.749   5.085  0.00  0.00     0.000 A 
ATOM     17  C   UNL d   1       0.386   2.704   4.947  0.00  0.00     0.001 A 
ATOM     18  C   UNL d   1      -0.198   1.885   3.974  0.00  0.00     0.014 A 
ENDBRANCH   8  13
ENDBRANCH   5   6
ENDBRANCH   1   5
BRANCH   2  19
ATOM     19  N   UNL d   1       4.071  -1.927  -0.055  0.00  0.00    -0.263 N 
ATOM     20  C   UNL d   1       4.750  -0.750   0.183  0.00  0.00     0.270 C 
ATOM     21  O   UNL d   1       4.207   0.248   0.656  0.00  0.00    -0.266 OA
ATOM     22  H   UNL d   1       4.418  -2.669  -0.658  0.00  0.00     0.190 HD
BRANCH  20  23
ATOM     23  C   UNL d   1       6.199  -0.715  -0.139  0.00  0.00     0.033 A 
ATOM     24  C   UNL d   1       6.758   0.511  -0.519  0.00  0.00     0.017 A 
ATOM     25  C   UNL d   1       8.139   0.638  -0.678  0.00  0.00     0.007 A 
ATOM     26  C   UNL d   1       8.982  -0.454  -0.441  0.00  0.00    -0.062 A 
ATOM     27  C   UNL d   1       8.418  -1.689  -0.093  0.00  0.00     0.007 A 
ATOM     28  C   UNL d   1      10.470  -0.270  -0.518  0.00  0.00     0.048 C 
ATOM     29  C   UNL d   1       7.031  -1.823   0.057  0.00  0.00     0.017 A 
ENDBRANCH  20  23
ENDBRANCH   2  19
TORSDOF 5
