REMARK  2 active torsions:
REMARK  status: ('A' for Active; 'I' for Inactive)
REMARK    1  A    between atoms: C_10  and  C_1 
REMARK    2  A    between atoms: O_11  and  C_1 
ROOT
ATOM      1  C   UNL d   1      -1.212   1.354  -0.046  0.00  0.00     0.192 C 
ATOM      2  C   UNL d   1       0.112   0.602   0.103  0.00  0.00     0.030 A 
ATOM      3  N   UNL d   1      -2.426   0.559   0.164  0.00  0.00    -0.347 N 
ATOM      4  HN  UNL d   1      -3.338   0.994   0.310  1.00  0.00     0.164 HD
ATOM      5  C   UNL d   1       0.108  -0.807   0.079  0.00  0.00     0.046 A 
ATOM      6  C   UNL d   1      -2.275  -0.714   0.154  0.00  0.00     0.181 C 
ATOM      7  N   UNL d   1      -1.132  -1.462   0.027  0.00  0.00    -0.347 N 
ATOM      8  C   UNL d   1       1.331   1.309   0.178  0.00  0.00     0.038 A 
ATOM      9  C   UNL d   1       1.344  -1.472   0.107  0.00  0.00     0.032 A 
ATOM     10  C   UNL d   1       2.538   0.625   0.214  0.00  0.00     0.034 A 
ATOM     11  C   UNL d   1       2.550  -0.764   0.172  0.00  0.00     0.026 A 
ATOM     12 CL   UNL d   1       4.019   1.494   0.291  0.00  0.00    -0.084 Cl
ATOM     13  C   UNL d   1      -1.178  -2.916   0.001  0.00  0.00     0.157 C 
ENDROOT
BRANCH   1  14
ATOM     14  C   UNL d   1      -1.278   2.018  -1.437  0.00  0.00     0.002 A 
ATOM     15  C   UNL d   1      -1.225   1.222  -2.600  0.00  0.00     0.012 A 
ATOM     16  C   UNL d   1      -1.239   1.797  -3.873  0.00  0.00     0.001 A 
ATOM     17  C   UNL d   1      -1.320   3.179  -4.009  0.00  0.00     0.000 A 
ATOM     18  C   UNL d   1      -1.394   3.984  -2.875  0.00  0.00     0.001 A 
ATOM     19  C   UNL d   1      -1.375   3.409  -1.600  0.00  0.00     0.012 A 
ENDBRANCH   1  14
BRANCH   1  20
ATOM     20  O   UNL d   1      -1.171   2.370   0.955  0.00  0.00    -0.363 OA
ATOM     21  H   UNL d   1      -1.980   2.163   1.452  0.00  0.00     0.213 HD
ENDBRANCH   1  20
TORSDOF 2
