REMARK  3 active torsions:
REMARK  status: ('A' for Active; 'I' for Inactive)
REMARK    1  A    between atoms: C4_7  and  C1_1 
REMARK    2  A    between atoms: C5_8  and  C2_4 
REMARK    3  A    between atoms: O3_16  and  C4_7 
ROOT
ATOM      1  C1  <1> d   1       1.215   0.822   0.277  0.00  0.00     0.114 A 
ATOM      2  N1  <1> d   1       1.326  -0.566   0.438  0.00  0.00    -0.344 N 
ATOM      3  H1  <1> d   1       2.114  -1.042   0.878  1.00  0.00     0.167 HD
ATOM      4  C2  <1> d   1       0.261  -1.167  -0.065  0.00  0.00     0.085 A 
ATOM      5  S1  <1> d   1      -0.933  -0.096  -0.708  0.00  0.00    -0.081 SA
ATOM      6  C3  <1> d   1       0.049   1.247  -0.322  0.00  0.00     0.088 A 
ENDROOT
BRANCH   4   7
ATOM      7  C5  <1> d   1       0.037  -2.625  -0.054  0.00  0.00    -0.002 A 
ATOM      8  C6  <1> d   1      -0.694  -3.276  -1.067  0.00  0.00     0.024 A 
ATOM      9  C7  <1> d   1      -0.886  -4.646  -0.985  0.00  0.00    -0.022 A 
ATOM     10  C12 <1> d   1      -1.562  -5.561  -1.930  0.00  0.00     0.068 C 
ATOM     11  C8  <1> d   1      -0.353  -5.379   0.060  0.00  0.00     0.075 A 
ATOM     12  C11 <1> d   1      -1.625  -6.812  -1.054  0.00  0.00     0.180 C 
ATOM     13  O1  <1> d   1      -0.618  -6.720  -0.017  0.00  0.00    -0.350 OA
ATOM     14  C10 <1> d   1       0.392  -4.786   1.056  0.00  0.00     0.038 A 
ATOM     15  C9  <1> d   1       0.586  -3.401   0.995  0.00  0.00     0.017 A 
ENDBRANCH   4   7
BRANCH   1  16
ATOM     16  C4  <1> d   1       2.286   1.702   0.730  0.00  0.00     0.194 C 
ATOM     17  O2  <1> d   1       2.269   2.921   0.639  0.00  0.00    -0.645 OA
BRANCH  16  18
ATOM     18  O3  <1> d   1       3.324   1.011   1.270  0.00  0.00    -0.772 OA
ATOM     19  H5  <1> d   1       3.100   0.054   1.220  0.00  0.00     0.167 HD
ENDBRANCH  16  18
ENDBRANCH   1  16
TORSDOF 3
