REMARK  5 active torsions:
REMARK  status: ('A' for Active; 'I' for Inactive)
REMARK    1  A    between atoms: N_4  and  S_1 
REMARK    2  A    between atoms: C_5  and  S_1 
REMARK       I    between atoms: C_3  and  N_2 
REMARK    3  A    between atoms: O_19  and  C_3 
REMARK    4  A    between atoms: C_13  and  N_4 
REMARK    5  A    between atoms: C_22  and  O_19 
ROOT
ATOM      1  C   UNL d   1      -1.654   2.946  -0.943  0.00  0.00     0.079 A 
ATOM      2  N   UNL d   1      -2.576   7.398  -3.829  0.00  0.00    -0.191 NA
ATOM      3  C   UNL d   1      -2.388   6.437  -3.208  0.00  0.00     0.099 C 
ATOM      4  C   UNL d   1      -1.115   3.064  -2.230  0.00  0.00     0.027 A 
ATOM      5  C   UNL d   1      -2.469   3.952  -0.417  0.00  0.00     0.027 A 
ATOM      6  C   UNL d   1      -2.148   5.247  -2.444  0.00  0.00     0.044 A 
ATOM      7  C   UNL d   1      -2.705   5.107  -1.166  0.00  0.00     0.024 A 
ATOM      8  C   UNL d   1      -1.357   4.219  -2.976  0.00  0.00     0.024 A 
ENDROOT
BRANCH   1   9
ATOM      9  S   UNL d   1      -1.292   1.484   0.010  0.00  0.00     0.259 S 
ATOM     10  O   UNL d   1      -1.975   1.578   1.278  0.00  0.00    -0.201 OA
ATOM     11  O   UNL d   1      -1.469   0.367  -0.895  0.00  0.00    -0.201 OA
BRANCH   9  12
ATOM     12  N   UNL d   1       0.371   1.641   0.275  0.00  0.00    -0.310 N 
ATOM     13  H   UNL d   1       0.889   1.806  -0.587  0.00  0.00     0.172 HD
BRANCH  12  14
ATOM     14  C   UNL d   1       0.875   2.314   1.497  0.00  0.00     0.096 C 
ATOM     15  C   UNL d   1       0.548   3.806   1.551  0.00  0.00     0.045 C 
ATOM     16  C   UNL d   1       1.341   4.604   0.528  0.00  0.00     0.130 C 
ATOM     17  N   UNL d   1       2.759   4.343   0.698  0.00  0.00    -0.328 N 
ATOM     18  C   UNL d   1       3.174   2.948   0.607  0.00  0.00     0.130 C 
ATOM     19  C   UNL d   1       3.638   5.402   0.806  0.00  0.00     0.362 C 
ATOM     20  C   UNL d   1       2.395   2.096   1.603  0.00  0.00     0.045 C 
ATOM     21  O   UNL d   1       3.300   6.578   0.763  0.00  0.00    -0.238 OA
BRANCH  19  22
ATOM     22  O   UNL d   1       4.925   4.985   0.922  0.00  0.00    -0.304 OA
BRANCH  22  23
ATOM     23  C   UNL d   1       5.923   5.980   0.669  0.00  0.00     0.176 C 
ATOM     24  C   UNL d   1       6.194   5.988  -0.823  0.00  0.00     0.034 C 
ENDBRANCH  22  23
ENDBRANCH  19  22
ENDBRANCH  12  14
ENDBRANCH   9  12
ENDBRANCH   1   9
TORSDOF 5
