REMARK  7 active torsions:
REMARK  status: ('A' for Active; 'I' for Inactive)
REMARK    1  A    between atoms: C_2  and  C_1 
REMARK       I    between atoms: C_8  and  N_3 
REMARK    2  A    between atoms: N_4  and  C_5 
REMARK    3  A    between atoms: C_25  and  C_8 
REMARK    4  A    between atoms: C_10  and  C_26 
REMARK    5  A    between atoms: O_24  and  C_10 
REMARK    6  A    between atoms: O_22  and  C_25 
REMARK    7  A    between atoms: C_26  and  O_22 
ROOT
ATOM      1  N   UNL d   1      -2.061  -1.940  -7.625  0.00  0.00    -0.349 N 
ATOM      2  N   UNL d   1      -0.606  -2.246  -5.054  0.00  0.00    -0.366 N 
ATOM      3  C   UNL d   1      -2.141  -2.797  -8.718  0.00  0.00     0.243 C 
ATOM      4  C   UNL d   1      -0.876  -1.145  -7.267  0.00  0.00     0.145 C 
ATOM      5  C   UNL d   1       0.082  -1.854  -6.291  0.00  0.00     0.144 C 
ATOM      6  O   UNL d   1      -3.118  -3.526  -8.905  0.00  0.00    -0.271 OA
ATOM      7  C   UNL d   1      -2.956  -2.907  -5.460  0.00  0.00     0.040 C 
ATOM      8  C   UNL d   1      -3.139  -1.946  -6.638  0.00  0.00     0.127 C 
ATOM      9  C   UNL d   1      -1.532  -3.370  -5.177  0.00  0.00     0.126 C 
ENDROOT
BRANCH   2  10
ATOM     10  C   UNL d   1      -0.196  -1.706  -3.853  0.00  0.00     0.102 A 
ATOM     11  C   UNL d   1      -0.790  -2.036  -2.635  0.00  0.00     0.049 A 
ATOM     12  C   UNL d   1      -0.330  -1.472  -1.441  0.00  0.00     0.021 A 
ATOM     13  C   UNL d   1       0.725  -0.565  -1.464  0.00  0.00     0.063 A 
ATOM     14  C   UNL d   1       1.260  -0.273  -2.703  0.00  0.00     0.106 A 
ATOM     15  N   UNL d   1       0.821  -0.813  -3.866  0.00  0.00    -0.352 N 
ATOM     16  HN  UNL d   1       1.257  -0.547  -4.749  1.00  0.00     0.166 HD
BRANCH  13  17
ATOM     17  C   UNL d   1       1.251   0.072  -0.219  0.00  0.00     0.418 C 
ATOM     18  F   UNL d   1       2.299   0.915  -0.435  0.00  0.00    -0.166 F 
ATOM     19  F   UNL d   1       1.691  -0.842   0.690  0.00  0.00    -0.166 F 
ATOM     20  F   UNL d   1       0.307   0.812   0.426  0.00  0.00    -0.166 F 
ENDBRANCH  13  17
ENDBRANCH   2  10
BRANCH   3  21
ATOM     21  C   UNL d   1      -0.995  -2.777  -9.743  0.00  0.00     0.271 C 
BRANCH  21  22
ATOM     22  O   UNL d   1       0.272  -3.131  -9.183  0.00  0.00    -0.372 OA
BRANCH  22  23
ATOM     23  C   UNL d   1       1.276  -3.273 -10.185  0.00  0.00     0.277 C 
BRANCH  23  24
ATOM     24  C   UNL d   1       1.739  -1.924 -10.715  0.00  0.00     0.164 C 
ATOM     25  O   UNL d   1       1.829  -1.649 -11.902  0.00  0.00    -0.648 OA
BRANCH  24  26
ATOM     26  O   UNL d   1       2.036  -1.051  -9.730  0.00  0.00    -0.775 OA
ATOM     27  H   UNL d   1       1.900  -1.456  -8.851  0.00  0.00     0.167 HD
ENDBRANCH  24  26
ENDBRANCH  23  24
ENDBRANCH  22  23
ENDBRANCH  21  22
ENDBRANCH   3  21
TORSDOF 7
