REMARK  4 active torsions:
REMARK  status: ('A' for Active; 'I' for Inactive)
REMARK    1  A    between atoms: C_6  and  C_1 
REMARK    2  A    between atoms: N_2  and  C_8 
REMARK    3  A    between atoms: C_12  and  C_6 
REMARK    4  A    between atoms: O_21  and  C_18 
ROOT
ATOM      1  C   UNL d   1      -2.331  -0.197  -0.059  0.00  0.00     0.127 A 
ATOM      2  O   UNL d   1      -1.778  -1.210   0.678  0.00  0.00    -0.306 OA
ATOM      3  C   UNL d   1      -1.326   0.615  -0.554  0.00  0.00     0.055 A 
ATOM      4  C   UNL d   1      -0.093   0.056  -0.127  0.00  0.00     0.003 A 
ATOM      5  C   UNL d   1      -0.429  -1.053   0.640  0.00  0.00     0.086 A 
ATOM      6  C   UNL d   1       2.223  -0.452   0.328  0.00  0.00     0.103 A 
ATOM      7  C   UNL d   1       1.267   0.371  -0.301  0.00  0.00     0.050 A 
ATOM      8  C   UNL d   1       0.494  -1.883   1.273  0.00  0.00     0.040 A 
ATOM      9  C   UNL d   1       1.845  -1.559   1.106  0.00  0.00     0.039 A 
ENDROOT
BRANCH   1  10
ATOM     10  C   UNL d   1      -3.770  -0.103  -0.184  0.00  0.00     0.215 C 
ATOM     11  O   UNL d   1      -4.352   0.962  -0.387  0.00  0.00    -0.284 OA
BRANCH  10  12
ATOM     12  C   UNL d   1      -4.589  -1.347  -0.105  0.00  0.00     0.017 A 
ATOM     13  C   UNL d   1      -4.099  -2.572  -0.581  0.00  0.00     0.018 A 
ATOM     14  C   UNL d   1      -4.899  -3.718  -0.540  0.00  0.00     0.037 A 
ATOM     15  C   UNL d   1      -6.198  -3.646  -0.038  0.00  0.00     0.068 A 
ATOM     16  C   UNL d   1      -6.685  -2.429   0.444  0.00  0.00     0.037 A 
ATOM     17  C   UNL d   1      -5.892  -1.278   0.398  0.00  0.00     0.018 A 
BRANCH  15  18
ATOM     18  O   UNL d   1      -7.060  -4.704   0.057  0.00  0.00    -0.356 OA
ATOM     19  C   UNL d   1      -6.881  -5.730  -0.915  0.00  0.00     0.210 C 
ENDBRANCH  15  18
ENDBRANCH  10  12
ENDBRANCH   1  10
BRANCH   6  20
ATOM     20  N   UNL d   1       3.651  -0.138   0.169  0.00  0.00    -0.116 N 
ATOM     21  O   UNL d   1       3.951   0.838  -0.533  0.00  0.00    -0.532 OA
ATOM     22  O   UNL d   1       4.469  -0.869   0.743  0.00  0.00    -0.532 OA
ENDBRANCH   6  20
TORSDOF 4
