REMARK  6 active torsions:
REMARK  status: ('A' for Active; 'I' for Inactive)
REMARK    1  A    between atoms: N_8  and  C_1 
REMARK    2  A    between atoms: C_2  and  C_3 
REMARK    3  A    between atoms: C_6  and  N_7 
REMARK    4  A    between atoms: N_17  and  C_6 
REMARK    5  A    between atoms: C_24  and  N_17 
REMARK    6  A    between atoms: C_21  and  C_24 
ROOT
ATOM      1  N   UNL d   1       1.835   4.854   0.701  0.00  0.00    -0.355 N 
ATOM      2  N   UNL d   1       0.623   2.325   0.262  0.00  0.00    -0.363 N 
ATOM      3  C   UNL d   1       0.919   4.264   1.693  0.00  0.00     0.145 C 
ATOM      4  C   UNL d   1       2.470   3.883  -0.212  0.00  0.00     0.145 C 
ATOM      5  C   UNL d   1      -0.114   3.344   1.033  0.00  0.00     0.144 C 
ATOM      6  C   UNL d   1       1.416   2.926  -0.831  0.00  0.00     0.144 C 
ENDROOT
BRANCH   2   7
ATOM      7  C   UNL d   1      -0.092   1.161  -0.012  0.00  0.00     0.125 A 
ATOM      8  N   UNL d   1      -1.444   1.217   0.038  0.00  0.00    -0.350 N 
ATOM      9  C   UNL d   1      -2.156   0.068  -0.030  0.00  0.00     0.106 A 
ATOM     10  HN  UNL d   1      -1.921   2.115   0.127  1.00  0.00     0.166 HD
ATOM     11  C   UNL d   1      -1.583  -1.187  -0.146  0.00  0.00     0.065 A 
ATOM     12  C   UNL d   1      -0.193  -1.248  -0.241  0.00  0.00     0.045 A 
ATOM     13  C   UNL d   1       0.561  -0.075  -0.173  0.00  0.00     0.078 A 
ATOM     14 CL   UNL d   1       2.284  -0.245  -0.145  0.00  0.00    -0.080 Cl
BRANCH  11  15
ATOM     15  C   UNL d   1      -2.446  -2.408  -0.120  0.00  0.00     0.418 C 
ATOM     16  F   UNL d   1      -1.740  -3.571  -0.186  0.00  0.00    -0.166 F 
ATOM     17  F   UNL d   1      -3.193  -2.493   1.015  0.00  0.00    -0.166 F 
ATOM     18  F   UNL d   1      -3.330  -2.446  -1.153  0.00  0.00    -0.166 F 
ENDBRANCH  11  15
ENDBRANCH   2   7
BRANCH   1  19
ATOM     19  C   UNL d   1       2.227   6.173   0.826  0.00  0.00     0.170 C 
ATOM     20  S   UNL d   1       1.103   7.417   0.895  0.00  0.00    -0.041 SA
BRANCH  19  21
ATOM     21  N   UNL d   1       3.592   6.331   0.905  0.00  0.00    -0.364 N 
ATOM     22  H   UNL d   1       4.112   5.470   1.003  0.00  0.00     0.162 HD
BRANCH  21  23
ATOM     23  C   UNL d   1       4.268   7.504   1.437  0.00  0.00     0.148 C 
BRANCH  23  24
ATOM     24  C   UNL d   1       4.451   7.285   2.911  0.00  0.00    -0.018 C 
ATOM     25  C   UNL d   1       5.625   7.340   3.554  0.00  0.00     0.008 C 
ENDBRANCH  23  24
ENDBRANCH  21  23
ENDBRANCH  19  21
ENDBRANCH   1  19
TORSDOF 6
