REMARK  5 active torsions:
REMARK  status: ('A' for Active; 'I' for Inactive)
REMARK    1  A    between atoms: C_2  and  C_1 
REMARK       I    between atoms: N_5  and  C_1 
REMARK    2  A    between atoms: C_3  and  C_4 
REMARK    3  A    between atoms: O_9  and  C_3 
REMARK    4  A    between atoms: C_8  and  N_5 
REMARK    5  A    between atoms: C_15  and  C_10 
ROOT
ATOM      1  C   UNL d   1       1.063  -0.468  -0.312  0.00  0.00     0.245 C 
ATOM      2  N   UNL d   1       0.209  -0.802   0.717  0.00  0.00    -0.324 N 
ATOM      3  O   UNL d   1       0.773  -0.257  -1.484  0.00  0.00    -0.268 OA
ATOM      4  H   UNL d   1       0.609  -0.937   1.636  0.00  0.00     0.169 HD
ENDROOT
BRANCH   2   5
ATOM      5  C   UNL d   1      -1.194  -0.957   0.635  0.00  0.00     0.035 A 
ATOM      6  C   UNL d   1      -1.924  -0.806  -0.544  0.00  0.00     0.030 A 
ATOM      7  C   UNL d   1      -3.318  -0.934  -0.544  0.00  0.00     0.009 A 
ATOM      8  C   UNL d   1      -4.008  -1.223   0.636  0.00  0.00    -0.058 A 
ATOM      9  C   UNL d   1      -3.277  -1.396   1.816  0.00  0.00     0.009 A 
ATOM     10  C   UNL d   1      -1.883  -1.268   1.814  0.00  0.00     0.030 A 
BRANCH   8  11
ATOM     11  C   UNL d   1      -5.513  -1.301   0.638  0.00  0.00     0.034 C 
ATOM     12  C   UNL d   1      -6.147   0.057   0.905  0.00  0.00     0.010 C 
ENDBRANCH   8  11
ENDBRANCH   2   5
BRANCH   1  13
ATOM     13  C   UNL d   1       2.479  -0.374   0.127  0.00  0.00     0.081 C 
ATOM     14  C   UNL d   1       3.420  -0.138  -0.801  0.00  0.00     0.086 C 
BRANCH  14  15
ATOM     15  C   UNL d   1       4.829  -0.051  -0.393  0.00  0.00     0.165 C 
ATOM     16  O   UNL d   1       5.214  -0.148   0.760  0.00  0.00    -0.647 OA
BRANCH  15  17
ATOM     17  O   UNL d   1       5.652   0.142  -1.440  0.00  0.00    -0.773 OA
ATOM     18  H   UNL d   1       5.220   0.195  -2.312  0.00  0.00     0.167 HD
ENDBRANCH  15  17
ENDBRANCH  14  15
ENDBRANCH   1  13
TORSDOF 5
