REMARK  3 active torsions:
REMARK  status: ('A' for Active; 'I' for Inactive)
REMARK    1  A    between atoms: N_11  and  N_6 
REMARK    2  A    between atoms: C_15  and  C_9 
REMARK    3  A    between atoms: C_16  and  C_14 
ROOT
ATOM      1  C   UNL d   1      -0.199   0.622   0.028  0.00  0.00     0.069 A 
ATOM      2  C   UNL d   1      -0.077  -0.748  -0.005  0.00  0.00     0.091 A 
ATOM      3  C   UNL d   1       1.007   1.425   0.088  0.00  0.00     0.280 A 
ATOM      4  N   UNL d   1       1.076  -1.460   0.030  0.00  0.00    -0.344 N 
ATOM      5  HN  UNL d   1       1.100  -2.480   0.016  1.00  0.00     0.167 HD
ATOM      6  N   UNL d   1       2.190   0.660   0.073  0.00  0.00    -0.215 N 
ATOM      7  C   UNL d   1      -1.561   1.049   0.013  0.00  0.00     0.040 A 
ATOM      8  S   UNL d   1      -1.596  -1.510  -0.076  0.00  0.00    -0.071 SA
ATOM      9  C   UNL d   1      -2.448  -0.014  -0.004  0.00  0.00     0.018 A 
ATOM     10  C   UNL d   1       2.147  -0.728   0.082  0.00  0.00     0.211 A 
ATOM     11  O   UNL d   1       0.951   2.654   0.135  0.00  0.00    -0.265 OA
ENDROOT
BRANCH   6  12
ATOM     12  N   UNL d   1       3.369   1.380   0.156  0.00  0.00    -0.301 N 
ATOM     13  C   UNL d   1       4.462   0.905  -0.346  0.00  0.00     0.119 C 
ATOM     14  HN  UNL d   1       3.376   2.290   0.616  1.00  0.00     0.186 HD
BRANCH  13  15
ATOM     15  C   UNL d   1       5.714   1.690  -0.302  0.00  0.00    -0.019 A 
ATOM     16  C   UNL d   1       5.747   2.947   0.311  0.00  0.00     0.013 A 
ATOM     17  C   UNL d   1       6.920   3.702   0.283  0.00  0.00     0.001 A 
ATOM     18  C   UNL d   1       8.055   3.203  -0.357  0.00  0.00     0.000 A 
ATOM     19  C   UNL d   1       8.024   1.944  -0.958  0.00  0.00     0.001 A 
ATOM     20  C   UNL d   1       6.855   1.181  -0.929  0.00  0.00     0.013 A 
ENDBRANCH  13  15
ENDBRANCH   6  12
BRANCH   9  21
ATOM     21  C   UNL d   1      -3.921   0.008   0.025  0.00  0.00    -0.019 A 
ATOM     22  C   UNL d   1      -4.630   1.045  -0.602  0.00  0.00     0.013 A 
ATOM     23  C   UNL d   1      -6.027   1.093  -0.548  0.00  0.00     0.001 A 
ATOM     24  C   UNL d   1      -6.736   0.106   0.134  0.00  0.00     0.000 A 
ATOM     25  C   UNL d   1      -6.050  -0.931   0.758  0.00  0.00     0.001 A 
ATOM     26  C   UNL d   1      -4.654  -0.978   0.704  0.00  0.00     0.013 A 
ENDBRANCH   9  21
TORSDOF 3
