REMARK  5 active torsions:
REMARK  status: ('A' for Active; 'I' for Inactive)
REMARK       I    between atoms: N_2  and  C_1 
REMARK    1  A    between atoms: C_4  and  C_1 
REMARK    2  A    between atoms: C_9  and  N_3 
REMARK    3  A    between atoms: N_8  and  C_5 
REMARK    4  A    between atoms: C_18  and  C_9 
REMARK    5  A    between atoms: C_19  and  C_9 
ROOT
ATOM      1  C   UNL d   1       0.836   0.155  -0.157  0.00  0.00     0.255 C 
ATOM      2  N   UNL d   1       0.205   0.446   1.051  0.00  0.00    -0.345 N 
ATOM      3  N   UNL d   1      -0.273   0.587   3.975  0.00  0.00     0.105 N 
ATOM      4  C   UNL d   1       0.686   1.589   1.836  0.00  0.00     0.156 C 
ATOM      5  C   UNL d   1      -0.876  -0.335   1.668  0.00  0.00     0.156 C 
ATOM      6  C   UNL d   1      -0.611  -0.614   3.165  0.00  0.00     0.293 C 
ATOM      7  C   UNL d   1       0.895   1.226   3.316  0.00  0.00     0.293 C 
ATOM      8  O   UNL d   1       1.909   0.652  -0.486  0.00  0.00    -0.267 OA
ENDROOT
BRANCH   1   9
ATOM      9  C   UNL d   1       0.208  -0.781  -1.113  0.00  0.00     0.047 A 
ATOM     10  C   UNL d   1      -1.147  -0.766  -1.385  0.00  0.00     0.106 A 
ATOM     11  N   UNL d   1      -1.769  -1.626  -2.229  0.00  0.00    -0.351 N 
ATOM     12  C   UNL d   1      -1.018  -2.523  -2.905  0.00  0.00     0.103 A 
ATOM     13  HN  UNL d   1      -2.782  -1.596  -2.350  1.00  0.00     0.166 HD
ATOM     14  C   UNL d   1       0.370  -2.542  -2.737  0.00  0.00     0.049 A 
ATOM     15  C   UNL d   1       0.989  -1.670  -1.838  0.00  0.00     0.022 A 
BRANCH  12  16
ATOM     16  N   UNL d   1      -1.649  -3.459  -3.696  0.00  0.00    -0.363 N 
ATOM     17  C   UNL d   1      -1.107  -3.847  -5.005  0.00  0.00     0.150 C 
ATOM     18  C   UNL d   1      -2.010  -3.346  -6.145  0.00  0.00     0.187 C 
ATOM     19  O   UNL d   1      -3.373  -3.756  -5.964  0.00  0.00    -0.388 OA
ATOM     20  C   UNL d   1      -3.889  -3.206  -4.740  0.00  0.00     0.187 C 
ATOM     21  C   UNL d   1      -3.091  -3.697  -3.526  0.00  0.00     0.150 C 
ENDBRANCH  12  16
ENDBRANCH   1   9
BRANCH   3  22
ATOM     22  C   UNL d   1      -1.450   1.496   4.123  0.00  0.00     0.289 C 
BRANCH  22  23
ATOM     23  C   UNL d   1      -2.629   0.795   4.814  0.00  0.00    -0.021 A 
ATOM     24  C   UNL d   1      -2.483   0.216   6.085  0.00  0.00     0.010 A 
ATOM     25  C   UNL d   1      -3.567  -0.387   6.723  0.00  0.00     0.001 A 
ATOM     26  C   UNL d   1      -4.809  -0.428   6.093  0.00  0.00     0.000 A 
ATOM     27  C   UNL d   1      -4.967   0.125   4.825  0.00  0.00     0.001 A 
ATOM     28  C   UNL d   1      -3.885   0.735   4.186  0.00  0.00     0.010 A 
ENDBRANCH  22  23
BRANCH  22  29
ATOM     29  C   UNL d   1      -1.179   2.826   4.841  0.00  0.00    -0.021 A 
ATOM     30  C   UNL d   1      -1.905   3.970   4.456  0.00  0.00     0.010 A 
ATOM     31  C   UNL d   1      -1.746   5.181   5.131  0.00  0.00     0.001 A 
ATOM     32  C   UNL d   1      -0.860   5.271   6.200  0.00  0.00     0.000 A 
ATOM     33  C   UNL d   1      -0.135   4.148   6.599  0.00  0.00     0.001 A 
ATOM     34  C   UNL d   1      -0.300   2.933   5.931  0.00  0.00     0.010 A 
ENDBRANCH  22  29
ENDBRANCH   3  22
TORSDOF 5
