REMARK  5 active torsions:
REMARK  status: ('A' for Active; 'I' for Inactive)
REMARK    1  A    between atoms: C_2  and  C_1 
REMARK       I    between atoms: N_3  and  C_1 
REMARK       I    between atoms: C_4  and  N_3 
REMARK    2  A    between atoms: C_6  and  C_4 
REMARK    3  A    between atoms: C_5  and  C_6 
REMARK    4  A    between atoms: O_11  and  C_7 
REMARK    5  A    between atoms: O_13  and  C_10 
ROOT
ATOM      1  C   UNL d   1       1.352  -1.821   1.171  0.00  0.00     0.261 C 
ATOM      2  N   UNL d   1       0.338  -1.477   0.289  0.00  0.00    -0.293 N 
ATOM      3  C   UNL d   1      -0.701  -0.599   0.548  0.00  0.00     0.228 C 
ATOM      4  O   UNL d   1       1.696  -1.221   2.174  0.00  0.00    -0.267 OA
ATOM      5  O   UNL d   1      -0.723   0.239   1.443  0.00  0.00    -0.273 OA
ATOM      6  H   UNL d   1       0.222  -2.073  -0.524  0.00  0.00     0.172 HD
ENDROOT
BRANCH   1   7
ATOM      7  C   UNL d   1       2.102  -3.029   0.745  0.00  0.00     0.065 A 
ATOM      8  C   UNL d   1       1.448  -4.165   0.251  0.00  0.00     0.081 A 
ATOM      9  C   UNL d   1       2.173  -5.215  -0.300  0.00  0.00     0.037 A 
ATOM     10  C   UNL d   1       3.567  -5.153  -0.317  0.00  0.00     0.003 A 
ATOM     11  C   UNL d   1       4.229  -4.052   0.230  0.00  0.00     0.001 A 
ATOM     12  C   UNL d   1       3.499  -2.988   0.765  0.00  0.00     0.020 A 
BRANCH   8  13
ATOM     13  O   UNL d   1       0.086  -4.295   0.281  0.00  0.00    -0.360 OA
ATOM     14  H   UNL d   1      -0.207  -4.052   1.181  0.00  0.00     0.217 HD
ENDBRANCH   8  13
ENDBRANCH   1   7
BRANCH   3  15
ATOM     15  C   UNL d   1      -1.853  -0.755  -0.431  0.00  0.00     0.144 C 
BRANCH  15  16
ATOM     16  C   UNL d   1      -1.706   0.038  -1.713  0.00  0.00    -0.016 A 
ATOM     17  C   UNL d   1      -2.023  -0.530  -2.963  0.00  0.00     0.074 A 
ATOM     18  C   UNL d   1      -2.006   0.269  -4.113  0.00  0.00     0.037 A 
ATOM     19  C   UNL d   1      -1.661   1.620  -4.033  0.00  0.00     0.003 A 
ATOM     20  C   UNL d   1      -1.321   2.180  -2.807  0.00  0.00     0.001 A 
ATOM     21  C   UNL d   1      -1.349   1.397  -1.654  0.00  0.00     0.010 A 
BRANCH  17  22
ATOM     22  O   UNL d   1      -2.395  -1.849  -2.959  0.00  0.00    -0.355 OA
ATOM     23  C   UNL d   1      -2.226  -2.568  -4.176  0.00  0.00     0.210 C 
ENDBRANCH  17  22
ENDBRANCH  15  16
ENDBRANCH   3  15
TORSDOF 5
