REMARK  5 active torsions:
REMARK  status: ('A' for Active; 'I' for Inactive)
REMARK    1  A    between atoms: N_3  and  C_1 
REMARK    2  A    between atoms: N_7  and  C_1 
REMARK    3  A    between atoms: C_10  and  N_3 
REMARK    4  A    between atoms: C_16  and  N_7 
REMARK    5  A    between atoms: C_14  and  C_16 
ROOT
ATOM      1  N   UNL d   1       2.535  -0.049   0.013  0.00  0.00    -0.363 N 
ATOM      2  H   UNL d   1       1.996   0.395  -0.721  0.00  0.00     0.162 HD
ENDROOT
BRANCH   1   3
ATOM      3  C   UNL d   1       1.865  -0.060   1.208  0.00  0.00     0.172 C 
ATOM      4  S   UNL d   1       0.342   0.626   1.232  0.00  0.00    -0.041 SA
BRANCH   3   5
ATOM      5  N   UNL d   1       2.572  -0.585   2.268  0.00  0.00    -0.333 N 
ATOM      6  H   UNL d   1       3.541  -0.286   2.282  0.00  0.00     0.168 HD
BRANCH   5   7
ATOM      7  C   UNL d   1       2.027  -0.991   3.506  0.00  0.00     0.037 A 
ATOM      8  C   UNL d   1       0.872  -1.773   3.563  0.00  0.00     0.071 A 
ATOM      9  C   UNL d   1       0.347  -2.139   4.795  0.00  0.00     0.118 A 
ATOM     10  F   UNL d   1      -0.760  -2.892   4.842  0.00  0.00    -0.206 F 
ATOM     11  C   UNL d   1       0.955  -1.742   5.980  0.00  0.00     0.042 A 
ATOM     12  C   UNL d   1       2.131  -0.996   5.929  0.00  0.00     0.005 A 
ATOM     13  C   UNL d   1       2.683  -0.642   4.692  0.00  0.00     0.029 A 
ENDBRANCH   5   7
ENDBRANCH   3   5
ENDBRANCH   1   3
BRANCH   1  14
ATOM     14  C   UNL d   1       3.405  -1.120  -0.434  0.00  0.00     0.160 C 
BRANCH  14  15
ATOM     15  C   UNL d   1       4.879  -0.802  -0.419  0.00  0.00    -0.038 A 
ATOM     16  C   UNL d   1       5.409   0.377   0.129  0.00  0.00     0.048 A 
ATOM     17  C   UNL d   1       6.780   0.526   0.145  0.00  0.00     0.105 A 
ATOM     18  O   UNL d   1       7.456   1.586   0.666  0.00  0.00    -0.323 OA
ATOM     19  C   UNL d   1       7.624  -0.426  -0.376  0.00  0.00     0.105 A 
ATOM     20  C   UNL d   1       8.821   1.163   0.460  0.00  0.00     0.352 A 
ATOM     21  O   UNL d   1       8.934  -0.090  -0.245  0.00  0.00    -0.323 OA
ATOM     22  C   UNL d   1       7.146  -1.583  -0.948  0.00  0.00     0.040 A 
ATOM     23  C   UNL d   1       5.762  -1.770  -0.963  0.00  0.00     0.012 A 
ENDBRANCH  14  15
ENDBRANCH   1  14
TORSDOF 5
