REMARK  3 active torsions:
REMARK  status: ('A' for Active; 'I' for Inactive)
REMARK    1  A    between atoms: C_5  and  N_1 
REMARK    2  A    between atoms: C_11  and  C_5 
REMARK    3  A    between atoms: C_12  and  C_11 
ROOT
ATOM      1  C   UNL d   1       0.212  -2.258   0.005  0.00  0.00     0.139 C 
ENDROOT
BRANCH   1   2
ATOM      2  N   UNL d   1       0.394  -0.810   0.059  0.00  0.00    -0.293 N 
ATOM      3  C   UNL d   1       0.521  -0.026   1.172  0.00  0.00     0.176 A 
ATOM      4  N   UNL d   1       0.677   1.284   0.772  0.00  0.00    -0.358 N 
ATOM      5  S   UNL d   1       0.509  -0.458   2.771  0.00  0.00    -0.041 SA
ATOM      6  C   UNL d   1       0.660   1.416  -0.658  0.00  0.00     0.225 A 
ATOM      7  H   UNL d   1       0.777   2.046   1.434  0.00  0.00     0.162 HD
ATOM      8  C   UNL d   1       0.501  -0.038  -1.075  0.00  0.00     0.243 A 
ATOM      9  O   UNL d   1       0.474  -0.434  -2.232  0.00  0.00    -0.271 OA
ENDBRANCH   1   2
BRANCH   1  10
ATOM     10  C   UNL d   1       1.549  -3.005  -0.015  0.00  0.00     0.059 C 
BRANCH  10  11
ATOM     11  C   UNL d   1       1.354  -4.499   0.041  0.00  0.00    -0.054 A 
ATOM     12  C   UNL d   1       1.230  -5.252  -1.130  0.00  0.00     0.024 A 
ATOM     13  C   UNL d   1       1.033  -6.620  -1.023  0.00  0.00     0.088 A 
ATOM     14  N   UNL d   1       0.947  -7.278   0.152  0.00  0.00    -0.375 N 
ATOM     15  C   UNL d   1       1.065  -6.533   1.272  0.00  0.00     0.088 A 
ATOM     16  HN  UNL d   1       0.801  -8.287   0.192  1.00  0.00     0.164 HD
ATOM     17  C   UNL d   1       1.263  -5.161   1.269  0.00  0.00     0.024 A 
ENDBRANCH  10  11
ENDBRANCH   1  10
TORSDOF 3
