REMARK  6 active torsions:
REMARK  status: ('A' for Active; 'I' for Inactive)
REMARK    1  A    between atoms: C_12  and  N_1 
REMARK    2  A    between atoms: C_13  and  C_2 
REMARK    3  A    between atoms: S_11  and  C_5 
REMARK       I    between atoms: N_8  and  C_9 
REMARK    4  A    between atoms: C_9  and  C_14 
REMARK    5  A    between atoms: C_14  and  S_11 
REMARK    6  A    between atoms: C_20  and  C_12 
ROOT
ATOM      1  N   UNL d   1      -0.203  -1.129   0.095  0.00  0.00    -0.306 N 
ATOM      2  C   UNL d   1       1.042  -0.535  -0.042  0.00  0.00     0.135 A 
ATOM      3  N   UNL d   1       0.853   0.777  -0.091  0.00  0.00    -0.283 N 
ATOM      4  HN  UNL d   1       1.587   1.475  -0.213  1.00  0.00     0.188 HD
ATOM      5  C   UNL d   1      -1.107  -0.094   0.163  0.00  0.00     0.163 A 
ATOM      6  N   UNL d   1      -0.484   1.050   0.047  0.00  0.00    -0.278 N 
ATOM      7  HN  UNL d   1      -0.914   1.976   0.058  1.00  0.00     0.189 HD
ENDROOT
BRANCH   5   8
ATOM      8  S   UNL d   1      -2.802  -0.315   0.403  0.00  0.00    -0.083 SA
BRANCH   8   9
ATOM      9  C   UNL d   1      -3.459   1.382   0.215  0.00  0.00     0.185 C 
BRANCH   9  10
ATOM     10  C   UNL d   1      -4.993   1.391   0.333  0.00  0.00     0.234 C 
ATOM     11  N   UNL d   1      -5.625   2.651   0.412  0.00  0.00    -0.317 N 
ATOM     12  C   UNL d   1      -7.032   2.782   0.731  0.00  0.00     0.043 A 
ATOM     13  C   UNL d   1      -4.932   3.909   0.105  0.00  0.00     0.132 C 
ATOM     14  C   UNL d   1      -7.731   3.959   0.386  0.00  0.00    -0.031 A 
ATOM     15  C   UNL d   1      -7.740   1.776   1.408  0.00  0.00     0.030 A 
ATOM     16  C   UNL d   1      -9.100   4.087   0.696  0.00  0.00     0.009 A 
ATOM     17  C   UNL d   1      -7.062   5.120  -0.300  0.00  0.00     0.042 C 
ATOM     18  C   UNL d   1      -9.782   3.063   1.346  0.00  0.00     0.001 A 
ATOM     19  C   UNL d   1      -9.100   1.912   1.708  0.00  0.00     0.002 A 
ATOM     20  C   UNL d   1      -5.719   4.741  -0.894  0.00  0.00     0.025 C 
ATOM     21  O   UNL d   1      -5.624   0.327   0.315  0.00  0.00    -0.272 OA
ENDBRANCH   9  10
ENDBRANCH   8   9
ENDBRANCH   5   8
BRANCH   1  22
ATOM     22  C   UNL d   1      -0.523  -2.546   0.050  0.00  0.00     0.171 C 
BRANCH  22  23
ATOM     23  C   UNL d   1      -0.514  -3.246   1.393  0.00  0.00    -0.040 A 
ATOM     24  C   UNL d   1      -0.292  -2.591   2.616  0.00  0.00     0.009 A 
ATOM     25  C   UNL d   1      -0.226  -3.312   3.811  0.00  0.00     0.001 A 
ATOM     26  C   UNL d   1      -0.398  -4.693   3.807  0.00  0.00     0.000 A 
ATOM     27  C   UNL d   1      -0.644  -5.357   2.608  0.00  0.00     0.001 A 
ATOM     28  C   UNL d   1      -0.702  -4.639   1.411  0.00  0.00     0.009 A 
ENDBRANCH  22  23
ENDBRANCH   1  22
BRANCH   2  29
ATOM     29  C   UNL d   1       2.368  -1.169  -0.163  0.00  0.00     0.012 A 
ATOM     30  C   UNL d   1       3.358  -0.506  -0.898  0.00  0.00     0.032 A 
ATOM     31  C   UNL d   1       4.621  -1.068  -1.000  0.00  0.00     0.088 A 
ATOM     32  N   UNL d   1       4.967  -2.237  -0.431  0.00  0.00    -0.375 N 
ATOM     33  C   UNL d   1       4.015  -2.857   0.294  0.00  0.00     0.088 A 
ATOM     34  HN  UNL d   1       5.901  -2.634  -0.542  1.00  0.00     0.164 HD
ATOM     35  C   UNL d   1       2.728  -2.366   0.460  0.00  0.00     0.032 A 
ENDBRANCH   2  29
TORSDOF 6
