REMARK  2 active torsions:
REMARK  status: ('A' for Active; 'I' for Inactive)
REMARK    1  A    between atoms: C_2  and  C_1 
REMARK    2  A    between atoms: O_9  and  C_2 
ROOT
ATOM      1  C   UNL d   1      -0.020   2.567  -0.042  0.00  0.00     0.042 A 
ATOM      2  C   UNL d   1      -1.234   1.871  -0.014  0.00  0.00     0.036 A 
ATOM      3  C   UNL d   1       1.192   1.863  -0.029  0.00  0.00     0.036 A 
ATOM      4  C   UNL d   1      -1.225   0.476   0.018  0.00  0.00     0.013 A 
ATOM      5  C   UNL d   1       1.180   0.469  -0.006  0.00  0.00     0.013 A 
ATOM      6  C   UNL d   1      -0.024  -0.231   0.017  0.00  0.00     0.038 A 
ATOM      7 BR   UNL d   1      -2.863  -0.467   0.065  0.00  0.00    -0.051 Br
ATOM      8 BR   UNL d   1       2.815  -0.479  -0.014  0.00  0.00    -0.051 Br
ENDROOT
BRANCH   1   9
ATOM      9  C   UNL d   1       0.038   4.048  -0.074  0.00  0.00     0.293 C 
ATOM     10  O   UNL d   1       1.011   4.690   0.288  0.00  0.00    -0.259 OA
BRANCH   9  11
ATOM     11  O   UNL d   1      -1.102   4.551  -0.607  0.00  0.00    -0.323 OA
ATOM     12  C   UNL d   1      -1.090   5.973  -0.753  0.00  0.00     0.213 C 
ENDBRANCH   9  11
ENDBRANCH   1   9
TORSDOF 2
