REMARK  6 active torsions:
REMARK  status: ('A' for Active; 'I' for Inactive)
REMARK    1  A    between atoms: C_14  and  N_1 
REMARK    2  A    between atoms: C_7  and  C_4 
REMARK    3  A    between atoms: C_13  and  C_5 
REMARK    4  A    between atoms: O_17  and  C_8 
REMARK    5  A    between atoms: O_20  and  C_9 
REMARK    6  A    between atoms: O_19  and  C_10 
ROOT
ATOM      1  N   UNL d   1       0.151  -1.104  -0.000  0.00  0.00    -0.283 N 
ATOM      2  N   UNL d   1       1.154  -0.183   0.047  0.00  0.00    -0.301 N 
ATOM      3  HN  UNL d   1       2.151  -0.375   0.140  1.00  0.00     0.187 HD
ATOM      4  C   UNL d   1      -1.185  -0.514  -0.067  0.00  0.00     0.147 A 
ATOM      5  C   UNL d   1       0.599   0.987  -0.049  0.00  0.00     0.038 A 
ATOM      6  C   UNL d   1      -0.902   0.985  -0.114  0.00  0.00     0.091 A 
ENDROOT
BRANCH   4   7
ATOM      7  C   UNL d   1      -2.041  -0.863   1.139  0.00  0.00    -0.028 A 
ATOM      8  C   UNL d   1      -1.480  -1.050   2.411  0.00  0.00     0.049 A 
ATOM      9  C   UNL d   1      -2.267  -1.329   3.536  0.00  0.00     0.104 A 
ATOM     10  C   UNL d   1      -3.663  -1.443   3.378  0.00  0.00     0.135 A 
ATOM     11  C   UNL d   1      -4.237  -1.261   2.098  0.00  0.00     0.104 A 
ATOM     12  C   UNL d   1      -3.426  -0.955   1.000  0.00  0.00     0.049 A 
BRANCH   9  13
ATOM     13  O   UNL d   1      -1.730  -1.454   4.792  0.00  0.00    -0.353 OA
ATOM     14  C   UNL d   1      -0.314  -1.377   4.922  0.00  0.00     0.210 C 
ENDBRANCH   9  13
BRANCH  10  15
ATOM     15  O   UNL d   1      -4.566  -1.656   4.396  0.00  0.00    -0.351 OA
ATOM     16  C   UNL d   1      -4.154  -2.498   5.465  0.00  0.00     0.210 C 
ENDBRANCH  10  15
BRANCH  11  17
ATOM     17  O   UNL d   1      -5.605  -1.375   1.996  0.00  0.00    -0.353 OA
ATOM     18  C   UNL d   1      -6.111  -1.685   0.700  0.00  0.00     0.210 C 
ENDBRANCH  11  17
ENDBRANCH   4   7
BRANCH   1  19
ATOM     19  C   UNL d   1       0.414  -2.473   0.009  0.00  0.00     0.051 A 
ATOM     20  C   UNL d   1       1.594  -2.974   0.583  0.00  0.00     0.031 A 
ATOM     21  C   UNL d   1       1.853  -4.347   0.639  0.00  0.00     0.002 A 
ATOM     22  C   UNL d   1       0.948  -5.250   0.095  0.00  0.00     0.000 A 
ATOM     23  C   UNL d   1      -0.223  -4.782  -0.493  0.00  0.00     0.002 A 
ATOM     24  C   UNL d   1      -0.487  -3.407  -0.524  0.00  0.00     0.031 A 
ENDBRANCH   1  19
BRANCH   5  25
ATOM     25  C   UNL d   1       1.366   2.250  -0.119  0.00  0.00    -0.012 A 
ATOM     26  C   UNL d   1       2.767   2.200  -0.074  0.00  0.00     0.015 A 
ATOM     27  C   UNL d   1       3.517   3.373  -0.187  0.00  0.00     0.024 A 
ATOM     28  C   UNL d   1       2.870   4.596  -0.346  0.00  0.00     0.034 A 
ATOM     29  C   UNL d   1       1.477   4.659  -0.386  0.00  0.00     0.024 A 
ATOM     30 CL   UNL d   1       3.790   6.040  -0.503  0.00  0.00    -0.084 Cl
ATOM     31  C   UNL d   1       0.724   3.486  -0.270  0.00  0.00     0.015 A 
ENDBRANCH   5  25
TORSDOF 6
