REMARK  5 active torsions:
REMARK  status: ('A' for Active; 'I' for Inactive)
REMARK       I    between atoms: N_2  and  C_1 
REMARK    1  A    between atoms: C_4  and  C_1 
REMARK    2  A    between atoms: C_5  and  N_2 
REMARK    3  A    between atoms: O_6  and  C_3 
REMARK    4  A    between atoms: C_14  and  O_6 
REMARK    5  A    between atoms: O_20  and  C_15 
ROOT
ATOM      1  C   UNL d   1       0.410   1.356   3.211  0.00  0.00     0.175 A 
ATOM      2  C   UNL d   1       1.049   1.315   1.965  0.00  0.00     0.087 A 
ATOM      3  N   UNL d   1       0.955   1.943   4.311  0.00  0.00    -0.345 N 
ATOM      4  HN  UNL d   1       0.481   1.913   5.214  1.00  0.00     0.167 HD
ATOM      5  C   UNL d   1       2.261   2.005   1.859  0.00  0.00     0.035 A 
ATOM      6  C   UNL d   1       2.140   2.565   4.167  0.00  0.00     0.090 A 
ATOM      7  C   UNL d   1       2.815   2.641   2.967  0.00  0.00     0.019 A 
ENDROOT
BRANCH   1   8
ATOM      8  O   UNL d   1      -0.828   0.717   3.334  0.00  0.00    -0.292 OA
BRANCH   8   9
ATOM      9  C   UNL d   1      -1.510   0.904   4.519  0.00  0.00     0.078 A 
ATOM     10  C   UNL d   1      -1.822   2.176   5.008  0.00  0.00     0.040 A 
ATOM     11  C   UNL d   1      -2.462   2.322   6.243  0.00  0.00     0.039 A 
ATOM     12  C   UNL d   1      -2.831   1.194   6.977  0.00  0.00     0.068 A 
ATOM     13  C   UNL d   1      -2.588  -0.077   6.445  0.00  0.00     0.039 A 
ATOM     14  C   UNL d   1      -1.930  -0.226   5.218  0.00  0.00     0.040 A 
BRANCH  12  15
ATOM     15  O   UNL d   1      -3.435   1.205   8.205  0.00  0.00    -0.356 OA
ATOM     16  C   UNL d   1      -3.454   2.452   8.891  0.00  0.00     0.210 C 
ENDBRANCH  12  15
ENDBRANCH   8   9
ENDBRANCH   1   8
BRANCH   2  17
ATOM     17  N   UNL d   1       0.486   0.627   0.862  0.00  0.00    -0.318 N 
ATOM     18  C   UNL d   1       1.209   0.147  -0.222  0.00  0.00     0.280 C 
ATOM     19  O   UNL d   1       2.436   0.172  -0.299  0.00  0.00    -0.265 OA
ATOM     20  H   UNL d   1      -0.480   0.319   0.939  0.00  0.00     0.169 HD
BRANCH  18  21
ATOM     21  C   UNL d   1       0.414  -0.454  -1.279  0.00  0.00     0.142 A 
ATOM     22  O   UNL d   1      -0.936  -0.239  -1.342  0.00  0.00    -0.317 OA
ATOM     23  C   UNL d   1      -1.374  -0.840  -2.482  0.00  0.00     0.143 A 
ATOM     24  C   UNL d   1      -0.338  -1.469  -3.133  0.00  0.00     0.027 A 
ATOM     25  C   UNL d   1       0.815  -1.219  -2.357  0.00  0.00     0.045 A 
ENDBRANCH  18  21
ENDBRANCH   2  17
TORSDOF 5
