REMARK  5 active torsions:
REMARK  status: ('A' for Active; 'I' for Inactive)
REMARK       I    between atoms: N_2  and  C_1 
REMARK       I    between atoms: N_8  and  C_1 
REMARK    1  A    between atoms: C_3  and  N_2 
REMARK    2  A    between atoms: C_4  and  C_6 
REMARK    3  A    between atoms: O_12  and  C_4 
REMARK    4  A    between atoms: C_6  and  C_11 
REMARK    5  A    between atoms: C_11  and  N_8 
ROOT
ATOM      1  C   UNL d   1       1.074   0.261  -0.099  0.00  0.00     0.320 C 
ATOM      2  N   UNL d   1       0.298   0.822   0.894  0.00  0.00    -0.308 N 
ATOM      3  O   UNL d   1       2.282   0.417  -0.254  0.00  0.00    -0.247 OA
ATOM      4  N   UNL d   1       0.344  -0.568  -0.915  0.00  0.00    -0.342 N 
ATOM      5  H   UNL d   1      -0.504   0.270   1.149  0.00  0.00     0.170 HD
ATOM      6  H   UNL d   1      -0.657  -0.644  -0.792  0.00  0.00     0.164 HD
ENDROOT
BRANCH   2   7
ATOM      7  C   UNL d   1       0.833   1.686   1.888  0.00  0.00     0.047 A 
ATOM      8  C   UNL d   1       0.409   1.585   3.246  0.00  0.00     0.001 A 
ATOM      9  C   UNL d   1       1.120   2.334   4.222  0.00  0.00    -0.024 A 
ATOM     10  C   UNL d   1      -0.644   0.755   3.709  0.00  0.00     0.014 A 
ATOM     11  C   UNL d   1       0.815   2.189   5.584  0.00  0.00     0.012 A 
ATOM     12  C   UNL d   1       2.143   3.211   3.832  0.00  0.00     0.012 A 
ATOM     13  C   UNL d   1      -0.211   1.348   6.006  0.00  0.00     0.001 A 
ATOM     14  C   UNL d   1      -0.953   0.645   5.068  0.00  0.00     0.001 A 
ATOM     15  C   UNL d   1       2.469   3.377   2.491  0.00  0.00     0.003 A 
ATOM     16  C   UNL d   1       1.820   2.615   1.527  0.00  0.00     0.030 A 
ENDBRANCH   2   7
BRANCH   4  17
ATOM     17  C   UNL d   1       0.951  -1.316  -2.000  0.00  0.00     0.134 C 
BRANCH  17  18
ATOM     18  C   UNL d   1       1.299  -2.748  -1.613  0.00  0.00     0.129 C 
BRANCH  18  19
ATOM     19  C   UNL d   1       0.063  -3.582  -1.386  0.00  0.00     0.140 C 
ATOM     20  O   UNL d   1      -1.082  -3.155  -1.357  0.00  0.00    -0.650 OA
BRANCH  19  21
ATOM     21  O   UNL d   1       0.346  -4.891  -1.197  0.00  0.00    -0.776 OA
ATOM     22  H   UNL d   1       1.300  -5.101  -1.222  0.00  0.00     0.167 HD
ENDBRANCH  19  21
ENDBRANCH  18  19
ENDBRANCH  17  18
ENDBRANCH   4  17
TORSDOF 5
