REMARK  3 active torsions:
REMARK  status: ('A' for Active; 'I' for Inactive)
REMARK    1  A    between atoms: C_3  and  C_1 
REMARK    2  A    between atoms: C_8  and  C_2 
REMARK       I    between atoms: N_9  and  C_3 
REMARK    3  A    between atoms: C_10  and  N_9 
ROOT
ATOM      1  C   UNL d   1       1.863  -0.700   0.124  0.00  0.00     0.063 A 
ATOM      2  C   UNL d   1       1.762   0.462  -0.763  0.00  0.00     0.070 A 
ATOM      3  C   UNL d   1       0.790  -1.055   0.856  0.00  0.00     0.111 A 
ATOM      4  C   UNL d   1       0.589   1.114  -0.874  0.00  0.00     0.091 A 
ATOM      5  N   UNL d   1      -0.438  -0.438   0.690  0.00  0.00    -0.328 N 
ATOM      6  C   UNL d   1      -0.616   0.668  -0.137  0.00  0.00     0.247 A 
ATOM      7  O   UNL d   1      -1.672   1.272  -0.281  0.00  0.00    -0.268 OA
ATOM      8  C   UNL d   1      -1.605  -0.937   1.400  0.00  0.00     0.159 C 
ENDROOT
BRANCH   1   9
ATOM      9  C   UNL d   1       3.185  -1.375   0.377  0.00  0.00     0.260 C 
ATOM     10  N   UNL d   1       3.323  -2.751   0.136  0.00  0.00    -0.318 N 
ATOM     11  C   UNL d   1       2.230  -3.630  -0.302  0.00  0.00     0.159 C 
ATOM     12  O   UNL d   1       4.105  -0.624   0.698  0.00  0.00    -0.267 OA
BRANCH  10  13
ATOM     13  C   UNL d   1       4.637  -3.356   0.157  0.00  0.00     0.038 A 
ATOM     14  C   UNL d   1       5.627  -2.947   1.060  0.00  0.00     0.055 A 
ATOM     15  C   UNL d   1       6.893  -3.554   1.081  0.00  0.00     0.058 A 
ATOM     16 CL   UNL d   1       8.032  -3.005   2.257  0.00  0.00    -0.082 Cl
ATOM     17  C   UNL d   1       7.190  -4.581   0.181  0.00  0.00     0.055 A 
ATOM     18  C   UNL d   1       6.220  -4.999  -0.727  0.00  0.00     0.028 A 
ATOM     19 CL   UNL d   1       8.723  -5.375   0.143  0.00  0.00    -0.083 Cl
ATOM     20  C   UNL d   1       4.955  -4.399  -0.732  0.00  0.00     0.031 A 
ENDBRANCH  10  13
ENDBRANCH   1   9
BRANCH   2  21
ATOM     21  C   UNL d   1       2.964   0.922  -1.539  0.00  0.00     0.418 C 
ATOM     22  F   UNL d   1       3.658  -0.107  -2.089  0.00  0.00    -0.166 F 
ATOM     23  F   UNL d   1       2.602   1.719  -2.586  0.00  0.00    -0.166 F 
ATOM     24  F   UNL d   1       3.821   1.661  -0.792  0.00  0.00    -0.166 F 
ENDBRANCH   2  21
TORSDOF 3
