REMARK  5 active torsions:
REMARK  status: ('A' for Active; 'I' for Inactive)
REMARK    1  A    between atoms: C_10  and  C_1 
REMARK       I    between atoms: C_5  and  N_8 
REMARK    2  A    between atoms: C_9  and  C_5 
REMARK    3  A    between atoms: N_8  and  C_15 
REMARK    4  A    between atoms: C_14  and  C_9 
REMARK    5  A    between atoms: C_18  and  C_9 
ROOT
ATOM      1  C   UNL d   1      -7.981  -4.305   2.766  0.00  0.00    -0.002 A 
ATOM      2  C   UNL d   1      -7.971  -2.378   0.651  0.00  0.00     0.034 A 
ATOM      3  C   UNL d   1      -6.848  -3.523   2.482  0.00  0.00     0.016 A 
ATOM      4  C   UNL d   1      -9.122  -4.077   1.982  0.00  0.00     0.016 A 
ATOM      5  C   UNL d   1      -9.113  -3.132   0.931  0.00  0.00     0.030 A 
ATOM      6  C   UNL d   1      -6.845  -2.572   1.455  0.00  0.00     0.030 A 
ENDROOT
BRANCH   2   7
ATOM      7  N   UNL d   1      -7.853  -1.421  -0.386  0.00  0.00    -0.327 N 
ATOM      8  C   UNL d   1      -8.723  -1.171  -1.427  0.00  0.00     0.231 C 
ATOM      9  O   UNL d   1      -9.789  -1.768  -1.589  0.00  0.00    -0.272 OA
ATOM     10  H   UNL d   1      -7.003  -0.881  -0.368  0.00  0.00     0.169 HD
BRANCH   8  11
ATOM     11  C   UNL d   1      -8.327  -0.028  -2.404  0.00  0.00     0.115 C 
BRANCH  11  12
ATOM     12  C   UNL d   1      -8.790   1.374  -1.984  0.00  0.00    -0.045 A 
ATOM     13  C   UNL d   1      -9.273   1.675  -0.702  0.00  0.00     0.008 A 
ATOM     14  C   UNL d   1      -9.645   2.981  -0.368  0.00  0.00     0.001 A 
ATOM     15  C   UNL d   1      -9.537   4.013  -1.301  0.00  0.00     0.000 A 
ATOM     16  C   UNL d   1      -9.082   3.732  -2.584  0.00  0.00     0.001 A 
ATOM     17  C   UNL d   1      -8.732   2.427  -2.923  0.00  0.00     0.008 A 
ENDBRANCH  11  12
BRANCH  11  18
ATOM     18  C   UNL d   1      -6.892   0.018  -2.991  0.00  0.00     0.003 C 
ATOM     19  C   UNL d   1      -6.308  -1.273  -3.553  0.00  0.00     0.006 C 
ATOM     20  C   UNL d   1      -4.877  -0.863  -3.926  0.00  0.00     0.000 C 
ATOM     21  C   UNL d   1      -4.528   0.338  -3.039  0.00  0.00     0.000 C 
ATOM     22  C   UNL d   1      -5.740   0.546  -2.133  0.00  0.00     0.006 C 
ENDBRANCH  11  18
ENDBRANCH   8  11
ENDBRANCH   2   7
BRANCH   1  23
ATOM     23  C   UNL d   1      -7.865  -5.327   3.833  0.00  0.00     0.085 A 
ATOM     24  N   UNL d   1      -6.721  -5.592   4.437  0.00  0.00    -0.349 N 
ATOM     25  C   UNL d   1      -6.856  -6.639   5.327  0.00  0.00     0.050 A 
ATOM     26  HN  UNL d   1      -5.850  -5.088   4.269  1.00  0.00     0.166 HD
ATOM     27  C   UNL d   1      -5.816  -7.202   6.093  0.00  0.00     0.031 A 
ATOM     28  C   UNL d   1      -8.141  -7.167   5.438  0.00  0.00     0.034 A 
ATOM     29  C   UNL d   1      -6.079  -8.284   6.936  0.00  0.00     0.009 A 
ATOM     30  C   UNL d   1      -7.368  -8.811   7.045  0.00  0.00    -0.061 A 
ATOM     31  C   UNL d   1      -8.420  -8.249   6.298  0.00  0.00     0.028 A 
ATOM     32  C   UNL d   1      -7.598  -9.998   7.937  0.00  0.00     0.048 C 
ATOM     33  S   UNL d   1      -9.186  -6.288   4.380  0.00  0.00    -0.070 SA
ENDBRANCH   1  23
TORSDOF 5
