REMARK  6 active torsions:
REMARK  status: ('A' for Active; 'I' for Inactive)
REMARK    1  A    between atoms: C_7  and  C_1 
REMARK    2  A    between atoms: C_8  and  N_2 
REMARK    3  A    between atoms: N_9  and  C_7 
REMARK    4  A    between atoms: C_12  and  C_8 
REMARK    5  A    between atoms: O_14  and  N_9 
REMARK    6  A    between atoms: C_20  and  O_14 
ROOT
ATOM      1  C   UNL d   1       0.869  -0.849   0.259  0.00  0.00     0.087 A 
ATOM      2  N   UNL d   1       0.947   0.514   0.053  0.00  0.00    -0.286 N 
ATOM      3  N   UNL d   1      -0.272   1.105  -0.083  0.00  0.00    -0.308 N 
ATOM      4  HN  UNL d   1      -0.476   2.093  -0.234  1.00  0.00     0.186 HD
ATOM      5  C   UNL d   1      -0.483  -1.120   0.237  0.00  0.00     0.057 A 
ATOM      6  C   UNL d   1      -1.136   0.097   0.027  0.00  0.00     0.129 A 
ATOM      7 BR   UNL d   1      -1.360  -2.768   0.380  0.00  0.00    -0.047 Br
ENDROOT
BRANCH   2   8
ATOM      8  C   UNL d   1       2.132   1.349  -0.116  0.00  0.00     0.187 C 
BRANCH   8   9
ATOM      9  C   UNL d   1       2.672   1.910   1.181  0.00  0.00    -0.038 A 
ATOM     10  C   UNL d   1       3.994   1.645   1.567  0.00  0.00     0.010 A 
ATOM     11  C   UNL d   1       4.544   2.255   2.698  0.00  0.00     0.024 A 
ATOM     12  C   UNL d   1       3.773   3.133   3.457  0.00  0.00     0.034 A 
ATOM     13  C   UNL d   1       2.451   3.392   3.103  0.00  0.00     0.024 A 
ATOM     14 CL   UNL d   1       4.465   3.917   4.823  0.00  0.00    -0.084 Cl
ATOM     15  C   UNL d   1       1.903   2.785   1.970  0.00  0.00     0.010 A 
ENDBRANCH   8   9
ENDBRANCH   2   8
BRANCH   1  16
ATOM     16  C   UNL d   1       1.942  -1.783   0.445  0.00  0.00     0.146 C 
BRANCH  16  17
ATOM     17  N   UNL d   1       3.150  -1.550   0.038  0.00  0.00    -0.276 N 
ATOM     18  HN  UNL d   1       3.470  -0.704  -0.433  1.00  0.00     0.193 HD
BRANCH  17  19
ATOM     19  O   UNL d   1       3.941  -2.665   0.360  0.00  0.00    -0.281 OA
BRANCH  19  20
ATOM     20  C   UNL d   1       5.011  -2.765  -0.578  0.00  0.00     0.196 C 
ATOM     21  C   UNL d   1       5.922  -3.895  -0.141  0.00  0.00     0.036 C 
ENDBRANCH  19  20
ENDBRANCH  17  19
ENDBRANCH  16  17
ENDBRANCH   1  16
TORSDOF 6
