REMARK  3 active torsions:
REMARK  status: ('A' for Active; 'I' for Inactive)
REMARK    1  A    between atoms: C_2  and  C_4 
REMARK    2  A    between atoms: C_3  and  C_2 
REMARK       I    between atoms: N_6  and  C_3 
REMARK    3  A    between atoms: C_5  and  N_6 
ROOT
ATOM      1  C   UNL d   1       1.975  -2.359   0.511  0.00  0.00     0.220 C 
ATOM      2  N   UNL d   1       2.748  -1.958  -0.554  0.00  0.00    -0.356 N 
ATOM      3  O   UNL d   1       0.799  -2.027   0.633  0.00  0.00    -0.274 OA
ATOM      4  H   UNL d   1       3.754  -2.102  -0.467  0.00  0.00     0.162 HD
ENDROOT
BRANCH   1   5
ATOM      5  C   UNL d   1       2.705  -3.128   1.602  0.00  0.00     0.148 C 
BRANCH   5   6
ATOM      6  C   UNL d   1       3.399  -4.445   1.241  0.00  0.00     0.320 C 
ATOM      7  C   UNL d   1       4.565  -4.282   0.244  0.00  0.00     0.251 C 
ATOM      8  N   UNL d   1       5.084  -5.432  -0.295  0.00  0.00    -0.358 N 
ATOM      9  O   UNL d   1       5.089  -3.194  -0.011  0.00  0.00    -0.271 OA
ATOM     10  C   UNL d   1       4.313  -6.656  -0.392  0.00  0.00     0.152 C 
ATOM     11  H   UNL d   1       5.832  -5.277  -0.962  0.00  0.00     0.162 HD
ATOM     12  C   UNL d   1       3.211  -6.774   0.669  0.00  0.00     0.290 C 
ATOM     13  N   UNL d   1       2.461  -5.517   0.826  0.00  0.00     0.099 N 
ATOM     14  H   UNL d   1       2.036  -5.258  -0.067  0.00  0.00     0.317 HD
ENDBRANCH   5   6
ENDBRANCH   1   5
BRANCH   2  15
ATOM     15  C   UNL d   1       2.310  -0.912  -1.483  0.00  0.00     0.092 A 
ATOM     16  C   UNL d   1       1.145  -1.344  -2.411  0.00  0.00     0.064 A 
ATOM     17  C   UNL d   1       1.716  -1.211  -3.789  0.00  0.00    -0.050 A 
ATOM     18  C   UNL d   1       1.080  -1.471  -4.995  0.00  0.00     0.007 A 
ATOM     19  C   UNL d   1       3.031  -0.754  -3.765  0.00  0.00    -0.050 A 
ATOM     20  C   UNL d   1       1.796  -1.298  -6.182  0.00  0.00     0.001 A 
ATOM     21  C   UNL d   1       3.132  -0.873  -6.153  0.00  0.00     0.001 A 
ATOM     22  C   UNL d   1       3.757  -0.591  -4.937  0.00  0.00     0.007 A 
ATOM     23  C   UNL d   1       3.482  -0.436  -2.378  0.00  0.00     0.064 A 
ENDBRANCH   2  15
TORSDOF 3
