REMARK  6 active torsions:
REMARK  status: ('A' for Active; 'I' for Inactive)
REMARK    1  A    between atoms: C_4  and  N_1 
REMARK    2  A    between atoms: C_12  and  C_2 
REMARK    3  A    between atoms: N_5  and  C_3 
REMARK    4  A    between atoms: C_14  and  C_12 
REMARK    5  A    between atoms: C_18  and  C_14 
REMARK    6  A    between atoms: O_17  and  C_18 
ROOT
ATOM      1  N   UNL d   1       3.393   3.077   4.374  0.00  0.00    -0.197 NA
ATOM      2  C   UNL d   1       2.538   3.777   4.026  0.00  0.00     0.066 C 
ATOM      3  C   UNL d   1       1.478   4.698   3.583  0.00  0.00     0.120 C 
ENDROOT
BRANCH   3   4
ATOM      4  C   UNL d   1       0.969   4.307   2.184  0.00  0.00     0.062 C 
BRANCH   4   5
ATOM      5  C   UNL d   1       0.234   2.973   2.104  0.00  0.00    -0.028 A 
ATOM      6  C   UNL d   1       0.770   2.024   1.199  0.00  0.00     0.045 A 
ATOM      7  C   UNL d   1       0.245   0.732   1.118  0.00  0.00     0.103 A 
ATOM      8  C   UNL d   1      -0.818   0.361   1.934  0.00  0.00     0.038 A 
ATOM      9  C   UNL d   1      -1.373   1.307   2.803  0.00  0.00     0.032 A 
ATOM     10  C   UNL d   1      -0.893   2.632   2.900  0.00  0.00     0.036 A 
BRANCH   7  11
ATOM     11  N   UNL d   1       0.817  -0.233   0.171  0.00  0.00    -0.116 N 
ATOM     12  O   UNL d   1       1.738   0.154  -0.563  0.00  0.00    -0.532 OA
ATOM     13  O   UNL d   1       0.337  -1.376   0.151  0.00  0.00    -0.532 OA
ENDBRANCH   7  11
BRANCH  10  14
ATOM     14  N   UNL d   1      -1.517   3.529   3.757  0.00  0.00    -0.380 N 
ATOM     15  C   UNL d   1      -2.062   3.103   5.054  0.00  0.00     0.123 C 
ATOM     16  C   UNL d   1      -3.583   3.253   5.083  0.00  0.00     0.020 C 
ATOM     17  C   UNL d   1      -3.999   4.671   4.707  0.00  0.00     0.003 C 
ATOM     18  C   UNL d   1      -3.433   5.039   3.342  0.00  0.00     0.020 C 
ATOM     19  C   UNL d   1      -1.918   4.864   3.293  0.00  0.00     0.123 C 
ENDBRANCH  10  14
ENDBRANCH   4   5
ENDBRANCH   3   4
BRANCH   3  20
ATOM     20  C   UNL d   1       2.029   6.130   3.579  0.00  0.00     0.183 C 
BRANCH  20  21
ATOM     21  O   UNL d   1       0.995   7.061   3.270  0.00  0.00    -0.400 OA
ATOM     22  H   UNL d   1       1.383   7.953   3.336  0.00  0.00     0.209 HD
ENDBRANCH  20  21
ENDBRANCH   3  20
TORSDOF 6
