REMARK  3 active torsions:
REMARK  status: ('A' for Active; 'I' for Inactive)
REMARK    1  A    between atoms: C_12  and  C_2 
REMARK    2  A    between atoms: C_8  and  C_3 
REMARK    3  A    between atoms: O_18  and  C_15 
ROOT
ATOM      1  C   UNL d   1       1.792  -3.230   1.214  0.00  0.00     0.125 C 
ATOM      2  N   UNL d   1       3.228  -3.242  -0.933  0.00  0.00    -0.191 NA
ATOM      3  N   UNL d   1       1.998  -5.249   2.811  0.00  0.00    -0.191 NA
ATOM      4  C   UNL d   1       0.940  -2.235   1.540  0.00  0.00     0.052 C 
ATOM      5  C   UNL d   1       2.590  -3.238   0.034  0.00  0.00     0.111 C 
ATOM      6  C   UNL d   1       1.917  -4.340   2.092  0.00  0.00     0.111 C 
ENDROOT
BRANCH   4   7
ATOM      7  C   UNL d   1       0.676  -1.091   0.729  0.00  0.00     0.007 A 
ATOM      8  S   UNL d   1       0.310   0.409   1.494  0.00  0.00    -0.090 SA
ATOM      9  C   UNL d   1       0.113   1.238   0.005  0.00  0.00     0.015 A 
ATOM     10  C   UNL d   1       0.320   0.378  -1.055  0.00  0.00     0.021 A 
ATOM     11  C   UNL d   1       0.613  -0.950  -0.644  0.00  0.00     0.020 A 
BRANCH   9  12
ATOM     12  C   UNL d   1      -0.213   2.674  -0.046  0.00  0.00    -0.019 A 
ATOM     13  C   UNL d   1       0.258   3.455  -1.115  0.00  0.00     0.015 A 
ATOM     14  C   UNL d   1      -0.052   4.816  -1.215  0.00  0.00     0.037 A 
ATOM     15  C   UNL d   1      -0.836   5.425  -0.239  0.00  0.00     0.068 A 
ATOM     16  C   UNL d   1      -1.332   4.658   0.814  0.00  0.00     0.037 A 
ATOM     17  C   UNL d   1      -1.019   3.298   0.916  0.00  0.00     0.015 A 
BRANCH  15  18
ATOM     18  O   UNL d   1      -1.212   6.739  -0.242  0.00  0.00    -0.356 OA
ATOM     19  C   UNL d   1      -0.289   7.633  -0.856  0.00  0.00     0.210 C 
ENDBRANCH  15  18
ENDBRANCH   9  12
ENDBRANCH   4   7
TORSDOF 3
