REMARK  3 active torsions:
REMARK  status: ('A' for Active; 'I' for Inactive)
REMARK    1  A    between atoms: N_2  and  C_1 
REMARK    2  A    between atoms: N_3  and  C_1 
REMARK    3  A    between atoms: C_5  and  N_3 
ROOT
ATOM      1  C   UNL d   1       0.854  -0.197   0.198  0.00  0.00     0.174 C 
ATOM      2  S   UNL d   1       2.216   0.232   1.099  0.00  0.00    -0.041 SA
ENDROOT
BRANCH   1   3
ATOM      3  N   UNL d   1       0.109  -1.384   0.387  0.00  0.00    -0.354 N 
ATOM      4  C   UNL d   1       0.443  -2.378   1.448  0.00  0.00     0.082 C 
ATOM      5  C   UNL d   1      -0.589  -2.366   2.582  0.00  0.00     0.032 C 
ATOM      6  C   UNL d   1       0.629  -3.781   0.850  0.00  0.00     0.025 C 
ATOM      7  C   UNL d   1      -0.559  -4.211   0.001  0.00  0.00     0.004 C 
ATOM      8  C   UNL d   1      -0.818  -3.174  -1.084  0.00  0.00     0.020 C 
ATOM      9  C   UNL d   1      -1.011  -1.777  -0.493  0.00  0.00     0.125 C 
ENDBRANCH   1   3
BRANCH   1  10
ATOM     10  N   UNL d   1       0.322   0.658  -0.761  0.00  0.00    -0.333 N 
ATOM     11  H   UNL d   1      -0.664   0.845  -0.648  0.00  0.00     0.168 HD
BRANCH  10  12
ATOM     12  C   UNL d   1       1.023   1.459  -1.695  0.00  0.00     0.040 A 
ATOM     13  C   UNL d   1       0.460   2.644  -2.209  0.00  0.00    -0.035 A 
ATOM     14  C   UNL d   1      -0.795   3.284  -1.683  0.00  0.00     0.050 C 
ATOM     15  C   UNL d   1       1.133   3.332  -3.241  0.00  0.00     0.009 A 
ATOM     16  C   UNL d   1       2.352   2.874  -3.738  0.00  0.00     0.001 A 
ATOM     17  C   UNL d   1       2.920   1.724  -3.211  0.00  0.00     0.002 A 
ATOM     18  C   UNL d   1       2.257   1.018  -2.202  0.00  0.00     0.030 A 
ENDBRANCH  10  12
ENDBRANCH   1  10
TORSDOF 3
