REMARK  9 active torsions:
REMARK  status: ('A' for Active; 'I' for Inactive)
REMARK    1  A    between atoms: N_3  and  C_1 
REMARK       I    between atoms: C_2  and  N_13 
REMARK    2  A    between atoms: O_8  and  C_2 
REMARK    3  A    between atoms: C_4  and  N_3 
REMARK    4  A    between atoms: O_16  and  C_5 
REMARK    5  A    between atoms: C_11  and  O_8 
REMARK    6  A    between atoms: C_19  and  N_12 
REMARK    7  A    between atoms: N_13  and  C_18 
REMARK    8  A    between atoms: O_17  and  C_14 
REMARK    9  A    between atoms: C_18  and  C_19 
ROOT
ATOM      1  C   UNL d   1       0.963   0.681   0.153  0.00  0.00     0.172 C 
ATOM      2  S   UNL d   1      -0.016   0.482   1.488  0.00  0.00    -0.041 SA
ATOM      3  N   UNL d   1       2.309   0.681   0.314  0.00  0.00    -0.365 N 
ATOM      4  H   UNL d   1       2.590   0.507   1.274  0.00  0.00     0.161 HD
ENDROOT
BRANCH   1   5
ATOM      5  N   UNL d   1       0.409   0.920  -1.061  0.00  0.00    -0.331 N 
ATOM      6  H   UNL d   1      -0.577   1.157  -1.020  0.00  0.00     0.168 HD
BRANCH   5   7
ATOM      7  C   UNL d   1       0.771   0.354  -2.308  0.00  0.00     0.068 A 
ATOM      8  C   UNL d   1       0.219   0.848  -3.504  0.00  0.00     0.097 A 
ATOM      9  C   UNL d   1       0.442   0.165  -4.712  0.00  0.00     0.075 A 
ATOM     10  C   UNL d   1       1.190  -1.012  -4.743  0.00  0.00     0.070 A 
ATOM     11  C   UNL d   1       1.750  -1.487  -3.560  0.00  0.00     0.039 A 
ATOM     12  C   UNL d   1       1.553  -0.808  -2.355  0.00  0.00     0.035 A 
BRANCH   8  13
ATOM     13  O   UNL d   1      -0.609   1.936  -3.638  0.00  0.00    -0.354 OA
ATOM     14  C   UNL d   1      -0.328   3.079  -2.838  0.00  0.00     0.210 C 
ENDBRANCH   8  13
BRANCH  10  15
ATOM     15  O   UNL d   1       1.427  -1.791  -5.841  0.00  0.00    -0.356 OA
ATOM     16  C   UNL d   1       0.774  -1.421  -7.049  0.00  0.00     0.210 C 
ENDBRANCH  10  15
ENDBRANCH   5   7
ENDBRANCH   1   5
BRANCH   3  17
ATOM     17  C   UNL d   1       3.276   1.474  -0.445  0.00  0.00     0.141 C 
BRANCH  17  18
ATOM     18  C   UNL d   1       3.406   2.906   0.109  0.00  0.00     0.144 C 
BRANCH  18  19
ATOM     19  N   UNL d   1       3.780   2.946   1.512  0.00  0.00    -0.335 N 
ATOM     20  C   UNL d   1       5.006   2.547   1.962  0.00  0.00     0.361 C 
ATOM     21  O   UNL d   1       5.891   2.112   1.255  0.00  0.00    -0.238 OA
ATOM     22  H   UNL d   1       3.187   3.407   2.187  0.00  0.00     0.164 HD
BRANCH  20  23
ATOM     23  O   UNL d   1       5.061   2.723   3.300  0.00  0.00    -0.294 OA
BRANCH  23  24
ATOM     24  C   UNL d   1       6.277   2.410   4.035  0.00  0.00     0.061 C 
ATOM     25  C   UNL d   1       7.452   3.271   3.550  0.00  0.00     0.046 C 
ATOM     26  C   UNL d   1       5.956   2.765   5.498  0.00  0.00     0.046 C 
ATOM     27  C   UNL d   1       6.606   0.914   3.957  0.00  0.00     0.046 C 
ENDBRANCH  23  24
ENDBRANCH  20  23
ENDBRANCH  18  19
ENDBRANCH  17  18
ENDBRANCH   3  17
TORSDOF 9
