REMARK  6 active torsions:
REMARK  status: ('A' for Active; 'I' for Inactive)
REMARK    1  A    between atoms: C_12  and  C_3 
REMARK    2  A    between atoms: C_14  and  N_6 
REMARK    3  A    between atoms: N_13  and  C_10 
REMARK    4  A    between atoms: O_17  and  C_12 
REMARK    5  A    between atoms: C_18  and  N_13 
REMARK    6  A    between atoms: C_21  and  O_17 
ROOT
ATOM      1  N   UNL d   1       0.208   0.755   0.006  0.00  0.00    -0.086 N 
ATOM      2  C   UNL d   1       0.161  -0.602  -0.075  0.00  0.00     0.716 A 
ATOM      3  C   UNL d   1       1.542   1.070   0.050  0.00  0.00     0.223 A 
ATOM      4  N   UNL d   1       2.349   0.038   0.011  0.00  0.00    -0.258 N 
ATOM      5  HN  UNL d   1       3.369   0.028   0.031  1.00  0.00     0.190 HD
ATOM      6  N   UNL d   1       1.478  -1.032  -0.065  0.00  0.00    -0.084 N 
ATOM      7  N   UNL d   1      -0.946  -1.267  -0.133  0.00  0.00    -0.179 N 
ATOM      8  HN  UNL d   1      -0.938  -2.285  -0.200  1.00  0.00     0.185 HD
ATOM      9  C   UNL d   1      -0.921   1.532   0.092  0.00  0.00     0.271 A 
ATOM     10  C   UNL d   1      -2.132  -0.579  -0.102  0.00  0.00     0.106 A 
ATOM     11  C   UNL d   1      -2.170   0.765  -0.036  0.00  0.00     0.118 A 
ATOM     12  O   UNL d   1      -0.963   2.734   0.324  0.00  0.00    -0.267 OA
ENDROOT
BRANCH  10  13
ATOM     13  N   UNL d   1      -3.320  -1.304  -0.146  0.00  0.00    -0.245 NA
ATOM     14  H   UNL d   1      -3.084  -2.293  -0.225  0.00  0.00     0.135 HD
BRANCH  13  15
ATOM     15  C   UNL d   1      -4.343  -1.149   0.827  0.00  0.00     0.013 A 
ATOM     16  C   UNL d   1      -5.662  -1.456   0.476  0.00  0.00     0.024 A 
ATOM     17  C   UNL d   1      -6.698  -1.285   1.398  0.00  0.00     0.002 A 
ATOM     18  C   UNL d   1      -6.419  -0.844   2.691  0.00  0.00     0.000 A 
ATOM     19  C   UNL d   1      -5.101  -0.610   3.074  0.00  0.00     0.002 A 
ATOM     20  C   UNL d   1      -4.068  -0.781   2.152  0.00  0.00     0.024 A 
ENDBRANCH  13  15
ENDBRANCH  10  13
BRANCH   6  21
ATOM     21  C   UNL d   1       1.988  -2.354  -0.050  0.00  0.00     0.074 A 
ATOM     22  C   UNL d   1       1.169  -3.481  -0.232  0.00  0.00     0.032 A 
ATOM     23  C   UNL d   1       1.695  -4.779  -0.234  0.00  0.00     0.002 A 
ATOM     24  C   UNL d   1       3.058  -4.980  -0.045  0.00  0.00     0.000 A 
ATOM     25  C   UNL d   1       3.892  -3.886   0.151  0.00  0.00     0.002 A 
ATOM     26  C   UNL d   1       3.362  -2.591   0.148  0.00  0.00     0.032 A 
ENDBRANCH   6  21
BRANCH   3  27
ATOM     27  C   UNL d   1       2.062   2.479   0.161  0.00  0.00     0.330 C 
ATOM     28  O   UNL d   1       2.976   2.754   0.919  0.00  0.00    -0.256 OA
BRANCH  27  29
ATOM     29  O   UNL d   1       1.451   3.300  -0.712  0.00  0.00    -0.316 OA
BRANCH  29  30
ATOM     30  C   UNL d   1       1.895   4.667  -0.695  0.00  0.00     0.175 C 
ATOM     31  C   UNL d   1       1.469   5.412   0.562  0.00  0.00     0.034 C 
ENDBRANCH  29  30
ENDBRANCH  27  29
ENDBRANCH   3  27
TORSDOF 6
