REMARK  3 active torsions:
REMARK  status: ('A' for Active; 'I' for Inactive)
REMARK       I    between atoms: N_2  and  C_1 
REMARK       I    between atoms: N_4  and  C_1 
REMARK    1  A    between atoms: C_3  and  N_2 
REMARK    2  A    between atoms: C_6  and  N_4 
REMARK    3  A    between atoms: N_5  and  C_7 
ROOT
ATOM      1  C   UNL d   1      -1.121   0.838   0.730  0.00  0.00     0.063 A 
ATOM      2  C   UNL d   1      -1.778  -0.406   0.893  0.00  0.00     0.057 A 
ATOM      3  C   UNL d   1      -1.846   2.034   0.625  0.00  0.00     0.032 A 
ATOM      4  C   UNL d   1      -3.184  -0.382   0.947  0.00  0.00     0.031 A 
ATOM      5  C   UNL d   1      -3.236   2.021   0.710  0.00  0.00     0.002 A 
ATOM      6  C   UNL d   1      -3.905   0.813   0.867  0.00  0.00     0.002 A 
ENDROOT
BRANCH   1   7
ATOM      7  N   UNL d   1       0.269   0.854   0.501  0.00  0.00    -0.307 N 
ATOM      8  C   UNL d   1       1.235   1.399   1.312  0.00  0.00     0.325 C 
ATOM      9  N   UNL d   1       0.827   2.303   2.251  0.00  0.00    -0.303 N 
ATOM     10  O   UNL d   1       2.383   0.982   1.172  0.00  0.00    -0.247 OA
ATOM     11  H   UNL d   1      -0.078   2.736   2.170  0.00  0.00     0.171 HD
ATOM     12  H   UNL d   1       0.627   0.003   0.085  0.00  0.00     0.170 HD
BRANCH   9  13
ATOM     13  C   UNL d   1       1.660   2.807   3.219  0.00  0.00     0.077 A 
ATOM     14  S   UNL d   1       1.065   4.194   3.999  0.00  0.00    -0.084 SA
ATOM     15  C   UNL d   1       2.500   4.349   4.923  0.00  0.00     0.052 A 
ATOM     16  C   UNL d   1       3.376   3.310   4.691  0.00  0.00     0.010 A 
ATOM     17  C   UNL d   1       2.885   2.411   3.697  0.00  0.00     0.038 A 
ENDBRANCH   9  13
ENDBRANCH   1   7
BRANCH   2  18
ATOM     18  N   UNL d   1      -1.124  -1.620   1.082  0.00  0.00    -0.379 N 
ATOM     19  C   UNL d   1       0.087  -1.727   1.898  0.00  0.00     0.123 C 
ATOM     20  C   UNL d   1       0.046  -3.017   2.714  0.00  0.00     0.020 C 
ATOM     21  C   UNL d   1      -0.193  -4.229   1.819  0.00  0.00     0.003 C 
ATOM     22  C   UNL d   1      -1.456  -4.041   0.981  0.00  0.00     0.020 C 
ATOM     23  C   UNL d   1      -1.412  -2.738   0.181  0.00  0.00     0.123 C 
ENDBRANCH   2  18
TORSDOF 3
