REMARK  2 active torsions:
REMARK  status: ('A' for Active; 'I' for Inactive)
REMARK    1  A    between atoms: C_2  and  C_6 
REMARK       I    between atoms: C_6  and  N_14 
REMARK    2  A    between atoms: N_14  and  C_12 
ROOT
ATOM      1  C   UNL d   1      -1.163   1.426   0.561  0.00  0.00     0.069 A 
ATOM      2  S   UNL d   1       0.778   2.755   1.094  0.00  0.00     0.068 SA
ATOM      3  C   UNL d   1      -0.007   0.495   0.787  0.00  0.00     0.067 A 
ATOM      4  C   UNL d   1      -2.449   0.923   0.238  0.00  0.00     0.061 A 
ATOM      5  N   UNL d   1      -0.834   2.720   0.697  0.00  0.00    -0.310 N 
ATOM      6  HN  UNL d   1      -1.452   3.523   0.581  1.00  0.00     0.176 HD
ATOM      7  N   UNL d   1       1.135   1.131   1.093  0.00  0.00    -0.310 N 
ATOM      8  HN  UNL d   1       2.041   0.703   1.287  1.00  0.00     0.176 HD
ATOM      9  C   UNL d   1      -2.586  -0.476   0.154  0.00  0.00     0.037 A 
ATOM     10  C   UNL d   1      -0.174  -0.903   0.674  0.00  0.00     0.035 A 
ATOM     11  C   UNL d   1      -1.476  -1.345   0.354  0.00  0.00     0.032 A 
ENDROOT
BRANCH   9  12
ATOM     12  N   UNL d   1      -3.824  -1.103  -0.129  0.00  0.00    -0.322 N 
ATOM     13  C   UNL d   1      -5.069  -0.501  -0.250  0.00  0.00     0.263 C 
ATOM     14  O   UNL d   1      -5.266   0.703  -0.107  0.00  0.00    -0.267 OA
ATOM     15  H   UNL d   1      -3.822  -2.112  -0.218  0.00  0.00     0.169 HD
BRANCH  13  16
ATOM     16  C   UNL d   1      -6.179  -1.401  -0.554  0.00  0.00     0.073 A 
ATOM     17  S   UNL d   1      -5.996  -3.087  -0.772  0.00  0.00    -0.096 SA
ATOM     18  C   UNL d   1      -7.665  -3.296  -1.091  0.00  0.00     0.057 A 
ATOM     19  C   UNL d   1      -8.371  -2.111  -1.034  0.00  0.00    -0.054 A 
ATOM     20  C   UNL d   1      -7.501  -1.024  -0.707  0.00  0.00     0.031 A 
ATOM     21  C   UNL d   1      -9.835  -1.958  -1.276  0.00  0.00     0.048 C 
ENDBRANCH  13  16
ENDBRANCH   9  12
TORSDOF 2
