REMARK  2 active torsions:
REMARK  status: ('A' for Active; 'I' for Inactive)
REMARK    1  A    between atoms: C_14  and  C_3 
REMARK    2  A    between atoms: C_3  and  O_21 
ROOT
ATOM      1  C   UNL d   1      18.998   0.771   2.203  0.00  0.00     0.005 C 
ATOM      2  C   UNL d   1      17.598   5.192   1.998  0.00  0.00    -0.025 C 
ATOM      3  C   UNL d   1      18.957  -0.204   3.426  0.00  0.00     0.125 C 
ATOM      4  C   UNL d   1      17.708   3.622   2.316  0.00  0.00     0.068 C 
ATOM      5  C   UNL d   1      18.741   3.094   3.363  0.00  0.00     0.002 C 
ATOM      6  C   UNL d   1      19.719   2.011   2.839  0.00  0.00     0.002 C 
ATOM      7  C   UNL d   1      17.642   2.601   1.162  0.00  0.00     0.133 C 
ATOM      8  C   UNL d   1      18.359   6.106   3.073  0.00  0.00    -0.029 C 
ATOM      9  C   UNL d   1      17.621   1.143   1.622  0.00  0.00     0.091 C 
ATOM     10  C   UNL d   1      20.379  -0.078   3.973  0.00  0.00     0.047 C 
ATOM     11  C   UNL d   1      20.597   1.427   3.983  0.00  0.00     0.009 C 
ATOM     12  C   UNL d   1      19.495   4.129   4.175  0.00  0.00     0.006 C 
ATOM     13  C   UNL d   1      16.061   5.527   1.994  0.00  0.00     0.018 C 
ATOM     14  C   UNL d   1      17.549   7.323   3.597  0.00  0.00     0.088 C 
ATOM     15  C   UNL d   1      18.660   5.352   4.386  0.00  0.00     0.011 C 
ATOM     16  O   UNL d   1      17.580   2.869  -0.028  0.00  0.00    -0.298 OA
ATOM     17  C   UNL d   1      16.557   7.923   2.657  0.00  0.00     0.127 C 
ATOM     18  O   UNL d   1      16.366   9.140   2.642  0.00  0.00    -0.298 OA
ATOM     19  C   UNL d   1      19.876   0.263   1.028  0.00  0.00     0.019 C 
ATOM     20  C   UNL d   1      15.668   6.996   1.884  0.00  0.00     0.079 C 
ATOM     21  C   UNL d   1      18.079   5.526   0.555  0.00  0.00     0.016 C 
ATOM     22  C   UNL d   1      19.727   6.606   2.521  0.00  0.00     0.016 C 
ENDROOT
BRANCH   3  23
ATOM     23  C   UNL d   1      18.563  -1.673   3.265  0.00  0.00     0.158 C 
ATOM     24  O   UNL d   1      18.146  -2.131   2.211  0.00  0.00    -0.295 OA
ATOM     25  C   UNL d   1      18.619  -2.515   4.527  0.00  0.00     0.094 C 
ENDBRANCH   3  23
BRANCH   3  26
ATOM     26  O   UNL d   1      18.060   0.302   4.434  0.00  0.00    -0.381 OA
ATOM     27  H   UNL d   1      17.146   0.180   4.123  0.00  0.00     0.211 HD
ENDBRANCH   3  26
TORSDOF 2
