REMARK  8 active torsions:
REMARK  status: ('A' for Active; 'I' for Inactive)
REMARK    1  A    between atoms: S_13  and  C_6 
REMARK    2  A    between atoms: C_11  and  C_20 
REMARK       I    between atoms: N_18  and  C_11 
REMARK    3  A    between atoms: C_20  and  S_13 
REMARK    4  A    between atoms: N_15  and  N_18 
REMARK    5  A    between atoms: C_25  and  C_21 
REMARK    6  A    between atoms: O_22  and  C_23 
REMARK    7  A    between atoms: C_26  and  O_22 
REMARK    8  A    between atoms: C_32  and  C_26 
ROOT
ATOM      1  C   UNL d   1       1.681   5.693   0.190  0.00  0.00     0.245 C 
ATOM      2  N   UNL d   1       0.301   5.839   0.117  0.00  0.00    -0.270 N 
ATOM      3  O   UNL d   1       2.465   6.645   0.243  0.00  0.00    -0.271 OA
ATOM      4  H   UNL d   1      -0.298   5.020   0.094  0.00  0.00     0.190 HD
ENDROOT
BRANCH   1   5
ATOM      5  C   UNL d   1       2.237   4.274   0.116  0.00  0.00     0.185 C 
BRANCH   5   6
ATOM      6  S   UNL d   1       1.070   2.967   0.606  0.00  0.00    -0.102 SA
BRANCH   6   7
ATOM      7  C   UNL d   1       2.200   1.605   0.802  0.00  0.00     0.084 A 
ATOM      8  C   UNL d   1       2.012   0.638   1.808  0.00  0.00     0.039 A 
ATOM      9  C   UNL d   1       3.011  -0.329   1.876  0.00  0.00     0.089 A 
ATOM     10  C   UNL d   1       1.019   0.394   2.835  0.00  0.00    -0.029 A 
ATOM     11  S   UNL d   1       2.803  -1.431   3.158  0.00  0.00    -0.075 SA
ATOM     12  N   UNL d   1       4.079  -0.442   1.068  0.00  0.00    -0.346 N 
ATOM     13  C   UNL d   1       1.391  -0.646   3.672  0.00  0.00    -0.008 A 
ATOM     14  C   UNL d   1       0.656  -1.075   4.909  0.00  0.00     0.051 C 
ATOM     15  C   UNL d   1      -0.288   0.051   5.388  0.00  0.00    -0.014 C 
ATOM     16  C   UNL d   1       0.482   1.177   6.090  0.00  0.00     0.010 C 
ATOM     17  C   UNL d   1      -1.109   0.579   4.195  0.00  0.00     0.009 C 
ATOM     18  C   UNL d   1      -0.235   1.185   3.086  0.00  0.00     0.041 C 
ATOM     19  C   UNL d   1       4.126   0.515   0.144  0.00  0.00     0.182 A 
ATOM     20  HN  UNL d   1       4.777  -1.181   1.154  1.00  0.00     0.167 HD
ATOM     21  N   UNL d   1       3.262   1.527  -0.030  0.00  0.00    -0.346 N 
ATOM     22  HN  UNL d   1       3.404   2.217  -0.768  1.00  0.00     0.167 HD
ENDBRANCH   6   7
ENDBRANCH   5   6
ENDBRANCH   1   5
BRANCH   2  23
ATOM     23  N   UNL d   1      -0.238   7.096   0.033  0.00  0.00    -0.308 N 
ATOM     24  C   UNL d   1      -1.530   7.192  -0.014  0.00  0.00     0.118 C 
ATOM     25  HN  UNL d   1       0.356   7.925   0.008  1.00  0.00     0.186 HD
BRANCH  24  26
ATOM     26  C   UNL d   1      -2.206   8.509  -0.172  0.00  0.00    -0.019 A 
ATOM     27  C   UNL d   1      -1.457   9.679  -0.290  0.00  0.00     0.015 A 
ATOM     28  C   UNL d   1      -2.102  10.905  -0.510  0.00  0.00     0.037 A 
ATOM     29  C   UNL d   1      -3.496  10.984  -0.609  0.00  0.00     0.069 A 
ATOM     30  C   UNL d   1      -4.245   9.814  -0.462  0.00  0.00     0.037 A 
ATOM     31  C   UNL d   1      -3.603   8.581  -0.250  0.00  0.00     0.015 A 
BRANCH  29  32
ATOM     32  O   UNL d   1      -3.964  12.237  -0.880  0.00  0.00    -0.347 OA
BRANCH  32  33
ATOM     33  C   UNL d   1      -5.368  12.483  -0.852  0.00  0.00     0.214 C 
BRANCH  33  34
ATOM     34  C   UNL d   1      -5.622  13.845  -1.466  0.00  0.00    -0.034 A 
ATOM     35  C   UNL d   1      -5.481  14.025  -2.851  0.00  0.00     0.009 A 
ATOM     36  C   UNL d   1      -5.704  15.274  -3.438  0.00  0.00     0.001 A 
ATOM     37  C   UNL d   1      -6.067  16.360  -2.645  0.00  0.00     0.000 A 
ATOM     38  C   UNL d   1      -6.205  16.198  -1.268  0.00  0.00     0.001 A 
ATOM     39  C   UNL d   1      -5.984  14.948  -0.679  0.00  0.00     0.009 A 
ENDBRANCH  33  34
ENDBRANCH  32  33
ENDBRANCH  29  32
ENDBRANCH  24  26
ENDBRANCH   2  23
TORSDOF 8
