REMARK  3 active torsions:
REMARK  status: ('A' for Active; 'I' for Inactive)
REMARK    1  A    between atoms: C_2  and  C_1 
REMARK    2  A    between atoms: C_4  and  C_1 
REMARK    3  A    between atoms: O_10  and  N_5 
ROOT
ATOM      1  C   UNL d   1       0.928   0.066   0.070  0.00  0.00     0.056 C 
ATOM      2  N   UNL d   1       2.109  -0.485   0.197  0.00  0.00    -0.271 N 
ATOM      3  HN  UNL d   1       2.460  -1.193  -0.448  1.00  0.00     0.194 HD
ENDROOT
BRANCH   1   4
ATOM      4  C   UNL d   1       0.357   1.048   0.998  0.00  0.00     0.030 A 
ATOM      5  S   UNL d   1       0.366   0.763   2.696  0.00  0.00    -0.100 SA
ATOM      6  C   UNL d   1      -0.370   2.265   3.038  0.00  0.00     0.050 A 
ATOM      7  C   UNL d   1      -0.711   2.940   1.891  0.00  0.00     0.008 A 
ATOM      8  C   UNL d   1      -0.289   2.246   0.718  0.00  0.00     0.021 A 
ENDBRANCH   1   4
BRANCH   1   9
ATOM      9  C   UNL d   1       0.154  -0.314  -1.235  0.00  0.00    -0.005 C 
ATOM     10  C   UNL d   1       0.613   0.634  -2.357  0.00  0.00     0.021 C 
ATOM     11  C   UNL d   1       0.515  -1.759  -1.654  0.00  0.00     0.021 C 
ATOM     12  C   UNL d   1      -1.377  -0.273  -1.098  0.00  0.00     0.021 C 
ENDBRANCH   1   9
BRANCH   2  13
ATOM     13  O   UNL d   1       2.850  -0.025   1.286  0.00  0.00    -0.290 OA
ATOM     14  H   UNL d   1       3.641  -0.594   1.260  0.00  0.00     0.244 HD
ENDBRANCH   2  13
TORSDOF 3
