REMARK  3 active torsions:
REMARK  status: ('A' for Active; 'I' for Inactive)
REMARK    1  A    between atoms: C_2  and  C_1 
REMARK       I    between atoms: N_3  and  C_1 
REMARK    2  A    between atoms: C_4  and  N_3 
REMARK    3  A    between atoms: O_18  and  C_7 
ROOT
ATOM      1  C   UNL d   1       0.929  -0.448   0.352  0.00  0.00     0.260 C 
ATOM      2  N   UNL d   1       0.280  -0.864  -0.805  0.00  0.00    -0.320 N 
ATOM      3  O   UNL d   1       1.952  -0.915   0.824  0.00  0.00    -0.267 OA
ATOM      4  H   UNL d   1      -0.511  -0.311  -1.108  0.00  0.00     0.169 HD
ENDROOT
BRANCH   1   5
ATOM      5  C   UNL d   1       0.262   0.641   1.097  0.00  0.00     0.081 A 
ATOM      6  C   UNL d   1       0.866   1.822   1.550  0.00  0.00     0.086 A 
ATOM      7  C   UNL d   1       0.089   2.732   2.279  0.00  0.00     0.054 A 
ATOM      8  C   UNL d   1      -1.240   2.443   2.534  0.00  0.00     0.090 A 
ATOM      9  N   UNL d   1      -1.848   1.318   2.111  0.00  0.00    -0.374 N 
ATOM     10  C   UNL d   1      -1.079   0.442   1.422  0.00  0.00     0.107 A 
ATOM     11  HN  UNL d   1      -2.833   1.136   2.300  1.00  0.00     0.164 HD
BRANCH   6  12
ATOM     12  O   UNL d   1       2.111   2.314   1.270  0.00  0.00    -0.355 OA
ATOM     13  C   UNL d   1       3.221   1.433   1.384  0.00  0.00     0.210 C 
ENDBRANCH   6  12
ENDBRANCH   1   5
BRANCH   2  14
ATOM     14  C   UNL d   1       0.682  -1.898  -1.689  0.00  0.00     0.074 A 
ATOM     15  C   UNL d   1       1.723  -2.823  -1.469  0.00  0.00     0.146 A 
ATOM     16  C   UNL d   1       2.098  -3.741  -2.448  0.00  0.00     0.086 A 
ATOM     17  F   UNL d   1       2.377  -2.911  -0.308  0.00  0.00    -0.204 F 
ATOM     18  C   UNL d   1       1.413  -3.774  -3.649  0.00  0.00     0.119 A 
ATOM     19  C   UNL d   1       0.341  -2.924  -3.877  0.00  0.00     0.044 A 
ATOM     20  F   UNL d   1       1.782  -4.645  -4.598  0.00  0.00    -0.206 F 
ATOM     21  C   UNL d   1      -0.026  -1.992  -2.898  0.00  0.00     0.036 A 
ENDBRANCH   2  14
TORSDOF 3
