REMARK  0 active torsions:
REMARK  status: ('A' for Active; 'I' for Inactive)
ROOT
ATOM      1  N   UNL d   1       0.932  -0.536  -0.043  0.00  0.00    -0.197 N 
ATOM      2  C   UNL d   1      -1.491  -0.629   0.021  0.00  0.00     0.075 A 
ATOM      3  C   UNL d   1      -1.425   0.744   0.010  0.00  0.00     0.092 A 
ATOM      4  C   UNL d   1      -0.223  -1.356   0.005  0.00  0.00     0.282 A 
ATOM      5  N   UNL d   1      -0.311   1.505  -0.044  0.00  0.00    -0.329 N 
ATOM      6  HN  UNL d   1      -0.348   2.524  -0.049  1.00  0.00     0.168 HD
ATOM      7  C   UNL d   1       0.808   0.853  -0.088  0.00  0.00     0.170 A 
ATOM      8  N   UNL d   1       2.124  -1.232  -0.073  0.00  0.00    -0.297 N 
ATOM      9  HN  UNL d   1       2.091  -2.250  -0.128  1.00  0.00     0.187 HD
ATOM     10  S   UNL d   1      -2.959   1.469   0.033  0.00  0.00    -0.076 SA
ATOM     11  C   UNL d   1      -2.860  -1.109   0.022  0.00  0.00    -0.031 A 
ATOM     12  C   UNL d   1      -3.753  -0.043   0.025  0.00  0.00    -0.012 A 
ATOM     13  S   UNL d   1       2.206   1.873  -0.284  0.00  0.00    -0.086 SA
ATOM     14  C   UNL d   1       3.280  -0.654  -0.035  0.00  0.00     0.010 C 
ATOM     15  O   UNL d   1      -0.188  -2.586   0.038  0.00  0.00    -0.265 OA
ATOM     16  C   UNL d   1       3.565   0.805   0.073  0.00  0.00     0.136 C 
ATOM     17  C   UNL d   1      -3.294  -2.543   0.010  0.00  0.00     0.050 C 
ATOM     18  C   UNL d   1      -5.248  -0.055   0.013  0.00  0.00     0.057 C 
ATOM     19  C   UNL d   1       4.496  -1.557  -0.040  0.00  0.00     0.066 C 
ENDROOT
TORSDOF 0
