REMARK  3 active torsions:
REMARK  status: ('A' for Active; 'I' for Inactive)
REMARK    1  A    between atoms: C_10  and  C_3 
REMARK    2  A    between atoms: N_6  and  C_9 
REMARK    3  A    between atoms: C_17  and  N_11 
ROOT
ATOM      1  O   UNL d   1      -1.073   0.004   0.078  0.00  0.00    -0.259 OA
ATOM      2  C   UNL d   1      -0.202  -1.050  -0.012  0.00  0.00     0.245 A 
ATOM      3  C   UNL d   1      -0.227   1.078  -0.041  0.00  0.00     0.176 A 
ATOM      4  N   UNL d   1       1.032   0.720  -0.177  0.00  0.00    -0.276 N 
ATOM      5  HN  UNL d   1       1.837   1.338  -0.275  1.00  0.00     0.189 HD
ATOM      6  N   UNL d   1       1.045  -0.655  -0.159  0.00  0.00    -0.263 N 
ATOM      7  HN  UNL d   1       1.866  -1.254  -0.244  1.00  0.00     0.190 HD
ATOM      8  N   UNL d   1      -0.748  -2.275   0.094  0.00  0.00    -0.321 N 
ATOM      9  H   UNL d   1      -1.729  -2.336   0.328  0.00  0.00     0.169 HD
ENDROOT
BRANCH   8  10
ATOM     10  C   UNL d   1      -0.076  -3.503  -0.045  0.00  0.00     0.036 A 
ATOM     11  C   UNL d   1       1.133  -3.640  -0.738  0.00  0.00     0.054 A 
ATOM     12  C   UNL d   1       1.805  -4.866  -0.794  0.00  0.00     0.042 A 
ATOM     13 CL   UNL d   1       3.280  -4.937  -1.693  0.00  0.00    -0.084 Cl
ATOM     14  C   UNL d   1       1.294  -5.992  -0.138  0.00  0.00    -0.040 A 
ATOM     15  C   UNL d   1       0.091  -5.860   0.567  0.00  0.00     0.011 A 
ATOM     16  C   UNL d   1       2.007  -7.314  -0.159  0.00  0.00     0.050 C 
ATOM     17  C   UNL d   1      -0.584  -4.634   0.609  0.00  0.00     0.030 A 
ENDBRANCH   8  10
BRANCH   3  18
ATOM     18  C   UNL d   1      -0.804   2.414  -0.001  0.00  0.00     0.019 A 
ATOM     19  C   UNL d   1      -2.187   2.632   0.081  0.00  0.00     0.052 A 
ATOM     20  C   UNL d   1      -2.688   3.943   0.113  0.00  0.00     0.103 A 
ATOM     21  C   UNL d   1      -1.823   5.045   0.063  0.00  0.00     0.036 A 
ATOM     22  C   UNL d   1      -0.450   4.832  -0.018  0.00  0.00     0.003 A 
ATOM     23  C   UNL d   1       0.053   3.529  -0.049  0.00  0.00     0.016 A 
BRANCH  20  24
ATOM     24  N   UNL d   1      -4.137   4.165   0.195  0.00  0.00    -0.116 N 
ATOM     25  O   UNL d   1      -4.870   3.166   0.236  0.00  0.00    -0.532 OA
ATOM     26  O   UNL d   1      -4.542   5.335   0.217  0.00  0.00    -0.532 OA
ENDBRANCH  20  24
ENDBRANCH   3  18
TORSDOF 3
