REMARK  6 active torsions:
REMARK  status: ('A' for Active; 'I' for Inactive)
REMARK    1  A    between atoms: N_6  and  C_1 
REMARK    2  A    between atoms: C_4  and  C_7 
REMARK    3  A    between atoms: C_5  and  C_8 
REMARK    4  A    between atoms: C_7  and  C_12 
REMARK    5  A    between atoms: O_22  and  C_7 
REMARK    6  A    between atoms: C_12  and  N_9 
ROOT
ATOM      1  N   UNL d   1       0.439   2.635   0.302  0.00  0.00    -0.253 NA
ATOM      2  N   UNL d   1      -0.136   5.720   0.260  0.00  0.00     0.092 N 
ATOM      3  C   UNL d   1       0.125   3.421  -0.904  0.00  0.00     0.129 C 
ATOM      4  C   UNL d   1       0.525   4.908  -0.783  0.00  0.00     0.287 C 
ATOM      5  C   UNL d   1       0.161   4.126   2.290  0.00  0.00     0.045 C 
ATOM      6  C   UNL d   1      -0.363   2.942   1.493  0.00  0.00     0.100 C 
ATOM      7  C   UNL d   1       0.436   5.447   1.574  0.00  0.00     0.273 C 
ENDROOT
BRANCH   1   8
ATOM      8  C   UNL d   1       0.219   1.263   0.046  0.00  0.00     0.160 A 
ATOM      9  N   UNL d   1       0.934   0.392   0.772  0.00  0.00    -0.329 N 
ATOM     10  C   UNL d   1       0.645  -0.930   0.659  0.00  0.00     0.120 A 
ATOM     11  HN  UNL d   1       1.676   0.713   1.393  1.00  0.00     0.168 HD
ATOM     12  C   UNL d   1      -0.372  -1.387  -0.156  0.00  0.00     0.051 A 
ATOM     13  C   UNL d   1      -1.050  -0.426  -0.865  0.00  0.00     0.093 A 
ATOM     14  N   UNL d   1      -0.767   0.884  -0.785  0.00  0.00    -0.343 N 
ATOM     15  HN  UNL d   1      -1.283   1.569  -1.338  1.00  0.00     0.167 HD
BRANCH  10  16
ATOM     16  C   UNL d   1       1.438  -1.930   1.474  0.00  0.00     0.432 C 
ATOM     17  F   UNL d   1       2.468  -1.394   2.188  0.00  0.00    -0.165 F 
ATOM     18  F   UNL d   1       0.660  -2.591   2.383  0.00  0.00    -0.165 F 
ATOM     19  F   UNL d   1       1.994  -2.908   0.698  0.00  0.00    -0.165 F 
ENDBRANCH  10  16
ENDBRANCH   1   8
BRANCH   2  20
ATOM     20  C   UNL d   1      -1.596   5.742   0.127  0.00  0.00     0.313 C 
BRANCH  20  21
ATOM     21  C   UNL d   1      -2.413   6.519   1.170  0.00  0.00     0.253 C 
BRANCH  21  22
ATOM     22  C   UNL d   1      -2.231   8.041   1.086  0.00  0.00     0.414 C 
ATOM     23  F   UNL d   1      -1.215   8.435   0.295  0.00  0.00    -0.168 F 
ATOM     24  F   UNL d   1      -3.361   8.608   0.581  0.00  0.00    -0.168 F 
ATOM     25  F   UNL d   1      -2.035   8.575   2.313  0.00  0.00    -0.168 F 
ENDBRANCH  21  22
BRANCH  21  26
ATOM     26  O   UNL d   1      -3.804   6.129   0.991  0.00  0.00    -0.385 OA
ATOM     27  H   UNL d   1      -4.185   6.726   0.316  0.00  0.00     0.210 HD
ENDBRANCH  21  26
ENDBRANCH  20  21
ENDBRANCH   2  20
TORSDOF 6
