REMARK  1 active torsions:
REMARK  status: ('A' for Active; 'I' for Inactive)
REMARK    1  A    between atoms: C_2  and  N_1 
ROOT
ATOM      1  C   UNL d   1       1.313   2.250   0.165  0.00  0.00     0.145 A 
ATOM      2  C   UNL d   1       2.264   2.533  -0.838  0.00  0.00     0.051 A 
ATOM      3  C   UNL d   1       2.974   3.711  -0.647  0.00  0.00     0.090 A 
ATOM      4  S   UNL d   1       4.117   4.016  -1.872  0.00  0.00    -0.075 SA
ATOM      5  C   UNL d   1       2.629   1.928  -2.109  0.00  0.00    -0.028 A 
ATOM      6  C   UNL d   1       3.616   2.655  -2.755  0.00  0.00    -0.008 A 
ATOM      7  N   UNL d   1       1.076   3.159   1.143  0.00  0.00    -0.336 N 
ATOM      8  HN  UNL d   1       0.328   3.015   1.821  1.00  0.00     0.168 HD
ATOM      9  N   UNL d   1       2.831   4.588   0.361  0.00  0.00    -0.346 N 
ATOM     10  HN  UNL d   1       3.409   5.421   0.474  1.00  0.00     0.167 HD
ATOM     11  C   UNL d   1       1.849   4.249   1.197  0.00  0.00     0.183 A 
ATOM     12  C   UNL d   1       1.994   0.741  -2.782  0.00  0.00     0.041 C 
ATOM     13  C   UNL d   1       4.214   2.324  -4.089  0.00  0.00     0.047 C 
ATOM     14  C   UNL d   1       2.829   0.210  -3.954  0.00  0.00     0.005 C 
ATOM     15  C   UNL d   1       3.314   1.346  -4.858  0.00  0.00     0.005 C 
ENDROOT
BRANCH   1  16
ATOM     16  N   UNL d   1       0.572   1.062   0.168  0.00  0.00    -0.206 N 
ATOM     17  C   UNL d   1       1.115  -0.217   0.272  0.00  0.00     0.249 A 
ATOM     18  C   UNL d   1      -0.080  -1.122   0.246  0.00  0.00     0.158 A 
ATOM     19  O   UNL d   1       2.275  -0.575   0.359  0.00  0.00    -0.271 OA
ATOM     20  C   UNL d   1      -1.194  -0.124   0.155  0.00  0.00     0.009 A 
ATOM     21  N   UNL d   1      -0.802   1.112   0.156  0.00  0.00    -0.298 N 
ATOM     22  C   UNL d   1      -2.616  -0.549   0.048  0.00  0.00     0.065 C 
ATOM     23  HN  UNL d   1      -1.390   1.946   0.149  1.00  0.00     0.187 HD
ENDBRANCH   1  16
TORSDOF 1
