REMARK  3 active torsions:
REMARK  status: ('A' for Active; 'I' for Inactive)
REMARK    1  A    between atoms: C_9  and  N_1 
REMARK    2  A    between atoms: C_8  and  C_4 
REMARK    3  A    between atoms: C_11  and  C_8 
ROOT
ATOM      1  N   UNL d   1       0.874  -0.653  -0.004  0.00  0.00    -0.197 N 
ATOM      2  N   UNL d   1       0.935   0.677   0.260  0.00  0.00    -0.274 N 
ATOM      3  HN  UNL d   1       1.739   1.230   0.558  1.00  0.00     0.189 HD
ATOM      4  C   UNL d   1      -0.324   1.085   0.031  0.00  0.00     0.117 A 
ATOM      5  N   UNL d   1      -0.358  -1.142  -0.301  0.00  0.00    -0.288 N 
ATOM      6  HN  UNL d   1      -0.641  -2.106  -0.476  1.00  0.00     0.188 HD
ATOM      7  C   UNL d   1      -1.105  -0.035  -0.303  0.00  0.00     0.144 A 
ENDROOT
BRANCH   4   8
ATOM      8  C   UNL d   1      -0.753   2.478   0.092  0.00  0.00     0.211 C 
ATOM      9  O   UNL d   1      -1.707   2.889  -0.560  0.00  0.00    -0.285 OA
BRANCH   8  10
ATOM     10  C   UNL d   1      -0.011   3.420   0.977  0.00  0.00     0.016 A 
ATOM     11  C   UNL d   1       0.514   3.007   2.208  0.00  0.00     0.015 A 
ATOM     12  C   UNL d   1       1.187   3.916   3.024  0.00  0.00     0.001 A 
ATOM     13  C   UNL d   1       1.328   5.242   2.620  0.00  0.00     0.000 A 
ATOM     14  C   UNL d   1       0.791   5.665   1.404  0.00  0.00     0.001 A 
ATOM     15  C   UNL d   1       0.114   4.759   0.584  0.00  0.00     0.015 A 
ENDBRANCH   8  10
ENDBRANCH   4   8
BRANCH   1  16
ATOM     16  C   UNL d   1       2.035  -1.470   0.016  0.00  0.00     0.075 A 
ATOM     17  C   UNL d   1       3.276  -0.920   0.375  0.00  0.00     0.035 A 
ATOM     18  C   UNL d   1       4.420  -1.723   0.380  0.00  0.00     0.026 A 
ATOM     19  C   UNL d   1       4.326  -3.067   0.021  0.00  0.00     0.034 A 
ATOM     20  C   UNL d   1       3.097  -3.619  -0.342  0.00  0.00     0.026 A 
ATOM     21 CL   UNL d   1       5.737  -4.051   0.022  0.00  0.00    -0.084 Cl
ATOM     22  C   UNL d   1       1.948  -2.824  -0.341  0.00  0.00     0.035 A 
ENDBRANCH   1  16
TORSDOF 3
