REMARK  3 active torsions:
REMARK  status: ('A' for Active; 'I' for Inactive)
REMARK    1  A    between atoms: C_6  and  C_1 
REMARK    2  A    between atoms: O_10  and  C_2 
REMARK    3  A    between atoms: O_11  and  C_6 
ROOT
ATOM      1  C   UNL d   1       1.347  -1.055  -0.029  0.00  0.00     0.094 A 
ATOM      2  C   UNL d   1       0.083  -1.659  -0.020  0.00  0.00     0.159 A 
ATOM      3  N   UNL d   1      -1.093  -0.986  -0.021  0.00  0.00    -0.340 N 
ATOM      4  HN  UNL d   1      -1.983  -1.484  -0.021  1.00  0.00     0.167 HD
ATOM      5  C   UNL d   1       1.369   0.357  -0.070  0.00  0.00    -0.039 A 
ATOM      6  C   UNL d   1       0.148   1.055  -0.047  0.00  0.00     0.032 A 
ATOM      7  C   UNL d   1      -1.051   0.361  -0.021  0.00  0.00     0.008 A 
ATOM      8  C   UNL d   1       2.608   1.214  -0.092  0.00  0.00     0.049 C 
ATOM      9  C   UNL d   1      -2.369   1.074   0.007  0.00  0.00     0.068 C 
ENDROOT
BRANCH   1  10
ATOM     10  C   UNL d   1       2.605  -1.866   0.028  0.00  0.00     0.181 C 
ATOM     11  O   UNL d   1       3.688  -1.401   0.349  0.00  0.00    -0.646 OA
BRANCH  10  12
ATOM     12  O   UNL d   1       2.500  -3.168  -0.316  0.00  0.00    -0.773 OA
ATOM     13  H   UNL d   1       1.581  -3.485  -0.433  0.00  0.00     0.167 HD
ENDBRANCH  10  12
ENDBRANCH   1  10
BRANCH   2  14
ATOM     14  O   UNL d   1       0.007  -3.042  -0.022  0.00  0.00    -0.340 OA
ATOM     15  C   UNL d   1      -1.330  -3.543   0.029  0.00  0.00     0.211 C 
ENDBRANCH   2  14
TORSDOF 3
