REMARK  3 active torsions:
REMARK  status: ('A' for Active; 'I' for Inactive)
REMARK    1  A    between atoms: C2_3  and  C1_1 
REMARK    2  A    between atoms: C3_4  and  C4_6 
REMARK    3  A    between atoms: O2_11  and  C4_6 
ROOT
ATOM      1  C1  <1> d   1      -0.147  -1.199  -0.364  0.00  0.00     0.319 C 
ATOM      2  N1  <1> d   1      -1.389  -0.641   0.210  0.00  0.00     0.117 N 
ATOM      3  C3  <1> d   1      -1.382   0.845  -0.024  0.00  0.00     0.328 C 
ATOM      4  S1  <1> d   1       1.157   0.013  -0.112  0.00  0.00    -0.126 SA
ATOM      5  C5  <1> d   1       0.020   1.408  -0.261  0.00  0.00     0.123 C 
ATOM      6  H3  <1> d   1      -1.285  -0.755   1.225  0.00  0.00     0.319 HD
ENDROOT
BRANCH   1   7
ATOM      7  C2  <1> d   1       0.172  -2.586   0.163  0.00  0.00     0.028 A 
ATOM      8  C6  <1> d   1       0.315  -3.678  -0.722  0.00  0.00     0.044 A 
ATOM      9 Cl1  <1> d   1       0.185  -3.516  -2.443  0.00  0.00    -0.084 Cl
ATOM     10  C9  <1> d   1       0.565  -4.976  -0.253  0.00  0.00     0.024 A 
ATOM     11  C8  <1> d   1       0.693  -5.223   1.107  0.00  0.00     0.003 A 
ATOM     12  C10 <1> d   1       0.578  -4.168   2.003  0.00  0.00     0.024 A 
ATOM     13  C7  <1> d   1       0.320  -2.869   1.541  0.00  0.00     0.044 A 
ATOM     14 Cl2  <1> d   1       0.159  -1.659   2.775  0.00  0.00    -0.084 Cl
ENDBRANCH   1   7
BRANCH   3  15
ATOM     15  C4  <1> d   1      -2.305   1.186  -1.199  0.00  0.00     0.175 C 
ATOM     16  O1  <1> d   1      -2.444   2.300  -1.673  0.00  0.00    -0.648 OA
BRANCH  15  17
ATOM     17  O2  <1> d   1      -2.989   0.099  -1.641  0.00  0.00    -0.775 OA
ATOM     18  H6  <1> d   1      -2.723  -0.661  -1.069  0.00  0.00     0.167 HD
ENDBRANCH  15  17
ENDBRANCH   3  15
TORSDOF 3
