REMARK  10 active torsions:
REMARK  status: ('A' for Active; 'I' for Inactive)
REMARK    1  A    between atoms: N_3  and  C_1 
REMARK    2  A    between atoms: N_9  and  C_1 
REMARK    3  A    between atoms: C_2  and  N_10 
REMARK    4  A    between atoms: N_4  and  C_2 
REMARK    5  A    between atoms: C_5  and  N_3 
REMARK    6  A    between atoms: C_6  and  N_4 
REMARK    7  A    between atoms: C_13  and  N_9 
REMARK    8  A    between atoms: N_10  and  C_14 
REMARK    9  A    between atoms: C_16  and  C_13 
REMARK   10  A    between atoms: C_14  and  C_15 
ROOT
ATOM      1  C   UNL d   1       5.925   1.864   3.220  0.00  0.00     0.003 C 
ATOM      2  C   UNL d   1       4.600   0.201   1.076  0.00  0.00     0.003 C 
ATOM      3  C   UNL d   1       5.258   1.556   0.769  0.00  0.00     0.007 C 
ATOM      4  C   UNL d   1       5.236  -0.434   2.324  0.00  0.00     0.007 C 
ATOM      5  C   UNL d   1       5.276   2.491   1.977  0.00  0.00     0.007 C 
ATOM      6  C   UNL d   1       5.251   0.513   3.532  0.00  0.00     0.007 C 
ENDROOT
BRANCH   1   7
ATOM      7  C   UNL d   1       7.450   1.659   3.143  0.00  0.00     0.126 C 
BRANCH   7   8
ATOM      8  N   UNL d   1       8.216   2.804   2.678  0.00  0.00    -0.367 N 
ATOM      9  H   UNL d   1       7.795   3.723   2.746  0.00  0.00     0.161 HD
BRANCH   8  10
ATOM     10  C   UNL d   1       9.571   2.805   2.515  0.00  0.00     0.172 C 
ATOM     11  S   UNL d   1      10.622   1.680   3.180  0.00  0.00    -0.041 SA
BRANCH  10  12
ATOM     12  N   UNL d   1      10.134   3.796   1.769  0.00  0.00    -0.333 N 
ATOM     13  H   UNL d   1      11.140   3.784   1.869  0.00  0.00     0.168 HD
BRANCH  12  14
ATOM     14  C   UNL d   1       9.624   4.657   0.769  0.00  0.00     0.040 A 
ATOM     15  C   UNL d   1      10.469   5.627   0.185  0.00  0.00    -0.035 A 
ATOM     16  C   UNL d   1      11.921   5.830   0.535  0.00  0.00     0.050 C 
ATOM     17  C   UNL d   1       9.948   6.493  -0.800  0.00  0.00     0.009 A 
ATOM     18  C   UNL d   1       8.629   6.388  -1.231  0.00  0.00     0.001 A 
ATOM     19  C   UNL d   1       7.816   5.399  -0.701  0.00  0.00     0.002 A 
ATOM     20  C   UNL d   1       8.318   4.536   0.276  0.00  0.00     0.030 A 
ENDBRANCH  12  14
ENDBRANCH  10  12
ENDBRANCH   8  10
ENDBRANCH   7   8
ENDBRANCH   1   7
BRANCH   2  21
ATOM     21  C   UNL d   1       3.077   0.293   1.264  0.00  0.00     0.126 C 
BRANCH  21  22
ATOM     22  N   UNL d   1       2.366   0.705   0.065  0.00  0.00    -0.367 N 
ATOM     23  H   UNL d   1       2.771   0.423  -0.823  0.00  0.00     0.161 HD
BRANCH  22  24
ATOM     24  C   UNL d   1       0.993   0.745   0.008  0.00  0.00     0.172 C 
ATOM     25  S   UNL d   1       0.255   0.510  -1.470  0.00  0.00    -0.041 SA
BRANCH  24  26
ATOM     26  N   UNL d   1       0.377   1.025   1.201  0.00  0.00    -0.333 N 
ATOM     27  H   UNL d   1       0.787   1.796   1.710  0.00  0.00     0.168 HD
BRANCH  26  28
ATOM     28  C   UNL d   1      -0.814   0.477   1.724  0.00  0.00     0.040 A 
ATOM     29  C   UNL d   1      -1.549   1.177   2.696  0.00  0.00    -0.035 A 
ATOM     30  C   UNL d   1      -1.205   2.571   3.148  0.00  0.00     0.050 C 
ATOM     31  C   UNL d   1      -2.654   0.549   3.303  0.00  0.00     0.009 A 
ATOM     32  C   UNL d   1      -3.034  -0.742   2.940  0.00  0.00     0.001 A 
ATOM     33  C   UNL d   1      -2.310  -1.427   1.972  0.00  0.00     0.002 A 
ATOM     34  C   UNL d   1      -1.209  -0.823   1.368  0.00  0.00     0.030 A 
ENDBRANCH  26  28
ENDBRANCH  24  26
ENDBRANCH  22  24
ENDBRANCH  21  22
ENDBRANCH   2  21
TORSDOF 10
