REMARK  3 active torsions:
REMARK  status: ('A' for Active; 'I' for Inactive)
REMARK    1  A    between atoms: C_2  and  C_6 
REMARK    2  A    between atoms: C_5  and  O_13 
REMARK    3  A    between atoms: O_14  and  C_6 
ROOT
ATOM      1  C   UNL d   1      -1.532   0.350   0.037  0.00  0.00     0.030 C 
ATOM      2  C   UNL d   1      -0.809   1.077   1.198  0.00  0.00     0.094 C 
ATOM      3  C   UNL d   1       0.711   0.829   1.105  0.00  0.00     0.001 C 
ATOM      4  C   UNL d   1       0.549   0.474  -1.398  0.00  0.00     0.015 C 
ATOM      5  C   UNL d   1      -0.973   0.712  -1.358  0.00  0.00     0.127 C 
ATOM      6  C   UNL d   1       1.258   1.250  -0.273  0.00  0.00     0.012 C 
ATOM      7  C   UNL d   1       0.231  -1.470   0.177  0.00  0.00    -0.013 C 
ATOM      8  C   UNL d   1      -1.283  -1.167   0.235  0.00  0.00     0.012 C 
ATOM      9  C   UNL d   1       0.957  -0.685   1.285  0.00  0.00     0.010 C 
ATOM     10  C   UNL d   1       0.796  -1.032  -1.188  0.00  0.00     0.012 C 
ENDROOT
BRANCH   2  11
ATOM     11  C   UNL d   1      -1.138   2.558   1.303  0.00  0.00     0.144 C 
ATOM     12  O   UNL d   1      -0.942   3.371   0.413  0.00  0.00    -0.650 OA
BRANCH  11  13
ATOM     13  O   UNL d   1      -1.658   2.929   2.492  0.00  0.00    -0.776 OA
ATOM     14  H   UNL d   1      -1.772   2.210   3.142  0.00  0.00     0.167 HD
ENDBRANCH  11  13
ENDBRANCH   2  11
BRANCH   5  15
ATOM     15  O   UNL d   1      -1.322   2.016  -1.784  0.00  0.00    -0.395 OA
ATOM     16  H   UNL d   1      -1.037   2.682  -1.124  0.00  0.00     0.210 HD
ENDBRANCH   5  15
TORSDOF 3
