REMARK  9 active torsions:
REMARK  status: ('A' for Active; 'I' for Inactive)
REMARK    1  A    between atoms: C_11  and  N_9 
REMARK    2  A    between atoms: C_16  and  C_11 
REMARK    3  A    between atoms: O_17  and  C_16 
REMARK    4  A    between atoms: C_22  and  C_16 
REMARK    5  A    between atoms: C_19  and  O_17 
REMARK    6  A    between atoms: O_18  and  C_22 
REMARK    7  A    between atoms: C_23  and  O_18 
REMARK    8  A    between atoms: C_20  and  C_19 
REMARK    9  A    between atoms: C_21  and  C_23 
ROOT
ATOM      1  C   UNL d   1       3.603   2.453  -0.032  0.00  0.00     0.164 C 
ENDROOT
BRANCH   1   2
ATOM      2  C   UNL d   1       2.073   2.366   0.106  0.00  0.00     0.164 C 
BRANCH   2   3
ATOM      3  N   UNL d   1       1.488   1.037   0.065  0.00  0.00    -0.333 N 
ATOM      4  C   UNL d   1       1.298   0.169   1.109  0.00  0.00     0.149 A 
ATOM      5  C   UNL d   1       0.353  -0.710   0.669  0.00  0.00     0.145 A 
ATOM      6  C   UNL d   1       1.856   0.107   2.414  0.00  0.00     0.282 C 
ATOM      7  N   UNL d   1      -0.181  -1.675   1.492  0.00  0.00    -0.287 N 
ATOM      8  N   UNL d   1       0.013  -0.485  -0.630  0.00  0.00    -0.336 N 
ATOM      9  C   UNL d   1       0.345  -1.851   2.773  0.00  0.00     0.332 C 
ATOM     10  C   UNL d   1      -1.256  -2.542   1.052  0.00  0.00     0.163 C 
ATOM     11  N   UNL d   1       1.387  -0.983   3.159  0.00  0.00    -0.269 N 
ATOM     12  O   UNL d   1      -0.082  -2.727   3.526  0.00  0.00    -0.246 OA
ATOM     13  C   UNL d   1       2.016  -1.203   4.446  0.00  0.00     0.164 C 
ATOM     14  C   UNL d   1       0.739   0.555  -0.983  0.00  0.00     0.185 A 
ATOM     15  HN  UNL d   1      -0.654  -1.005  -1.200  1.00  0.00     0.168 HD
ATOM     16  O   UNL d   1       2.684   0.912   2.831  0.00  0.00    -0.265 OA
ENDBRANCH   2   3
ENDBRANCH   1   2
BRANCH   1  17
ATOM     17  O   UNL d   1       4.021   1.951  -1.320  0.00  0.00    -0.378 OA
BRANCH  17  18
ATOM     18  C   UNL d   1       5.447   1.822  -1.412  0.00  0.00     0.207 C 
BRANCH  18  19
ATOM     19  C   UNL d   1       5.938   1.391  -2.772  0.00  0.00    -0.035 A 
ATOM     20  C   UNL d   1       5.172   1.535  -3.933  0.00  0.00     0.009 A 
ATOM     21  C   UNL d   1       5.716   1.225  -5.182  0.00  0.00     0.001 A 
ATOM     22  C   UNL d   1       7.034   0.778  -5.283  0.00  0.00     0.000 A 
ATOM     23  C   UNL d   1       7.810   0.637  -4.137  0.00  0.00     0.001 A 
ATOM     24  C   UNL d   1       7.266   0.944  -2.889  0.00  0.00     0.009 A 
ENDBRANCH  18  19
ENDBRANCH  17  18
ENDBRANCH   1  17
BRANCH   1  25
ATOM     25  C   UNL d   1       4.015   3.936   0.102  0.00  0.00     0.201 C 
BRANCH  25  26
ATOM     26  O   UNL d   1       3.577   4.496   1.333  0.00  0.00    -0.384 OA
BRANCH  26  27
ATOM     27  C   UNL d   1       4.057   5.834   1.479  0.00  0.00     0.206 C 
BRANCH  27  28
ATOM     28  C   UNL d   1       3.666   6.389   2.822  0.00  0.00    -0.035 A 
ATOM     29  C   UNL d   1       3.611   5.571   3.960  0.00  0.00     0.009 A 
ATOM     30  C   UNL d   1       3.288   6.110   5.205  0.00  0.00     0.001 A 
ATOM     31  C   UNL d   1       3.028   7.473   5.328  0.00  0.00     0.000 A 
ATOM     32  C   UNL d   1       3.096   8.300   4.208  0.00  0.00     0.001 A 
ATOM     33  C   UNL d   1       3.420   7.762   2.962  0.00  0.00     0.009 A 
ENDBRANCH  27  28
ENDBRANCH  26  27
ENDBRANCH  25  26
ENDBRANCH   1  25
TORSDOF 9
