REMARK  2 active torsions:
REMARK  status: ('A' for Active; 'I' for Inactive)
REMARK    1  A    between atoms: C_9  and  C_3 
REMARK    2  A    between atoms: O_12  and  C_6 
ROOT
ATOM      1  N   UNL d   1      -0.654   1.240  -0.046  0.00  0.00    -0.323 N 
ATOM      2  HN  UNL d   1      -1.154   2.129  -0.063  1.00  0.00     0.169 HD
ATOM      3  C   UNL d   1      -1.289   0.054  -0.018  0.00  0.00     0.117 A 
ATOM      4  N   UNL d   1      -0.665  -1.144   0.004  0.00  0.00    -0.345 N 
ATOM      5  HN  UNL d   1      -1.195  -2.015   0.024  1.00  0.00     0.167 HD
ATOM      6  C   UNL d   1       0.678   1.167  -0.051  0.00  0.00     0.143 A 
ATOM      7  C   UNL d   1       1.419   0.018  -0.031  0.00  0.00     0.080 A 
ATOM      8  C   UNL d   1       0.686  -1.146  -0.003  0.00  0.00     0.011 A 
ATOM      9  C   UNL d   1       1.359  -2.484   0.019  0.00  0.00     0.068 C 
ENDROOT
BRANCH   3  10
ATOM     10  C   UNL d   1      -2.764   0.063  -0.001  0.00  0.00     0.011 A 
ATOM     11  C   UNL d   1      -3.493   1.261  -0.059  0.00  0.00     0.032 A 
ATOM     12  C   UNL d   1      -4.878   1.220  -0.035  0.00  0.00     0.088 A 
ATOM     13  N   UNL d   1      -5.593   0.081   0.043  0.00  0.00    -0.375 N 
ATOM     14  C   UNL d   1      -4.890  -1.068   0.097  0.00  0.00     0.088 A 
ATOM     15  HN  UNL d   1      -6.613   0.087   0.059  1.00  0.00     0.164 HD
ATOM     16  C   UNL d   1      -3.505  -1.126   0.077  0.00  0.00     0.032 A 
ENDBRANCH   3  10
BRANCH   6  17
ATOM     17  O   UNL d   1       1.301   2.374  -0.075  0.00  0.00    -0.346 OA
ATOM     18  H   UNL d   1       0.533   2.973  -0.080  0.00  0.00     0.219 HD
ENDBRANCH   6  17
TORSDOF 2
