REMARK  5 active torsions:
REMARK  status: ('A' for Active; 'I' for Inactive)
REMARK    1  A    between atoms: C_10  and  N_1 
REMARK    2  A    between atoms: N_17  and  C_7 
REMARK    3  A    between atoms: C_13  and  C_10 
REMARK    4  A    between atoms: N_15  and  N_17 
REMARK    5  A    between atoms: C_22  and  C_21 
ROOT
ATOM      1  N   UNL d   1       1.421   1.035  -0.052  0.00  0.00    -0.254 N 
ATOM      2  N   UNL d   1       2.279  -0.014   0.011  0.00  0.00    -0.018 NA
ATOM      3  C   UNL d   1       0.124   0.608  -0.083  0.00  0.00     0.154 A 
ATOM      4  C   UNL d   1       0.227  -0.771  -0.060  0.00  0.00     0.137 A 
ATOM      5  N   UNL d   1       1.552  -1.129  -0.005  0.00  0.00    -0.277 N 
ATOM      6  HN  UNL d   1       1.915  -2.081   0.020  1.00  0.00     0.184 HD
ATOM      7  C   UNL d   1      -0.969  -1.507  -0.089  0.00  0.00     0.153 A 
ATOM      8  N   UNL d   1      -1.000   1.339  -0.119  0.00  0.00    -0.336 N 
ATOM      9  HN  UNL d   1      -1.026   2.359  -0.113  1.00  0.00     0.168 HD
ATOM     10  N   UNL d   1      -2.135  -0.794  -0.149  0.00  0.00    -0.336 N 
ATOM     11  HN  UNL d   1      -3.032  -1.278  -0.181  1.00  0.00     0.168 HD
ATOM     12  C   UNL d   1      -2.088   0.551  -0.165  0.00  0.00     0.183 A 
ENDROOT
BRANCH   7  13
ATOM     13  N   UNL d   1      -0.976  -2.916  -0.039  0.00  0.00    -0.284 N 
ATOM     14  H   UNL d   1      -0.048  -3.323  -0.140  0.00  0.00     0.188 HD
BRANCH  13  15
ATOM     15  N   UNL d   1      -2.070  -3.548  -0.538  0.00  0.00    -0.309 N 
ATOM     16  C   UNL d   1      -2.035  -4.840  -0.491  0.00  0.00     0.119 C 
ATOM     17  HN  UNL d   1      -2.865  -3.039  -0.924  1.00  0.00     0.186 HD
BRANCH  16  18
ATOM     18  C   UNL d   1      -3.148  -5.651  -1.009  0.00  0.00    -0.004 A 
ATOM     19  C   UNL d   1      -4.242  -5.061  -1.624  0.00  0.00     0.100 A 
ATOM     20  N   UNL d   1      -5.292  -5.764  -2.122  0.00  0.00    -0.374 N 
ATOM     21  C   UNL d   1      -5.241  -7.108  -1.990  0.00  0.00     0.087 A 
ATOM     22  HN  UNL d   1      -6.080  -5.301  -2.574  1.00  0.00     0.164 HD
ATOM     23  C   UNL d   1      -4.189  -7.783  -1.387  0.00  0.00     0.018 A 
ATOM     24  C   UNL d   1      -3.121  -7.039  -0.889  0.00  0.00     0.015 A 
ENDBRANCH  16  18
ENDBRANCH  13  15
ENDBRANCH   7  13
BRANCH   1  25
ATOM     25  C   UNL d   1       1.905   2.400   0.041  0.00  0.00     0.189 C 
BRANCH  25  26
ATOM     26  C   UNL d   1       2.249   2.976  -1.312  0.00  0.00    -0.017 A 
ATOM     27  C   UNL d   1       1.356   3.756  -2.064  0.00  0.00     0.042 A 
ATOM     28 CL   UNL d   1      -0.200   4.213  -1.473  0.00  0.00    -0.084 Cl
ATOM     29  C   UNL d   1       1.714   4.229  -3.332  0.00  0.00     0.024 A 
ATOM     30  C   UNL d   1       2.972   3.947  -3.860  0.00  0.00     0.002 A 
ATOM     31  C   UNL d   1       3.878   3.195  -3.119  0.00  0.00     0.001 A 
ATOM     32  C   UNL d   1       3.519   2.708  -1.860  0.00  0.00     0.010 A 
ENDBRANCH  25  26
ENDBRANCH   1  25
TORSDOF 5
