REMARK  4 active torsions:
REMARK  status: ('A' for Active; 'I' for Inactive)
REMARK    1  A    between atoms: C_6  and  C_1 
REMARK    2  A    between atoms: C_5  and  C_2 
REMARK       I    between atoms: N_9  and  C_6 
REMARK    3  A    between atoms: N_10  and  N_9 
REMARK    4  A    between atoms: C_15  and  N_10 
ROOT
ATOM      1  C   UNL d   1      -2.734   1.432   0.017  0.00  0.00     0.285 C 
ATOM      2  N   UNL d   1      -3.955   0.798  -0.150  0.00  0.00    -0.281 N 
ATOM      3  O   UNL d   1      -2.629   2.644   0.175  0.00  0.00    -0.265 OA
ATOM      4  H   UNL d   1      -3.963  -0.154  -0.506  0.00  0.00     0.184 HD
ENDROOT
BRANCH   1   5
ATOM      5  C   UNL d   1      -1.599   0.520  -0.009  0.00  0.00     0.143 A 
ATOM      6  C   UNL d   1      -0.256   0.841  -0.022  0.00  0.00     0.193 A 
ATOM      7  O   UNL d   1       0.448  -0.341   0.012  0.00  0.00    -0.291 OA
ATOM      8  C   UNL d   1      -0.507  -1.315   0.034  0.00  0.00     0.121 A 
ATOM      9  N   UNL d   1      -1.743  -0.865  -0.012  0.00  0.00    -0.334 N 
ATOM     10  C   UNL d   1      -0.017  -2.705   0.134  0.00  0.00     0.098 C 
ATOM     11  HN  UNL d   1      -2.607  -1.406  -0.043  1.00  0.00     0.168 HD
BRANCH   6  12
ATOM     12  C   UNL d   1       0.539   2.084  -0.049  0.00  0.00     0.442 C 
ATOM     13  F   UNL d   1      -0.182   3.208  -0.263  0.00  0.00    -0.164 F 
ATOM     14  F   UNL d   1       1.217   2.266   1.114  0.00  0.00    -0.164 F 
ATOM     15  F   UNL d   1       1.476   2.046  -1.037  0.00  0.00    -0.164 F 
ENDBRANCH   6  12
ENDBRANCH   1   5
BRANCH   2  16
ATOM     16  N   UNL d   1      -5.070   1.621  -0.426  0.00  0.00    -0.203 NA
ATOM     17  H   UNL d   1      -4.849   2.596  -0.184  0.00  0.00     0.153 HD
BRANCH  16  18
ATOM     18  C   UNL d   1      -6.268   1.201   0.204  0.00  0.00     0.027 A 
ATOM     19  C   UNL d   1      -7.176   2.174   0.660  0.00  0.00     0.028 A 
ATOM     20  C   UNL d   1      -8.415   1.810   1.194  0.00  0.00     0.044 A 
ATOM     21  C   UNL d   1      -8.769   0.469   1.244  0.00  0.00     0.116 A 
ATOM     22  C   UNL d   1      -7.907  -0.511   0.773  0.00  0.00     0.044 A 
ATOM     23  F   UNL d   1      -9.964   0.118   1.736  0.00  0.00    -0.206 F 
ATOM     24  C   UNL d   1      -6.663  -0.145   0.248  0.00  0.00     0.028 A 
ENDBRANCH  16  18
ENDBRANCH   2  16
TORSDOF 4
