REMARK  5 active torsions:
REMARK  status: ('A' for Active; 'I' for Inactive)
REMARK    1  A    between atoms: N_6  and  C_1 
REMARK    2  A    between atoms: C_8  and  C_2 
REMARK       I    between atoms: C_7  and  N_6 
REMARK       I    between atoms: N_10  and  C_7 
REMARK    3  A    between atoms: O_14  and  C_8 
REMARK    4  A    between atoms: C_16  and  N_10 
REMARK    5  A    between atoms: C_18  and  O_14 
ROOT
ATOM      1  C   UNL d   1       2.349  -0.407   0.494  0.00  0.00     0.095 C 
ATOM      2  C   UNL d   1       1.900   0.877   0.185  0.00  0.00     0.080 C 
ATOM      3  C   UNL d   1       0.450   0.947   0.285  0.00  0.00    -0.026 C 
ATOM      4  C   UNL d   1      -0.093  -0.288   0.571  0.00  0.00    -0.008 C 
ATOM      5  S   UNL d   1       1.075  -1.428   0.971  0.00  0.00    -0.075 SA
ATOM      6  C   UNL d   1      -0.426   2.131  -0.035  0.00  0.00     0.041 C 
ATOM      7  C   UNL d   1      -1.544  -0.645   0.533  0.00  0.00     0.051 C 
ATOM      8  C   UNL d   1      -1.915   1.839   0.232  0.00  0.00     0.009 C 
ATOM      9  C   UNL d   1      -2.349   0.430  -0.226  0.00  0.00    -0.014 C 
ATOM     10  C   UNL d   1      -2.227   0.264  -1.746  0.00  0.00     0.010 C 
ENDROOT
BRANCH   1  11
ATOM     11  N   UNL d   1       3.638  -0.912   0.370  0.00  0.00    -0.302 N 
ATOM     12  C   UNL d   1       4.179  -2.153   0.602  0.00  0.00     0.325 C 
ATOM     13  N   UNL d   1       3.464  -3.016   1.378  0.00  0.00    -0.309 N 
ATOM     14  O   UNL d   1       5.289  -2.378   0.122  0.00  0.00    -0.247 OA
ATOM     15  H   UNL d   1       2.586  -2.646   1.720  0.00  0.00     0.170 HD
ATOM     16  H   UNL d   1       4.300  -0.303  -0.102  0.00  0.00     0.171 HD
BRANCH  13  17
ATOM     17  C   UNL d   1       3.755  -4.342   1.753  0.00  0.00     0.036 A 
ATOM     18  C   UNL d   1       4.929  -5.012   1.399  0.00  0.00     0.029 A 
ATOM     19  C   UNL d   1       5.131  -6.336   1.803  0.00  0.00     0.002 A 
ATOM     20  C   UNL d   1       4.168  -7.001   2.556  0.00  0.00     0.000 A 
ATOM     21  C   UNL d   1       2.997  -6.342   2.918  0.00  0.00     0.002 A 
ATOM     22  C   UNL d   1       2.796  -5.016   2.520  0.00  0.00     0.029 A 
ENDBRANCH  13  17
ENDBRANCH   1  11
BRANCH   2  23
ATOM     23  C   UNL d   1       2.739   1.992  -0.284  0.00  0.00     0.296 C 
ATOM     24  O   UNL d   1       2.282   3.089  -0.581  0.00  0.00    -0.259 OA
BRANCH  23  25
ATOM     25  O   UNL d   1       4.055   1.656  -0.428  0.00  0.00    -0.318 OA
BRANCH  25  26
ATOM     26  C   UNL d   1       4.858   2.603  -1.153  0.00  0.00     0.174 C 
ATOM     27  C   UNL d   1       4.786   2.265  -2.632  0.00  0.00     0.034 C 
ENDBRANCH  25  26
ENDBRANCH  23  25
ENDBRANCH   2  23
TORSDOF 5
