REMARK  2 active torsions:
REMARK  status: ('A' for Active; 'I' for Inactive)
REMARK    1  A    between atoms: N_2  and  C_1 
REMARK    2  A    between atoms: C_4  and  C_6 
ROOT
ATOM      1  C   UNL d   1      -0.515  -2.800   0.472  0.00  0.00     0.246 C 
ATOM      2  N   UNL d   1       0.026  -3.285   1.760  0.00  0.00    -0.259 NA
ATOM      3  O   UNL d   1      -0.224  -3.729  -0.607  0.00  0.00    -0.324 OA
ATOM      4  C   UNL d   1       0.213  -4.645   1.427  0.00  0.00     0.045 A 
ATOM      5  C   UNL d   1       0.064  -4.882   0.075  0.00  0.00     0.092 A 
ATOM      6  C   UNL d   1       0.598  -5.650   2.291  0.00  0.00     0.033 A 
ATOM      7  C   UNL d   1       0.222  -6.136  -0.471  0.00  0.00     0.039 A 
ATOM      8  C   UNL d   1       0.774  -6.942   1.774  0.00  0.00    -0.060 A 
ATOM      9  C   UNL d   1       0.562  -7.180   0.398  0.00  0.00     0.009 A 
ATOM     10  C   UNL d   1       1.134  -8.076   2.690  0.00  0.00     0.048 C 
ATOM     11  H   UNL d   1       0.946  -2.881   1.921  0.00  0.00     0.130 HD
ENDROOT
BRANCH   1  12
ATOM     12  C   UNL d   1       0.014  -1.440   0.099  0.00  0.00     0.029 A 
ATOM     13  S   UNL d   1      -0.880  -0.044   0.562  0.00  0.00    -0.067 SA
ATOM     14  C   UNL d   1       0.345   0.999   0.024  0.00  0.00     0.144 A 
ATOM     15  C   UNL d   1       1.402   0.328  -0.552  0.00  0.00     0.045 A 
ATOM     16  C   UNL d   1       1.204  -1.088  -0.516  0.00  0.00     0.021 A 
BRANCH  14  17
ATOM     17  N   UNL d   1       0.226   2.422   0.213  0.00  0.00    -0.108 N 
ATOM     18  O   UNL d   1       1.225   3.097  -0.067  0.00  0.00    -0.531 OA
ATOM     19  O   UNL d   1      -0.847   2.871   0.639  0.00  0.00    -0.531 OA
ENDBRANCH  14  17
ENDBRANCH   1  12
TORSDOF 2
