REMARK  4 active torsions:
REMARK  status: ('A' for Active; 'I' for Inactive)
REMARK       I    between atoms: N_2  and  C_1 
REMARK    1  A    between atoms: C_3  and  C_1 
REMARK       I    between atoms: C_4  and  N_2 
REMARK    2  A    between atoms: C_5  and  C_4 
REMARK    3  A    between atoms: O_14  and  C_6 
REMARK    4  A    between atoms: C_17  and  C_13 
ROOT
ATOM      1  C   UNL d   1      -0.862  -0.795  -0.309  0.00  0.00     0.261 C 
ATOM      2  N   UNL d   1       0.480  -1.126  -0.264  0.00  0.00    -0.289 N 
ATOM      3  C   UNL d   1       1.039  -2.236  -0.881  0.00  0.00     0.258 C 
ATOM      4  O   UNL d   1      -1.757  -1.465  -0.815  0.00  0.00    -0.267 OA
ATOM      5  O   UNL d   1       0.433  -3.084  -1.523  0.00  0.00    -0.267 OA
ATOM      6  H   UNL d   1       1.073  -0.591   0.351  0.00  0.00     0.172 HD
ENDROOT
BRANCH   1   7
ATOM      7  C   UNL d   1      -1.263   0.459   0.392  0.00  0.00     0.065 A 
ATOM      8  C   UNL d   1      -2.549   0.548   0.949  0.00  0.00     0.081 A 
ATOM      9  C   UNL d   1      -2.958   1.701   1.614  0.00  0.00     0.037 A 
ATOM     10  C   UNL d   1      -2.097   2.794   1.700  0.00  0.00     0.003 A 
ATOM     11  C   UNL d   1      -0.828   2.730   1.123  0.00  0.00     0.001 A 
ATOM     12  C   UNL d   1      -0.407   1.567   0.468  0.00  0.00     0.020 A 
BRANCH   8  13
ATOM     13  O   UNL d   1      -3.467  -0.467   0.878  0.00  0.00    -0.360 OA
ATOM     14  H   UNL d   1      -3.152  -1.113   0.204  0.00  0.00     0.217 HD
ENDBRANCH   8  13
ENDBRANCH   1   7
BRANCH   3  15
ATOM     15  C   UNL d   1       2.507  -2.401  -0.692  0.00  0.00     0.032 A 
ATOM     16  C   UNL d   1       3.026  -3.699  -0.606  0.00  0.00     0.017 A 
ATOM     17  C   UNL d   1       4.395  -3.898  -0.406  0.00  0.00     0.008 A 
ATOM     18  C   UNL d   1       5.263  -2.803  -0.305  0.00  0.00    -0.059 A 
ATOM     19  C   UNL d   1       4.743  -1.507  -0.424  0.00  0.00     0.008 A 
ATOM     20  C   UNL d   1       3.374  -1.304  -0.622  0.00  0.00     0.017 A 
BRANCH  18  21
ATOM     21  C   UNL d   1       6.735  -3.015  -0.049  0.00  0.00     0.034 C 
ATOM     22  C   UNL d   1       7.051  -3.040   1.440  0.00  0.00     0.010 C 
ENDBRANCH  18  21
ENDBRANCH   3  15
TORSDOF 4
