REMARK  6 active torsions:
REMARK  status: ('A' for Active; 'I' for Inactive)
REMARK    1  A    between atoms: C_3  and  O_25 
REMARK    2  A    between atoms: C_3  and  C_13 
REMARK    3  A    between atoms: C_8  and  O_27 
REMARK    4  A    between atoms: C_20  and  C_13 
REMARK    5  A    between atoms: C_17  and  O_22 
REMARK    6  A    between atoms: O_22  and  C_20 
ROOT
ATOM      1  C   UNL d   1      -6.533  -0.504   2.973  0.00  0.00     0.001 C 
ATOM      2  C   UNL d   1      -7.055  -0.301   1.534  0.00  0.00     0.002 C 
ATOM      3  C   UNL d   1      -7.854  -0.588   3.811  0.00  0.00     0.131 C 
ATOM      4  C   UNL d   1      -3.484  -0.416  -0.083  0.00  0.00    -0.016 C 
ATOM      5  C   UNL d   1      -5.955  -0.639   0.536  0.00  0.00    -0.002 C 
ATOM      6  C   UNL d   1      -4.682   0.254   0.721  0.00  0.00     0.031 C 
ATOM      7  C   UNL d   1      -5.585   0.682   3.227  0.00  0.00     0.045 C 
ATOM      8  C   UNL d   1      -4.417   0.766   2.196  0.00  0.00     0.124 C 
ATOM      9  C   UNL d   1      -8.815  -1.405   2.886  0.00  0.00     0.025 C 
ATOM     10  C   UNL d   1      -2.240   0.459  -0.188  0.00  0.00    -0.013 C 
ATOM     11  C   UNL d   1      -8.333  -1.136   1.441  0.00  0.00     0.013 C 
ATOM     12  C   UNL d   1      -3.942  -0.634  -1.577  0.00  0.00     0.005 C 
ATOM     13  C   UNL d   1      -6.387  -0.611  -0.932  0.00  0.00     0.006 C 
ATOM     14  C   UNL d   1      -1.334   0.321  -1.171  0.00  0.00     0.047 C 
ATOM     15  C   UNL d   1      -1.514  -0.704  -2.237  0.00  0.00     0.149 C 
ATOM     16  C   UNL d   1      -2.867  -1.369  -2.391  0.00  0.00     0.088 C 
ATOM     17  C   UNL d   1      -5.307  -1.308  -1.757  0.00  0.00     0.006 C 
ATOM     18  O   UNL d   1      -0.560  -1.009  -2.949  0.00  0.00    -0.293 OA
ATOM     19  C   UNL d   1      -5.722  -1.821   3.178  0.00  0.00     0.019 C 
ATOM     20  C   UNL d   1      -3.025  -1.752   0.571  0.00  0.00     0.020 C 
ATOM     21  C   UNL d   1      -8.912  -2.915   3.166  0.00  0.00     0.013 C 
ENDROOT
BRANCH   3  22
ATOM     22  O   UNL d   1      -7.628  -1.279   5.037  0.00  0.00    -0.381 OA
ATOM     23  H   UNL d   1      -6.886  -0.839   5.495  0.00  0.00     0.211 HD
ENDBRANCH   3  22
BRANCH   3  24
ATOM     24  C   UNL d   1      -8.532   0.762   4.131  0.00  0.00     0.186 C 
ATOM     25  O   UNL d   1      -8.598   1.686   3.318  0.00  0.00    -0.292 OA
BRANCH  24  26
ATOM     26  C   UNL d   1      -9.216   0.896   5.508  0.00  0.00     0.260 C 
BRANCH  26  27
ATOM     27  O   UNL d   1      -9.308   2.251   5.939  0.00  0.00    -0.314 OA
BRANCH  27  28
ATOM     28  C   UNL d   1      -8.095   2.793   6.237  0.00  0.00     0.255 C 
ATOM     29  O   UNL d   1      -7.031   2.192   6.212  0.00  0.00    -0.266 OA
ATOM     30  C   UNL d   1      -8.257   4.219   6.660  0.00  0.00     0.126 C 
ENDBRANCH  27  28
ENDBRANCH  26  27
ENDBRANCH  24  26
ENDBRANCH   3  24
BRANCH   8  31
ATOM     31  O   UNL d   1      -3.227   0.224   2.757  0.00  0.00    -0.395 OA
ATOM     32  H   UNL d   1      -3.425  -0.204   3.606  0.00  0.00     0.210 HD
ENDBRANCH   8  31
TORSDOF 6
