REMARK  5 active torsions:
REMARK  status: ('A' for Active; 'I' for Inactive)
REMARK    1  A    between atoms: N_2  and  C_1 
REMARK    2  A    between atoms: N_10  and  C_1 
REMARK    3  A    between atoms: C_3  and  N_2 
REMARK    4  A    between atoms: O_12  and  C_6 
REMARK    5  A    between atoms: O_13  and  C_8 
ROOT
ATOM      1  C   UNL d   1       1.133  -1.775   1.815  0.00  0.00     0.070 A 
ATOM      2  C   UNL d   1       0.894  -3.152   1.869  0.00  0.00     0.071 A 
ATOM      3  C   UNL d   1       2.898  -2.059   3.433  0.00  0.00     0.065 A 
ATOM      4  C   UNL d   1       2.151  -1.221   2.603  0.00  0.00     0.096 A 
ATOM      5  C   UNL d   1       2.656  -3.445   3.486  0.00  0.00     0.070 A 
ATOM      6  C   UNL d   1       1.646  -4.006   2.695  0.00  0.00     0.092 A 
ATOM      7 CL   UNL d   1       3.680  -4.318   4.570  0.00  0.00    -0.081 Cl
ENDROOT
BRANCH   1   8
ATOM      8  N   UNL d   1       0.432  -0.913   0.935  0.00  0.00    -0.331 N 
ATOM      9  H   UNL d   1       0.971  -0.097   0.655  0.00  0.00     0.168 HD
BRANCH   8  10
ATOM     10  C   UNL d   1      -0.652  -1.200   0.149  0.00  0.00     0.173 C 
ATOM     11  S   UNL d   1      -0.642  -0.610  -1.421  0.00  0.00    -0.041 SA
BRANCH  10  12
ATOM     12  N   UNL d   1      -1.712  -1.875   0.741  0.00  0.00    -0.367 N 
ATOM     13  C   UNL d   1      -2.048  -1.660   2.147  0.00  0.00     0.151 C 
ATOM     14  C   UNL d   1      -2.715  -2.610  -0.023  0.00  0.00     0.151 C 
ENDBRANCH  10  12
ENDBRANCH   8  10
ENDBRANCH   1   8
BRANCH   4  15
ATOM     15  O   UNL d   1       2.341   0.132   2.483  0.00  0.00    -0.354 OA
ATOM     16  C   UNL d   1       3.108   0.767   3.498  0.00  0.00     0.210 C 
ENDBRANCH   4  15
BRANCH   6  17
ATOM     17  O   UNL d   1       1.230  -5.303   2.567  0.00  0.00    -0.354 OA
ATOM     18  C   UNL d   1       1.942  -6.361   3.181  0.00  0.00     0.210 C 
ENDBRANCH   6  17
TORSDOF 5
