REMARK  3 active torsions:
REMARK  status: ('A' for Active; 'I' for Inactive)
REMARK    1  A    between atoms: C_13  and  C_3 
REMARK    2  A    between atoms: N_6  and  C_9 
REMARK    3  A    between atoms: C_10  and  C_8 
ROOT
ATOM      1  N   UNL d   1       1.583  -0.037   0.113  0.00  0.00    -0.331 N 
ATOM      2  HN  UNL d   1       2.534  -0.404   0.112  1.00  0.00     0.168 HD
ATOM      3  C   UNL d   1       1.192   1.197   0.072  0.00  0.00     0.162 A 
ATOM      4  C   UNL d   1       0.399  -0.726   0.159  0.00  0.00     0.111 A 
ATOM      5  O   UNL d   1      -0.139   1.439   0.123  0.00  0.00    -0.256 OA
ATOM      6  C   UNL d   1      -0.749   0.223   0.196  0.00  0.00     0.316 A 
ATOM      7  C   UNL d   1       0.322  -2.062   0.105  0.00  0.00     0.050 C 
ATOM      8  O   UNL d   1      -1.941   0.004   0.257  0.00  0.00    -0.257 OA
ENDROOT
BRANCH   7   9
ATOM      9  C   UNL d   1      -0.920  -2.838   0.009  0.00  0.00    -0.001 A 
ATOM     10  C   UNL d   1      -1.713  -3.296   1.079  0.00  0.00     0.113 A 
ATOM     11  C   UNL d   1      -2.869  -4.062   0.823  0.00  0.00     0.037 A 
ATOM     12  C   UNL d   1      -3.244  -4.361  -0.487  0.00  0.00     0.002 A 
ATOM     13  C   UNL d   1      -2.479  -3.896  -1.550  0.00  0.00     0.001 A 
ATOM     14  C   UNL d   1      -1.329  -3.144  -1.305  0.00  0.00     0.014 A 
BRANCH  10  15
ATOM     15  N   UNL d   1      -1.385  -3.016   2.490  0.00  0.00    -0.115 N 
ATOM     16  O   UNL d   1      -0.383  -2.336   2.750  0.00  0.00    -0.532 OA
ATOM     17  O   UNL d   1      -2.133  -3.492   3.357  0.00  0.00    -0.532 OA
ENDBRANCH  10  15
ENDBRANCH   7   9
BRANCH   3  18
ATOM     18  C   UNL d   1       2.050   2.381  -0.076  0.00  0.00     0.015 A 
ATOM     19  C   UNL d   1       3.440   2.209  -0.080  0.00  0.00     0.016 A 
ATOM     20  C   UNL d   1       4.279   3.300  -0.310  0.00  0.00     0.001 A 
ATOM     21  C   UNL d   1       3.733   4.563  -0.537  0.00  0.00     0.000 A 
ATOM     22  C   UNL d   1       2.349   4.742  -0.517  0.00  0.00     0.001 A 
ATOM     23  C   UNL d   1       1.506   3.654  -0.283  0.00  0.00     0.016 A 
ENDBRANCH   3  18
TORSDOF 3
