REMARK  3 active torsions:
REMARK  status: ('A' for Active; 'I' for Inactive)
REMARK    1  A    between atoms: C_2  and  C_1 
REMARK       I    between atoms: C_3  and  N_4 
REMARK    2  A    between atoms: C_6  and  C_3 
REMARK    3  A    between atoms: N_4  and  C_5 
ROOT
ATOM      1  C   UNL d   1       2.825  -0.921   0.970  0.00  0.00     0.256 C 
ATOM      2  N   UNL d   1       2.108  -2.091   0.793  0.00  0.00    -0.322 N 
ATOM      3  O   UNL d   1       2.766   0.084   0.277  0.00  0.00    -0.267 OA
ATOM      4  H   UNL d   1       2.078  -2.721   1.590  0.00  0.00     0.169 HD
ENDROOT
BRANCH   2   5
ATOM      5  C   UNL d   1       1.287  -2.434  -0.309  0.00  0.00     0.050 A 
ATOM      6  C   UNL d   1       0.372  -3.501  -0.194  0.00  0.00     0.074 A 
ATOM      7  C   UNL d   1      -0.412  -3.863  -1.311  0.00  0.00     0.018 A 
ATOM      8  C   UNL d   1      -0.291  -3.187  -2.523  0.00  0.00     0.001 A 
ATOM      9  C   UNL d   1       0.609  -2.136  -2.632  0.00  0.00     0.002 A 
ATOM     10  C   UNL d   1       1.391  -1.763  -1.535  0.00  0.00     0.030 A 
BRANCH   6  11
ATOM     11  C   UNL d   1       0.126  -4.248   1.092  0.00  0.00     0.419 C 
ATOM     12  F   UNL d   1       1.017  -3.955   2.086  0.00  0.00    -0.166 F 
ATOM     13  F   UNL d   1       0.195  -5.602   0.936  0.00  0.00    -0.166 F 
ATOM     14  F   UNL d   1      -1.105  -3.995   1.617  0.00  0.00    -0.166 F 
ENDBRANCH   6  11
ENDBRANCH   2   5
BRANCH   1  15
ATOM     15  C   UNL d   1       3.691  -0.897   2.183  0.00  0.00     0.035 A 
ATOM     16  C   UNL d   1       4.355  -2.047   2.629  0.00  0.00     0.041 A 
ATOM     17  C   UNL d   1       5.164  -1.977   3.763  0.00  0.00     0.036 A 
ATOM     18 CL   UNL d   1       5.976  -3.392   4.313  0.00  0.00    -0.084 Cl
ATOM     19  C   UNL d   1       5.325  -0.778   4.452  0.00  0.00     0.047 A 
ATOM     20  C   UNL d   1       4.673   0.364   3.993  0.00  0.00     0.036 A 
ATOM     21  C   UNL d   1       3.862   0.315   2.861  0.00  0.00     0.041 A 
ATOM     22 CL   UNL d   1       4.872   1.851   4.837  0.00  0.00    -0.084 Cl
ENDBRANCH   1  15
TORSDOF 3
