REMARK  6 active torsions:
REMARK  status: ('A' for Active; 'I' for Inactive)
REMARK    1  A    between atoms: N_2  and  C_1 
REMARK    2  A    between atoms: N_4  and  C_1 
REMARK    3  A    between atoms: C_3  and  N_2 
REMARK    4  A    between atoms: C_9  and  N_4 
REMARK    5  A    between atoms: O_17  and  C_11 
REMARK    6  A    between atoms: C_20  and  O_17 
ROOT
ATOM      1  C   UNL d   1       1.147  -0.304   0.159  0.00  0.00     0.176 C 
ATOM      2  S   UNL d   1       2.781  -0.698   0.194  0.00  0.00    -0.041 SA
ENDROOT
BRANCH   1   3
ATOM      3  N   UNL d   1       0.537   0.657   0.969  0.00  0.00    -0.333 N 
ATOM      4  H   UNL d   1      -0.345   0.350   1.358  0.00  0.00     0.168 HD
BRANCH   3   5
ATOM      5  C   UNL d   1       1.150   1.777   1.579  0.00  0.00     0.040 A 
ATOM      6  C   UNL d   1       0.742   2.236   2.844  0.00  0.00    -0.035 A 
ATOM      7  C   UNL d   1       1.324   3.408   3.360  0.00  0.00     0.009 A 
ATOM      8  C   UNL d   1      -0.258   1.532   3.720  0.00  0.00     0.050 C 
ATOM      9  C   UNL d   1       2.305   4.104   2.650  0.00  0.00     0.007 A 
ATOM     10  C   UNL d   1       2.720   3.648   1.400  0.00  0.00    -0.060 A 
ATOM     11  C   UNL d   1       2.122   2.501   0.868  0.00  0.00     0.037 A 
ATOM     12  C   UNL d   1       3.787   4.375   0.637  0.00  0.00     0.048 C 
ENDBRANCH   3   5
ENDBRANCH   1   3
BRANCH   1  13
ATOM     13  N   UNL d   1       0.182  -0.876  -0.680  0.00  0.00    -0.333 N 
ATOM     14  H   UNL d   1      -0.471  -0.193  -1.047  0.00  0.00     0.168 HD
BRANCH  13  15
ATOM     15  C   UNL d   1       0.296  -2.078  -1.410  0.00  0.00     0.034 A 
ATOM     16  C   UNL d   1       0.905  -3.210  -0.867  0.00  0.00     0.032 A 
ATOM     17  C   UNL d   1       1.030  -4.384  -1.612  0.00  0.00     0.039 A 
ATOM     18  C   UNL d   1       0.534  -4.447  -2.913  0.00  0.00     0.068 A 
ATOM     19  C   UNL d   1      -0.124  -3.333  -3.440  0.00  0.00     0.039 A 
ATOM     20  C   UNL d   1      -0.261  -2.158  -2.689  0.00  0.00     0.032 A 
BRANCH  18  21
ATOM     21  O   UNL d   1       0.628  -5.528  -3.748  0.00  0.00    -0.352 OA
BRANCH  21  22
ATOM     22  C   UNL d   1       1.349  -6.655  -3.244  0.00  0.00     0.171 C 
ATOM     23  C   UNL d   1       1.401  -7.721  -4.322  0.00  0.00     0.034 C 
ENDBRANCH  21  22
ENDBRANCH  18  21
ENDBRANCH  13  15
ENDBRANCH   1  13
TORSDOF 6
