REMARK  4 active torsions:
REMARK  status: ('A' for Active; 'I' for Inactive)
REMARK    1  A    between atoms: N_8  and  C_2 
REMARK    2  A    between atoms: S_3  and  N_10 
REMARK    3  A    between atoms: C_11  and  S_3 
REMARK    4  A    between atoms: N_10  and  N_9 
ROOT
ATOM      1  C   UNL d   1       0.623  -1.355   0.111  0.00  0.00     0.172 A 
ATOM      2  C   UNL d   1      -0.741  -1.331  -0.198  0.00  0.00     0.173 A 
ATOM      3  N   UNL d   1       0.946  -0.030   0.344  0.00  0.00    -0.278 N 
ATOM      4  N   UNL d   1      -0.099   0.809   0.270  0.00  0.00    -0.299 N 
ATOM      5  HN  UNL d   1      -0.102   1.816   0.432  1.00  0.00     0.187 HD
ATOM      6  C   UNL d   1      -1.136   0.035  -0.065  0.00  0.00     0.059 A 
ATOM      7  N   UNL d   1       1.581  -2.317   0.206  0.00  0.00    -0.273 N 
ATOM      8  C   UNL d   1      -2.455   0.706  -0.225  0.00  0.00     0.072 C 
ATOM      9  C   UNL d   1       2.229   0.566   0.647  0.00  0.00     0.179 C 
ATOM     10  H   UNL d   1       2.554  -2.112   0.452  0.00  0.00     0.189 HD
ENDROOT
BRANCH   7  11
ATOM     11  N   UNL d   1       1.345  -3.741   0.025  0.00  0.00    -0.221 N 
ATOM     12  H   UNL d   1       0.410  -4.099  -0.216  0.00  0.00     0.200 HD
BRANCH  11  13
ATOM     13  S   UNL d   1       2.605  -4.857   0.171  0.00  0.00     0.276 S 
ATOM     14  O   UNL d   1       3.573  -4.569  -0.864  0.00  0.00    -0.199 OA
ATOM     15  O   UNL d   1       2.999  -4.901   1.564  0.00  0.00    -0.199 OA
BRANCH  13  16
ATOM     16  C   UNL d   1       1.797  -6.386  -0.228  0.00  0.00     0.082 A 
ATOM     17  C   UNL d   1       1.784  -6.832  -1.553  0.00  0.00     0.050 A 
ATOM     18  C   UNL d   1       1.216  -8.072  -1.859  0.00  0.00     0.057 A 
ATOM     19 CL   UNL d   1       1.234  -8.576  -3.512  0.00  0.00    -0.083 Cl
ATOM     20  C   UNL d   1       0.667  -8.864  -0.841  0.00  0.00     0.055 A 
ATOM     21  C   UNL d   1       0.683  -8.407   0.482  0.00  0.00     0.027 A 
ATOM     22 CL   UNL d   1      -0.028 -10.415  -1.147  0.00  0.00    -0.083 Cl
ATOM     23  C   UNL d   1       1.252  -7.170   0.793  0.00  0.00     0.027 A 
ENDBRANCH  13  16
ENDBRANCH  11  13
ENDBRANCH   7  11
BRANCH   2  24
ATOM     24  N   UNL d   1      -1.592  -2.432  -0.574  0.00  0.00    -0.110 N 
ATOM     25  O   UNL d   1      -1.129  -3.581  -0.542  0.00  0.00    -0.532 OA
ATOM     26  O   UNL d   1      -2.749  -2.168  -0.917  0.00  0.00    -0.532 OA
ENDBRANCH   2  24
TORSDOF 4
