REMARK  5 active torsions:
REMARK  status: ('A' for Active; 'I' for Inactive)
REMARK    1  A    between atoms: C_6  and  C_1 
REMARK    2  A    between atoms: C_9  and  C_2 
REMARK    3  A    between atoms: C_10  and  N_3 
REMARK    4  A    between atoms: N_7  and  C_11 
REMARK       I    between atoms: N_15  and  C_9 
REMARK    5  A    between atoms: N_23  and  N_15 
ROOT
ATOM      1  C   UNL d   1       0.998  -0.862  -0.044  0.00  0.00     0.157 C 
ATOM      2  C   UNL d   1      -0.334  -1.255  -0.059  0.00  0.00     0.083 C 
ATOM      3  N   UNL d   1       1.008   0.517   0.062  0.00  0.00    -0.251 N 
ATOM      4  N   UNL d   1      -0.244   0.988   0.314  0.00  0.00    -0.303 N 
ATOM      5  HN  UNL d   1      -0.509   1.939   0.569  1.00  0.00     0.186 HD
ATOM      6  C   UNL d   1      -1.045  -0.061   0.156  0.00  0.00     0.127 C 
ENDROOT
BRANCH   3   7
ATOM      7  C   UNL d   1       2.081   1.454  -0.029  0.00  0.00     0.057 A 
ATOM      8  C   UNL d   1       3.216   1.207  -0.811  0.00  0.00     0.034 A 
ATOM      9  C   UNL d   1       4.274   2.124  -0.834  0.00  0.00     0.038 A 
ATOM     10  C   UNL d   1       4.190   3.302  -0.082  0.00  0.00     0.103 A 
ATOM     11  C   UNL d   1       3.039   3.586   0.661  0.00  0.00     0.038 A 
ATOM     12  C   UNL d   1       1.981   2.669   0.673  0.00  0.00     0.034 A 
BRANCH  10  13
ATOM     13  N   UNL d   1       5.318   4.241  -0.075  0.00  0.00    -0.116 N 
ATOM     14  O   UNL d   1       6.321   3.943  -0.740  0.00  0.00    -0.532 OA
ATOM     15  O   UNL d   1       5.205   5.274   0.601  0.00  0.00    -0.532 OA
ENDBRANCH  10  13
ENDBRANCH   3   7
BRANCH   1  16
ATOM     16  C   UNL d   1       2.224  -1.679   0.009  0.00  0.00     0.435 C 
ATOM     17  F   UNL d   1       1.991  -2.947   0.429  0.00  0.00    -0.165 F 
ATOM     18  F   UNL d   1       2.839  -1.767  -1.194  0.00  0.00    -0.165 F 
ATOM     19  F   UNL d   1       3.127  -1.170   0.886  0.00  0.00    -0.165 F 
ENDBRANCH   1  16
BRANCH   2  20
ATOM     20  C   UNL d   1      -0.843  -2.603  -0.227  0.00  0.00     0.269 C 
ATOM     21  O   UNL d   1      -0.247  -3.452  -0.887  0.00  0.00    -0.266 OA
ATOM     22  N   UNL d   1      -2.047  -2.860   0.425  0.00  0.00    -0.290 N 
ATOM     23  H   UNL d   1      -2.400  -2.203   1.117  0.00  0.00     0.183 HD
BRANCH  22  24
ATOM     24  N   UNL d   1      -2.574  -4.175   0.436  0.00  0.00    -0.247 NA
ATOM     25  H   UNL d   1      -1.817  -4.810   0.142  0.00  0.00     0.143 HD
ATOM     26  H   UNL d   1      -3.260  -4.247  -0.321  0.00  0.00     0.143 HD
ENDBRANCH  22  24
ENDBRANCH   2  20
TORSDOF 5
