REMARK  9 active torsions:
REMARK  status: ('A' for Active; 'I' for Inactive)
REMARK    1  A    between atoms: C_2  and  C_1 
REMARK    2  A    between atoms: C_3  and  C_1 
REMARK    3  A    between atoms: C_20  and  C_1 
REMARK       I    between atoms: N_8  and  C_2 
REMARK       I    between atoms: N_9  and  C_3 
REMARK    4  A    between atoms: N_4  and  N_8 
REMARK    5  A    between atoms: N_6  and  N_9 
REMARK    6  A    between atoms: C_18  and  C_10 
REMARK    7  A    between atoms: C_19  and  C_11 
REMARK    8  A    between atoms: C_25  and  C_20 
REMARK    9  A    between atoms: C_26  and  C_25 
ROOT
ATOM      1  C   UNL d   1       1.007  -0.054  -0.036  0.00  0.00     0.173 C 
ENDROOT
BRANCH   1   2
ATOM      2  C   UNL d   1       0.355  -0.783   1.121  0.00  0.00     0.249 C 
ATOM      3  N   UNL d   1       0.048  -2.109   0.845  0.00  0.00    -0.270 N 
ATOM      4  H   UNL d   1       0.248  -2.528  -0.056  0.00  0.00     0.190 HD
ATOM      5  O   UNL d   1       0.163  -0.235   2.208  0.00  0.00    -0.271 OA
BRANCH   3   6
ATOM      6  N   UNL d   1      -0.529  -2.859   1.819  0.00  0.00    -0.307 N 
ATOM      7  C   UNL d   1      -0.747  -4.106   1.548  0.00  0.00     0.136 C 
ATOM      8  HN  UNL d   1      -0.781  -2.458   2.722  1.00  0.00     0.186 HD
BRANCH   7   9
ATOM      9  C   UNL d   1      -1.384  -4.999   2.538  0.00  0.00     0.049 A 
ATOM     10  N   UNL d   1      -1.527  -6.289   2.149  0.00  0.00    -0.365 N 
ATOM     11  C   UNL d   1      -2.113  -7.116   3.044  0.00  0.00     0.088 A 
ATOM     12  HN  UNL d   1      -1.212  -6.616   1.236  1.00  0.00     0.165 HD
ATOM     13  C   UNL d   1      -2.560  -6.715   4.296  0.00  0.00     0.017 A 
ATOM     14  C   UNL d   1      -2.397  -5.383   4.662  0.00  0.00     0.004 A 
ATOM     15  C   UNL d   1      -1.796  -4.504   3.770  0.00  0.00     0.031 A 
ENDBRANCH   7   9
ENDBRANCH   3   6
ENDBRANCH   1   2
BRANCH   1  16
ATOM     16  C   UNL d   1       0.626   1.417  -0.148  0.00  0.00     0.249 C 
ATOM     17  N   UNL d   1       0.361   2.085   1.037  0.00  0.00    -0.270 N 
ATOM     18  H   UNL d   1       0.251   1.563   1.910  0.00  0.00     0.190 HD
ATOM     19  O   UNL d   1       0.651   1.962  -1.255  0.00  0.00    -0.271 OA
BRANCH  17  20
ATOM     20  N   UNL d   1       0.079   3.416   0.992  0.00  0.00    -0.307 N 
ATOM     21  C   UNL d   1      -0.267   3.984   2.104  0.00  0.00     0.136 C 
ATOM     22  HN  UNL d   1       0.137   3.943   0.121  1.00  0.00     0.186 HD
BRANCH  21  23
ATOM     23  C   UNL d   1      -0.575   5.431   2.150  0.00  0.00     0.049 A 
ATOM     24  N   UNL d   1      -0.894   5.927   3.371  0.00  0.00    -0.365 N 
ATOM     25  C   UNL d   1      -1.159   7.251   3.424  0.00  0.00     0.088 A 
ATOM     26  HN  UNL d   1      -0.933   5.335   4.201  1.00  0.00     0.165 HD
ATOM     27  C   UNL d   1      -1.120   8.100   2.325  0.00  0.00     0.017 A 
ATOM     28  C   UNL d   1      -0.792   7.558   1.087  0.00  0.00     0.004 A 
ATOM     29  C   UNL d   1      -0.514   6.200   0.992  0.00  0.00     0.031 A 
ENDBRANCH  21  23
ENDBRANCH  17  20
ENDBRANCH   1  16
BRANCH   1  30
ATOM     30  C   UNL d   1       2.541  -0.166   0.036  0.00  0.00     0.024 C 
BRANCH  30  31
ATOM     31  C   UNL d   1       3.069  -1.557  -0.337  0.00  0.00     0.001 C 
BRANCH  31  32
ATOM     32  C   UNL d   1       4.599  -1.579  -0.358  0.00  0.00    -0.005 C 
ATOM     33  C   UNL d   1       5.138  -2.958  -0.707  0.00  0.00     0.005 C 
ENDBRANCH  31  32
ENDBRANCH  30  31
ENDBRANCH   1  30
TORSDOF 9
