REMARK  5 active torsions:
REMARK  status: ('A' for Active; 'I' for Inactive)
REMARK    1  A    between atoms: C_11  and  N_3 
REMARK    2  A    between atoms: N_12  and  C_9 
REMARK    3  A    between atoms: C_17  and  C_11 
REMARK    4  A    between atoms: C_19  and  N_12 
REMARK    5  A    between atoms: C_20  and  C_19 
ROOT
ATOM      1  C   UNL d   1      -0.229  -0.842  -0.051  0.00  0.00     0.160 A 
ATOM      2  C   UNL d   1      -0.454   0.503  -0.036  0.00  0.00     0.164 A 
ATOM      3  N   UNL d   1       1.885   0.861   0.020  0.00  0.00    -0.260 N 
ATOM      4  N   UNL d   1      -1.376  -1.556  -0.165  0.00  0.00    -0.174 N 
ATOM      5  HN  UNL d   1      -1.470  -2.569  -0.232  1.00  0.00     0.186 HD
ATOM      6  N   UNL d   1       1.034  -1.371   0.034  0.00  0.00    -0.287 N 
ATOM      7  C   UNL d   1       2.130  -0.519   0.131  0.00  0.00     0.333 C 
ATOM      8  C   UNL d   1       0.613   1.451  -0.024  0.00  0.00     0.283 C 
ATOM      9  C   UNL d   1      -2.342  -0.663  -0.170  0.00  0.00     0.682 A 
ATOM     10  N   UNL d   1      -1.826   0.617  -0.047  0.00  0.00    -0.178 N 
ATOM     11  O   UNL d   1       3.266  -0.969   0.312  0.00  0.00    -0.246 OA
ATOM     12  O   UNL d   1       0.434   2.670  -0.049  0.00  0.00    -0.265 OA
ATOM     13  C   UNL d   1       1.259  -2.803   0.053  0.00  0.00     0.163 C 
ATOM     14  C   UNL d   1      -2.611   1.826  -0.023  0.00  0.00     0.176 C 
ENDROOT
BRANCH   9  15
ATOM     15  N   UNL d   1      -3.659  -0.906  -0.348  0.00  0.00    -0.220 N 
ATOM     16  H   UNL d   1      -4.357  -0.503   0.277  0.00  0.00     0.178 HD
BRANCH  15  17
ATOM     17  C   UNL d   1      -4.019  -2.260  -0.767  0.00  0.00     0.195 C 
BRANCH  17  18
ATOM     18  C   UNL d   1      -5.516  -2.537  -0.736  0.00  0.00     0.027 A 
ATOM     19  N   UNL d   1      -6.345  -1.679  -0.082  0.00  0.00    -0.368 N 
ATOM     20  C   UNL d   1      -7.663  -1.997  -0.064  0.00  0.00     0.088 A 
ATOM     21  HN  UNL d   1      -5.992  -0.837   0.373  1.00  0.00     0.165 HD
ATOM     22  C   UNL d   1      -8.201  -3.132  -0.651  0.00  0.00     0.017 A 
ATOM     23  C   UNL d   1      -7.340  -4.004  -1.302  0.00  0.00     0.003 A 
ATOM     24  C   UNL d   1      -5.982  -3.707  -1.345  0.00  0.00     0.027 A 
ENDBRANCH  17  18
ENDBRANCH  15  17
ENDBRANCH   9  15
BRANCH   3  25
ATOM     25  C   UNL d   1       3.052   1.739   0.013  0.00  0.00     0.175 C 
BRANCH  25  26
ATOM     26  C   UNL d   1       3.669   1.884  -1.368  0.00  0.00    -0.038 A 
ATOM     27  C   UNL d   1       3.269   2.922  -2.223  0.00  0.00     0.027 A 
ATOM     28  C   UNL d   1       3.816   3.027  -3.504  0.00  0.00     0.011 A 
ATOM     29 BR   UNL d   1       3.261   4.428  -4.648  0.00  0.00    -0.051 Br
ATOM     30  C   UNL d   1       4.763   2.109  -3.953  0.00  0.00     0.019 A 
ATOM     31  C   UNL d   1       5.176   1.081  -3.108  0.00  0.00     0.002 A 
ATOM     32  C   UNL d   1       4.635   0.971  -1.825  0.00  0.00     0.009 A 
ENDBRANCH  25  26
ENDBRANCH   3  25
TORSDOF 5
