REMARK  2 active torsions:
REMARK  status: ('A' for Active; 'I' for Inactive)
REMARK    1  A    between atoms: C_14  and  N_5 
REMARK    2  A    between atoms: C_9  and  C_16 
ROOT
ATOM      1  C   UNL d   1       0.744  -0.814  -0.148  0.00  0.00     0.173 A 
ATOM      2  C   UNL d   1       0.455   0.535  -0.146  0.00  0.00     0.090 A 
ATOM      3  C   UNL d   1       1.943  -1.573   0.089  0.00  0.00     0.285 C 
ATOM      4  C   UNL d   1      -0.978   0.639  -0.226  0.00  0.00     0.051 A 
ATOM      5  N   UNL d   1       2.936  -0.869   0.772  0.00  0.00    -0.303 N 
ATOM      6  C   UNL d   1      -1.441  -0.675  -0.199  0.00  0.00     0.162 A 
ATOM      7  O   UNL d   1      -0.404  -1.539  -0.234  0.00  0.00    -0.285 OA
ATOM      8  N   UNL d   1       1.342   1.587  -0.016  0.00  0.00    -0.322 N 
ATOM      9  N   UNL d   1      -2.708  -1.104  -0.105  0.00  0.00    -0.340 N 
ATOM     10  HN  UNL d   1      -2.961  -2.092  -0.104  1.00  0.00     0.167 HD
ATOM     11  C   UNL d   1      -1.960   1.661  -0.258  0.00  0.00    -0.043 A 
ATOM     12  C   UNL d   1       2.698   1.571   0.127  0.00  0.00     0.240 C 
ATOM     13  C   UNL d   1       3.516   0.278   0.095  0.00  0.00     0.235 C 
ATOM     14  O   UNL d   1       2.031  -2.780  -0.141  0.00  0.00    -0.265 OA
ATOM     15  C   UNL d   1      -3.297   1.237  -0.113  0.00  0.00     0.032 A 
ATOM     16  C   UNL d   1      -3.614  -0.117  -0.012  0.00  0.00     0.008 A 
ATOM     17  O   UNL d   1       3.275   2.665   0.138  0.00  0.00    -0.271 OA
ATOM     18  C   UNL d   1      -1.696   3.136  -0.369  0.00  0.00     0.049 C 
ATOM     19  C   UNL d   1      -5.031  -0.536   0.255  0.00  0.00     0.068 C 
ATOM     20  H   UNL d   1       0.960   2.524  -0.003  0.00  0.00     0.169 HD
ENDROOT
BRANCH   5  21
ATOM     21  C   UNL d   1       3.574  -1.526   1.871  0.00  0.00     0.038 A 
ATOM     22  C   UNL d   1       2.773  -2.316   2.722  0.00  0.00     0.046 A 
ATOM     23  C   UNL d   1       3.301  -2.976   3.841  0.00  0.00     0.050 A 
ATOM     24  C   UNL d   1       4.671  -2.864   4.097  0.00  0.00     0.016 A 
ATOM     25  C   UNL d   1       5.479  -2.089   3.265  0.00  0.00     0.003 A 
ATOM     26  C   UNL d   1       4.933  -1.410   2.168  0.00  0.00     0.030 A 
BRANCH  23  27
ATOM     27  C   UNL d   1       2.412  -3.785   4.752  0.00  0.00     0.417 C 
ATOM     28  F   UNL d   1       1.087  -3.702   4.442  0.00  0.00    -0.166 F 
ATOM     29  F   UNL d   1       2.717  -5.111   4.743  0.00  0.00    -0.166 F 
ATOM     30  F   UNL d   1       2.509  -3.389   6.053  0.00  0.00    -0.166 F 
ENDBRANCH  23  27
ENDBRANCH   5  21
TORSDOF 2
