REMARK  4 active torsions:
REMARK  status: ('A' for Active; 'I' for Inactive)
REMARK    1  A    between atoms: N_2  and  C_1 
REMARK    2  A    between atoms: N_6  and  C_1 
REMARK    3  A    between atoms: C_3  and  N_2 
REMARK    4  A    between atoms: C_7  and  C_4 
ROOT
ATOM      1  C   UNL d   1       0.810  -1.877   1.731  0.00  0.00     0.041 A 
ATOM      2  C   UNL d   1       1.890  -1.535   2.578  0.00  0.00    -0.028 A 
ATOM      3  C   UNL d   1       0.239  -3.158   1.817  0.00  0.00     0.030 A 
ATOM      4  C   UNL d   1       2.340  -2.503   3.502  0.00  0.00     0.010 A 
ATOM      5  C   UNL d   1       0.711  -4.098   2.729  0.00  0.00     0.002 A 
ATOM      6  C   UNL d   1       1.760  -3.771   3.572  0.00  0.00     0.001 A 
ENDROOT
BRANCH   1   7
ATOM      7  N   UNL d   1       0.351  -0.951   0.758  0.00  0.00    -0.333 N 
ATOM      8  H   UNL d   1       1.079  -0.400   0.322  0.00  0.00     0.168 HD
BRANCH   7   9
ATOM      9  C   UNL d   1      -0.803  -1.007   0.020  0.00  0.00     0.173 C 
ATOM     10  S   UNL d   1      -0.698  -0.528  -1.586  0.00  0.00    -0.041 SA
BRANCH   9  11
ATOM     11  N   UNL d   1      -1.975  -1.371   0.672  0.00  0.00    -0.367 N 
ATOM     12  C   UNL d   1      -3.164  -1.807  -0.054  0.00  0.00     0.151 C 
ATOM     13  C   UNL d   1      -2.234  -0.914   2.036  0.00  0.00     0.151 C 
ENDBRANCH   9  11
ENDBRANCH   7   9
ENDBRANCH   1   7
BRANCH   2  14
ATOM     14  C   UNL d   1       2.490  -0.131   2.620  0.00  0.00     0.013 C 
ATOM     15  C   UNL d   1       1.853   0.669   3.763  0.00  0.00     0.015 C 
ATOM     16  C   UNL d   1       4.020  -0.113   2.731  0.00  0.00     0.015 C 
ENDBRANCH   2  14
TORSDOF 4
