REMARK  6 active torsions:
REMARK  status: ('A' for Active; 'I' for Inactive)
REMARK    1  A    between atoms: C_2  and  C_1 
REMARK       I    between atoms: N_3  and  C_2 
REMARK    2  A    between atoms: C_10  and  C_6 
REMARK    3  A    between atoms: C_11  and  C_10 
REMARK       I    between atoms: N_15  and  C_11 
REMARK    4  A    between atoms: C_12  and  C_14 
REMARK    5  A    between atoms: O_26  and  C_12 
REMARK    6  A    between atoms: C_19  and  N_15 
ROOT
ATOM      1  C   UNL d   1       1.632  -5.456  -2.205  0.00  0.00     0.256 C 
ATOM      2  N   UNL d   1       0.634  -5.230  -1.250  0.00  0.00    -0.332 N 
ATOM      3  C   UNL d   1      -0.083  -3.930  -1.205  0.00  0.00     0.188 C 
ATOM      4  C   UNL d   1       0.638  -2.938  -0.266  0.00  0.00     0.241 C 
ATOM      5  N   UNL d   1       1.209  -3.487   0.867  0.00  0.00    -0.358 N 
ATOM      6  O   UNL d   1       1.982  -4.605  -3.018  0.00  0.00    -0.267 OA
ATOM      7  O   UNL d   1       0.548  -1.717  -0.363  0.00  0.00    -0.271 OA
ATOM      8  C   UNL d   1       0.761  -5.812   0.094  0.00  0.00     0.147 C 
ATOM      9  C   UNL d   1       1.620  -4.878   0.956  0.00  0.00     0.142 C 
ATOM     10  H   UNL d   1       1.652  -2.805   1.471  0.00  0.00     0.162 HD
ENDROOT
BRANCH   3  11
ATOM     11  C   UNL d   1      -0.517  -3.287  -2.530  0.00  0.00     0.138 C 
BRANCH  11  12
ATOM     12  C   UNL d   1      -1.589  -4.127  -3.190  0.00  0.00     0.224 C 
ATOM     13  N   UNL d   1      -1.682  -3.914  -4.559  0.00  0.00    -0.327 N 
ATOM     14  H   UNL d   1      -0.972  -3.326  -4.980  0.00  0.00     0.169 HD
ATOM     15  O   UNL d   1      -2.296  -4.882  -2.532  0.00  0.00    -0.273 OA
BRANCH  13  16
ATOM     16  C   UNL d   1      -2.535  -4.604  -5.449  0.00  0.00     0.035 A 
ATOM     17  C   UNL d   1      -3.582  -5.429  -5.026  0.00  0.00     0.047 A 
ATOM     18  C   UNL d   1      -4.304  -6.201  -5.946  0.00  0.00     0.041 A 
ATOM     19  C   UNL d   1      -4.018  -6.096  -7.311  0.00  0.00     0.018 A 
ATOM     20  C   UNL d   1      -3.014  -5.231  -7.748  0.00  0.00     0.003 A 
ATOM     21  C   UNL d   1      -2.277  -4.488  -6.821  0.00  0.00     0.029 A 
BRANCH  18  22
ATOM     22  C   UNL d   1      -5.334  -7.183  -5.510  0.00  0.00     0.293 C 
ATOM     23  O   UNL d   1      -6.085  -7.758  -6.280  0.00  0.00    -0.259 OA
BRANCH  22  24
ATOM     24  O   UNL d   1      -5.250  -7.387  -4.173  0.00  0.00    -0.323 OA
ATOM     25  C   UNL d   1      -6.057  -8.447  -3.658  0.00  0.00     0.213 C 
ENDBRANCH  22  24
ENDBRANCH  18  22
ENDBRANCH  13  16
ENDBRANCH  11  12
ENDBRANCH   3  11
BRANCH   1  26
ATOM     26  C   UNL d   1       2.229  -6.791  -2.222  0.00  0.00     0.063 A 
ATOM     27  C   UNL d   1       3.580  -7.042  -2.351  0.00  0.00     0.091 A 
ATOM     28  S   UNL d   1       3.981  -8.693  -2.280  0.00  0.00    -0.065 SA
ATOM     29 CL   UNL d   1       4.869  -5.909  -2.494  0.00  0.00    -0.075 Cl
ATOM     30  C   UNL d   1       2.353  -9.116  -2.114  0.00  0.00     0.077 A 
ATOM     31  C   UNL d   1       1.507  -8.039  -2.135  0.00  0.00     0.050 A 
ATOM     32 CL   UNL d   1       1.909 -10.762  -1.924  0.00  0.00    -0.076 Cl
ENDBRANCH   1  26
TORSDOF 6
