REMARK  7 active torsions:
REMARK  status: ('A' for Active; 'I' for Inactive)
REMARK    1  A    between atoms: S_2  and  C_1 
REMARK    2  A    between atoms: C_12  and  S_2 
REMARK    3  A    between atoms: S_3  and  C_4 
REMARK    4  A    between atoms: N_13  and  S_3 
REMARK    5  A    between atoms: C_17  and  N_13 
REMARK    6  A    between atoms: C_16  and  C_18 
REMARK    7  A    between atoms: C_18  and  C_17 
ROOT
ATOM      1  C   UNL d   1       1.464  -0.742  -0.049  0.00  0.00     0.072 A 
ATOM      2  C   UNL d   1       0.227   1.237  -0.070  0.00  0.00     0.116 A 
ATOM      3  C   UNL d   1       1.495   0.684  -0.083  0.00  0.00     0.056 A 
ATOM      4  S   UNL d   1      -0.984   0.032  -0.044  0.00  0.00    -0.087 SA
ATOM      5  C   UNL d   1       0.174  -1.228  -0.030  0.00  0.00     0.074 A 
ENDROOT
BRANCH   2   6
ATOM      6  S   UNL d   1      -0.292   2.943  -0.057  0.00  0.00     0.248 S 
ATOM      7  O   UNL d   1       0.446   3.543  -1.147  0.00  0.00    -0.205 OA
ATOM      8  O   UNL d   1      -1.735   2.971   0.004  0.00  0.00    -0.205 OA
BRANCH   6   9
ATOM      9  N   UNL d   1       0.331   3.591   1.374  0.00  0.00    -0.215 NA
ATOM     10  H   UNL d   1       0.551   4.587   1.221  0.00  0.00     0.140 HD
BRANCH   9  11
ATOM     11  C   UNL d   1      -0.542   3.456   2.569  0.00  0.00     0.110 C 
BRANCH  11  12
ATOM     12  C   UNL d   1       0.118   4.086   3.803  0.00  0.00     0.072 C 
BRANCH  12  13
ATOM     13  C   UNL d   1       0.390   5.567   3.674  0.00  0.00     0.010 A 
ATOM     14  N   UNL d   1       0.137   6.159   2.475  0.00  0.00    -0.369 N 
ATOM     15  C   UNL d   1       0.382   7.479   2.360  0.00  0.00     0.088 A 
ATOM     16  HN  UNL d   1      -0.225   5.620   1.688  1.00  0.00     0.165 HD
ATOM     17  C   UNL d   1       0.890   8.257   3.384  0.00  0.00     0.017 A 
ATOM     18  C   UNL d   1       1.158   7.641   4.601  0.00  0.00     0.003 A 
ATOM     19  C   UNL d   1       0.906   6.280   4.754  0.00  0.00     0.025 A 
ENDBRANCH  12  13
ENDBRANCH  11  12
ENDBRANCH   9  11
ENDBRANCH   6   9
ENDBRANCH   2   6
BRANCH   1  20
ATOM     20  S   UNL d   1       2.880  -1.741   0.004  0.00  0.00     0.207 S 
ATOM     21  O   UNL d   1       3.872  -0.928   0.682  0.00  0.00    -0.217 OA
ATOM     22  O   UNL d   1       2.420  -3.004   0.546  0.00  0.00    -0.217 OA
BRANCH  20  23
ATOM     23  C   UNL d   1       3.376  -1.979  -1.676  0.00  0.00     0.064 A 
ATOM     24  C   UNL d   1       4.297  -1.100  -2.255  0.00  0.00     0.024 A 
ATOM     25  C   UNL d   1       4.746  -1.334  -3.556  0.00  0.00     0.002 A 
ATOM     26  C   UNL d   1       4.288  -2.446  -4.264  0.00  0.00     0.000 A 
ATOM     27  C   UNL d   1       3.380  -3.329  -3.677  0.00  0.00     0.002 A 
ATOM     28  C   UNL d   1       2.923  -3.100  -2.380  0.00  0.00     0.024 A 
ENDBRANCH  20  23
ENDBRANCH   1  20
TORSDOF 7
