REMARK  8 active torsions:
REMARK  status: ('A' for Active; 'I' for Inactive)
REMARK    1  A    between atoms: N_3  and  C_1 
REMARK    2  A    between atoms: N_7  and  C_1 
REMARK    3  A    between atoms: C_2  and  N_8 
REMARK    4  A    between atoms: N_6  and  C_2 
REMARK    5  A    between atoms: C_4  and  N_3 
REMARK    6  A    between atoms: C_13  and  N_6 
REMARK    7  A    between atoms: N_8  and  N_7 
REMARK    8  A    between atoms: O_19  and  C_17 
ROOT
ATOM      1  N   UNL d   1      -1.542  -1.275  -0.531  0.00  0.00    -0.274 N 
ATOM      2  H   UNL d   1      -1.596  -0.837   0.389  0.00  0.00     0.189 HD
ENDROOT
BRANCH   1   3
ATOM      3  C   UNL d   1      -1.667  -2.645  -0.581  0.00  0.00     0.191 C 
ATOM      4  S   UNL d   1      -2.123  -3.454   0.808  0.00  0.00    -0.039 SA
BRANCH   3   5
ATOM      5  N   UNL d   1      -1.452  -3.180  -1.833  0.00  0.00    -0.332 N 
ATOM      6  H   UNL d   1      -1.900  -2.655  -2.574  0.00  0.00     0.168 HD
BRANCH   5   7
ATOM      7  C   UNL d   1      -0.950  -4.450  -2.178  0.00  0.00     0.036 A 
ATOM      8  C   UNL d   1      -0.098  -5.185  -1.342  0.00  0.00     0.066 A 
ATOM      9  C   UNL d   1       0.444  -6.397  -1.767  0.00  0.00     0.070 A 
ATOM     10  C   UNL d   1       0.119  -6.885  -3.035  0.00  0.00     0.037 A 
ATOM     11  C   UNL d   1      -0.718  -6.157  -3.879  0.00  0.00     0.005 A 
ATOM     12  C   UNL d   1      -1.238  -4.934  -3.458  0.00  0.00     0.029 A 
BRANCH   9  13
ATOM     13  O   UNL d   1       1.314  -7.184  -1.063  0.00  0.00    -0.356 OA
ATOM     14  C   UNL d   1       1.719  -6.714   0.218  0.00  0.00     0.210 C 
ENDBRANCH   9  13
ENDBRANCH   5   7
ENDBRANCH   3   5
ENDBRANCH   1   3
BRANCH   1  15
ATOM     15  N   UNL d   1      -0.778  -0.585  -1.492  0.00  0.00    -0.274 N 
ATOM     16  H   UNL d   1      -0.512  -1.133  -2.306  0.00  0.00     0.189 HD
BRANCH  15  17
ATOM     17  C   UNL d   1       0.187   0.312  -1.095  0.00  0.00     0.186 C 
ATOM     18  S   UNL d   1       0.676   0.602   0.474  0.00  0.00    -0.040 SA
BRANCH  17  19
ATOM     19  N   UNL d   1       0.727   1.063  -2.108  0.00  0.00    -0.361 N 
ATOM     20  H   UNL d   1       1.372   1.768  -1.767  0.00  0.00     0.162 HD
BRANCH  19  21
ATOM     21  C   UNL d   1       0.037   1.358  -3.357  0.00  0.00     0.088 C 
ATOM     22  C   UNL d   1      -1.281   2.155  -3.166  0.00  0.00     0.009 C 
ATOM     23  C   UNL d   1      -1.466   2.776  -4.550  0.00  0.00     0.011 C 
ATOM     24  C   UNL d   1      -1.042   3.414  -2.311  0.00  0.00     0.007 C 
ATOM     25  C   UNL d   1      -0.100   3.462  -4.524  0.00  0.00    -0.012 C 
ATOM     26  C   UNL d   1       0.848   2.267  -4.302  0.00  0.00     0.030 C 
ATOM     27  C   UNL d   1      -0.177   4.287  -3.228  0.00  0.00     0.005 C 
ENDBRANCH  19  21
ENDBRANCH  17  19
ENDBRANCH  15  17
ENDBRANCH   1  15
TORSDOF 8
