REMARK  2 active torsions:
REMARK  status: ('A' for Active; 'I' for Inactive)
REMARK    1  A    between atoms: O_19  and  C_12 
REMARK    2  A    between atoms: O_20  and  C_16 
ROOT
ATOM      1  C   UNL d   1      -1.399   1.585   0.462  0.00  0.00     0.024 C 
ATOM      2  C   UNL d   1      -3.138   3.305   2.337  0.00  0.00    -0.014 C 
ATOM      3  C   UNL d   1      -2.117   2.221   2.758  0.00  0.00     0.001 C 
ATOM      4  C   UNL d   1      -0.011   0.921   0.340  0.00  0.00    -0.041 A 
ATOM      5  C   UNL d   1      -2.159   1.080   1.750  0.00  0.00    -0.001 C 
ATOM      6  C   UNL d   1      -0.010  -0.490   0.558  0.00  0.00    -0.048 A 
ATOM      7  C   UNL d   1       1.223   1.521   0.012  0.00  0.00    -0.052 A 
ATOM      8  C   UNL d   1      -2.884   3.694   0.857  0.00  0.00     0.013 C 
ATOM      9  C   UNL d   1      -1.555   3.133   0.302  0.00  0.00     0.010 C 
ATOM     10  C   UNL d   1      -1.715  -0.281   2.279  0.00  0.00     0.010 C 
ATOM     11  C   UNL d   1      -2.328   2.086   4.251  0.00  0.00     0.008 C 
ATOM     12  C   UNL d   1      -2.804   4.371   3.403  0.00  0.00     0.126 C 
ATOM     13  C   UNL d   1       1.134  -1.279   0.361  0.00  0.00     0.044 A 
ATOM     14  C   UNL d   1       2.369   0.703  -0.139  0.00  0.00     0.044 A 
ATOM     15  C   UNL d   1      -1.251  -1.148   1.115  0.00  0.00     0.039 C 
ATOM     16  C   UNL d   1       2.330  -0.684   0.002  0.00  0.00     0.069 A 
ATOM     17  C   UNL d   1      -2.464   3.564   4.681  0.00  0.00     0.033 C 
ATOM     18  C   UNL d   1      -4.625   2.875   2.475  0.00  0.00     0.018 C 
ATOM     19  C   UNL d   1       1.457   2.998  -0.137  0.00  0.00     0.049 C 
ENDROOT
BRANCH  12  20
ATOM     20  O   UNL d   1      -3.861   5.291   3.641  0.00  0.00    -0.395 OA
ATOM     21  H   UNL d   1      -4.560   4.845   4.148  0.00  0.00     0.210 HD
ENDBRANCH  12  20
BRANCH  16  22
ATOM     22  O   UNL d   1       3.520  -1.327  -0.193  0.00  0.00    -0.356 OA
ATOM     23  C   UNL d   1       3.467  -2.747  -0.275  0.00  0.00     0.210 C 
ENDBRANCH  16  22
TORSDOF 2
