REMARK  7 active torsions:
REMARK  status: ('A' for Active; 'I' for Inactive)
REMARK    1  A    between atoms: N_4  and  C_1 
REMARK    2  A    between atoms: N_7  and  C_1 
REMARK    3  A    between atoms: O_11  and  C_2 
REMARK    4  A    between atoms: O_12  and  C_5 
REMARK    5  A    between atoms: C_13  and  N_7 
REMARK    6  A    between atoms: C_9  and  C_16 
REMARK    7  A    between atoms: C_16  and  C_13 
ROOT
ATOM      1  C   UNL d   1       5.481  -4.337   1.736  0.00  0.00     0.102 A 
ATOM      2  C   UNL d   1       6.415  -4.118   2.757  0.00  0.00     0.101 A 
ATOM      3  C   UNL d   1       4.960  -3.238   1.027  0.00  0.00     0.046 A 
ATOM      4  C   UNL d   1       6.785  -2.811   3.075  0.00  0.00     0.040 A 
ATOM      5  C   UNL d   1       5.325  -1.916   1.351  0.00  0.00    -0.054 A 
ATOM      6  C   UNL d   1       6.254  -1.727   2.378  0.00  0.00     0.010 A 
ENDROOT
BRANCH   5   7
ATOM      7  C   UNL d   1       4.691  -0.757   0.592  0.00  0.00     0.058 C 
BRANCH   7   8
ATOM      8  C   UNL d   1       5.144   0.621   1.081  0.00  0.00     0.126 C 
BRANCH   8   9
ATOM      9  N   UNL d   1       4.517   1.769   0.433  0.00  0.00    -0.367 N 
ATOM     10  H   UNL d   1       3.551   1.631   0.184  0.00  0.00     0.161 HD
BRANCH   9  11
ATOM     11  C   UNL d   1       4.873   3.082   0.732  0.00  0.00     0.169 C 
ATOM     12  S   UNL d   1       6.127   3.438   1.809  0.00  0.00    -0.041 SA
BRANCH  11  13
ATOM     13  N   UNL d   1       4.130   4.063   0.057  0.00  0.00    -0.367 N 
ATOM     14  C   UNL d   1       3.135   3.803  -0.983  0.00  0.00     0.151 C 
ATOM     15  C   UNL d   1       4.372   5.498   0.257  0.00  0.00     0.151 C 
ENDBRANCH  11  13
ENDBRANCH   9  11
ENDBRANCH   8   9
ENDBRANCH   7   8
ENDBRANCH   5   7
BRANCH   1  16
ATOM     16  O   UNL d   1       5.118  -5.627   1.452  0.00  0.00    -0.353 OA
ATOM     17  C   UNL d   1       3.791  -5.821   0.977  0.00  0.00     0.210 C 
ENDBRANCH   1  16
BRANCH   2  18
ATOM     18  O   UNL d   1       6.995  -5.045   3.583  0.00  0.00    -0.353 OA
ATOM     19  C   UNL d   1       7.246  -6.330   3.035  0.00  0.00     0.210 C 
ENDBRANCH   2  18
TORSDOF 7
