REMARK  1 active torsions:
REMARK  status: ('A' for Active; 'I' for Inactive)
REMARK    1  A    between atoms: C_3  and  C_1 
ROOT
ATOM      1  C   UNL d   1      -2.018  -2.554   0.057  0.00  0.00     0.048 C 
ATOM      2  C   UNL d   1      -3.156  -3.086  -0.435  0.00  0.00     0.125 C 
ATOM      3  N   UNL d   1      -4.878  -1.747  -1.819  0.00  0.00    -0.191 NA
ATOM      4  N   UNL d   1      -3.662  -5.579   0.016  0.00  0.00    -0.191 NA
ATOM      5  C   UNL d   1      -4.098  -2.344  -1.199  0.00  0.00     0.111 C 
ATOM      6  C   UNL d   1      -3.437  -4.461  -0.197  0.00  0.00     0.111 C 
ENDROOT
BRANCH   1   7
ATOM      7  C   UNL d   1      -1.563  -1.198  -0.013  0.00  0.00    -0.006 A 
ATOM      8  C   UNL d   1      -2.362  -0.075   0.010  0.00  0.00     0.100 A 
ATOM      9  N   UNL d   1      -1.548   1.027  -0.030  0.00  0.00    -0.364 N 
ATOM     10  C   UNL d   1      -0.228   0.643  -0.043  0.00  0.00     0.043 A 
ATOM     11  H   UNL d   1      -1.867   1.986  -0.031  0.00  0.00     0.165 HD
ATOM     12  C   UNL d   1      -0.202  -0.753  -0.043  0.00  0.00     0.002 A 
ATOM     13  C   UNL d   1       0.931   1.428  -0.051  0.00  0.00     0.030 A 
ATOM     14  C   UNL d   1       1.055  -1.395  -0.068  0.00  0.00     0.014 A 
ATOM     15  C   UNL d   1       2.225  -0.624  -0.080  0.00  0.00     0.001 A 
ATOM     16  C   UNL d   1       2.161   0.767  -0.067  0.00  0.00     0.002 A 
ENDBRANCH   1   7
TORSDOF 1
