REMARK  4 active torsions:
REMARK  status: ('A' for Active; 'I' for Inactive)
REMARK    1  A    between atoms: N_12  and  N_5 
REMARK    2  A    between atoms: C_16  and  N_7 
REMARK       I    between atoms: C_13  and  N_12 
REMARK    3  A    between atoms: C_17  and  C_13 
REMARK    4  A    between atoms: N_15  and  C_17 
ROOT
ATOM      1  C   UNL d   1       0.324  -0.651   0.686  0.00  0.00     0.147 A 
ATOM      2  C   UNL d   1       0.355   0.716   0.493  0.00  0.00     0.149 A 
ATOM      3  N   UNL d   1      -0.746  -1.379   1.105  0.00  0.00    -0.328 N 
ATOM      4  HN  UNL d   1      -0.688  -2.375   1.315  1.00  0.00     0.169 HD
ATOM      5  N   UNL d   1      -1.970   0.671   0.936  0.00  0.00    -0.203 N 
ATOM      6  C   UNL d   1      -0.848   1.493   0.694  0.00  0.00     0.298 C 
ATOM      7  N   UNL d   1       1.595  -1.106   0.333  0.00  0.00    -0.292 N 
ATOM      8  N   UNL d   1       1.593   1.150   0.114  0.00  0.00    -0.344 N 
ATOM      9  HN  UNL d   1       1.896   2.109  -0.060  1.00  0.00     0.167 HD
ATOM     10  C   UNL d   1      -1.854  -0.695   1.218  0.00  0.00     0.104 C 
ATOM     11  C   UNL d   1       2.304   0.048   0.026  0.00  0.00     0.191 A 
ATOM     12  O   UNL d   1      -0.887   2.725   0.722  0.00  0.00    -0.263 OA
ATOM     13  C   UNL d   1      -3.069  -1.431   1.737  0.00  0.00     0.091 C 
ENDROOT
BRANCH   5  14
ATOM     14  N   UNL d   1      -3.254   1.285   0.891  0.00  0.00    -0.258 N 
ATOM     15  C   UNL d   1      -3.644   1.893  -0.294  0.00  0.00     0.265 C 
ATOM     16  O   UNL d   1      -2.994   1.819  -1.338  0.00  0.00    -0.270 OA
ATOM     17  H   UNL d   1      -3.626   1.615   1.771  0.00  0.00     0.190 HD
BRANCH  15  18
ATOM     18  C   UNL d   1      -5.028   2.542  -0.257  0.00  0.00     0.376 C 
BRANCH  18  19
ATOM     19  N   UNL d   1      -5.136   3.845   0.405  0.00  0.00     0.097 N 
ATOM     20  C   UNL d   1      -4.285   4.900  -0.146  0.00  0.00     0.273 C 
ATOM     21  C   UNL d   1      -4.842   6.267   0.272  0.00  0.00     0.030 C 
ATOM     22  C   UNL d   1      -5.047   6.383   1.782  0.00  0.00     0.003 C 
ATOM     23  C   UNL d   1      -5.750   5.156   2.361  0.00  0.00     0.030 C 
ATOM     24  C   UNL d   1      -5.132   3.848   1.860  0.00  0.00     0.273 C 
ENDBRANCH  18  19
ENDBRANCH  15  18
ENDBRANCH   5  14
BRANCH   7  25
ATOM     25  C   UNL d   1       2.115  -2.440   0.275  0.00  0.00     0.042 A 
ATOM     26  C   UNL d   1       1.399  -3.530   0.787  0.00  0.00     0.030 A 
ATOM     27  C   UNL d   1       1.927  -4.825   0.720  0.00  0.00     0.002 A 
ATOM     28  C   UNL d   1       3.171  -5.051   0.136  0.00  0.00     0.000 A 
ATOM     29  C   UNL d   1       3.890  -3.981  -0.383  0.00  0.00     0.002 A 
ATOM     30  C   UNL d   1       3.371  -2.684  -0.312  0.00  0.00     0.030 A 
ENDBRANCH   7  25
TORSDOF 4
