REMARK  4 active torsions:
REMARK  status: ('A' for Active; 'I' for Inactive)
REMARK       I    between atoms: N_3  and  C_1 
REMARK    1  A    between atoms: C_8  and  C_1 
REMARK    2  A    between atoms: S_5  and  C_2 
REMARK    3  A    between atoms: C_4  and  N_3 
REMARK    4  A    between atoms: C_12  and  S_5 
ROOT
ATOM      1  C   UNL d   1       3.084  -3.528   0.569  0.00  0.00     0.101 A 
ATOM      2  C   UNL d   1       2.588  -2.603  -0.360  0.00  0.00     0.069 A 
ATOM      3  N   UNL d   1       2.582  -4.789   0.669  0.00  0.00    -0.358 N 
ATOM      4  HN  UNL d   1       2.938  -5.448   1.361  1.00  0.00     0.166 HD
ATOM      5  C   UNL d   1       1.631  -3.027  -1.284  0.00  0.00     0.034 A 
ATOM      6  C   UNL d   1       1.593  -5.134  -0.187  0.00  0.00     0.089 A 
ATOM      7  C   UNL d   1       1.104  -4.309  -1.182  0.00  0.00     0.019 A 
ENDROOT
BRANCH   2   8
ATOM      8  N   UNL d   1       3.048  -1.277  -0.473  0.00  0.00    -0.320 N 
ATOM      9  C   UNL d   1       2.640  -0.199   0.295  0.00  0.00     0.256 C 
ATOM     10  O   UNL d   1       3.410   0.766   0.329  0.00  0.00    -0.267 OA
ATOM     11  H   UNL d   1       4.061  -1.202  -0.533  0.00  0.00     0.169 HD
BRANCH   9  12
ATOM     12  C   UNL d   1       1.367  -0.121   1.087  0.00  0.00     0.032 A 
ATOM     13  C   UNL d   1       1.296   0.896   2.055  0.00  0.00     0.017 A 
ATOM     14  C   UNL d   1       0.134   1.113   2.807  0.00  0.00     0.007 A 
ATOM     15  C   UNL d   1      -0.994   0.317   2.604  0.00  0.00    -0.062 A 
ATOM     16  C   UNL d   1      -0.922  -0.722   1.675  0.00  0.00     0.007 A 
ATOM     17  C   UNL d   1      -2.254   0.575   3.375  0.00  0.00     0.048 C 
ATOM     18  C   UNL d   1       0.239  -0.925   0.915  0.00  0.00     0.017 A 
ENDBRANCH   9  12
ENDBRANCH   2   8
BRANCH   1  19
ATOM     19  S   UNL d   1       4.291  -3.075   1.798  0.00  0.00    -0.070 SA
BRANCH  19  20
ATOM     20  C   UNL d   1       5.833  -3.692   1.145  0.00  0.00     0.007 A 
ATOM     21  C   UNL d   1       6.935  -2.827   1.131  0.00  0.00     0.019 A 
ATOM     22  C   UNL d   1       8.204  -3.284   0.765  0.00  0.00     0.008 A 
ATOM     23  C   UNL d   1       8.402  -4.623   0.410  0.00  0.00    -0.062 A 
ATOM     24  C   UNL d   1       7.296  -5.484   0.398  0.00  0.00     0.008 A 
ATOM     25  C   UNL d   1       9.780  -5.109   0.077  0.00  0.00     0.048 C 
ATOM     26  C   UNL d   1       6.025  -5.024   0.766  0.00  0.00     0.019 A 
ENDBRANCH  19  20
ENDBRANCH   1  19
TORSDOF 4
