REMARK  1 active torsions:
REMARK  status: ('A' for Active; 'I' for Inactive)
REMARK    1  A    between atoms: O_12  and  C_9 
ROOT
ATOM      1  C   UNL d   1      -0.015   0.617   0.018  0.00  0.00     0.092 A 
ATOM      2  C   UNL d   1       0.030  -0.780   0.013  0.00  0.00     0.044 A 
ATOM      3  C   UNL d   1      -1.230  -1.542   0.081  0.00  0.00     0.165 C 
ATOM      4  C   UNL d   1       1.185   1.351   0.055  0.00  0.00     0.006 A 
ATOM      5  O   UNL d   1      -1.194   1.320  -0.005  0.00  0.00    -0.339 OA
ATOM      6  C   UNL d   1      -2.361   0.592  -0.428  0.00  0.00     0.067 C 
ATOM      7  C   UNL d   1      -2.473  -0.738   0.313  0.00  0.00     0.121 C 
ATOM      8  C   UNL d   1       1.248  -1.457  -0.021  0.00  0.00     0.021 A 
ATOM      9  C   UNL d   1       2.419   0.663   0.029  0.00  0.00     0.076 A 
ATOM     10  O   UNL d   1      -1.237  -2.768   0.022  0.00  0.00    -0.292 OA
ATOM     11  C   UNL d   1       2.441  -0.734  -0.021  0.00  0.00     0.038 A 
ATOM     12  C   UNL d   1       1.181   2.858   0.120  0.00  0.00     0.054 C 
ATOM     13  C   UNL d   1      -2.359   0.421  -1.958  0.00  0.00     0.046 C 
ATOM     14  C   UNL d   1      -3.568   1.465  -0.050  0.00  0.00     0.046 C 
ENDROOT
BRANCH   9  15
ATOM     15  O   UNL d   1       3.541   1.452   0.053  0.00  0.00    -0.355 OA
ATOM     16  C   UNL d   1       4.804   0.798   0.027  0.00  0.00     0.210 C 
ENDBRANCH   9  15
TORSDOF 1
