REMARK  2 active torsions:
REMARK  status: ('A' for Active; 'I' for Inactive)
REMARK    1  A    between atoms: C_7  and  C_1 
REMARK    2  A    between atoms: O_10  and  C_2 
ROOT
ATOM      1  C   UNL d   1       2.442  -0.694  -0.006  0.00  0.00     0.076 A 
ATOM      2  C   UNL d   1       1.292  -1.403   0.053  0.00  0.00     0.094 A 
ATOM      3  C   UNL d   1       2.384   0.807   0.027  0.00  0.00     0.259 A 
ATOM      4  C   UNL d   1      -0.017  -0.723   0.072  0.00  0.00     0.025 A 
ATOM      5  N   UNL d   1       1.146   1.390   0.052  0.00  0.00    -0.322 N 
ATOM      6  C   UNL d   1      -0.052   0.675   0.046  0.00  0.00     0.048 A 
ATOM      7  O   UNL d   1       3.392   1.500   0.027  0.00  0.00    -0.267 OA
ATOM      8  C   UNL d   1      -1.232  -1.422   0.081  0.00  0.00     0.023 A 
ATOM      9  C   UNL d   1      -1.262   1.368  -0.003  0.00  0.00     0.031 A 
ATOM     10  C   UNL d   1      -2.457  -0.741   0.031  0.00  0.00    -0.061 A 
ATOM     11  C   UNL d   1      -2.462   0.658  -0.030  0.00  0.00     0.009 A 
ATOM     12  C   UNL d   1      -3.752  -1.498   0.017  0.00  0.00     0.048 C 
ATOM     13  H   UNL d   1       1.139   2.401   0.062  0.00  0.00     0.169 HD
ENDROOT
BRANCH   1  14
ATOM     14  C   UNL d   1       3.756  -1.354  -0.129  0.00  0.00    -0.018 A 
ATOM     15  C   UNL d   1       4.290  -1.625  -1.397  0.00  0.00     0.012 A 
ATOM     16  C   UNL d   1       5.504  -2.304  -1.524  0.00  0.00     0.001 A 
ATOM     17  C   UNL d   1       6.200  -2.706  -0.385  0.00  0.00     0.000 A 
ATOM     18  C   UNL d   1       5.684  -2.428   0.881  0.00  0.00     0.001 A 
ATOM     19  C   UNL d   1       4.463  -1.762   1.010  0.00  0.00     0.012 A 
ENDBRANCH   1  14
BRANCH   2  20
ATOM     20  O   UNL d   1       1.223  -2.786   0.067  0.00  0.00    -0.359 OA
ATOM     21  H   UNL d   1       2.123  -3.150   0.128  0.00  0.00     0.217 HD
ENDBRANCH   2  20
TORSDOF 2
