REMARK  6 active torsions:
REMARK  status: ('A' for Active; 'I' for Inactive)
REMARK    1  A    between atoms: C_8  and  C_1 
REMARK    2  A    between atoms: C_12  and  C_2 
REMARK    3  A    between atoms: C_7  and  N_3 
REMARK    4  A    between atoms: N_6  and  C_10 
REMARK    5  A    between atoms: O_15  and  C_8 
REMARK    6  A    between atoms: C_22  and  O_15 
ROOT
ATOM      1  C   UNL d   1      -0.345  -1.198   0.139  0.00  0.00     0.069 A 
ATOM      2  C   UNL d   1       0.977  -0.737   0.045  0.00  0.00     0.066 A 
ATOM      3  N   UNL d   1       0.927   0.673  -0.008  0.00  0.00    -0.314 N 
ATOM      4  C   UNL d   1      -1.191  -0.062   0.121  0.00  0.00     0.045 A 
ATOM      5  C   UNL d   1      -0.411   1.070   0.049  0.00  0.00     0.014 A 
ATOM      6  C   UNL d   1      -0.911   2.473  -0.062  0.00  0.00     0.068 C 
ENDROOT
BRANCH   3   7
ATOM      7  C   UNL d   1       2.042   1.570  -0.121  0.00  0.00     0.042 A 
ATOM      8  C   UNL d   1       2.090   2.735   0.656  0.00  0.00     0.066 A 
ATOM      9  C   UNL d   1       3.212   3.575   0.584  0.00  0.00     0.105 A 
ATOM     10  C   UNL d   1       4.301   3.247  -0.232  0.00  0.00     0.036 A 
ATOM     11  C   UNL d   1       4.246   2.093  -1.011  0.00  0.00     0.005 A 
ATOM     12  C   UNL d   1       3.115   1.272  -0.975  0.00  0.00     0.030 A 
BRANCH   9  13
ATOM     13  N   UNL d   1       3.245   4.809   1.378  0.00  0.00    -0.116 N 
ATOM     14  O   UNL d   1       2.211   5.134   1.979  0.00  0.00    -0.532 OA
ATOM     15  O   UNL d   1       4.300   5.459   1.391  0.00  0.00    -0.532 OA
ENDBRANCH   9  13
ENDBRANCH   3   7
BRANCH   2  16
ATOM     16  C   UNL d   1       2.212  -1.561   0.020  0.00  0.00    -0.008 A 
ATOM     17  C   UNL d   1       2.288  -2.695  -0.805  0.00  0.00     0.014 A 
ATOM     18  C   UNL d   1       3.454  -3.464  -0.876  0.00  0.00     0.001 A 
ATOM     19  C   UNL d   1       4.581  -3.085  -0.156  0.00  0.00     0.000 A 
ATOM     20  C   UNL d   1       4.525  -1.970   0.676  0.00  0.00     0.001 A 
ATOM     21  C   UNL d   1       3.338  -1.238   0.792  0.00  0.00     0.014 A 
ENDBRANCH   2  16
BRANCH   1  22
ATOM     22  C   UNL d   1      -0.793  -2.583   0.251  0.00  0.00     0.295 C 
ATOM     23  O   UNL d   1      -0.162  -3.471   0.817  0.00  0.00    -0.259 OA
BRANCH  22  24
ATOM     24  O   UNL d   1      -1.982  -2.784  -0.391  0.00  0.00    -0.318 OA
BRANCH  24  25
ATOM     25  C   UNL d   1      -2.444  -4.142  -0.432  0.00  0.00     0.174 C 
ATOM     26  C   UNL d   1      -1.775  -4.902  -1.565  0.00  0.00     0.034 C 
ENDBRANCH  24  25
ENDBRANCH  22  24
ENDBRANCH   1  22
TORSDOF 6
