REMARK  3 active torsions:
REMARK  status: ('A' for Active; 'I' for Inactive)
REMARK    1  A    between atoms: N_18  and  C_8 
REMARK    2  A    between atoms: N_14  and  N_18 
REMARK    3  A    between atoms: C_24  and  C_23 
ROOT
ATOM      1  C   UNL d   1       1.171  -0.812  -0.154  0.00  0.00     0.150 A 
ATOM      2  C   UNL d   1       0.757   0.501  -0.037  0.00  0.00     0.105 A 
ATOM      3  N   UNL d   1       2.444  -1.246  -0.174  0.00  0.00    -0.172 N 
ATOM      4  HN  UNL d   1       2.719  -2.224  -0.263  1.00  0.00     0.186 HD
ATOM      5  N   UNL d   1       0.050  -1.588  -0.247  0.00  0.00    -0.339 N 
ATOM      6  N   UNL d   1       1.671   1.489   0.068  0.00  0.00    -0.282 N 
ATOM      7  HN  UNL d   1       1.403   2.470   0.153  1.00  0.00     0.187 HD
ATOM      8  C   UNL d   1       3.312  -0.213  -0.061  0.00  0.00     0.713 A 
ATOM      9  C   UNL d   1      -0.658   0.527  -0.057  0.00  0.00     0.022 A 
ATOM     10  C   UNL d   1      -1.083  -0.800  -0.194  0.00  0.00     0.046 A 
ATOM     11  N   UNL d   1       2.950   1.101   0.051  0.00  0.00    -0.130 N 
ATOM     12  HN  UNL d   1       3.680   1.809   0.125  1.00  0.00     0.205 HD
ATOM     13  C   UNL d   1      -1.624   1.548   0.026  0.00  0.00     0.016 A 
ATOM     14  C   UNL d   1      -2.436  -1.150  -0.259  0.00  0.00     0.030 A 
ATOM     15  C   UNL d   1      -2.979   1.212  -0.036  0.00  0.00     0.001 A 
ATOM     16  C   UNL d   1      -3.376  -0.117  -0.178  0.00  0.00     0.002 A 
ATOM     17  H   UNL d   1       0.062  -2.591  -0.344  0.00  0.00     0.167 HD
ENDROOT
BRANCH   8  18
ATOM     18  N   UNL d   1       4.674  -0.551  -0.062  0.00  0.00    -0.131 N 
ATOM     19  H   UNL d   1       4.858  -1.538  -0.172  0.00  0.00     0.205 HD
BRANCH  18  20
ATOM     20  N   UNL d   1       5.599   0.426   0.015  0.00  0.00    -0.297 N 
ATOM     21  C   UNL d   1       6.837   0.084  -0.130  0.00  0.00     0.119 C 
ATOM     22  HN  UNL d   1       5.332   1.397   0.181  1.00  0.00     0.186 HD
BRANCH  21  23
ATOM     23  C   UNL d   1       7.888   1.121  -0.115  0.00  0.00    -0.017 A 
ATOM     24  C   UNL d   1       9.197   0.766  -0.451  0.00  0.00     0.052 A 
ATOM     25  C   UNL d   1      10.111   1.792  -0.563  0.00  0.00     0.105 A 
ATOM     26  O   UNL d   1      11.408   1.658  -0.956  0.00  0.00    -0.323 OA
ATOM     27  C   UNL d   1       9.775   3.107  -0.320  0.00  0.00     0.105 A 
ATOM     28  C   UNL d   1      11.785   3.045  -1.095  0.00  0.00     0.352 C 
ATOM     29  O   UNL d   1      10.816   3.955  -0.535  0.00  0.00    -0.323 OA
ATOM     30  C   UNL d   1       8.506   3.476   0.064  0.00  0.00     0.040 A 
ATOM     31  C   UNL d   1       7.546   2.466   0.156  0.00  0.00     0.016 A 
ENDBRANCH  21  23
ENDBRANCH  18  20
ENDBRANCH   8  18
TORSDOF 3
