REMARK  7 active torsions:
REMARK  status: ('A' for Active; 'I' for Inactive)
REMARK    1  A    between atoms: C_3  and  C_1 
REMARK    2  A    between atoms: C_6  and  C_2 
REMARK    3  A    between atoms: N_4  and  N_13 
REMARK    4  A    between atoms: O_20  and  C_6 
REMARK    5  A    between atoms: C_9  and  N_7 
REMARK    6  A    between atoms: N_13  and  C_12 
REMARK    7  A    between atoms: O_22  and  C_15 
ROOT
ATOM      1  N   UNL d   1       2.433  -4.778  -0.534  0.00  0.00    -0.242 N 
ATOM      2  HN  UNL d   1       2.974  -4.015  -0.126  1.00  0.00     0.208 HD
ATOM      3  N   UNL d   1       2.497  -5.980  -0.209  0.00  0.00    -0.285 N 
ATOM      4  HN  UNL d   1       1.973  -6.729  -0.662  1.00  0.00     0.188 HD
ENDROOT
BRANCH   1   5
ATOM      5  N   UNL d   1       1.521  -4.666  -1.519  0.00  0.00    -0.286 N 
ATOM      6  H   UNL d   1       0.920  -5.479  -1.611  0.00  0.00     0.188 HD
BRANCH   5   7
ATOM      7  C   UNL d   1       0.862  -3.422  -1.626  0.00  0.00     0.052 A 
ATOM      8  C   UNL d   1       1.476  -2.223  -1.235  0.00  0.00     0.047 A 
ATOM      9  C   UNL d   1       0.814  -0.991  -1.346  0.00  0.00     0.052 A 
ATOM     10  C   UNL d   1      -0.471  -0.968  -1.906  0.00  0.00     0.053 A 
ATOM     11  C   UNL d   1      -1.090  -2.147  -2.329  0.00  0.00     0.071 A 
ATOM     12  C   UNL d   1      -0.415  -3.364  -2.201  0.00  0.00     0.067 A 
BRANCH   9  13
ATOM     13  C   UNL d   1       1.455   0.278  -0.845  0.00  0.00     0.417 C 
ATOM     14  F   UNL d   1       2.680   0.082  -0.280  0.00  0.00    -0.166 F 
ATOM     15  F   UNL d   1       0.705   0.896   0.111  0.00  0.00    -0.166 F 
ATOM     16  F   UNL d   1       1.643   1.200  -1.828  0.00  0.00    -0.166 F 
ENDBRANCH   9  13
BRANCH  11  17
ATOM     17  O   UNL d   1      -2.353  -1.981  -2.830  0.00  0.00    -0.356 OA
ATOM     18  C   UNL d   1      -3.043  -3.155  -3.245  0.00  0.00     0.210 C 
ENDBRANCH  11  17
ENDBRANCH   5   7
ENDBRANCH   1   5
BRANCH   3  19
ATOM     19  C   UNL d   1       3.393  -6.170   0.874  0.00  0.00     0.065 A 
ATOM     20  C   UNL d   1       3.201  -7.176   1.847  0.00  0.00     0.067 A 
ATOM     21  C   UNL d   1       4.134  -7.301   2.903  0.00  0.00     0.020 A 
ATOM     22  C   UNL d   1       5.239  -6.455   3.006  0.00  0.00     0.001 A 
ATOM     23  C   UNL d   1       5.442  -5.476   2.048  0.00  0.00     0.002 A 
ATOM     24  C   UNL d   1       4.539  -5.347   0.994  0.00  0.00     0.032 A 
BRANCH  20  25
ATOM     25  C   UNL d   1       2.071  -8.154   1.886  0.00  0.00     0.295 C 
ATOM     26  O   UNL d   1       1.989  -9.026   2.748  0.00  0.00    -0.259 OA
BRANCH  25  27
ATOM     27  O   UNL d   1       1.177  -7.971   0.893  0.00  0.00    -0.322 OA
ATOM     28  C   UNL d   1       0.081  -8.887   0.913  0.00  0.00     0.213 C 
ENDBRANCH  25  27
ENDBRANCH  20  25
ENDBRANCH   3  19
TORSDOF 7
