REMARK  2 active torsions:
REMARK  status: ('A' for Active; 'I' for Inactive)
REMARK    1  A    between atoms: O_13  and  C_8 
REMARK    2  A    between atoms: O_16  and  C_12 
ROOT
ATOM      1  C   UNL d   1       0.522  -0.390  -0.001  0.00  0.00     0.013 A 
ATOM      2  N   UNL d   1       0.227   1.990   0.000  0.00  0.00    -0.356 N 
ATOM      3  HN  UNL d   1       0.629   2.927  -0.000  1.00  0.00     0.166 HD
ATOM      4  C   UNL d   1       1.056   0.915  -0.001  0.00  0.00     0.078 A 
ATOM      5  C   UNL d   1      -0.879  -0.509   0.001  0.00  0.00     0.021 A 
ATOM      6  C   UNL d   1      -1.709   0.607   0.004  0.00  0.00    -0.018 A 
ATOM      7  C   UNL d   1      -1.119   1.852   0.002  0.00  0.00     0.013 A 
ATOM      8  C   UNL d   1       2.460   1.045  -0.001  0.00  0.00     0.098 A 
ATOM      9  S   UNL d   1      -1.823  -2.020  -0.002  0.00  0.00    -0.128 SA
ATOM     10  C   UNL d   1       3.302  -0.083  -0.002  0.00  0.00     0.075 A 
ATOM     11  C   UNL d   1       1.388  -1.508  -0.001  0.00  0.00     0.052 A 
ATOM     12  C   UNL d   1       2.772  -1.364  -0.002  0.00  0.00     0.071 A 
ATOM     13  C   UNL d   1      -3.422  -1.171   0.011  0.00  0.00     0.084 A 
ATOM     14  C   UNL d   1      -3.180   0.337   0.007  0.00  0.00     0.052 A 
ATOM     15  C   UNL d   1      -1.893   3.134   0.002  0.00  0.00     0.068 C 
ENDROOT
BRANCH   8  16
ATOM     16  O   UNL d   1       3.192   2.215  -0.000  0.00  0.00    -0.354 OA
ATOM     17  C   UNL d   1       2.488   3.451   0.003  0.00  0.00     0.210 C 
ENDBRANCH   8  16
BRANCH  12  18
ATOM     18  O   UNL d   1       3.474  -2.535  -0.002  0.00  0.00    -0.356 OA
ATOM     19  C   UNL d   1       4.892  -2.441  -0.003  0.00  0.00     0.210 C 
ENDBRANCH  12  18
TORSDOF 2
