REMARK  6 active torsions:
REMARK  status: ('A' for Active; 'I' for Inactive)
REMARK    1  A    between atoms: C_6  and  C_2 
REMARK       I    between atoms: C_9  and  N_4 
REMARK    2  A    between atoms: C_19  and  C_9 
REMARK    3  A    between atoms: C_12  and  C_23 
REMARK    4  A    between atoms: O_18  and  C_12 
REMARK    5  A    between atoms: C_22  and  C_19 
REMARK    6  A    between atoms: C_23  and  C_22 
ROOT
ATOM      1  C   UNL d   1       1.075  -0.793  -0.046  0.00  0.00     0.049 A 
ATOM      2  C   UNL d   1       2.500  -1.292  -0.009  0.00  0.00     0.245 C 
ATOM      3  C   UNL d   1       0.648   0.519  -0.106  0.00  0.00    -0.019 A 
ATOM      4  N   UNL d   1       3.401  -0.118  -0.247  0.00  0.00    -0.333 N 
ATOM      5  N   UNL d   1      -0.036  -1.594  -0.021  0.00  0.00    -0.356 N 
ATOM      6  C   UNL d   1      -0.771   0.520  -0.067  0.00  0.00    -0.001 A 
ATOM      7  C   UNL d   1      -1.175  -0.817  -0.013  0.00  0.00     0.043 A 
ATOM      8  C   UNL d   1       4.701  -0.421  -0.625  0.00  0.00     0.220 C 
ATOM      9  C   UNL d   1       2.989   1.186   0.322  0.00  0.00     0.131 C 
ATOM     10  C   UNL d   1       1.613   1.646  -0.189  0.00  0.00     0.061 C 
ATOM     11  O   UNL d   1       5.068  -1.590  -0.763  0.00  0.00    -0.273 OA
ATOM     12  C   UNL d   1      -1.758   1.524  -0.068  0.00  0.00     0.014 A 
ATOM     13  C   UNL d   1      -2.521  -1.197   0.040  0.00  0.00     0.030 A 
ATOM     14  C   UNL d   1      -3.107   1.161  -0.009  0.00  0.00     0.001 A 
ATOM     15  C   UNL d   1      -3.480  -0.181   0.040  0.00  0.00     0.002 A 
ATOM     16  H   UNL d   1      -0.045  -2.605   0.026  0.00  0.00     0.166 HD
ENDROOT
BRANCH   2  17
ATOM     17  C   UNL d   1       2.848  -2.123   1.266  0.00  0.00     0.413 C 
ATOM     18  F   UNL d   1       1.787  -2.256   2.102  0.00  0.00    -0.168 F 
ATOM     19  F   UNL d   1       3.228  -3.382   0.936  0.00  0.00    -0.168 F 
ATOM     20  F   UNL d   1       3.846  -1.570   1.996  0.00  0.00    -0.168 F 
ENDBRANCH   2  17
BRANCH   8  21
ATOM     21  C   UNL d   1       5.637   0.743  -0.908  0.00  0.00     0.103 C 
BRANCH  21  22
ATOM     22  C   UNL d   1       7.008   0.304  -1.429  0.00  0.00     0.019 C 
BRANCH  22  23
ATOM     23  C   UNL d   1       6.950  -0.357  -2.805  0.00  0.00     0.110 C 
BRANCH  23  24
ATOM     24  C   UNL d   1       8.328  -0.794  -3.227  0.00  0.00     0.139 C 
ATOM     25  O   UNL d   1       9.081  -0.111  -3.903  0.00  0.00    -0.650 OA
BRANCH  24  26
ATOM     26  O   UNL d   1       8.673  -2.010  -2.749  0.00  0.00    -0.776 OA
ATOM     27  H   UNL d   1       7.974  -2.431  -2.208  0.00  0.00     0.167 HD
ENDBRANCH  24  26
ENDBRANCH  23  24
ENDBRANCH  22  23
ENDBRANCH  21  22
ENDBRANCH   8  21
TORSDOF 6
