REMARK  3 active torsions:
REMARK  status: ('A' for Active; 'I' for Inactive)
REMARK       I    between atoms: C_2  and  N_1 
REMARK    1  A    between atoms: C_6  and  C_2 
REMARK    2  A    between atoms: C_10  and  N_4 
REMARK    3  A    between atoms: N_5  and  C_6 
ROOT
ATOM      1  C   UNL d   1      -0.410   3.353  -1.205  0.00  0.00     0.375 C 
ENDROOT
BRANCH   1   2
ATOM      2  N   UNL d   1       0.959   2.797  -1.243  0.00  0.00     0.100 N 
ATOM      3  C   UNL d   1       1.233   2.033  -2.487  0.00  0.00     0.292 C 
ATOM      4  C   UNL d   1       1.320   2.866  -3.794  0.00  0.00     0.153 C 
ATOM      5  N   UNL d   1       2.236   3.999  -3.607  0.00  0.00    -0.378 N 
ATOM      6  C   UNL d   1       2.024   4.810  -2.403  0.00  0.00     0.153 C 
ATOM      7  C   UNL d   1       1.955   3.898  -1.157  0.00  0.00     0.292 C 
BRANCH   5   8
ATOM      8  C   UNL d   1       3.204   4.319  -4.536  0.00  0.00     0.030 A 
ATOM      9  C   UNL d   1       4.462   4.793  -4.138  0.00  0.00     0.029 A 
ATOM     10  C   UNL d   1       5.464   5.104  -5.066  0.00  0.00     0.002 A 
ATOM     11  C   UNL d   1       5.222   4.946  -6.423  0.00  0.00     0.000 A 
ATOM     12  C   UNL d   1       3.986   4.479  -6.849  0.00  0.00     0.002 A 
ATOM     13  C   UNL d   1       2.990   4.165  -5.913  0.00  0.00     0.029 A 
ENDBRANCH   5   8
ENDBRANCH   1   2
BRANCH   1  14
ATOM     14  C   UNL d   1      -1.528   2.306  -1.259  0.00  0.00     0.252 C 
ATOM     15  N   UNL d   1      -1.651   1.276  -0.326  0.00  0.00    -0.316 N 
ATOM     16  C   UNL d   1      -0.826   1.015   0.816  0.00  0.00     0.043 A 
ATOM     17  C   UNL d   1      -2.643   0.235  -0.616  0.00  0.00     0.132 C 
ATOM     18  C   UNL d   1      -0.607  -0.325   1.210  0.00  0.00    -0.031 A 
ATOM     19  C   UNL d   1      -0.262   2.029   1.597  0.00  0.00     0.030 A 
ATOM     20  C   UNL d   1       0.244  -0.612   2.292  0.00  0.00     0.009 A 
ATOM     21  C   UNL d   1      -1.294  -1.488   0.535  0.00  0.00     0.042 C 
ATOM     22  C   UNL d   1       0.850   0.413   3.010  0.00  0.00     0.001 A 
ATOM     23  C   UNL d   1       0.578   1.734   2.676  0.00  0.00     0.002 A 
ATOM     24  C   UNL d   1      -1.957  -1.108  -0.778  0.00  0.00     0.025 C 
ATOM     25  O   UNL d   1      -2.323   2.399  -2.209  0.00  0.00    -0.271 OA
ENDBRANCH   1  14
TORSDOF 3
