REMARK  4 active torsions:
REMARK  status: ('A' for Active; 'I' for Inactive)
REMARK    1  A    between atoms: C_5  and  C_3 
REMARK    2  A    between atoms: N_11  and  C_4 
REMARK       I    between atoms: C_8  and  N_9 
REMARK    3  A    between atoms: C_12  and  C_8 
REMARK    4  A    between atoms: N_9  and  N_11 
ROOT
ATOM      1  N   UNL d   1       0.097  -2.585  -0.160  0.00  0.00    -0.277 N 
ATOM      2  H   UNL d   1      -0.759  -3.000   0.215  0.00  0.00     0.189 HD
ENDROOT
BRANCH   1   3
ATOM      3  N   UNL d   1       1.176  -3.466  -0.216  0.00  0.00    -0.264 N 
ATOM      4  C   UNL d   1       1.016  -4.719   0.343  0.00  0.00     0.270 C 
ATOM      5  O   UNL d   1      -0.015  -5.076   0.907  0.00  0.00    -0.266 OA
ATOM      6  H   UNL d   1       2.073  -3.058  -0.469  0.00  0.00     0.190 HD
BRANCH   4   7
ATOM      7  C   UNL d   1       2.177  -5.638   0.228  0.00  0.00     0.033 A 
ATOM      8  C   UNL d   1       2.361  -6.620   1.209  0.00  0.00     0.019 A 
ATOM      9  C   UNL d   1       3.414  -7.534   1.100  0.00  0.00     0.025 A 
ATOM     10  C   UNL d   1       4.272  -7.474   0.003  0.00  0.00     0.034 A 
ATOM     11  C   UNL d   1       4.092  -6.505  -0.984  0.00  0.00     0.025 A 
ATOM     12 CL   UNL d   1       5.553  -8.613  -0.145  0.00  0.00    -0.084 Cl
ATOM     13  C   UNL d   1       3.043  -5.586  -0.875  0.00  0.00     0.019 A 
ENDBRANCH   4   7
ENDBRANCH   1   3
BRANCH   1  14
ATOM     14  C   UNL d   1       0.276  -1.248  -0.062  0.00  0.00     0.164 A 
ATOM     15  N   UNL d   1       1.446  -0.644  -0.094  0.00  0.00    -0.334 N 
ATOM     16  C   UNL d   1       1.281   0.725   0.064  0.00  0.00     0.058 A 
ATOM     17  HN  UNL d   1       2.343  -1.114  -0.217  1.00  0.00     0.168 HD
ATOM     18  C   UNL d   1      -0.030   1.148   0.138  0.00  0.00     0.084 A 
ATOM     19  S   UNL d   1      -1.081  -0.202   0.103  0.00  0.00    -0.062 SA
BRANCH  16  20
ATOM     20  C   UNL d   1       2.465   1.641   0.166  0.00  0.00     0.032 A 
ATOM     21  S   UNL d   1       2.381   3.331   0.412  0.00  0.00    -0.100 SA
ATOM     22  C   UNL d   1       4.085   3.475   0.462  0.00  0.00     0.050 A 
ATOM     23  C   UNL d   1       4.709   2.263   0.275  0.00  0.00     0.008 A 
ATOM     24  C   UNL d   1       3.772   1.201   0.100  0.00  0.00     0.021 A 
ENDBRANCH  16  20
ENDBRANCH   1  14
TORSDOF 4
