REMARK  5 active torsions:
REMARK  status: ('A' for Active; 'I' for Inactive)
REMARK    1  A    between atoms: C_5  and  C_1 
REMARK    2  A    between atoms: N_7  and  C_2 
REMARK    3  A    between atoms: O_13  and  C_5 
REMARK       I    between atoms: C_8  and  N_7 
REMARK    4  A    between atoms: C_9  and  C_8 
REMARK    5  A    between atoms: C_14  and  C_10 
ROOT
ATOM      1  N   UNL d   1       1.392   2.301   0.155  0.00  0.00    -0.322 N 
ATOM      2  C   UNL d   1       2.750   2.115   0.275  0.00  0.00     0.245 C 
ATOM      3  O   UNL d   1       3.330   1.033   0.268  0.00  0.00    -0.268 OA
ATOM      4  H   UNL d   1       1.110   3.175  -0.277  0.00  0.00     0.169 HD
ENDROOT
BRANCH   1   5
ATOM      5  C   UNL d   1       0.411   1.294   0.143  0.00  0.00     0.064 A 
ATOM      6  C   UNL d   1      -0.684   1.382  -0.719  0.00  0.00     0.107 A 
ATOM      7  S   UNL d   1      -1.842   0.151  -0.421  0.00  0.00    -0.093 SA
ATOM      8  C   UNL d   1      -0.872  -0.559   0.770  0.00  0.00     0.059 A 
ATOM      9  C   UNL d   1       0.324   0.107   0.980  0.00  0.00    -0.027 A 
ATOM     10  C   UNL d   1       1.266  -0.386   2.033  0.00  0.00     0.051 C 
BRANCH   6  11
ATOM     11  C   UNL d   1      -0.962   2.274  -1.834  0.00  0.00     0.302 C 
ATOM     12  O   UNL d   1      -1.959   2.264  -2.550  0.00  0.00    -0.259 OA
BRANCH  11  13
ATOM     13  O   UNL d   1       0.092   3.127  -2.033  0.00  0.00    -0.322 OA
ATOM     14  C   UNL d   1       0.008   3.863  -3.254  0.00  0.00     0.213 C 
ENDBRANCH  11  13
ENDBRANCH   6  11
ENDBRANCH   1   5
BRANCH   2  15
ATOM     15  C   UNL d   1       3.524   3.402   0.332  0.00  0.00     0.075 C 
ATOM     16  C   UNL d   1       4.869   3.342   0.371  0.00  0.00     0.017 C 
BRANCH  16  17
ATOM     17  C   UNL d   1       5.851   4.431   0.569  0.00  0.00    -0.036 A 
ATOM     18  C   UNL d   1       5.526   5.785   0.715  0.00  0.00     0.011 A 
ATOM     19  C   UNL d   1       6.520   6.730   1.007  0.00  0.00     0.001 A 
ATOM     20  C   UNL d   1       7.853   6.340   1.151  0.00  0.00     0.000 A 
ATOM     21  C   UNL d   1       8.196   5.006   0.972  0.00  0.00     0.001 A 
ATOM     22  C   UNL d   1       7.205   4.065   0.678  0.00  0.00     0.011 A 
ENDBRANCH  16  17
ENDBRANCH   2  15
TORSDOF 5
