REMARK  4 active torsions:
REMARK  status: ('A' for Active; 'I' for Inactive)
REMARK    1  A    between atoms: S_8  and  C_3 
REMARK    2  A    between atoms: C_11  and  S_8 
REMARK    3  A    between atoms: C_10  and  C_11 
REMARK    4  A    between atoms: C_13  and  C_10 
ROOT
ATOM      1  N   UNL d   1       0.605   0.725   0.032  0.00  0.00    -0.159 N 
ATOM      2  C   UNL d   1       0.373  -0.625   0.091  0.00  0.00     0.697 A 
ATOM      3  C   UNL d   1       1.961   0.875   0.009  0.00  0.00     0.177 A 
ATOM      4  N   UNL d   1       1.526  -1.256   0.123  0.00  0.00    -0.130 N 
ATOM      5  HN  UNL d   1       1.656  -2.266   0.178  1.00  0.00     0.205 HD
ATOM      6  N   UNL d   1       2.533  -0.307   0.069  0.00  0.00    -0.265 N 
ATOM      7  HN  UNL d   1       3.536  -0.491   0.074  1.00  0.00     0.189 HD
ATOM      8  N   UNL d   1      -0.885  -1.112   0.115  0.00  0.00    -0.225 N 
ATOM      9  C   UNL d   1      -0.452   1.708  -0.070  0.00  0.00     0.151 C 
ATOM     10  C   UNL d   1      -1.822   1.124   0.290  0.00  0.00     0.041 C 
ATOM     11  C   UNL d   1      -1.982  -0.267  -0.319  0.00  0.00     0.139 C 
ATOM     12  H   UNL d   1      -0.988  -2.110  -0.050  0.00  0.00     0.177 HD
ENDROOT
BRANCH   3  13
ATOM     13  S   UNL d   1       2.748   2.405  -0.108  0.00  0.00    -0.084 SA
BRANCH  13  14
ATOM     14  C   UNL d   1       4.520   1.940  -0.079  0.00  0.00     0.166 C 
BRANCH  14  15
ATOM     15  C   UNL d   1       5.403   3.186  -0.172  0.00  0.00     0.169 C 
ATOM     16  O   UNL d   1       4.951   4.327  -0.245  0.00  0.00    -0.291 OA
BRANCH  15  17
ATOM     17  C   UNL d   1       6.897   3.035  -0.181  0.00  0.00     0.010 A 
ATOM     18  C   UNL d   1       7.547   1.804  -0.036  0.00  0.00     0.015 A 
ATOM     19  C   UNL d   1       8.949   1.742  -0.058  0.00  0.00     0.001 A 
ATOM     20  C   UNL d   1       9.708   2.902  -0.225  0.00  0.00     0.000 A 
ATOM     21  C   UNL d   1       9.071   4.130  -0.365  0.00  0.00     0.001 A 
ATOM     22  C   UNL d   1       7.676   4.196  -0.342  0.00  0.00     0.015 A 
ENDBRANCH  15  17
ENDBRANCH  14  15
ENDBRANCH  13  14
ENDBRANCH   3  13
TORSDOF 4
