REMARK  3 active torsions:
REMARK  status: ('A' for Active; 'I' for Inactive)
REMARK    1  A    between atoms: S_13  and  C_9 
REMARK    2  A    between atoms: C_16  and  S_13 
REMARK    3  A    between atoms: C_15  and  C_16 
ROOT
ATOM      1  C   UNL d   1       1.234  -0.875   0.009  0.00  0.00     0.137 A 
ATOM      2  C   UNL d   1       0.848   0.453   0.037  0.00  0.00     0.104 A 
ATOM      3  N   UNL d   1       2.494  -1.336  -0.012  0.00  0.00    -0.320 N 
ATOM      4  HN  UNL d   1       2.749  -2.323  -0.050  1.00  0.00     0.169 HD
ATOM      5  N   UNL d   1       0.106  -1.641  -0.001  0.00  0.00    -0.340 N 
ATOM      6  N   UNL d   1       1.794   1.426   0.061  0.00  0.00    -0.294 N 
ATOM      7  HN  UNL d   1       1.549   2.416   0.084  1.00  0.00     0.187 HD
ATOM      8  C   UNL d   1      -0.573   0.492   0.024  0.00  0.00     0.022 A 
ATOM      9  C   UNL d   1       3.376  -0.316   0.025  0.00  0.00     0.161 A 
ATOM     10  C   UNL d   1      -1.014  -0.837   0.005  0.00  0.00     0.046 A 
ATOM     11  N   UNL d   1       3.067   1.012   0.053  0.00  0.00    -0.279 N 
ATOM     12  HN  UNL d   1       3.818   1.702   0.068  1.00  0.00     0.189 HD
ATOM     13  C   UNL d   1      -1.536   1.522   0.024  0.00  0.00     0.016 A 
ATOM     14  C   UNL d   1      -2.370  -1.185  -0.007  0.00  0.00     0.030 A 
ATOM     15  C   UNL d   1      -2.896   1.188   0.007  0.00  0.00     0.001 A 
ATOM     16  C   UNL d   1      -3.303  -0.144  -0.006  0.00  0.00     0.002 A 
ATOM     17  H   UNL d   1       0.109  -2.649  -0.012  0.00  0.00     0.167 HD
ENDROOT
BRANCH   9  18
ATOM     18  S   UNL d   1       5.095  -0.778  -0.058  0.00  0.00    -0.085 SA
BRANCH  18  19
ATOM     19  C   UNL d   1       5.837   0.593   0.869  0.00  0.00     0.160 C 
BRANCH  19  20
ATOM     20  C   UNL d   1       5.320   0.696   2.293  0.00  0.00     0.132 C 
ATOM     21  O   UNL d   1       4.872  -0.260   2.927  0.00  0.00    -0.298 OA
ATOM     22  C   UNL d   1       5.454   2.049   2.942  0.00  0.00     0.091 C 
ENDBRANCH  19  20
ENDBRANCH  18  19
ENDBRANCH   9  18
TORSDOF 3
