REMARK  6 active torsions:
REMARK  status: ('A' for Active; 'I' for Inactive)
REMARK    1  A    between atoms: C_14  and  C_1 
REMARK    2  A    between atoms: S_13  and  C_3 
REMARK    3  A    between atoms: C_4  and  S_13 
REMARK    4  A    between atoms: N_11  and  C_5 
REMARK    5  A    between atoms: N_12  and  C_6 
REMARK    6  A    between atoms: C_15  and  C_16 
ROOT
ATOM      1  C   UNL d   1       2.179  -2.842  -0.065  0.00  0.00     0.074 A 
ATOM      2  C   UNL d   1       2.970  -2.452   1.036  0.00  0.00     0.123 A 
ATOM      3  C   UNL d   1       2.899  -3.345  -1.167  0.00  0.00     0.123 A 
ATOM      4  C   UNL d   1       5.067  -3.035  -0.075  0.00  0.00     0.052 A 
ATOM      5  C   UNL d   1       4.383  -2.538   1.038  0.00  0.00     0.053 A 
ATOM      6  C   UNL d   1       4.310  -3.447  -1.181  0.00  0.00     0.053 A 
ENDROOT
BRANCH   1   7
ATOM      7  S   UNL d   1       0.380  -2.726  -0.047  0.00  0.00    -0.048 SA
BRANCH   7   8
ATOM      8  C   UNL d   1       0.163  -1.134  -0.684  0.00  0.00     0.167 A 
ATOM      9  N   UNL d   1      -1.060  -0.535  -0.883  0.00  0.00    -0.312 N 
ATOM     10  C   UNL d   1      -0.782   0.678  -1.485  0.00  0.00     0.209 A 
ATOM     11  C   UNL d   1      -2.356  -1.069  -0.548  0.00  0.00     0.160 C 
ATOM     12  N   UNL d   1       0.533   0.806  -1.568  0.00  0.00    -0.279 N 
ATOM     13  N   UNL d   1       1.120  -0.328  -1.071  0.00  0.00    -0.278 N 
ATOM     14  HN  UNL d   1       1.028   1.616  -1.941  1.00  0.00     0.188 HD
ATOM     15  HN  UNL d   1       2.121  -0.512  -1.014  1.00  0.00     0.189 HD
BRANCH  10  16
ATOM     16  C   UNL d   1      -1.785   1.667  -1.974  0.00  0.00     0.450 C 
ATOM     17  F   UNL d   1      -3.069   1.229  -1.872  0.00  0.00    -0.163 F 
ATOM     18  F   UNL d   1      -1.727   2.835  -1.284  0.00  0.00    -0.163 F 
ATOM     19  F   UNL d   1      -1.601   1.972  -3.285  0.00  0.00    -0.163 F 
ENDBRANCH  10  16
ENDBRANCH   7   8
ENDBRANCH   1   7
BRANCH   2  20
ATOM     20  N   UNL d   1       2.364  -1.958   2.263  0.00  0.00    -0.114 N 
ATOM     21  O   UNL d   1       1.583  -2.712   2.854  0.00  0.00    -0.532 OA
ATOM     22  O   UNL d   1       2.735  -0.847   2.661  0.00  0.00    -0.532 OA
ENDBRANCH   2  20
BRANCH   3  23
ATOM     23  N   UNL d   1       2.220  -3.819  -2.363  0.00  0.00    -0.114 N 
ATOM     24  O   UNL d   1       1.393  -4.732  -2.225  0.00  0.00    -0.532 OA
ATOM     25  O   UNL d   1       2.573  -3.325  -3.443  0.00  0.00    -0.532 OA
ENDBRANCH   3  23
BRANCH   4  26
ATOM     26  C   UNL d   1       6.578  -3.140  -0.102  0.00  0.00     0.417 C 
ATOM     27  F   UNL d   1       7.168  -2.682   1.034  0.00  0.00    -0.166 F 
ATOM     28  F   UNL d   1       6.998  -4.424  -0.255  0.00  0.00    -0.166 F 
ATOM     29  F   UNL d   1       7.125  -2.436  -1.127  0.00  0.00    -0.166 F 
ENDBRANCH   4  26
TORSDOF 6
