REMARK  2 active torsions:
REMARK  status: ('A' for Active; 'I' for Inactive)
REMARK    1  A    between atoms: C_18  and  C_10 
REMARK    2  A    between atoms: O_30  and  C_25 
ROOT
ATOM      1  C   UNL d   1       0.395  -1.344  -0.015  0.00  0.00    -0.030 C 
ATOM      2  C   UNL d   1      -2.527  -1.162   0.259  0.00  0.00    -0.070 C 
ATOM      3  C   UNL d   1      -0.334   0.028  -0.008  0.00  0.00     0.005 C 
ATOM      4  C   UNL d   1      -4.039  -1.131   0.603  0.00  0.00    -0.017 C 
ATOM      5  C   UNL d   1       1.692  -0.994  -0.792  0.00  0.00     0.030 C 
ATOM      6  O   UNL d   1       3.173   0.905  -0.727  0.00  0.00    -0.377 OA
ATOM      7  C   UNL d   1      -1.655   0.009   0.785  0.00  0.00     0.020 C 
ATOM      8  C   UNL d   1       1.777   0.561  -0.808  0.00  0.00     0.127 C 
ATOM      9  C   UNL d   1       3.149  -1.398  -0.481  0.00  0.00     0.020 C 
ATOM     10  C   UNL d   1       3.806  -0.270  -1.300  0.00  0.00     0.155 C 
ATOM     11  C   UNL d   1      -1.972  -2.174  -0.447  0.00  0.00    -0.022 C 
ATOM     12  C   UNL d   1       0.796   1.030   0.270  0.00  0.00     0.038 C 
ATOM     13  C   UNL d   1      -0.511  -2.313  -0.802  0.00  0.00     0.037 C 
ATOM     14  C   UNL d   1      -4.585   0.310   0.367  0.00  0.00     0.000 C 
ATOM     15  C   UNL d   1      -4.893  -2.091  -0.289  0.00  0.00     0.016 C 
ATOM     16  C   UNL d   1      -2.342   1.379   0.666  0.00  0.00     0.010 C 
ATOM     17  C   UNL d   1      -3.792   1.370   1.137  0.00  0.00     0.006 C 
ATOM     18  C   UNL d   1      -6.089   0.431   0.654  0.00  0.00     0.037 C 
ATOM     19  C   UNL d   1       0.602  -1.919   1.397  0.00  0.00     0.016 C 
ATOM     20  C   UNL d   1      -6.403  -1.971  -0.077  0.00  0.00     0.033 C 
ATOM     21  C   UNL d   1      -6.893  -0.536  -0.212  0.00  0.00     0.118 C 
ATOM     22  C   UNL d   1      -4.169  -1.592   2.075  0.00  0.00     0.020 C 
ATOM     23  C   UNL d   1       3.564  -1.344   0.993  0.00  0.00     0.013 C 
ENDROOT
BRANCH  10  24
ATOM     24  C   UNL d   1       5.322  -0.247  -1.595  0.00  0.00     0.150 C 
ATOM     25  O   UNL d   1       6.184  -0.865  -0.647  0.00  0.00    -0.383 OA
ATOM     26  C   UNL d   1       6.883  -0.009   0.248  0.00  0.00     0.172 C 
ATOM     27  C   UNL d   1       7.614   1.103  -0.492  0.00  0.00     0.005 C 
ATOM     28  C   UNL d   1       6.560   1.957  -1.190  0.00  0.00     0.009 C 
ATOM     29  C   UNL d   1       8.478   1.932   0.451  0.00  0.00     0.012 C 
ATOM     30  C   UNL d   1       5.808   1.088  -2.183  0.00  0.00     0.035 C 
ENDBRANCH  10  24
BRANCH  21  31
ATOM     31  O   UNL d   1      -8.270  -0.468   0.144  0.00  0.00    -0.396 OA
ATOM     32  H   UNL d   1      -8.358  -0.774   1.063  0.00  0.00     0.210 HD
ENDBRANCH  21  31
TORSDOF 2
