REMARK  6 active torsions:
REMARK  status: ('A' for Active; 'I' for Inactive)
REMARK    1  A    between atoms: C_4  and  C_1 
REMARK    2  A    between atoms: C_6  and  C_1 
REMARK    3  A    between atoms: C_3  and  C_2 
REMARK    4  A    between atoms: C_9  and  C_3 
REMARK    5  A    between atoms: C_5  and  C_4 
REMARK    6  A    between atoms: C_10  and  C_5 
ROOT
ATOM      1  C   UNL d   1       1.080  -0.006   0.006  0.00  0.00    -0.037 C 
ATOM      2  C   UNL d   1       0.412  -1.168   0.183  0.00  0.00     0.064 C 
ENDROOT
BRANCH   1   3
ATOM      3  C   UNL d   1       2.596   0.112  -0.068  0.00  0.00     0.123 C 
BRANCH   3   4
ATOM      4  C   UNL d   1       3.237   0.137   1.321  0.00  0.00     0.163 C 
ATOM      5  O   UNL d   1       2.578   0.228   2.358  0.00  0.00    -0.292 OA
BRANCH   4   6
ATOM      6  C   UNL d   1       4.729   0.120   1.429  0.00  0.00     0.010 A 
ATOM      7  C   UNL d   1       5.569   0.069   0.312  0.00  0.00     0.015 A 
ATOM      8  C   UNL d   1       6.958   0.046   0.479  0.00  0.00     0.001 A 
ATOM      9  C   UNL d   1       7.514   0.080   1.757  0.00  0.00     0.000 A 
ATOM     10  C   UNL d   1       6.685   0.146   2.874  0.00  0.00     0.001 A 
ATOM     11  C   UNL d   1       5.299   0.168   2.711  0.00  0.00     0.015 A 
ENDBRANCH   4   6
ENDBRANCH   3   4
ENDBRANCH   1   3
BRANCH   1  12
ATOM     12  C   UNL d   1       0.316   1.280  -0.062  0.00  0.00    -0.029 A 
ATOM     13  C   UNL d   1       0.828   2.456   0.513  0.00  0.00     0.012 A 
ATOM     14  C   UNL d   1       0.136   3.668   0.439  0.00  0.00     0.001 A 
ATOM     15  C   UNL d   1      -1.094   3.729  -0.202  0.00  0.00     0.000 A 
ATOM     16  C   UNL d   1      -1.628   2.579  -0.776  0.00  0.00     0.001 A 
ATOM     17  C   UNL d   1      -0.926   1.369  -0.716  0.00  0.00     0.012 A 
ENDBRANCH   1  12
BRANCH   2  18
ATOM     18  C   UNL d   1       1.045  -2.520   0.318  0.00  0.00     0.182 C 
ATOM     19  O   UNL d   1       2.213  -2.714  -0.007  0.00  0.00    -0.288 OA
BRANCH  18  20
ATOM     20  C   UNL d   1       0.236  -3.674   0.833  0.00  0.00     0.014 A 
ATOM     21  C   UNL d   1      -1.091  -3.578   1.273  0.00  0.00     0.015 A 
ATOM     22  C   UNL d   1      -1.765  -4.709   1.750  0.00  0.00     0.001 A 
ATOM     23  C   UNL d   1      -1.122  -5.944   1.801  0.00  0.00     0.000 A 
ATOM     24  C   UNL d   1       0.197  -6.054   1.373  0.00  0.00     0.001 A 
ATOM     25  C   UNL d   1       0.870  -4.928   0.891  0.00  0.00     0.015 A 
ENDBRANCH  18  20
ENDBRANCH   2  18
TORSDOF 6
