REMARK  7 active torsions:
REMARK  status: ('A' for Active; 'I' for Inactive)
REMARK    1  A    between atoms: S_10  and  C_4 
REMARK    2  A    between atoms: S_13  and  C_4 
REMARK    3  A    between atoms: C_6  and  C_7 
REMARK    4  A    between atoms: C_8  and  C_6 
REMARK    5  A    between atoms: C_9  and  S_10 
REMARK    6  A    between atoms: C_18  and  S_13 
REMARK    7  A    between atoms: C_14  and  C_18 
ROOT
ATOM      1  N   UNL d   1       1.128   0.238  -0.004  0.00  0.00    -0.282 N 
ATOM      2  HN  UNL d   1       0.766   0.293  -0.956  1.00  0.00     0.179 HD
ATOM      3  C   UNL d   1       0.387   0.670   1.023  0.00  0.00     0.183 C 
ATOM      4  C   UNL d   1       2.305  -0.248   0.217  0.00  0.00     0.121 C 
ATOM      5  N   UNL d   1      -0.272   1.051   1.896  0.00  0.00    -0.172 NA
ENDROOT
BRANCH   4   6
ATOM      6  S   UNL d   1       3.245  -0.822  -1.167  0.00  0.00    -0.076 SA
BRANCH   6   7
ATOM      7  C   UNL d   1       2.074  -1.518  -2.240  0.00  0.00     0.056 C 
ATOM      8  C   UNL d   1       2.468  -2.015  -3.422  0.00  0.00     0.063 C 
BRANCH   8   9
ATOM      9  C   UNL d   1       1.480  -2.624  -4.351  0.00  0.00     0.182 C 
ATOM     10  O   UNL d   1       0.391  -3.026  -3.961  0.00  0.00    -0.288 OA
BRANCH   9  11
ATOM     11  C   UNL d   1       1.871  -2.764  -5.781  0.00  0.00     0.015 A 
ATOM     12  C   UNL d   1       2.720  -1.842  -6.407  0.00  0.00     0.034 A 
ATOM     13  C   UNL d   1       3.012  -1.984  -7.765  0.00  0.00     0.011 A 
ATOM     14 BR   UNL d   1       4.137  -0.723  -8.613  0.00  0.00    -0.051 Br
ATOM     15  C   UNL d   1       2.472  -3.034  -8.505  0.00  0.00     0.019 A 
ATOM     16  C   UNL d   1       1.626  -3.953  -7.884  0.00  0.00     0.002 A 
ATOM     17  C   UNL d   1       1.321  -3.816  -6.527  0.00  0.00     0.015 A 
ENDBRANCH   9  11
ENDBRANCH   8   9
ENDBRANCH   6   7
ENDBRANCH   4   6
BRANCH   4  18
ATOM     18  S   UNL d   1       3.061  -0.420   1.796  0.00  0.00    -0.101 SA
BRANCH  18  19
ATOM     19  C   UNL d   1       4.785   0.041   1.483  0.00  0.00     0.107 C 
BRANCH  19  20
ATOM     20  C   UNL d   1       5.518   0.115   2.790  0.00  0.00    -0.026 C 
ATOM     21  C   UNL d   1       6.511  -0.712   3.149  0.00  0.00     0.007 C 
ENDBRANCH  19  20
ENDBRANCH  18  19
ENDBRANCH   4  18
TORSDOF 7
