REMARK  3 active torsions:
REMARK  status: ('A' for Active; 'I' for Inactive)
REMARK    1  A    between atoms: C_16  and  C_4 
REMARK    2  A    between atoms: C_12  and  C_9 
REMARK    3  A    between atoms: C_11  and  C_17 
ROOT
ATOM      1  N   UNL d   1       1.256   0.095  -0.003  0.00  0.00    -0.318 N 
ATOM      2  HN  UNL d   1       2.266   0.232   0.023  1.00  0.00     0.169 HD
ATOM      3  C   UNL d   1       0.584  -1.038  -0.018  0.00  0.00     0.189 A 
ATOM      4  C   UNL d   1       0.265   1.051  -0.031  0.00  0.00     0.138 A 
ATOM      5  C   UNL d   1       1.205  -2.330   0.018  0.00  0.00     0.059 A 
ATOM      6  N   UNL d   1      -0.977   0.543  -0.061  0.00  0.00    -0.242 N 
ATOM      7  HN  UNL d   1      -1.863   1.047  -0.082  1.00  0.00     0.196 HD
ATOM      8  S   UNL d   1       0.296  -3.774  -0.086  0.00  0.00    -0.085 SA
ATOM      9  C   UNL d   1       1.689  -4.768   0.070  0.00  0.00     0.022 A 
ATOM     10  O   UNL d   1      -0.771  -0.833  -0.056  0.00  0.00    -0.217 OA
ATOM     11  C   UNL d   1       2.553  -2.596   0.140  0.00  0.00     0.025 A 
ATOM     12  C   UNL d   1       2.830  -3.994   0.177  0.00  0.00     0.022 A 
ENDROOT
BRANCH   4  13
ATOM     13  C   UNL d   1       0.561   2.480  -0.038  0.00  0.00     0.010 A 
ATOM     14  C   UNL d   1       1.889   2.928  -0.065  0.00  0.00     0.016 A 
ATOM     15  C   UNL d   1       2.182   4.297  -0.087  0.00  0.00     0.017 A 
ATOM     16  C   UNL d   1       1.151   5.246  -0.081  0.00  0.00     0.048 A 
ATOM     17  C   UNL d   1      -0.178   4.799  -0.047  0.00  0.00     0.017 A 
ATOM     18  C   UNL d   1      -0.469   3.431  -0.025  0.00  0.00     0.016 A 
BRANCH  16  19
ATOM     19  C   UNL d   1       1.446   6.727  -0.114  0.00  0.00     0.417 C 
ATOM     20  F   UNL d   1       2.776   7.017  -0.131  0.00  0.00    -0.166 F 
ATOM     21  F   UNL d   1       0.916   7.337  -1.210  0.00  0.00    -0.166 F 
ATOM     22  F   UNL d   1       0.934   7.383   0.964  0.00  0.00    -0.166 F 
ENDBRANCH  16  19
ENDBRANCH   4  13
BRANCH   9  23
ATOM     23  C   UNL d   1       1.589  -6.210   0.095  0.00  0.00     0.021 A 
ATOM     24  S   UNL d   1       2.750  -7.173   0.923  0.00  0.00    -0.101 SA
ATOM     25  C   UNL d   1       1.936  -8.624   0.538  0.00  0.00     0.050 A 
ATOM     26  C   UNL d   1       0.814  -8.398  -0.224  0.00  0.00     0.008 A 
ATOM     27  C   UNL d   1       0.616  -7.009  -0.481  0.00  0.00     0.021 A 
ENDBRANCH   9  23
TORSDOF 3
