REMARK  2 active torsions:
REMARK  status: ('A' for Active; 'I' for Inactive)
REMARK    1  A    between atoms: C_9  and  C_8 
REMARK    2  A    between atoms: O_14  and  C_9 
ROOT
ATOM      1  C   UNL d   1      -1.266   0.540  -0.022  0.00  0.00     0.050 A 
ATOM      2  C   UNL d   1      -0.013   1.307  -0.033  0.00  0.00     0.198 A 
ATOM      3  C   UNL d   1       1.239   0.534  -0.006  0.00  0.00     0.049 A 
ATOM      4  O   UNL d   1      -0.019  -1.559  -0.060  0.00  0.00    -0.309 OA
ATOM      5  C   UNL d   1      -1.194  -0.851  -0.029  0.00  0.00     0.090 A 
ATOM      6  C   UNL d   1       1.162  -0.857  -0.026  0.00  0.00     0.090 A 
ATOM      7  C   UNL d   1      -2.503   1.200   0.015  0.00  0.00     0.036 A 
ATOM      8  C   UNL d   1      -3.681   0.447   0.036  0.00  0.00     0.038 A 
ATOM      9  O   UNL d   1      -0.021   2.531  -0.068  0.00  0.00    -0.286 OA
ATOM     10  C   UNL d   1      -2.370  -1.600   0.005  0.00  0.00     0.039 A 
ATOM     11  C   UNL d   1      -3.609  -0.954   0.044  0.00  0.00     0.021 A 
ATOM     12  C   UNL d   1       2.479   1.177   0.039  0.00  0.00     0.018 A 
ATOM     13  C   UNL d   1       2.335  -1.615  -0.009  0.00  0.00     0.038 A 
ATOM     14  C   UNL d   1       3.649   0.416   0.063  0.00  0.00     0.001 A 
ATOM     15  C   UNL d   1       3.577  -0.977   0.036  0.00  0.00     0.003 A 
ENDROOT
BRANCH   8  16
ATOM     16  C   UNL d   1      -5.029   1.070   0.113  0.00  0.00     0.176 C 
ATOM     17  O   UNL d   1      -5.976   0.512   0.642  0.00  0.00    -0.646 OA
BRANCH  16  18
ATOM     18  O   UNL d   1      -5.124   2.274  -0.483  0.00  0.00    -0.773 OA
ATOM     19  H   UNL d   1      -4.352   2.563  -1.003  0.00  0.00     0.167 HD
ENDBRANCH  16  18
ENDBRANCH   8  16
TORSDOF 2
