REMARK  5 active torsions:
REMARK  status: ('A' for Active; 'I' for Inactive)
REMARK    1  A    between atoms: C_5  and  C_1 
REMARK    2  A    between atoms: C_12  and  C_2 
REMARK       I    between atoms: N_10  and  C_5 
REMARK    3  A    between atoms: C_6  and  C_11 
REMARK    4  A    between atoms: C_19  and  N_10 
REMARK    5  A    between atoms: C_20  and  C_19 
ROOT
ATOM      1  C   UNL d   1      -1.757  -2.869   1.390  0.00  0.00     0.271 C 
ATOM      2  N   UNL d   1      -1.334  -3.654   0.334  0.00  0.00    -0.351 N 
ATOM      3  O   UNL d   1      -1.038  -2.623   2.354  0.00  0.00    -0.266 OA
ATOM      4  H   UNL d   1      -1.969  -3.745  -0.453  0.00  0.00     0.163 HD
ENDROOT
BRANCH   1   5
ATOM      5  C   UNL d   1      -3.114  -2.346   1.240  0.00  0.00     0.137 A 
ATOM      6  C   UNL d   1      -3.837  -1.558   2.129  0.00  0.00     0.119 A 
ATOM      7  O   UNL d   1      -5.076  -1.351   1.568  0.00  0.00    -0.303 OA
ATOM      8  C   UNL d   1      -5.029  -2.002   0.380  0.00  0.00     0.234 A 
ATOM      9  N   UNL d   1      -3.897  -2.611   0.116  0.00  0.00    -0.340 N 
ATOM     10  HN  UNL d   1      -3.648  -3.150  -0.714  1.00  0.00     0.167 HD
BRANCH   6  11
ATOM     11  C   UNL d   1      -3.642  -0.946   3.441  0.00  0.00     0.000 A 
ATOM     12  C   UNL d   1      -2.406  -0.414   3.830  0.00  0.00     0.014 A 
ATOM     13  C   UNL d   1      -2.219   0.108   5.115  0.00  0.00     0.001 A 
ATOM     14  C   UNL d   1      -3.273   0.126   6.023  0.00  0.00     0.000 A 
ATOM     15  C   UNL d   1      -4.521  -0.357   5.641  0.00  0.00     0.001 A 
ATOM     16  C   UNL d   1      -4.704  -0.884   4.359  0.00  0.00     0.014 A 
ENDBRANCH   6  11
ENDBRANCH   1   5
BRANCH   2  17
ATOM     17  C   UNL d   1       0.059  -4.009   0.180  0.00  0.00     0.161 C 
BRANCH  17  18
ATOM     18  C   UNL d   1       0.347  -5.486   0.047  0.00  0.00    -0.040 A 
ATOM     19  C   UNL d   1       1.504  -5.888  -0.638  0.00  0.00     0.010 A 
ATOM     20  C   UNL d   1       1.880  -7.236  -0.700  0.00  0.00     0.013 A 
ATOM     21  C   UNL d   1       1.115  -8.230  -0.075  0.00  0.00    -0.019 A 
ATOM     22  C   UNL d   1      -0.034  -7.825   0.622  0.00  0.00     0.013 A 
ATOM     23  C   UNL d   1      -0.411  -6.473   0.687  0.00  0.00     0.010 A 
BRANCH  21  24
ATOM     24  C   UNL d   1       1.547  -9.640  -0.144  0.00  0.00     0.015 A 
ATOM     25  S   UNL d   1       0.393 -10.914  -0.255  0.00  0.00    -0.101 SA
ATOM     26  C   UNL d   1       1.606 -12.117  -0.335  0.00  0.00     0.050 A 
ATOM     27  C   UNL d   1       2.869 -11.577  -0.285  0.00  0.00     0.008 A 
ATOM     28  C   UNL d   1       2.834 -10.155  -0.173  0.00  0.00     0.020 A 
ENDBRANCH  21  24
ENDBRANCH  17  18
ENDBRANCH   2  17
TORSDOF 5
