REMARK  3 active torsions:
REMARK  status: ('A' for Active; 'I' for Inactive)
REMARK    1  A    between atoms: C_10  and  C_3 
REMARK    2  A    between atoms: C_14  and  N_4 
REMARK    3  A    between atoms: C_13  and  C_10 
ROOT
ATOM      1  C   UNL d   1      -2.458  -0.789   0.019  0.00  0.00     0.102 A 
ATOM      2  C   UNL d   1      -3.742  -1.204   0.095  0.00  0.00     0.118 A 
ATOM      3  C   UNL d   1      -5.743  -2.505   0.532  0.00  0.00     0.143 A 
ATOM      4  N   UNL d   1      -4.954  -0.492   0.183  0.00  0.00    -0.248 N 
ATOM      5  S   UNL d   1      -4.089  -2.948   0.288  0.00  0.00    -0.046 SA
ATOM      6  N   UNL d   1      -6.093  -1.258   0.466  0.00  0.00    -0.282 N 
ATOM      7  HN  UNL d   1      -7.038  -0.895   0.597  1.00  0.00     0.188 HD
ATOM      8  C   UNL d   1      -1.946   0.613   0.141  0.00  0.00     0.200 A 
ATOM      9  C   UNL d   1      -1.252  -1.673  -0.118  0.00  0.00     0.200 A 
ATOM     10  C   UNL d   1      -0.486   0.531   0.027  0.00  0.00     0.029 A 
ATOM     11  C   UNL d   1      -0.088  -0.790  -0.089  0.00  0.00     0.029 A 
ATOM     12  O   UNL d   1      -1.170  -2.874  -0.262  0.00  0.00    -0.286 OA
ATOM     13  O   UNL d   1      -2.530   1.644   0.393  0.00  0.00    -0.286 OA
ATOM     14  C   UNL d   1       0.437   1.561   0.078  0.00  0.00     0.016 A 
ATOM     15  C   UNL d   1       1.248  -1.148  -0.145  0.00  0.00     0.016 A 
ATOM     16  C   UNL d   1       1.794   1.221   0.019  0.00  0.00     0.001 A 
ATOM     17  C   UNL d   1       2.196  -0.124  -0.086  0.00  0.00     0.001 A 
ENDROOT
BRANCH   4  18
ATOM     18  C   UNL d   1      -5.241   0.802  -0.327  0.00  0.00     0.057 A 
ATOM     19  C   UNL d   1      -4.724   1.267  -1.544  0.00  0.00     0.032 A 
ATOM     20  C   UNL d   1      -4.936   2.588  -1.957  0.00  0.00     0.009 A 
ATOM     21  C   UNL d   1      -5.686   3.468  -1.168  0.00  0.00    -0.062 A 
ATOM     22  C   UNL d   1      -6.280   2.987   0.002  0.00  0.00     0.009 A 
ATOM     23  C   UNL d   1      -5.796   4.914  -1.550  0.00  0.00     0.048 C 
ATOM     24  C   UNL d   1      -6.071   1.666   0.408  0.00  0.00     0.032 A 
ENDBRANCH   4  18
BRANCH   3  25
ATOM     25  C   UNL d   1      -6.560  -3.725   0.805  0.00  0.00     0.224 C 
ATOM     26  O   UNL d   1      -6.516  -4.647  -0.006  0.00  0.00    -0.284 OA
BRANCH  25  27
ATOM     27  C   UNL d   1      -7.372  -3.709   2.014  0.00  0.00     0.057 A 
ATOM     28  S   UNL d   1      -8.104  -5.180   2.523  0.00  0.00    -0.098 SA
ATOM     29  C   UNL d   1      -8.872  -4.430   3.850  0.00  0.00     0.050 A 
ATOM     30  C   UNL d   1      -8.576  -3.088   3.922  0.00  0.00     0.009 A 
ATOM     31  C   UNL d   1      -7.697  -2.675   2.875  0.00  0.00     0.023 A 
ENDBRANCH  25  27
ENDBRANCH   3  25
TORSDOF 3
