REMARK  8 active torsions:
REMARK  status: ('A' for Active; 'I' for Inactive)
REMARK    1  A    between atoms: N_2  and  C_1 
REMARK    2  A    between atoms: N_4  and  C_1 
REMARK    3  A    between atoms: C_3  and  N_2 
REMARK    4  A    between atoms: C_6  and  C_3 
REMARK    5  A    between atoms: C_7  and  C_3 
REMARK    6  A    between atoms: C_8  and  N_4 
REMARK    7  A    between atoms: O_14  and  C_9 
REMARK    8  A    between atoms: C_19  and  O_14 
ROOT
ATOM      1  N   UNL d   1       0.474  -0.684   0.976  0.00  0.00    -0.354 N 
ATOM      2  H   UNL d   1      -0.532  -0.683   0.961  0.00  0.00     0.163 HD
ENDROOT
BRANCH   1   3
ATOM      3  C   UNL d   1       1.008  -0.520  -0.259  0.00  0.00     0.173 C 
ATOM      4  S   UNL d   1       2.204  -1.481  -0.926  0.00  0.00    -0.041 SA
BRANCH   3   5
ATOM      5  N   UNL d   1       0.525   0.511  -1.026  0.00  0.00    -0.333 N 
ATOM      6  H   UNL d   1       0.956   0.517  -1.946  0.00  0.00     0.168 HD
BRANCH   5   7
ATOM      7  C   UNL d   1      -0.003   1.762  -0.611  0.00  0.00     0.034 A 
ATOM      8  C   UNL d   1       0.176   2.846  -1.479  0.00  0.00     0.032 A 
ATOM      9  C   UNL d   1      -0.154   4.152  -1.083  0.00  0.00     0.039 A 
ATOM     10  C   UNL d   1      -0.693   4.381   0.180  0.00  0.00     0.068 A 
ATOM     11  C   UNL d   1      -0.954   3.301   1.011  0.00  0.00     0.039 A 
ATOM     12  C   UNL d   1      -0.613   2.006   0.615  0.00  0.00     0.032 A 
BRANCH  10  13
ATOM     13  O   UNL d   1      -1.054   5.597   0.683  0.00  0.00    -0.352 OA
BRANCH  13  14
ATOM     14  C   UNL d   1      -0.224   6.693   0.301  0.00  0.00     0.171 C 
ATOM     15  C   UNL d   1      -0.663   7.896   1.117  0.00  0.00     0.034 C 
ENDBRANCH  13  14
ENDBRANCH  10  13
ENDBRANCH   5   7
ENDBRANCH   3   5
ENDBRANCH   1   3
BRANCH   1  16
ATOM     16  C   UNL d   1       1.105  -1.251   2.173  0.00  0.00     0.150 C 
BRANCH  16  17
ATOM     17  C   UNL d   1       1.927  -0.191   2.917  0.00  0.00    -0.031 A 
ATOM     18  C   UNL d   1       1.326   0.957   3.465  0.00  0.00     0.009 A 
ATOM     19  C   UNL d   1       2.064   1.876   4.214  0.00  0.00     0.001 A 
ATOM     20  C   UNL d   1       3.416   1.661   4.437  0.00  0.00     0.000 A 
ATOM     21  C   UNL d   1       4.036   0.535   3.895  0.00  0.00     0.001 A 
ATOM     22  C   UNL d   1       3.300  -0.381   3.136  0.00  0.00     0.009 A 
ENDBRANCH  16  17
BRANCH  16  23
ATOM     23  C   UNL d   1       0.090  -1.890   3.123  0.00  0.00    -0.031 A 
ATOM     24  C   UNL d   1       0.496  -2.984   3.909  0.00  0.00     0.009 A 
ATOM     25  C   UNL d   1      -0.355  -3.522   4.876  0.00  0.00     0.001 A 
ATOM     26  C   UNL d   1      -1.623  -2.982   5.073  0.00  0.00     0.000 A 
ATOM     27  C   UNL d   1      -2.046  -1.905   4.300  0.00  0.00     0.001 A 
ATOM     28  C   UNL d   1      -1.196  -1.361   3.337  0.00  0.00     0.009 A 
ENDBRANCH  16  23
ENDBRANCH   1  16
TORSDOF 8
