REMARK  4 active torsions:
REMARK  status: ('A' for Active; 'I' for Inactive)
REMARK    1  A    between atoms: C_2  and  C_1 
REMARK       I    between atoms: N_4  and  C_1 
REMARK    2  A    between atoms: O_5  and  C_3 
REMARK    3  A    between atoms: C_10  and  N_4 
REMARK    4  A    between atoms: C_18  and  O_5 
ROOT
ATOM      1  C   UNL d   1       0.762  -0.009  -0.416  0.00  0.00     0.260 C 
ATOM      2  N   UNL d   1       2.041   0.153  -0.929  0.00  0.00    -0.323 N 
ATOM      3  O   UNL d   1       0.050  -0.994  -0.569  0.00  0.00    -0.267 OA
ATOM      4  H   UNL d   1       2.620   0.875  -0.517  0.00  0.00     0.169 HD
ENDROOT
BRANCH   1   5
ATOM      5  C   UNL d   1       0.229   1.157   0.330  0.00  0.00     0.083 A 
ATOM      6  C   UNL d   1      -0.611   1.011   1.432  0.00  0.00     0.163 A 
ATOM      7  N   UNL d   1      -1.243   2.062   2.024  0.00  0.00    -0.346 N 
ATOM      8  C   UNL d   1      -1.010   3.293   1.525  0.00  0.00     0.090 A 
ATOM      9  HN  UNL d   1      -1.869   1.923   2.817  1.00  0.00     0.167 HD
ATOM     10  C   UNL d   1      -0.160   3.540   0.463  0.00  0.00     0.018 A 
ATOM     11  C   UNL d   1       0.463   2.455  -0.148  0.00  0.00     0.023 A 
BRANCH   6  12
ATOM     12  O   UNL d   1      -0.833  -0.257   1.944  0.00  0.00    -0.293 OA
BRANCH  12  13
ATOM     13  C   UNL d   1      -1.026  -0.409   3.300  0.00  0.00     0.077 A 
ATOM     14  C   UNL d   1      -1.820  -1.493   3.686  0.00  0.00     0.039 A 
ATOM     15  C   UNL d   1      -2.024  -1.770   5.041  0.00  0.00     0.026 A 
ATOM     16  C   UNL d   1      -1.425  -0.967   6.009  0.00  0.00     0.034 A 
ATOM     17  C   UNL d   1      -0.621   0.107   5.634  0.00  0.00     0.026 A 
ATOM     18 CL   UNL d   1      -1.666  -1.310   7.678  0.00  0.00    -0.084 Cl
ATOM     19  C   UNL d   1      -0.409   0.378   4.279  0.00  0.00     0.039 A 
ENDBRANCH  12  13
ENDBRANCH   6  12
ENDBRANCH   1   5
BRANCH   2  20
ATOM     20  C   UNL d   1       2.611  -0.582  -1.992  0.00  0.00     0.037 A 
ATOM     21  C   UNL d   1       1.881  -1.450  -2.808  0.00  0.00     0.061 A 
ATOM     22  C   UNL d   1       2.450  -2.065  -3.921  0.00  0.00     0.061 A 
ATOM     23  N   UNL d   1       1.692  -2.853  -4.709  0.00  0.00    -0.363 N 
ATOM     24  C   UNL d   1       3.813  -1.825  -4.222  0.00  0.00     0.059 A 
ATOM     25  C   UNL d   1       2.298  -3.394  -5.788  0.00  0.00     0.105 A 
ATOM     26  HN  UNL d   1       0.710  -3.032  -4.501  1.00  0.00     0.165 HD
ATOM     27  C   UNL d   1       3.626  -3.162  -6.076  0.00  0.00     0.105 A 
ATOM     28  N   UNL d   1       4.406  -2.379  -5.299  0.00  0.00    -0.363 N 
ATOM     29  HN  UNL d   1       5.389  -2.215  -5.516  1.00  0.00     0.165 HD
ATOM     30  C   UNL d   1       4.545  -0.986  -3.394  0.00  0.00     0.034 A 
ATOM     31  C   UNL d   1       3.954  -0.356  -2.292  0.00  0.00     0.032 A 
ENDBRANCH   2  20
TORSDOF 4
