REMARK  7 active torsions:
REMARK  status: ('A' for Active; 'I' for Inactive)
REMARK    1  A    between atoms: C_9  and  N_1 
REMARK    2  A    between atoms: C_4  and  N_10 
REMARK    3  A    between atoms: N_11  and  C_4 
REMARK    4  A    between atoms: C_5  and  C_13 
REMARK       I    between atoms: N_8  and  C_5 
REMARK    5  A    between atoms: N_10  and  N_8 
REMARK    6  A    between atoms: C_19  and  N_11 
REMARK    7  A    between atoms: O_25  and  C_20 
ROOT
ATOM      1  C   UNL d   1       5.662  -3.862  -0.071  0.00  0.00     0.270 C 
ATOM      2  N   UNL d   1       6.355  -3.895   1.129  0.00  0.00    -0.264 N 
ATOM      3  O   UNL d   1       5.947  -4.567  -1.024  0.00  0.00    -0.266 OA
ATOM      4  H   UNL d   1       5.960  -3.501   1.973  0.00  0.00     0.190 HD
ENDROOT
BRANCH   2   5
ATOM      5  N   UNL d   1       7.279  -4.919   1.348  0.00  0.00    -0.273 N 
ATOM      6  H   UNL d   1       7.352  -5.626   0.613  0.00  0.00     0.189 HD
BRANCH   5   7
ATOM      7  C   UNL d   1       8.328  -4.753   2.211  0.00  0.00     0.191 C 
ATOM      8  S   UNL d   1       8.908  -3.270   2.738  0.00  0.00    -0.039 SA
BRANCH   7   9
ATOM      9  N   UNL d   1       8.922  -5.886   2.701  0.00  0.00    -0.332 N 
ATOM     10  H   UNL d   1       9.809  -5.696   3.156  0.00  0.00     0.168 HD
BRANCH   9  11
ATOM     11  C   UNL d   1       8.297  -7.087   3.124  0.00  0.00     0.034 A 
ATOM     12  C   UNL d   1       6.939  -7.369   2.967  0.00  0.00     0.032 A 
ATOM     13  C   UNL d   1       6.363  -8.500   3.562  0.00  0.00     0.039 A 
ATOM     14  C   UNL d   1       7.137  -9.363   4.333  0.00  0.00     0.068 A 
ATOM     15  C   UNL d   1       8.503  -9.114   4.456  0.00  0.00     0.039 A 
ATOM     16  C   UNL d   1       9.081  -7.987   3.856  0.00  0.00     0.032 A 
BRANCH  14  17
ATOM     17  O   UNL d   1       6.676 -10.457   5.010  0.00  0.00    -0.356 OA
ATOM     18  C   UNL d   1       5.265 -10.649   5.019  0.00  0.00     0.210 C 
ENDBRANCH  14  17
ENDBRANCH   9  11
ENDBRANCH   7   9
ENDBRANCH   5   7
ENDBRANCH   2   5
BRANCH   1  19
ATOM     19  C   UNL d   1       4.468  -2.966  -0.094  0.00  0.00     0.033 A 
ATOM     20  C   UNL d   1       4.301  -1.941   0.839  0.00  0.00     0.019 A 
ATOM     21  C   UNL d   1       3.107  -1.214   0.883  0.00  0.00     0.031 A 
ATOM     22  C   UNL d   1       2.099  -1.423  -0.067  0.00  0.00     0.039 A 
ATOM     23  C   UNL d   1       2.298  -2.407  -1.044  0.00  0.00     0.031 A 
ATOM     24  C   UNL d   1       3.465  -3.189  -1.045  0.00  0.00     0.019 A 
BRANCH  22  25
ATOM     25  N   UNL d   1       0.906  -0.625  -0.034  0.00  0.00    -0.320 N 
ATOM     26  C   UNL d   1      -0.392  -1.027  -0.393  0.00  0.00     0.013 A 
ATOM     27  C   UNL d   1      -1.243   0.045  -0.232  0.00  0.00     0.027 A 
ATOM     28  C   UNL d   1      -0.833  -2.399  -0.784  0.00  0.00     0.068 C 
ATOM     29  C   UNL d   1      -0.504   1.120   0.267  0.00  0.00     0.027 A 
ATOM     30  C   UNL d   1       0.814   0.717   0.372  0.00  0.00     0.013 A 
ATOM     31  C   UNL d   1       1.937   1.618   0.771  0.00  0.00     0.068 C 
ENDBRANCH  22  25
ENDBRANCH   1  19
TORSDOF 7
