REMARK  4 active torsions:
REMARK  status: ('A' for Active; 'I' for Inactive)
REMARK    1  A    between atoms: C_14  and  N_1 
REMARK    2  A    between atoms: C_8  and  C_2 
REMARK    3  A    between atoms: N_6  and  C_9 
REMARK    4  A    between atoms: C_15  and  C_14 
ROOT
ATOM      1  N   UNL d   1       0.883  -0.709  -0.075  0.00  0.00    -0.304 N 
ATOM      2  C   UNL d   1       0.906   0.662  -0.137  0.00  0.00     0.135 A 
ATOM      3  N   UNL d   1      -0.279   1.212  -0.126  0.00  0.00    -0.282 N 
ATOM      4  HN  UNL d   1      -0.505   2.206  -0.156  1.00  0.00     0.188 HD
ATOM      5  C   UNL d   1      -0.456  -1.034  -0.014  0.00  0.00     0.194 A 
ATOM      6  N   UNL d   1      -1.145   0.166  -0.065  0.00  0.00    -0.274 N 
ATOM      7  S   UNL d   1      -1.210  -2.505   0.117  0.00  0.00    -0.039 SA
ATOM      8  H   UNL d   1      -2.148   0.293  -0.015  0.00  0.00     0.189 HD
ENDROOT
BRANCH   2   9
ATOM      9  C   UNL d   1       2.131   1.496  -0.177  0.00  0.00     0.012 A 
ATOM     10  C   UNL d   1       3.287   1.121  -0.864  0.00  0.00     0.051 A 
ATOM     11  C   UNL d   1       4.403   1.969  -0.868  0.00  0.00     0.103 A 
ATOM     12  C   UNL d   1       4.364   3.215  -0.231  0.00  0.00     0.036 A 
ATOM     13  C   UNL d   1       3.196   3.608   0.419  0.00  0.00     0.003 A 
ATOM     14  C   UNL d   1       2.089   2.753   0.448  0.00  0.00     0.015 A 
BRANCH  11  15
ATOM     15  N   UNL d   1       5.629   1.535  -1.547  0.00  0.00    -0.116 N 
ATOM     16  O   UNL d   1       5.701   0.350  -1.900  0.00  0.00    -0.532 OA
ATOM     17  O   UNL d   1       6.525   2.376  -1.711  0.00  0.00    -0.532 OA
ENDBRANCH  11  15
ENDBRANCH   2   9
BRANCH   1  18
ATOM     18  C   UNL d   1       1.981  -1.654   0.098  0.00  0.00     0.160 C 
BRANCH  18  19
ATOM     19  C   UNL d   1       2.501  -2.196  -1.208  0.00  0.00    -0.017 C 
ATOM     20  C   UNL d   1       1.922  -2.155  -2.417  0.00  0.00     0.008 C 
ENDBRANCH  18  19
ENDBRANCH   1  18
TORSDOF 4
