REMARK  3 active torsions:
REMARK  status: ('A' for Active; 'I' for Inactive)
REMARK    1  A    between atoms: C_8  and  N_4 
REMARK    2  A    between atoms: C_9  and  C_8 
REMARK    3  A    between atoms: C_10  and  C_9 
ROOT
ATOM      1  N   UNL d   1      -0.847   0.470  -0.174  0.00  0.00    -0.248 N 
ATOM      2  C   UNL d   1      -1.675  -0.597  -0.102  0.00  0.00     0.117 A 
ATOM      3  C   UNL d   1      -1.679   1.572  -0.267  0.00  0.00     0.350 A 
ATOM      4  N   UNL d   1      -2.978   1.040  -0.355  0.00  0.00    -0.233 N 
ATOM      5  N   UNL d   1      -2.945  -0.321  -0.188  0.00  0.00    -0.281 N 
ATOM      6  HN  UNL d   1      -3.733  -0.967  -0.141  1.00  0.00     0.188 HD
ATOM      7  C   UNL d   1       0.564   0.421  -0.083  0.00  0.00     0.062 A 
ATOM      8  S   UNL d   1       0.379  -2.337  -0.596  0.00  0.00    -0.120 SA
ATOM      9  C   UNL d   1      -1.184  -1.973   0.216  0.00  0.00     0.158 C 
ATOM     10  C   UNL d   1       1.235  -0.812  -0.223  0.00  0.00     0.028 A 
ATOM     11  O   UNL d   1      -1.408   2.762  -0.206  0.00  0.00    -0.244 OA
ATOM     12  C   UNL d   1       1.333   1.576   0.120  0.00  0.00     0.031 A 
ATOM     13  C   UNL d   1       2.634  -0.873  -0.148  0.00  0.00     0.021 A 
ATOM     14  C   UNL d   1       2.730   1.504   0.203  0.00  0.00     0.002 A 
ATOM     15  C   UNL d   1       3.379   0.281   0.071  0.00  0.00     0.002 A 
ENDROOT
BRANCH   4  16
ATOM     16  C   UNL d   1      -4.199   1.794  -0.168  0.00  0.00     0.238 C 
BRANCH  16  17
ATOM     17  C   UNL d   1      -4.800   2.388  -1.450  0.00  0.00     0.186 C 
ATOM     18  O   UNL d   1      -4.257   2.243  -2.545  0.00  0.00    -0.290 OA
BRANCH  17  19
ATOM     19  C   UNL d   1      -6.054   3.142  -1.307  0.00  0.00     0.052 A 
ATOM     20  S   UNL d   1      -6.839   3.344   0.207  0.00  0.00    -0.098 SA
ATOM     21  C   UNL d   1      -8.076   4.306  -0.467  0.00  0.00     0.050 A 
ATOM     22  C   UNL d   1      -7.922   4.458  -1.825  0.00  0.00     0.009 A 
ATOM     23  C   UNL d   1      -6.765   3.776  -2.312  0.00  0.00     0.023 A 
ENDBRANCH  17  19
ENDBRANCH  16  17
ENDBRANCH   4  16
TORSDOF 3
