REMARK  2 active torsions:
REMARK  status: ('A' for Active; 'I' for Inactive)
REMARK    1  A    between atoms: C_7  and  N_1 
REMARK       I    between atoms: C_5  and  N_2 
REMARK       I    between atoms: N_13  and  C_5 
REMARK    2  A    between atoms: C_8  and  C_7 
ROOT
ATOM      1  N   UNL d   1       0.052   0.843   0.139  0.00  0.00    -0.264 N 
ATOM      2  N   UNL d   1       0.787  -1.275   0.150  0.00  0.00    -0.242 N 
ATOM      3  C   UNL d   1       1.166   0.066   0.258  0.00  0.00     0.336 A 
ATOM      4  C   UNL d   1      -1.057   0.065  -0.008  0.00  0.00     0.246 A 
ATOM      5  C   UNL d   1       1.594  -2.395   0.057  0.00  0.00     0.326 C 
ATOM      6  C   UNL d   1      -0.641  -1.389  -0.006  0.00  0.00     0.242 A 
ATOM      7  O   UNL d   1       2.308   0.469   0.435  0.00  0.00    -0.246 OA
ATOM      8  O   UNL d   1      -2.211   0.455  -0.118  0.00  0.00    -0.271 OA
ATOM      9  O   UNL d   1       1.127  -3.518  -0.121  0.00  0.00    -0.247 OA
ATOM     10  N   UNL d   1       2.936  -2.148   0.151  0.00  0.00    -0.347 N 
ATOM     11  C   UNL d   1       3.947  -3.167   0.035  0.00  0.00     0.151 C 
ATOM     12  H   UNL d   1       3.231  -1.188   0.310  0.00  0.00     0.163 HD
ENDROOT
BRANCH   1  13
ATOM     13  C   UNL d   1       0.056   2.295   0.136  0.00  0.00     0.177 C 
BRANCH  13  14
ATOM     14  C   UNL d   1       0.170   2.861  -1.265  0.00  0.00    -0.018 A 
ATOM     15  C   UNL d   1      -0.810   3.683  -1.844  0.00  0.00     0.042 A 
ATOM     16 CL   UNL d   1      -2.218   4.194  -0.983  0.00  0.00    -0.084 Cl
ATOM     17  C   UNL d   1      -0.669   4.144  -3.159  0.00  0.00     0.024 A 
ATOM     18  C   UNL d   1       0.452   3.802  -3.912  0.00  0.00     0.002 A 
ATOM     19  C   UNL d   1       1.450   3.018  -3.345  0.00  0.00     0.001 A 
ATOM     20  C   UNL d   1       1.315   2.561  -2.033  0.00  0.00     0.010 A 
ENDBRANCH  13  14
ENDBRANCH   1  13
TORSDOF 2
