REMARK  4 active torsions:
REMARK  status: ('A' for Active; 'I' for Inactive)
REMARK    1  A    between atoms: C_6  and  C_3 
REMARK    2  A    between atoms: O_11  and  N_8 
REMARK    3  A    between atoms: C_20  and  O_11 
REMARK    4  A    between atoms: C_12  and  C_20 
ROOT
ATOM      1  C   UNL d   1      -3.429  -1.250  -0.051  0.00  0.00     0.151 C 
ATOM      2  N   UNL d   1      -4.465  -0.469  -0.084  0.00  0.00    -0.275 N 
ATOM      3  HN  UNL d   1      -4.435   0.551  -0.101  1.00  0.00     0.193 HD
ENDROOT
BRANCH   1   4
ATOM      4  C   UNL d   1      -2.075  -0.751  -0.034  0.00  0.00     0.092 A 
ATOM      5  N   UNL d   1      -1.038  -1.562  -0.011  0.00  0.00    -0.348 N 
ATOM      6  C   UNL d   1       0.132  -0.816  -0.004  0.00  0.00     0.050 A 
ATOM      7  HN  UNL d   1      -1.087  -2.580   0.001  1.00  0.00     0.166 HD
ATOM      8  C   UNL d   1      -0.042   0.570  -0.022  0.00  0.00     0.033 A 
ATOM      9  C   UNL d   1       1.444  -1.333   0.017  0.00  0.00     0.031 A 
ATOM     10  C   UNL d   1       1.048   1.456  -0.019  0.00  0.00     0.021 A 
ATOM     11  S   UNL d   1      -1.726   0.923  -0.045  0.00  0.00    -0.069 SA
ATOM     12  C   UNL d   1       2.338   0.919  -0.000  0.00  0.00     0.002 A 
ATOM     13  C   UNL d   1       2.536  -0.459   0.018  0.00  0.00     0.002 A 
ENDBRANCH   1   4
BRANCH   2  14
ATOM     14  O   UNL d   1      -5.636  -1.248  -0.091  0.00  0.00    -0.276 OA
BRANCH  14  15
ATOM     15  C   UNL d   1      -6.763  -0.367  -0.121  0.00  0.00     0.239 C 
BRANCH  15  16
ATOM     16  C   UNL d   1      -8.036  -1.174  -0.155  0.00  0.00    -0.032 A 
ATOM     17  C   UNL d   1      -8.995  -1.041   0.860  0.00  0.00     0.011 A 
ATOM     18  C   UNL d   1     -10.184  -1.773   0.812  0.00  0.00     0.024 A 
ATOM     19  C   UNL d   1     -10.421  -2.642  -0.251  0.00  0.00     0.034 A 
ATOM     20  C   UNL d   1      -9.479  -2.785  -1.267  0.00  0.00     0.024 A 
ATOM     21 CL   UNL d   1     -11.887  -3.541  -0.310  0.00  0.00    -0.084 Cl
ATOM     22  C   UNL d   1      -8.291  -2.053  -1.220  0.00  0.00     0.011 A 
ENDBRANCH  15  16
ENDBRANCH  14  15
ENDBRANCH   2  14
TORSDOF 4
