REMARK  5 active torsions:
REMARK  status: ('A' for Active; 'I' for Inactive)
REMARK    1  A    between atoms: N_2  and  C_1 
REMARK    2  A    between atoms: N_6  and  C_1 
REMARK    3  A    between atoms: C_3  and  N_2 
REMARK    4  A    between atoms: C_9  and  N_6 
REMARK    5  A    between atoms: O_15  and  C_14 
ROOT
ATOM      1  C   UNL d   1       1.000   0.024  -0.077  0.00  0.00     0.177 C 
ATOM      2  S   UNL d   1       2.678   0.001  -0.142  0.00  0.00    -0.040 SA
ENDROOT
BRANCH   1   3
ATOM      3  N   UNL d   1       0.430   0.898   0.804  0.00  0.00    -0.319 N 
ATOM      4  H   UNL d   1       1.102   1.470   1.300  0.00  0.00     0.169 HD
BRANCH   3   5
ATOM      5  C   UNL d   1      -0.921   1.235   0.942  0.00  0.00     0.107 A 
ATOM      6  N   UNL d   1      -1.867   0.497   0.323  0.00  0.00    -0.346 N 
ATOM      7  C   UNL d   1      -3.153   0.912   0.404  0.00  0.00     0.007 A 
ATOM      8  HN  UNL d   1      -1.621  -0.348  -0.191  1.00  0.00     0.167 HD
ATOM      9  C   UNL d   1      -4.181   0.095  -0.316  0.00  0.00     0.068 C 
ATOM     10  C   UNL d   1      -3.531   2.050   1.112  0.00  0.00     0.031 A 
ATOM     11  C   UNL d   1      -2.552   2.794   1.769  0.00  0.00    -0.057 A 
ATOM     12  C   UNL d   1      -1.226   2.368   1.689  0.00  0.00     0.055 A 
ATOM     13  C   UNL d   1      -2.925   4.031   2.527  0.00  0.00     0.048 C 
ENDBRANCH   3   5
ENDBRANCH   1   3
BRANCH   1  14
ATOM     14  N   UNL d   1       0.156  -0.764  -0.809  0.00  0.00    -0.333 N 
ATOM     15  H   UNL d   1      -0.759  -0.915  -0.386  0.00  0.00     0.168 HD
BRANCH  14  16
ATOM     16  C   UNL d   1       0.296  -1.204  -2.139  0.00  0.00     0.036 A 
ATOM     17  C   UNL d   1       0.985  -0.446  -3.094  0.00  0.00     0.066 A 
ATOM     18  C   UNL d   1       1.025  -0.852  -4.428  0.00  0.00     0.070 A 
ATOM     19  C   UNL d   1       0.396  -2.041  -4.798  0.00  0.00     0.037 A 
ATOM     20  C   UNL d   1      -0.300  -2.799  -3.855  0.00  0.00     0.005 A 
ATOM     21  C   UNL d   1      -0.373  -2.365  -2.531  0.00  0.00     0.029 A 
BRANCH  18  22
ATOM     22  O   UNL d   1       1.624  -0.168  -5.452  0.00  0.00    -0.356 OA
ATOM     23  C   UNL d   1       2.218   1.083  -5.121  0.00  0.00     0.210 C 
ENDBRANCH  18  22
ENDBRANCH  14  16
ENDBRANCH   1  14
TORSDOF 5
