REMARK  3 active torsions:
REMARK  status: ('A' for Active; 'I' for Inactive)
REMARK    1  A    between atoms: C_10  and  C_5 
REMARK    2  A    between atoms: S_11  and  C_8 
REMARK    3  A    between atoms: N_12  and  C_9 
ROOT
ATOM      1  N   UNL d   1       1.749  -0.040  -0.022  0.00  0.00    -0.326 N 
ATOM      2  HN  UNL d   1       2.769  -0.033  -0.057  1.00  0.00     0.169 HD
ATOM      3  N   UNL d   1      -0.296   1.102   0.095  0.00  0.00    -0.322 N 
ATOM      4  HN  UNL d   1      -0.824   1.974   0.134  1.00  0.00     0.169 HD
ATOM      5  C   UNL d   1       1.034   1.083   0.012  0.00  0.00     0.093 A 
ATOM      6  N   UNL d   1      -0.276  -1.250   0.051  0.00  0.00    -0.313 N 
ATOM      7  HN  UNL d   1      -0.777  -2.138   0.040  1.00  0.00     0.170 HD
ATOM      8  C   UNL d   1       1.050  -1.171  -0.007  0.00  0.00     0.147 A 
ATOM      9  C   UNL d   1      -0.891  -0.082   0.122  0.00  0.00     0.158 A 
ENDROOT
BRANCH   5  10
ATOM     10  C   UNL d   1       1.789   2.410   0.024  0.00  0.00     0.008 C 
ATOM     11  C   UNL d   1       2.100   2.791   1.481  0.00  0.00     0.022 C 
ATOM     12  C   UNL d   1       3.110   2.288  -0.763  0.00  0.00     0.022 C 
ATOM     13  C   UNL d   1       0.956   3.534  -0.621  0.00  0.00     0.022 C 
ENDBRANCH   5  10
BRANCH   9  14
ATOM     14  N   UNL d   1      -2.269  -0.086   0.198  0.00  0.00    -0.274 NA
ATOM     15  H   UNL d   1      -2.652  -0.934  -0.193  0.00  0.00     0.127 HD
ATOM     16  H   UNL d   1      -2.642   0.791  -0.136  0.00  0.00     0.127 HD
ENDBRANCH   9  14
BRANCH   8  17
ATOM     17  S   UNL d   1       2.022  -2.661  -0.081  0.00  0.00    -0.098 SA
ATOM     18  C   UNL d   1       0.727  -3.921  -0.026  0.00  0.00     0.099 C 
ENDBRANCH   8  17
TORSDOF 3
