REMARK  3 active torsions:
REMARK  status: ('A' for Active; 'I' for Inactive)
REMARK    1  A    between atoms: N_2  and  S_1 
REMARK    2  A    between atoms: C_6  and  S_1 
REMARK    3  A    between atoms: C_3  and  N_2 
ROOT
ATOM      1  N   UNL d   1       0.726  -0.845  -1.465  0.00  0.00    -0.280 N 
ATOM      2  H   UNL d   1       0.957  -0.241  -0.679  0.00  0.00     0.179 HD
ENDROOT
BRANCH   1   3
ATOM      3  S   UNL d   1       1.023  -2.478  -1.145  0.00  0.00     0.263 S 
ATOM      4  O   UNL d   1       0.170  -3.295  -1.978  0.00  0.00    -0.200 OA
ATOM      5  O   UNL d   1       0.998  -2.604   0.298  0.00  0.00    -0.200 OA
BRANCH   3   6
ATOM      6  C   UNL d   1       2.707  -2.733  -1.670  0.00  0.00     0.079 A 
ATOM      7  C   UNL d   1       3.757  -2.529  -0.768  0.00  0.00     0.025 A 
ATOM      8  C   UNL d   1       5.074  -2.715  -1.192  0.00  0.00     0.002 A 
ATOM      9  C   UNL d   1       5.335  -3.111  -2.508  0.00  0.00     0.000 A 
ATOM     10  C   UNL d   1       4.285  -3.341  -3.394  0.00  0.00     0.002 A 
ATOM     11  C   UNL d   1       2.965  -3.163  -2.976  0.00  0.00     0.025 A 
ENDBRANCH   3   6
ENDBRANCH   1   3
BRANCH   1  12
ATOM     12  C   UNL d   1       0.948  -0.336  -2.783  0.00  0.00     0.053 A 
ATOM     13  C   UNL d   1      -0.074  -0.358  -3.764  0.00  0.00     0.001 A 
ATOM     14  C   UNL d   1       0.239   0.094  -5.071  0.00  0.00    -0.024 A 
ATOM     15  C   UNL d   1      -1.399  -0.780  -3.510  0.00  0.00     0.014 A 
ATOM     16  C   UNL d   1      -0.747   0.083  -6.071  0.00  0.00     0.012 A 
ATOM     17  C   UNL d   1       1.534   0.552  -5.359  0.00  0.00     0.012 A 
ATOM     18  C   UNL d   1      -2.043  -0.350  -5.795  0.00  0.00     0.001 A 
ATOM     19  C   UNL d   1      -2.371  -0.774  -4.514  0.00  0.00     0.001 A 
ATOM     20  C   UNL d   1       2.518   0.584  -4.375  0.00  0.00     0.003 A 
ATOM     21  C   UNL d   1       2.223   0.150  -3.087  0.00  0.00     0.031 A 
ENDBRANCH   1  12
TORSDOF 3
