REMARK  5 active torsions:
REMARK  status: ('A' for Active; 'I' for Inactive)
REMARK    1  A    between atoms: C_13  and  N_2 
REMARK    2  A    between atoms: C_14  and  N_4 
REMARK    3  A    between atoms: C_12  and  C_7 
REMARK    4  A    between atoms: C_17  and  C_11 
REMARK    5  A    between atoms: O_23  and  C_18 
ROOT
ATOM      1  C   UNL d   1       0.015  -0.220  -0.320  0.00  0.00     0.247 C 
ATOM      2  N   UNL d   1       1.148  -1.044  -0.669  0.00  0.00    -0.265 N 
ATOM      3  S   UNL d   1      -0.635  -0.627   1.366  0.00  0.00    -0.039 SA
ATOM      4  N   UNL d   1      -1.189  -0.306  -1.181  0.00  0.00    -0.241 N 
ATOM      5  N   UNL d   1      -2.394  -0.101  -0.510  0.00  0.00    -0.285 N 
ATOM      6  HN  UNL d   1      -3.295   0.082  -0.952  1.00  0.00     0.188 HD
ATOM      7  C   UNL d   1      -2.187  -0.179   0.757  0.00  0.00     0.135 C 
ATOM      8  S   UNL d   1       0.656   1.511  -0.183  0.00  0.00    -0.056 SA
ATOM      9  C   UNL d   1       2.374  -0.525  -0.235  0.00  0.00     0.268 C 
ATOM     10  C   UNL d   1       2.266   0.936   0.075  0.00  0.00     0.074 C 
ATOM     11  C   UNL d   1       3.266   1.740   0.470  0.00  0.00     0.035 C 
ATOM     12  O   UNL d   1       3.416  -1.155  -0.122  0.00  0.00    -0.266 OA
ENDROOT
BRANCH   2  13
ATOM     13  C   UNL d   1       1.092  -2.333  -1.273  0.00  0.00     0.041 A 
ATOM     14  C   UNL d   1       0.035  -3.227  -1.083  0.00  0.00     0.030 A 
ATOM     15  C   UNL d   1       0.056  -4.491  -1.688  0.00  0.00     0.002 A 
ATOM     16  C   UNL d   1       1.110  -4.861  -2.523  0.00  0.00     0.000 A 
ATOM     17  C   UNL d   1       2.152  -3.975  -2.747  0.00  0.00     0.002 A 
ATOM     18  C   UNL d   1       2.146  -2.728  -2.120  0.00  0.00     0.030 A 
ENDBRANCH   2  13
BRANCH   4  19
ATOM     19  C   UNL d   1      -1.238  -0.300  -2.574  0.00  0.00     0.055 A 
ATOM     20  C   UNL d   1      -2.321  -0.927  -3.228  0.00  0.00     0.031 A 
ATOM     21  C   UNL d   1      -2.419  -0.983  -4.622  0.00  0.00     0.002 A 
ATOM     22  C   UNL d   1      -1.444  -0.381  -5.406  0.00  0.00     0.000 A 
ATOM     23  C   UNL d   1      -0.377   0.266  -4.792  0.00  0.00     0.002 A 
ATOM     24  C   UNL d   1      -0.269   0.292  -3.394  0.00  0.00     0.031 A 
ENDBRANCH   4  19
BRANCH   7  25
ATOM     25  C   UNL d   1      -3.157   0.104   1.870  0.00  0.00     0.180 C 
ATOM     26  O   UNL d   1      -2.775   0.502   2.965  0.00  0.00    -0.291 OA
ATOM     27  C   UNL d   1      -4.616  -0.013   1.536  0.00  0.00     0.099 C 
ENDBRANCH   7  25
BRANCH  11  28
ATOM     28  C   UNL d   1       4.659   1.327   0.665  0.00  0.00    -0.035 A 
ATOM     29  C   UNL d   1       5.533   1.257  -0.426  0.00  0.00     0.014 A 
ATOM     30  C   UNL d   1       6.856   0.838  -0.249  0.00  0.00     0.037 A 
ATOM     31  C   UNL d   1       7.316   0.487   1.020  0.00  0.00     0.068 A 
ATOM     32  C   UNL d   1       6.452   0.581   2.112  0.00  0.00     0.037 A 
ATOM     33  C   UNL d   1       5.126   0.989   1.938  0.00  0.00     0.014 A 
BRANCH  31  34
ATOM     34  O   UNL d   1       8.589   0.081   1.314  0.00  0.00    -0.356 OA
ATOM     35  C   UNL d   1       9.285  -0.574   0.259  0.00  0.00     0.210 C 
ENDBRANCH  31  34
ENDBRANCH  11  28
TORSDOF 5
