REMARK  2 active torsions:
REMARK  status: ('A' for Active; 'I' for Inactive)
REMARK    1  A    between atoms: C_5  and  N_1 
REMARK    2  A    between atoms: C_11  and  C_5 
ROOT
ATOM      1  N   UNL d   1       0.429  -0.792   0.073  0.00  0.00    -0.289 N 
ATOM      2  C   UNL d   1       0.460   0.027   1.167  0.00  0.00     0.177 A 
ATOM      3  C   UNL d   1       0.529  -0.043  -1.075  0.00  0.00     0.244 A 
ATOM      4  N   UNL d   1       0.609   1.329   0.740  0.00  0.00    -0.358 N 
ATOM      5  S   UNL d   1       0.332  -0.342   2.777  0.00  0.00    -0.041 SA
ATOM      6  C   UNL d   1       0.653   1.423  -0.692  0.00  0.00     0.225 A 
ATOM      7  O   UNL d   1       0.507  -0.460  -2.226  0.00  0.00    -0.271 OA
ATOM      8  H   UNL d   1       0.650   2.110   1.385  0.00  0.00     0.162 HD
ENDROOT
BRANCH   1   9
ATOM      9  C   UNL d   1       0.275  -2.239   0.040  0.00  0.00     0.173 C 
BRANCH   9  10
ATOM     10  C   UNL d   1       1.600  -2.963   0.054  0.00  0.00    -0.037 A 
ATOM     11  C   UNL d   1       2.205  -3.338   1.258  0.00  0.00     0.026 A 
ATOM     12  C   UNL d   1       3.424  -3.997   1.217  0.00  0.00     0.088 A 
ATOM     13  N   UNL d   1       4.071  -4.309   0.075  0.00  0.00    -0.375 N 
ATOM     14  C   UNL d   1       3.475  -3.938  -1.077  0.00  0.00     0.088 A 
ATOM     15  HN  UNL d   1       4.966  -4.799   0.082  1.00  0.00     0.164 HD
ATOM     16  C   UNL d   1       2.262  -3.268  -1.140  0.00  0.00     0.026 A 
ENDBRANCH   9  10
ENDBRANCH   1   9
TORSDOF 2
