REMARK  5 active torsions:
REMARK  status: ('A' for Active; 'I' for Inactive)
REMARK    1  A    between atoms: C_4  and  C_2 
REMARK       I    between atoms: N_8  and  C_4 
REMARK    2  A    between atoms: N_11  and  N_8 
REMARK       I    between atoms: C_10  and  N_11 
REMARK    3  A    between atoms: C_18  and  C_10 
REMARK    4  A    between atoms: C_17  and  C_18 
REMARK    5  A    between atoms: O_21  and  C_20 
ROOT
ATOM      1  C   UNL d   1      -0.270   2.554  -0.119  0.00  0.00     0.277 C 
ATOM      2  N   UNL d   1      -1.526   3.092   0.096  0.00  0.00    -0.263 N 
ATOM      3  O   UNL d   1      -0.139   1.355  -0.380  0.00  0.00    -0.265 OA
ATOM      4  H   UNL d   1      -1.679   4.084   0.266  0.00  0.00     0.190 HD
ENDROOT
BRANCH   2   5
ATOM      5  N   UNL d   1      -2.659   2.284  -0.055  0.00  0.00    -0.267 N 
ATOM      6  C   UNL d   1      -3.901   2.856   0.119  0.00  0.00     0.240 C 
ATOM      7  O   UNL d   1      -4.047   4.042   0.419  0.00  0.00    -0.272 OA
ATOM      8  H   UNL d   1      -2.501   1.284  -0.176  0.00  0.00     0.190 HD
BRANCH   6   9
ATOM      9  C   UNL d   1      -5.067   1.918  -0.120  0.00  0.00     0.143 C 
BRANCH   9  10
ATOM     10  C   UNL d   1      -5.593   1.248   1.126  0.00  0.00    -0.047 A 
ATOM     11  C   UNL d   1      -6.051   2.009   2.217  0.00  0.00     0.044 A 
ATOM     12  C   UNL d   1      -6.602   1.387   3.340  0.00  0.00     0.068 A 
ATOM     13  C   UNL d   1      -6.701  -0.005   3.372  0.00  0.00     0.037 A 
ATOM     14  C   UNL d   1      -6.251  -0.773   2.298  0.00  0.00     0.003 A 
ATOM     15  C   UNL d   1      -5.701  -0.149   1.179  0.00  0.00     0.007 A 
BRANCH  12  16
ATOM     16  O   UNL d   1      -7.088   2.014   4.455  0.00  0.00    -0.356 OA
ATOM     17  C   UNL d   1      -6.986   3.431   4.495  0.00  0.00     0.210 C 
ENDBRANCH  12  16
ENDBRANCH   9  10
ENDBRANCH   6   9
ENDBRANCH   2   5
BRANCH   1  18
ATOM     18  C   UNL d   1       0.855   3.475  -0.022  0.00  0.00     0.075 A 
ATOM     19  S   UNL d   1       0.661   5.139   0.334  0.00  0.00    -0.084 SA
ATOM     20  C   UNL d   1       2.348   5.455   0.246  0.00  0.00     0.022 A 
ATOM     21  C   UNL d   1       2.885   6.783   0.448  0.00  0.00     0.021 A 
ATOM     22  C   UNL d   1       3.043   4.295  -0.041  0.00  0.00     0.022 A 
ATOM     23  S   UNL d   1       4.359   7.276  -0.293  0.00  0.00    -0.101 SA
ATOM     24  C   UNL d   1       2.355   7.814   1.204  0.00  0.00     0.021 A 
ATOM     25  C   UNL d   1       4.271   8.840   0.388  0.00  0.00     0.050 A 
ATOM     26  C   UNL d   1       3.152   8.997   1.171  0.00  0.00     0.008 A 
ATOM     27  C   UNL d   1       2.190   3.163  -0.194  0.00  0.00     0.026 A 
ENDBRANCH   1  18
TORSDOF 5
