REMARK  3 active torsions:
REMARK  status: ('A' for Active; 'I' for Inactive)
REMARK    1  A    between atoms: C_2  and  C_1 
REMARK       I    between atoms: N_3  and  C_1 
REMARK    2  A    between atoms: C_4  and  N_3 
REMARK    3  A    between atoms: S_14  and  C_7 
ROOT
ATOM      1  C   UNL d   1       0.884  -0.510   0.049  0.00  0.00     0.259 C 
ATOM      2  N   UNL d   1       0.273  -0.064  -1.110  0.00  0.00    -0.320 N 
ATOM      3  O   UNL d   1       1.859  -1.257   0.089  0.00  0.00    -0.267 OA
ATOM      4  H   UNL d   1      -0.239   0.815  -1.081  0.00  0.00     0.169 HD
ENDROOT
BRANCH   1   5
ATOM      5  C   UNL d   1       0.265  -0.045   1.307  0.00  0.00     0.064 A 
ATOM      6  C   UNL d   1       0.955   0.471   2.412  0.00  0.00     0.018 A 
ATOM      7  C   UNL d   1       0.228   0.731   3.583  0.00  0.00     0.036 A 
ATOM      8  C   UNL d   1      -1.134   0.474   3.609  0.00  0.00     0.089 A 
ATOM      9  N   UNL d   1      -1.818  -0.018   2.558  0.00  0.00    -0.374 N 
ATOM     10  C   UNL d   1      -1.102  -0.281   1.442  0.00  0.00     0.106 A 
ATOM     11  HN  UNL d   1      -2.824  -0.183   2.603  1.00  0.00     0.164 HD
BRANCH   6  12
ATOM     12  S   UNL d   1       2.719   0.755   2.518  0.00  0.00    -0.133 SA
ATOM     13  C   UNL d   1       2.908   2.172   1.407  0.00  0.00     0.095 C 
ENDBRANCH   6  12
ENDBRANCH   1   5
BRANCH   2  14
ATOM     14  C   UNL d   1       0.513  -0.599  -2.393  0.00  0.00     0.074 A 
ATOM     15  C   UNL d   1       0.384   0.242  -3.504  0.00  0.00     0.146 A 
ATOM     16  C   UNL d   1       0.605  -0.225  -4.795  0.00  0.00     0.086 A 
ATOM     17  F   UNL d   1       0.084   1.538  -3.321  0.00  0.00    -0.204 F 
ATOM     18  C   UNL d   1       0.904  -1.568  -4.978  0.00  0.00     0.119 A 
ATOM     19  C   UNL d   1       1.000  -2.436  -3.894  0.00  0.00     0.044 A 
ATOM     20  F   UNL d   1       1.097  -2.038  -6.217  0.00  0.00    -0.206 F 
ATOM     21  C   UNL d   1       0.821  -1.948  -2.596  0.00  0.00     0.036 A 
ENDBRANCH   2  14
TORSDOF 3
