REMARK  4 active torsions:
REMARK  status: ('A' for Active; 'I' for Inactive)
REMARK    1  A    between atoms: C_5  and  C_1 
REMARK       I    between atoms: N_15  and  C_5 
REMARK    2  A    between atoms: C_6  and  C_19 
REMARK    3  A    between atoms: C_23  and  N_15 
REMARK    4  A    between atoms: C_26  and  C_23 
ROOT
ATOM      1  C   UNL d   1       0.103  -3.130   1.411  0.00  0.00     0.256 C 
ATOM      2  N   UNL d   1      -0.384  -3.653   0.214  0.00  0.00    -0.348 N 
ATOM      3  O   UNL d   1       0.365  -3.819   2.396  0.00  0.00    -0.267 OA
ATOM      4  C   UNL d   1      -1.102  -2.870  -0.786  0.00  0.00     0.153 C 
ENDROOT
BRANCH   2   5
ATOM      5  C   UNL d   1      -0.446  -5.109   0.078  0.00  0.00     0.164 C 
BRANCH   5   6
ATOM      6  C   UNL d   1      -1.851  -5.651   0.193  0.00  0.00    -0.040 A 
ATOM      7  C   UNL d   1      -2.628  -5.871  -0.953  0.00  0.00     0.010 A 
ATOM      8  C   UNL d   1      -3.952  -6.303  -0.841  0.00  0.00     0.016 A 
ATOM      9  C   UNL d   1      -4.523  -6.532   0.418  0.00  0.00     0.010 A 
ATOM     10  C   UNL d   1      -3.735  -6.334   1.561  0.00  0.00     0.016 A 
ATOM     11  C   UNL d   1      -2.413  -5.893   1.452  0.00  0.00     0.010 A 
BRANCH   9  12
ATOM     12  C   UNL d   1      -5.914  -6.949   0.551  0.00  0.00     0.137 A 
ATOM     13  N   UNL d   1      -6.508  -7.130   1.784  0.00  0.00    -0.323 N 
ATOM     14  C   UNL d   1      -7.734  -7.470   1.461  0.00  0.00     0.144 A 
ATOM     15  HN  UNL d   1      -6.097  -7.025   2.712  1.00  0.00     0.169 HD
ATOM     16  C   UNL d   1      -8.875  -7.795   2.331  0.00  0.00     0.100 C 
ATOM     17  O   UNL d   1      -7.946  -7.520   0.119  0.00  0.00    -0.223 OA
ATOM     18  N   UNL d   1      -6.740  -7.171  -0.486  0.00  0.00    -0.242 N 
ATOM     19  HN  UNL d   1      -6.532  -7.101  -1.482  1.00  0.00     0.196 HD
ENDBRANCH   9  12
ENDBRANCH   5   6
ENDBRANCH   2   5
BRANCH   1  20
ATOM     20  C   UNL d   1       0.308  -1.683   1.556  0.00  0.00     0.061 A 
ATOM     21  C   UNL d   1       1.152  -0.937   0.693  0.00  0.00     0.082 A 
ATOM     22  N   UNL d   1       1.833  -1.373  -0.383  0.00  0.00    -0.310 N 
ATOM     23  C   UNL d   1       1.367   0.538   0.949  0.00  0.00     0.068 A 
ATOM     24  S   UNL d   1       2.632  -0.065  -1.014  0.00  0.00     0.068 SA
ATOM     25  HN  UNL d   1       1.853  -2.327  -0.742  1.00  0.00     0.176 HD
ATOM     26  N   UNL d   1       2.164   1.125   0.043  0.00  0.00    -0.310 N 
ATOM     27  HN  UNL d   1       2.430   2.109   0.011  1.00  0.00     0.176 HD
ATOM     28  C   UNL d   1       0.762   1.186   2.054  0.00  0.00     0.032 A 
ATOM     29  C   UNL d   1      -0.030   0.384   2.893  0.00  0.00     0.003 A 
ATOM     30  C   UNL d   1      -0.244  -0.995   2.660  0.00  0.00     0.019 A 
ENDBRANCH   1  20
TORSDOF 4
