REMARK  8 active torsions:
REMARK  status: ('A' for Active; 'I' for Inactive)
REMARK    1  A    between atoms: C_2  and  C_1 
REMARK    2  A    between atoms: C_3  and  C_1 
REMARK       I    between atoms: N_5  and  C_2 
REMARK    3  A    between atoms: O_10  and  C_3 
REMARK    4  A    between atoms: C_4  and  C_9 
REMARK    5  A    between atoms: O_11  and  C_4 
REMARK    6  A    between atoms: C_9  and  N_5 
REMARK    7  A    between atoms: C_12  and  O_10 
REMARK    8  A    between atoms: C_13  and  O_11 
ROOT
ATOM      1  C   UNL d   1       0.594   1.485   0.337  0.00  0.00     0.227 C 
ATOM      2  N   UNL d   1       1.432   2.526   0.614  0.00  0.00    -0.351 N 
ATOM      3  O   UNL d   1      -0.632   1.639   0.392  0.00  0.00    -0.273 OA
ATOM      4  H   UNL d   1       2.445   2.440   0.525  0.00  0.00     0.163 HD
ENDROOT
BRANCH   1   5
ATOM      5  C   UNL d   1       1.121   0.122  -0.012  0.00  0.00     0.213 C 
BRANCH   5   6
ATOM      6  C   UNL d   1       2.576  -0.128  -0.247  0.00  0.00     0.267 C 
ATOM      7  O   UNL d   1       3.482   0.682  -0.136  0.00  0.00    -0.265 OA
BRANCH   6   8
ATOM      8  O   UNL d   1       2.704  -1.431  -0.651  0.00  0.00    -0.322 OA
BRANCH   8   9
ATOM      9  C   UNL d   1       3.951  -1.873  -1.208  0.00  0.00     0.174 C 
ATOM     10  C   UNL d   1       4.555  -2.957  -0.335  0.00  0.00     0.034 C 
ENDBRANCH   8   9
ENDBRANCH   6   8
ENDBRANCH   5   6
ENDBRANCH   1   5
BRANCH   2  11
ATOM     11  C   UNL d   1       0.841   3.827   0.940  0.00  0.00     0.233 C 
BRANCH  11  12
ATOM     12  C   UNL d   1       1.755   5.005   1.253  0.00  0.00     0.276 C 
ATOM     13  O   UNL d   1       1.340   6.109   1.567  0.00  0.00    -0.263 OA
BRANCH  12  14
ATOM     14  O   UNL d   1       3.070   4.673   1.120  0.00  0.00    -0.321 OA
BRANCH  14  15
ATOM     15  C   UNL d   1       3.995   5.739   1.394  0.00  0.00     0.174 C 
ATOM     16  C   UNL d   1       4.187   6.605   0.162  0.00  0.00     0.034 C 
ENDBRANCH  14  15
ENDBRANCH  12  14
ENDBRANCH  11  12
ENDBRANCH   2  11
TORSDOF 8
