REMARK  2 active torsions:
REMARK  status: ('A' for Active; 'I' for Inactive)
REMARK    1  A    between atoms: C_5  and  C_1 
REMARK       I    between atoms: C_9  and  N_4 
REMARK       I    between atoms: N_11  and  C_5 
REMARK    2  A    between atoms: C_14  and  N_11 
ROOT
ATOM      1  C   UNL d   1       4.473  -0.737  -0.815  0.00  0.00     0.264 C 
ATOM      2  N   UNL d   1       4.436  -2.040  -0.323  0.00  0.00    -0.322 N 
ATOM      3  O   UNL d   1       3.757  -0.366  -1.746  0.00  0.00    -0.267 OA
ATOM      4  H   UNL d   1       5.166  -2.306   0.333  0.00  0.00     0.169 HD
ENDROOT
BRANCH   2   5
ATOM      5  C   UNL d   1       3.428  -2.999  -0.594  0.00  0.00     0.035 A 
ATOM      6  C   UNL d   1       2.244  -2.648  -1.242  0.00  0.00     0.039 A 
ATOM      7  C   UNL d   1       1.201  -3.550  -1.263  0.00  0.00    -0.027 A 
ATOM      8  C   UNL d   1      -0.199  -3.271  -1.716  0.00  0.00     0.061 C 
ATOM      9  C   UNL d   1       1.322  -4.850  -0.769  0.00  0.00     0.043 A 
ATOM     10  C   UNL d   1      -0.920  -4.340  -0.903  0.00  0.00     0.137 C 
ATOM     11  N   UNL d   1       0.047  -5.445  -0.805  0.00  0.00    -0.318 N 
ATOM     12  C   UNL d   1      -0.394  -6.744  -0.722  0.00  0.00     0.220 C 
ATOM     13  O   UNL d   1      -1.573  -7.007  -0.474  0.00  0.00    -0.273 OA
ATOM     14  C   UNL d   1       0.526  -7.853  -1.147  0.00  0.00     0.117 C 
ATOM     15  C   UNL d   1       2.518  -5.262  -0.208  0.00  0.00     0.032 A 
ATOM     16  C   UNL d   1       3.563  -4.314  -0.096  0.00  0.00     0.032 A 
ENDBRANCH   2   5
BRANCH   1  17
ATOM     17  C   UNL d   1       5.434   0.180  -0.213  0.00  0.00     0.096 C 
ATOM     18  S   UNL d   1       6.337  -0.226   1.182  0.00  0.00    -0.082 SA
ATOM     19  C   UNL d   1       7.236   1.244   1.141  0.00  0.00     0.017 A 
ATOM     20  C   UNL d   1       8.278   1.632   2.006  0.00  0.00     0.020 A 
ATOM     21  C   UNL d   1       6.820   2.065   0.092  0.00  0.00     0.004 A 
ATOM     22  C   UNL d   1       8.946   2.837   1.768  0.00  0.00     0.001 A 
ATOM     23  C   UNL d   1       8.572   3.656   0.714  0.00  0.00     0.001 A 
ATOM     24  C   UNL d   1       7.504   3.293  -0.108  0.00  0.00     0.014 A 
ATOM     25  C   UNL d   1       5.726   1.470  -0.626  0.00  0.00     0.068 C 
ATOM     26 CL   UNL d   1       4.957   2.326  -1.911  0.00  0.00    -0.082 Cl
ENDBRANCH   1  17
TORSDOF 2
