REMARK  5 active torsions:
REMARK  status: ('A' for Active; 'I' for Inactive)
REMARK    1  A    between atoms: C_8  and  C_3 
REMARK    2  A    between atoms: S_4  and  N_9 
REMARK    3  A    between atoms: C_11  and  S_4 
REMARK    4  A    between atoms: C_12  and  N_5 
REMARK       I    between atoms: N_10  and  C_8 
REMARK    5  A    between atoms: N_9  and  N_10 
ROOT
ATOM      1  C   UNL d   1      -0.789  -2.537   0.022  0.00  0.00     0.288 C 
ATOM      2  N   UNL d   1       0.242  -3.458  -0.024  0.00  0.00    -0.255 N 
ATOM      3  O   UNL d   1      -1.969  -2.886   0.098  0.00  0.00    -0.264 OA
ATOM      4  H   UNL d   1       1.208  -3.150  -0.131  0.00  0.00     0.191 HD
ENDROOT
BRANCH   2   5
ATOM      5  N   UNL d   1      -0.102  -4.864   0.047  0.00  0.00    -0.220 N 
ATOM      6  H   UNL d   1      -1.089  -5.130   0.128  0.00  0.00     0.200 HD
BRANCH   5   7
ATOM      7  S   UNL d   1       1.030  -6.094  -0.018  0.00  0.00     0.276 S 
ATOM      8  O   UNL d   1       0.324  -7.350   0.106  0.00  0.00    -0.199 OA
ATOM      9  O   UNL d   1       1.917  -5.815  -1.129  0.00  0.00    -0.199 OA
BRANCH   7  10
ATOM     10  C   UNL d   1       1.936  -5.845   1.485  0.00  0.00     0.082 A 
ATOM     11  C   UNL d   1       3.304  -5.565   1.426  0.00  0.00     0.049 A 
ATOM     12  C   UNL d   1       4.000  -5.348   2.611  0.00  0.00     0.035 A 
ATOM     13 CL   UNL d   1       5.682  -4.993   2.557  0.00  0.00    -0.084 Cl
ATOM     14  C   UNL d   1       3.344  -5.411   3.841  0.00  0.00     0.024 A 
ATOM     15  C   UNL d   1       1.979  -5.702   3.893  0.00  0.00     0.003 A 
ATOM     16  C   UNL d   1       1.270  -5.925   2.713  0.00  0.00     0.025 A 
ENDBRANCH   7  10
ENDBRANCH   5   7
ENDBRANCH   2   5
BRANCH   1  17
ATOM     17  C   UNL d   1      -0.377  -1.128  -0.007  0.00  0.00     0.119 A 
ATOM     18  N   UNL d   1       0.902  -0.712  -0.011  0.00  0.00    -0.292 N 
ATOM     19  N   UNL d   1       0.832   0.654  -0.006  0.00  0.00    -0.287 N 
ATOM     20  HN  UNL d   1       1.742  -1.291  -0.016  1.00  0.00     0.187 HD
ATOM     21  C   UNL d   1      -0.477   1.103  -0.000  0.00  0.00     0.028 A 
ATOM     22  C   UNL d   1      -0.965   2.505   0.018  0.00  0.00     0.070 C 
ATOM     23  C   UNL d   1      -1.260  -0.030  -0.010  0.00  0.00     0.063 A 
BRANCH  19  24
ATOM     24  C   UNL d   1       2.088   1.442   0.005  0.00  0.00     0.043 C 
ATOM     25  C   UNL d   1       3.342   0.529  -0.027  0.00  0.00     0.039 C 
ATOM     26  C   UNL d   1       2.179   2.348  -1.241  0.00  0.00     0.039 C 
ATOM     27  C   UNL d   1       2.194   2.282   1.295  0.00  0.00     0.039 C 
ENDBRANCH  19  24
ENDBRANCH   1  17
TORSDOF 5
