REMARK  5 active torsions:
REMARK  status: ('A' for Active; 'I' for Inactive)
REMARK    1  A    between atoms: C_3  and  N_1 
REMARK    2  A    between atoms: N_2  and  C_7 
REMARK    3  A    between atoms: C_12  and  C_4 
REMARK    4  A    between atoms: N_19  and  N_8 
REMARK    5  A    between atoms: C_22  and  N_19 
ROOT
ATOM      1  N   UNL d   1       3.300  -1.213   0.592  0.00  0.00    -0.326 N 
ATOM      2  HN  UNL d   1       3.392  -0.320   1.077  1.00  0.00     0.180 HD
ATOM      3  C   UNL d   1       2.206  -1.598   0.021  0.00  0.00     0.131 C 
ENDROOT
BRANCH   3   4
ATOM      4  C   UNL d   1       1.036  -0.755   0.053  0.00  0.00     0.055 A 
ATOM      5  N   UNL d   1      -0.286  -1.178  -0.047  0.00  0.00    -0.321 N 
ATOM      6  C   UNL d   1      -1.080  -0.051  -0.170  0.00  0.00     0.097 A 
ATOM      7  C   UNL d   1      -0.297   1.073  -0.041  0.00  0.00     0.020 A 
ATOM      8  C   UNL d   1       1.028   0.630   0.119  0.00  0.00     0.033 A 
BRANCH   5   9
ATOM      9  C   UNL d   1      -0.780  -2.516  -0.013  0.00  0.00     0.042 A 
ATOM     10  C   UNL d   1      -0.112  -3.509   0.717  0.00  0.00     0.054 A 
ATOM     11  C   UNL d   1      -0.593  -4.819   0.713  0.00  0.00     0.037 A 
ATOM     12 CL   UNL d   1       0.244  -6.033   1.602  0.00  0.00    -0.084 Cl
ATOM     13  C   UNL d   1      -1.739  -5.156  -0.001  0.00  0.00     0.048 A 
ATOM     14  C   UNL d   1      -2.417  -4.162  -0.700  0.00  0.00     0.037 A 
ATOM     15  C   UNL d   1      -1.956  -2.844  -0.703  0.00  0.00     0.054 A 
ATOM     16 CL   UNL d   1      -3.835  -4.567  -1.589  0.00  0.00    -0.084 Cl
ENDBRANCH   5   9
ENDBRANCH   3   4
BRANCH   1  17
ATOM     17  N   UNL d   1       4.324  -2.114   0.486  0.00  0.00    -0.206 NA
ATOM     18  H   UNL d   1       4.821  -2.066  -0.406  0.00  0.00     0.153 HD
BRANCH  17  19
ATOM     19  C   UNL d   1       5.252  -2.087   1.561  0.00  0.00     0.027 A 
ATOM     20  C   UNL d   1       4.834  -1.830   2.877  0.00  0.00     0.027 A 
ATOM     21  C   UNL d   1       5.741  -1.851   3.941  0.00  0.00     0.038 A 
ATOM     22  C   UNL d   1       7.083  -2.149   3.689  0.00  0.00     0.103 A 
ATOM     23  C   UNL d   1       7.513  -2.448   2.390  0.00  0.00     0.038 A 
ATOM     24  C   UNL d   1       6.592  -2.434   1.337  0.00  0.00     0.027 A 
BRANCH  22  25
ATOM     25  N   UNL d   1       8.047  -2.155   4.796  0.00  0.00    -0.116 N 
ATOM     26  O   UNL d   1       7.622  -1.914   5.935  0.00  0.00    -0.532 OA
ATOM     27  O   UNL d   1       9.232  -2.398   4.526  0.00  0.00    -0.532 OA
ENDBRANCH  22  25
ENDBRANCH  17  19
ENDBRANCH   1  17
TORSDOF 5
