REMARK  8 active torsions:
REMARK  status: ('A' for Active; 'I' for Inactive)
REMARK    1  A    between atoms: N_2  and  C_13 
REMARK    2  A    between atoms: N_3  and  C_14 
REMARK    3  A    between atoms: O_19  and  C_10 
REMARK    4  A    between atoms: O_20  and  C_11 
REMARK    5  A    between atoms: C_27  and  O_19 
REMARK    6  A    between atoms: C_26  and  O_20 
REMARK    7  A    between atoms: C_28  and  C_26 
REMARK    8  A    between atoms: C_29  and  C_27 
ROOT
ATOM      1  C   UNL d   1      -0.704   0.601   0.097  0.00  0.00     0.046 A 
ATOM      2  C   UNL d   1      -0.436  -0.761   0.102  0.00  0.00     0.086 A 
ATOM      3  C   UNL d   1       0.428   1.528   0.263  0.00  0.00     0.165 C 
ATOM      4  O   UNL d   1       0.803  -1.320   0.210  0.00  0.00    -0.340 OA
ATOM      5  C   UNL d   1      -2.020   1.071  -0.022  0.00  0.00     0.057 A 
ATOM      6  C   UNL d   1      -1.481  -1.666   0.031  0.00  0.00     0.077 A 
ATOM      7  C   UNL d   1       1.909  -0.453  -0.075  0.00  0.00     0.067 C 
ATOM      8  C   UNL d   1      -3.080   0.159  -0.101  0.00  0.00     0.103 A 
ATOM      9  C   UNL d   1      -2.806  -1.222  -0.021  0.00  0.00     0.105 A 
ATOM     10  C   UNL d   1       1.751   0.903   0.617  0.00  0.00     0.121 C 
ATOM     11  O   UNL d   1       0.263   2.741   0.187  0.00  0.00    -0.292 OA
ATOM     12  C   UNL d   1       2.080  -0.334  -1.598  0.00  0.00     0.046 C 
ATOM     13  C   UNL d   1       3.137  -1.175   0.500  0.00  0.00     0.046 C 
ENDROOT
BRANCH   8  14
ATOM     14  O   UNL d   1      -4.399   0.524  -0.197  0.00  0.00    -0.344 OA
BRANCH  14  15
ATOM     15  C   UNL d   1      -4.685   1.808  -0.762  0.00  0.00     0.214 C 
BRANCH  15  16
ATOM     16  C   UNL d   1      -6.088   1.777  -1.333  0.00  0.00    -0.034 A 
ATOM     17  C   UNL d   1      -7.072   2.686  -0.913  0.00  0.00     0.012 A 
ATOM     18  C   UNL d   1      -8.366   2.628  -1.444  0.00  0.00     0.037 A 
ATOM     19  C   UNL d   1      -8.677   1.659  -2.408  0.00  0.00     0.102 A 
ATOM     20  C   UNL d   1      -7.700   0.761  -2.853  0.00  0.00     0.037 A 
ATOM     21  C   UNL d   1      -6.413   0.827  -2.316  0.00  0.00     0.012 A 
BRANCH  19  22
ATOM     22  N   UNL d   1     -10.038   1.576  -2.950  0.00  0.00    -0.116 N 
ATOM     23  O   UNL d   1     -10.878   2.386  -2.529  0.00  0.00    -0.532 OA
ATOM     24  O   UNL d   1     -10.271   0.702  -3.798  0.00  0.00    -0.532 OA
ENDBRANCH  19  22
ENDBRANCH  15  16
ENDBRANCH  14  15
ENDBRANCH   8  14
BRANCH   9  25
ATOM     25  O   UNL d   1      -3.870  -2.094   0.001  0.00  0.00    -0.344 OA
BRANCH  25  26
ATOM     26  C   UNL d   1      -3.572  -3.372   0.580  0.00  0.00     0.214 C 
BRANCH  26  27
ATOM     27  C   UNL d   1      -4.818  -4.096   1.026  0.00  0.00    -0.034 A 
ATOM     28  C   UNL d   1      -4.800  -5.499   1.118  0.00  0.00     0.012 A 
ATOM     29  C   UNL d   1      -5.917  -6.192   1.584  0.00  0.00     0.037 A 
ATOM     30  C   UNL d   1      -7.055  -5.476   1.974  0.00  0.00     0.102 A 
ATOM     31  C   UNL d   1      -7.076  -4.077   1.912  0.00  0.00     0.037 A 
ATOM     32  C   UNL d   1      -5.953  -3.393   1.445  0.00  0.00     0.012 A 
BRANCH  30  33
ATOM     33  N   UNL d   1      -8.236  -6.197   2.458  0.00  0.00    -0.116 N 
ATOM     34  O   UNL d   1      -8.179  -7.437   2.503  0.00  0.00    -0.532 OA
ATOM     35  O   UNL d   1      -9.223  -5.529   2.795  0.00  0.00    -0.532 OA
ENDBRANCH  30  33
ENDBRANCH  26  27
ENDBRANCH  25  26
ENDBRANCH   9  25
TORSDOF 8
