REMARK  4 active torsions:
REMARK  status: ('A' for Active; 'I' for Inactive)
REMARK       I    between atoms: N_2  and  C_1 
REMARK    1  A    between atoms: C_4  and  C_1 
REMARK    2  A    between atoms: C_5  and  N_2 
REMARK    3  A    between atoms: S_7  and  C_3 
REMARK    4  A    between atoms: C_12  and  S_7 
ROOT
ATOM      1  C   UNL d   1       1.352  -1.050   3.173  0.00  0.00     0.101 A 
ATOM      2  C   UNL d   1       1.035  -1.357   1.841  0.00  0.00     0.069 A 
ATOM      3  N   UNL d   1       1.931  -1.956   4.010  0.00  0.00    -0.358 N 
ATOM      4  HN  UNL d   1       2.146  -1.718   4.978  1.00  0.00     0.166 HD
ATOM      5  C   UNL d   1       1.311  -2.643   1.372  0.00  0.00     0.034 A 
ATOM      6  C   UNL d   1       2.209  -3.179   3.511  0.00  0.00     0.089 A 
ATOM      7  C   UNL d   1       1.919  -3.566   2.215  0.00  0.00     0.019 A 
ENDROOT
BRANCH   2   8
ATOM      8  N   UNL d   1       0.377  -0.461   0.964  0.00  0.00    -0.320 N 
ATOM      9  C   UNL d   1       1.125   0.473   0.248  0.00  0.00     0.257 C 
ATOM     10  O   UNL d   1       2.331   0.635   0.383  0.00  0.00    -0.267 OA
ATOM     11  H   UNL d   1      -0.370  -0.866   0.413  0.00  0.00     0.169 HD
BRANCH   9  12
ATOM     12  C   UNL d   1       0.334   1.264  -0.756  0.00  0.00     0.043 A 
ATOM     13  C   UNL d   1       0.865   1.678  -2.019  0.00  0.00    -0.010 A 
ATOM     14  C   UNL d   1       0.037   2.467  -2.858  0.00  0.00    -0.025 A 
ATOM     15  C   UNL d   1       2.155   1.359  -2.516  0.00  0.00     0.013 A 
ATOM     16  C   UNL d   1       0.506   2.932  -4.101  0.00  0.00     0.012 A 
ATOM     17  C   UNL d   1      -1.266   2.804  -2.457  0.00  0.00     0.012 A 
ATOM     18  C   UNL d   1       1.788   2.620  -4.544  0.00  0.00     0.001 A 
ATOM     19  C   UNL d   1       2.609   1.827  -3.756  0.00  0.00     0.001 A 
ATOM     20  C   UNL d   1      -1.768   2.388  -1.229  0.00  0.00     0.002 A 
ATOM     21  C   UNL d   1      -0.971   1.633  -0.379  0.00  0.00     0.018 A 
ENDBRANCH   9  12
ENDBRANCH   2   8
BRANCH   1  22
ATOM     22  S   UNL d   1       0.786   0.441   3.972  0.00  0.00    -0.070 SA
BRANCH  22  23
ATOM     23  C   UNL d   1       2.180   1.547   3.891  0.00  0.00     0.007 A 
ATOM     24  C   UNL d   1       1.911   2.921   3.971  0.00  0.00     0.020 A 
ATOM     25  C   UNL d   1       2.944   3.860   3.912  0.00  0.00     0.025 A 
ATOM     26  C   UNL d   1       4.260   3.427   3.780  0.00  0.00     0.034 A 
ATOM     27  C   UNL d   1       4.549   2.066   3.724  0.00  0.00     0.025 A 
ATOM     28 CL   UNL d   1       5.534   4.580   3.693  0.00  0.00    -0.084 Cl
ATOM     29  C   UNL d   1       3.511   1.128   3.787  0.00  0.00     0.020 A 
ENDBRANCH  22  23
ENDBRANCH   1  22
TORSDOF 4
