REMARK  2 active torsions:
REMARK  status: ('A' for Active; 'I' for Inactive)
REMARK    1  A    between atoms: C_4  and  C_1 
REMARK       I    between atoms: N_9  and  C_4 
REMARK    2  A    between atoms: N_12  and  N_9 
ROOT
ATOM      1  C   UNL d   1      -2.874   0.520  -0.026  0.00  0.00     0.103 A 
ATOM      2  N   UNL d   1      -2.293  -0.731  -0.009  0.00  0.00    -0.351 N 
ATOM      3  C   UNL d   1      -1.833   1.433  -0.001  0.00  0.00     0.049 A 
ATOM      4  C   UNL d   1      -0.604   0.716   0.013  0.00  0.00    -0.004 A 
ATOM      5  C   UNL d   1      -0.921  -0.641   0.007  0.00  0.00     0.043 A 
ATOM      6  C   UNL d   1       0.748   1.101   0.022  0.00  0.00     0.056 A 
ATOM      7  C   UNL d   1       0.055  -1.647   0.012  0.00  0.00     0.033 A 
ATOM      8  C   UNL d   1       1.724   0.106   0.025  0.00  0.00     0.117 A 
ATOM      9  C   UNL d   1       1.393  -1.243   0.021  0.00  0.00     0.044 A 
ATOM     10  F   UNL d   1       3.017   0.462   0.030  0.00  0.00    -0.206 F 
ATOM     11  H   UNL d   1      -2.822  -1.593  -0.023  0.00  0.00     0.166 HD
ENDROOT
BRANCH   1  12
ATOM     12  C   UNL d   1      -4.311   0.686  -0.083  0.00  0.00     0.282 C 
ATOM     13  O   UNL d   1      -5.084  -0.266  -0.161  0.00  0.00    -0.265 OA
ATOM     14  N   UNL d   1      -4.757   2.004  -0.055  0.00  0.00    -0.288 N 
ATOM     15  H   UNL d   1      -4.107   2.759   0.144  0.00  0.00     0.183 HD
BRANCH  14  16
ATOM     16  N   UNL d   1      -6.142   2.290  -0.081  0.00  0.00    -0.247 NA
ATOM     17  H   UNL d   1      -6.634   1.386  -0.039  0.00  0.00     0.143 HD
ATOM     18  H   UNL d   1      -6.370   2.658  -1.008  0.00  0.00     0.143 HD
ENDBRANCH  14  16
ENDBRANCH   1  12
TORSDOF 2
