REMARK  5 active torsions:
REMARK  status: ('A' for Active; 'I' for Inactive)
REMARK    1  A    between atoms: N_5  and  C_1 
REMARK    2  A    between atoms: N_11  and  C_1 
REMARK    3  A    between atoms: N_2  and  N_5 
REMARK    4  A    between atoms: C_10  and  N_2 
REMARK    5  A    between atoms: C_9  and  C_10 
ROOT
ATOM      1  N   UNL d   1      -1.069   0.432  -3.284  0.00  0.00    -0.309 N 
ATOM      2  HN  UNL d   1      -1.544   0.086  -4.117  1.00  0.00     0.186 HD
ENDROOT
BRANCH   1   3
ATOM      3  N   UNL d   1       0.292   0.453  -3.179  0.00  0.00    -0.277 N 
ATOM      4  H   UNL d   1       0.748   0.808  -2.345  0.00  0.00     0.189 HD
BRANCH   3   5
ATOM      5  C   UNL d   1       1.075  -0.016  -4.200  0.00  0.00     0.184 C 
ATOM      6  S   UNL d   1       2.731  -0.021  -4.122  0.00  0.00    -0.040 SA
BRANCH   5   7
ATOM      7  N   UNL d   1       0.402  -0.478  -5.280  0.00  0.00    -0.375 N 
ATOM      8  H   UNL d   1       0.878  -0.843  -6.091  0.00  0.00     0.158 HD
ATOM      9  H   UNL d   1      -0.609  -0.429  -5.246  0.00  0.00     0.158 HD
ENDBRANCH   5   7
ENDBRANCH   3   5
ENDBRANCH   1   3
BRANCH   1  10
ATOM     10  C   UNL d   1      -1.715   0.882  -2.257  0.00  0.00     0.118 C 
BRANCH  10  11
ATOM     11  C   UNL d   1      -3.190   0.906  -2.250  0.00  0.00    -0.013 A 
ATOM     12  C   UNL d   1      -3.908   0.461  -3.365  0.00  0.00     0.055 A 
ATOM     13  C   UNL d   1      -5.297   0.487  -3.337  0.00  0.00     0.120 A 
ATOM     14  F   UNL d   1      -5.984   0.060  -4.404  0.00  0.00    -0.206 F 
ATOM     15  C   UNL d   1      -5.983   0.948  -2.221  0.00  0.00     0.084 A 
ATOM     16  C   UNL d   1      -5.256   1.388  -1.123  0.00  0.00     0.120 A 
ATOM     17  C   UNL d   1      -3.863   1.375  -1.121  0.00  0.00     0.055 A 
ATOM     18  F   UNL d   1      -5.907   1.834  -0.041  0.00  0.00    -0.206 F 
ENDBRANCH  10  11
ENDBRANCH   1  10
TORSDOF 5
