REMARK  9 active torsions:
REMARK  status: ('A' for Active; 'I' for Inactive)
REMARK    1  A    between atoms: O_12  and  C_1 
REMARK       I    between atoms: N_5  and  C_8 
REMARK    2  A    between atoms: C_13  and  N_5 
REMARK    3  A    between atoms: C_16  and  N_5 
REMARK    4  A    between atoms: C_18  and  C_6 
REMARK    5  A    between atoms: C_8  and  C_15 
REMARK    6  A    between atoms: C_15  and  O_12 
REMARK    7  A    between atoms: C_14  and  C_13 
REMARK    8  A    between atoms: O_20  and  C_14 
REMARK    9  A    between atoms: C_26  and  O_20 
ROOT
ATOM      1  C   UNL d   1       0.043   1.012  -0.921  0.00  0.00     0.165 A 
ATOM      2  C   UNL d   1      -1.140   0.445  -1.397  0.00  0.00     0.101 A 
ATOM      3  N   UNL d   1       1.113   0.273  -0.532  0.00  0.00    -0.335 N 
ATOM      4  HN  UNL d   1       1.959   0.731  -0.192  1.00  0.00     0.168 HD
ATOM      5  C   UNL d   1       1.047  -1.074  -0.600  0.00  0.00     0.044 A 
ATOM      6  C   UNL d   1      -1.216  -0.961  -1.454  0.00  0.00    -0.035 A 
ATOM      7  C   UNL d   1      -2.229   1.267  -1.822  0.00  0.00     0.104 C 
ATOM      8  N   UNL d   1      -3.145   1.884  -2.199  0.00  0.00    -0.191 NA
ATOM      9  C   UNL d   1      -0.103  -1.712  -1.047  0.00  0.00     0.038 A 
ATOM     10  C   UNL d   1      -2.439  -1.735  -1.866  0.00  0.00     0.050 C 
ENDROOT
BRANCH   1  11
ATOM     11  O   UNL d   1       0.163   2.395  -0.825  0.00  0.00    -0.325 OA
BRANCH  11  12
ATOM     12  C   UNL d   1       1.415   2.782  -0.253  0.00  0.00     0.280 C 
BRANCH  12  13
ATOM     13  C   UNL d   1       1.748   4.282  -0.058  0.00  0.00     0.249 C 
ATOM     14  N   UNL d   1       0.764   5.144   0.411  0.00  0.00    -0.307 N 
ATOM     15  O   UNL d   1       2.888   4.689  -0.313  0.00  0.00    -0.271 OA
BRANCH  14  16
ATOM     16  C   UNL d   1       1.093   6.570   0.572  0.00  0.00     0.243 C 
BRANCH  16  17
ATOM     17  C   UNL d   1       1.485   6.972   1.995  0.00  0.00     0.277 C 
ATOM     18  O   UNL d   1       1.996   6.244   2.836  0.00  0.00    -0.263 OA
BRANCH  17  19
ATOM     19  O   UNL d   1       1.143   8.282   2.201  0.00  0.00    -0.321 OA
BRANCH  19  20
ATOM     20  C   UNL d   1       1.117   8.710   3.572  0.00  0.00     0.174 C 
ATOM     21  C   UNL d   1      -0.270   8.437   4.125  0.00  0.00     0.034 C 
ENDBRANCH  19  20
ENDBRANCH  17  19
ENDBRANCH  16  17
ENDBRANCH  14  16
BRANCH  14  22
ATOM     22  C   UNL d   1      -0.376   4.664   1.092  0.00  0.00     0.037 A 
ATOM     23  C   UNL d   1      -0.236   3.986   2.309  0.00  0.00     0.030 A 
ATOM     24  C   UNL d   1      -1.347   3.406   2.917  0.00  0.00     0.002 A 
ATOM     25  C   UNL d   1      -2.596   3.494   2.305  0.00  0.00     0.000 A 
ATOM     26  C   UNL d   1      -2.742   4.194   1.106  0.00  0.00     0.002 A 
ATOM     27  C   UNL d   1      -1.635   4.797   0.506  0.00  0.00     0.030 A 
ENDBRANCH  14  22
ENDBRANCH  12  13
ENDBRANCH  11  12
ENDBRANCH   1  11
BRANCH   5  28
ATOM     28  C   UNL d   1       2.227  -1.813  -0.110  0.00  0.00    -0.009 A 
ATOM     29  C   UNL d   1       3.030  -1.286   0.919  0.00  0.00     0.013 A 
ATOM     30  C   UNL d   1       4.089  -2.017   1.463  0.00  0.00     0.001 A 
ATOM     31  C   UNL d   1       4.378  -3.289   0.977  0.00  0.00     0.000 A 
ATOM     32  C   UNL d   1       3.631  -3.815  -0.071  0.00  0.00     0.001 A 
ATOM     33  C   UNL d   1       2.573  -3.081  -0.614  0.00  0.00     0.013 A 
ENDBRANCH   5  28
TORSDOF 9
