REMARK  6 active torsions:
REMARK  status: ('A' for Active; 'I' for Inactive)
REMARK    1  A    between atoms: C_22  and  N_5 
REMARK    2  A    between atoms: N_20  and  C_7 
REMARK    3  A    between atoms: C_21  and  C_25 
REMARK    4  A    between atoms: C_26  and  C_22 
REMARK    5  A    between atoms: N_24  and  C_26 
REMARK    6  A    between atoms: C_25  and  N_24 
ROOT
ATOM      1  C   UNL d   1       0.629  -1.091  -0.379  0.00  0.00     0.116 A 
ATOM      2  N   UNL d   1       0.579  -1.066   1.001  0.00  0.00    -0.346 N 
ATOM      3  HN  UNL d   1       0.255  -1.805   1.625  1.00  0.00     0.167 HD
ATOM      4  C   UNL d   1       1.094   0.116  -0.877  0.00  0.00     0.140 A 
ATOM      5  N   UNL d   1       1.377   0.864   0.234  0.00  0.00    -0.326 N 
ATOM      6  C   UNL d   1       1.043   0.123   1.334  0.00  0.00     0.185 A 
ATOM      7  C   UNL d   1       0.317  -2.082  -1.327  0.00  0.00     0.109 A 
ATOM      8  N   UNL d   1       1.260   0.458  -2.165  0.00  0.00    -0.336 N 
ATOM      9  HN  UNL d   1       1.613   1.360  -2.485  1.00  0.00     0.168 HD
ATOM     10  N   UNL d   1       0.440  -1.784  -2.639  0.00  0.00    -0.341 N 
ATOM     11  HN  UNL d   1       0.194  -2.466  -3.356  1.00  0.00     0.167 HD
ATOM     12  C   UNL d   1       0.896  -0.557  -2.976  0.00  0.00     0.183 A 
ENDROOT
BRANCH   5  13
ATOM     13  C   UNL d   1       2.071   2.134   0.238  0.00  0.00     0.161 C 
BRANCH  13  14
ATOM     14  C   UNL d   1       1.139   3.341   0.060  0.00  0.00     0.290 C 
BRANCH  14  15
ATOM     15  N   UNL d   1       1.844   4.615  -0.183  0.00  0.00     0.089 N 
ATOM     16  H   UNL d   1       2.594   4.740   0.496  0.00  0.00     0.316 HD
BRANCH  15  17
ATOM     17  C   UNL d   1       2.411   4.636  -1.536  0.00  0.00     0.308 C 
BRANCH  17  18
ATOM     18  C   UNL d   1       3.200   5.869  -1.911  0.00  0.00    -0.028 A 
ATOM     19  C   UNL d   1       3.944   5.801  -3.104  0.00  0.00     0.048 A 
ATOM     20  C   UNL d   1       4.667   6.902  -3.501  0.00  0.00     0.105 A 
ATOM     21  O   UNL d   1       5.427   6.985  -4.625  0.00  0.00    -0.323 OA
ATOM     22  C   UNL d   1       4.678   8.059  -2.764  0.00  0.00     0.105 A 
ATOM     23  C   UNL d   1       5.906   8.340  -4.522  0.00  0.00     0.352 A 
ATOM     24  O   UNL d   1       5.452   9.022  -3.332  0.00  0.00    -0.323 OA
ATOM     25  C   UNL d   1       3.961   8.176  -1.592  0.00  0.00     0.040 A 
ATOM     26  C   UNL d   1       3.208   7.070  -1.167  0.00  0.00     0.012 A 
ENDBRANCH  17  18
ENDBRANCH  15  17
ENDBRANCH  14  15
ENDBRANCH  13  14
ENDBRANCH   5  13
BRANCH   7  27
ATOM     27  N   UNL d   1      -0.110  -3.356  -0.978  0.00  0.00    -0.287 NA
ATOM     28  H   UNL d   1      -0.486  -3.417  -0.038  0.00  0.00     0.125 HD
ATOM     29  H   UNL d   1      -0.615  -3.812  -1.725  0.00  0.00     0.125 HD
ENDBRANCH   7  27
TORSDOF 6
