REMARK  6 active torsions:
REMARK  status: ('A' for Active; 'I' for Inactive)
REMARK       I    between atoms: N_3  and  C_1 
REMARK    1  A    between atoms: C_5  and  C_1 
REMARK    2  A    between atoms: C_2  and  C_9 
REMARK    3  A    between atoms: N_7  and  N_3 
REMARK    4  A    between atoms: C_4  and  N_7 
REMARK    5  A    between atoms: C_8  and  C_6 
REMARK    6  A    between atoms: O_18  and  C_8 
ROOT
ATOM      1  C   UNL d   1      -0.650  -1.143   0.071  0.00  0.00     0.267 C 
ATOM      2  N   UNL d   1       0.491  -1.039  -0.708  0.00  0.00    -0.280 N 
ATOM      3  O   UNL d   1      -1.243  -2.194   0.292  0.00  0.00    -0.266 OA
ATOM      4  H   UNL d   1       0.961  -0.170  -0.937  0.00  0.00     0.184 HD
ENDROOT
BRANCH   2   5
ATOM      5  N   UNL d   1       1.113  -2.216  -1.197  0.00  0.00    -0.182 NA
ATOM      6  C   UNL d   1       0.412  -2.850  -2.315  0.00  0.00     0.144 C 
BRANCH   5   7
ATOM      7  C   UNL d   1       2.515  -2.071  -1.391  0.00  0.00     0.101 A 
ATOM      8  C   UNL d   1       3.269  -1.333  -0.472  0.00  0.00     0.060 A 
ATOM      9  C   UNL d   1       4.642  -1.134  -0.671  0.00  0.00     0.052 A 
ATOM     10  C   UNL d   1       5.244  -1.740  -1.771  0.00  0.00     0.033 A 
ATOM     11  C   UNL d   1       4.451  -2.492  -2.615  0.00  0.00     0.090 A 
ATOM     12  N   UNL d   1       3.120  -2.654  -2.450  0.00  0.00    -0.355 N 
ATOM     13  HN  UNL d   1       2.580  -3.209  -3.115  1.00  0.00     0.166 HD
BRANCH   9  14
ATOM     14  C   UNL d   1       5.446  -0.278   0.268  0.00  0.00     0.417 C 
ATOM     15  F   UNL d   1       4.697   0.317   1.237  0.00  0.00    -0.166 F 
ATOM     16  F   UNL d   1       6.411  -0.983   0.917  0.00  0.00    -0.166 F 
ATOM     17  F   UNL d   1       6.090   0.732  -0.378  0.00  0.00    -0.166 F 
ENDBRANCH   9  14
ENDBRANCH   5   7
ENDBRANCH   2   5
BRANCH   1  18
ATOM     18  C   UNL d   1      -1.177   0.108   0.679  0.00  0.00     0.050 A 
ATOM     19  C   UNL d   1      -1.097   1.391   0.120  0.00  0.00     0.053 A 
ATOM     20  C   UNL d   1      -1.583   2.500   0.835  0.00  0.00     0.019 A 
ATOM     21  C   UNL d   1      -2.188   2.333   2.080  0.00  0.00     0.001 A 
ATOM     22  C   UNL d   1      -2.311   1.058   2.623  0.00  0.00     0.001 A 
ATOM     23  C   UNL d   1      -1.811  -0.045   1.928  0.00  0.00     0.018 A 
BRANCH  19  24
ATOM     24  C   UNL d   1      -0.495   1.696  -1.190  0.00  0.00     0.177 C 
ATOM     25  O   UNL d   1       0.330   2.581  -1.339  0.00  0.00    -0.646 OA
BRANCH  24  26
ATOM     26  O   UNL d   1      -0.924   0.910  -2.199  0.00  0.00    -0.773 OA
ATOM     27  H   UNL d   1      -1.619   0.257  -1.989  0.00  0.00     0.167 HD
ENDBRANCH  24  26
ENDBRANCH  19  24
ENDBRANCH   1  18
TORSDOF 6
