REMARK  3 active torsions:
REMARK  status: ('A' for Active; 'I' for Inactive)
REMARK    1  A    between atoms: C_2  and  S_1 
REMARK    2  A    between atoms: N_6  and  S_1 
REMARK    3  A    between atoms: C_15  and  N_6 
ROOT
ATOM      1  N   UNL d   1       0.466  -1.466   0.882  0.00  0.00    -0.180 NA
ATOM      2  H   UNL d   1      -0.543  -1.328   0.963  0.00  0.00     0.146 HD
ENDROOT
BRANCH   1   3
ATOM      3  S   UNL d   1       1.099  -0.155   0.007  0.00  0.00     0.263 S 
ATOM      4  O   UNL d   1       0.516   1.046   0.565  0.00  0.00    -0.204 OA
ATOM      5  O   UNL d   1       2.532  -0.307  -0.145  0.00  0.00    -0.204 OA
BRANCH   3   6
ATOM      6  C   UNL d   1       0.460  -0.211  -1.621  0.00  0.00     0.161 A 
ATOM      7  N   UNL d   1      -0.893  -0.362  -1.905  0.00  0.00    -0.341 N 
ATOM      8  C   UNL d   1      -0.971  -0.315  -3.218  0.00  0.00     0.183 A 
ATOM      9  HN  UNL d   1      -1.657  -0.484  -1.241  1.00  0.00     0.167 HD
ATOM     10  N   UNL d   1       0.264  -0.189  -3.790  0.00  0.00    -0.354 N 
ATOM     11  C   UNL d   1       1.189  -0.122  -2.792  0.00  0.00     0.134 A 
ATOM     12  C   UNL d   1       0.530  -0.135  -5.207  0.00  0.00     0.156 C 
ENDBRANCH   3   6
ENDBRANCH   1   3
BRANCH   1  13
ATOM     13  C   UNL d   1       0.841  -2.774   0.450  0.00  0.00     0.023 A 
ATOM     14  C   UNL d   1       0.009  -3.473  -0.430  0.00  0.00     0.038 A 
ATOM     15  C   UNL d   1       0.353  -4.788  -0.799  0.00  0.00    -0.006 A 
ATOM     16  C   UNL d   1      -0.261  -5.775  -1.619  0.00  0.00     0.030 A 
ATOM     17  C   UNL d   1       1.527  -5.346  -0.292  0.00  0.00     0.042 A 
ATOM     18  C   UNL d   1       0.524  -6.904  -1.574  0.00  0.00     0.089 A 
ATOM     19  N   UNL d   1       1.603  -6.634  -0.774  0.00  0.00    -0.365 N 
ATOM     20  H   UNL d   1       2.344  -7.286  -0.553  0.00  0.00     0.165 HD
ATOM     21  C   UNL d   1       2.395  -4.641   0.551  0.00  0.00     0.032 A 
ATOM     22  C   UNL d   1       2.031  -3.336   0.906  0.00  0.00     0.027 A 
ENDBRANCH   1  13
TORSDOF 3
