REMARK  4 active torsions:
REMARK  status: ('A' for Active; 'I' for Inactive)
REMARK    1  A    between atoms: O_6  and  C_1 
REMARK    2  A    between atoms: C_5  and  C_2 
REMARK    3  A    between atoms: O_14  and  C_5 
REMARK    4  A    between atoms: C_9  and  O_6 
ROOT
ATOM      1  C   UNL d   1      -0.545  -0.038  -0.431  0.00  0.00     0.112 A 
ATOM      2  C   UNL d   1      -0.144  -2.772   0.049  0.00  0.00     0.042 A 
ATOM      3  C   UNL d   1      -1.626  -0.927  -0.496  0.00  0.00     0.042 A 
ATOM      4  C   UNL d   1       0.737  -0.515  -0.122  0.00  0.00     0.042 A 
ATOM      5  C   UNL d   1      -1.427  -2.288  -0.245  0.00  0.00     0.038 A 
ATOM      6  C   UNL d   1       0.936  -1.880   0.116  0.00  0.00     0.038 A 
ATOM      7  I   UNL d   1      -3.558  -0.321  -1.041  0.00  0.00    -0.042 I 
ATOM      8  I   UNL d   1       2.407   0.744  -0.046  0.00  0.00    -0.042 I 
ENDROOT
BRANCH   1   9
ATOM      9  O   UNL d   1      -0.714   1.301  -0.809  0.00  0.00    -0.277 OA
BRANCH   9  10
ATOM     10  C   UNL d   1      -1.196   2.126   0.201  0.00  0.00     0.260 C 
ATOM     11  O   UNL d   1      -1.376   1.817   1.370  0.00  0.00    -0.265 OA
ATOM     12  C   UNL d   1      -1.445   3.491  -0.372  0.00  0.00     0.126 C 
ENDBRANCH   9  10
ENDBRANCH   1   9
BRANCH   2  13
ATOM     13  C   UNL d   1       0.126  -4.223   0.229  0.00  0.00     0.293 C 
ATOM     14  O   UNL d   1       1.246  -4.705   0.206  0.00  0.00    -0.259 OA
BRANCH  13  15
ATOM     15  O   UNL d   1      -1.034  -4.900   0.398  0.00  0.00    -0.323 OA
ATOM     16  C   UNL d   1      -0.887  -6.316   0.519  0.00  0.00     0.213 C 
ENDBRANCH  13  15
ENDBRANCH   2  13
TORSDOF 4
