REMARK  5 active torsions:
REMARK  status: ('A' for Active; 'I' for Inactive)
REMARK    1  A    between atoms: C_13  and  N_1 
REMARK    2  A    between atoms: C_4  and  C_12 
REMARK    3  A    between atoms: C_18  and  C_7 
REMARK    4  A    between atoms: C_12  and  N_17 
REMARK    5  A    between atoms: C_14  and  C_13 
REMARK       I    between atoms: N_17  and  C_14 
ROOT
ATOM      1  C   UNL d   1       3.469   1.958   0.772  0.00  0.00     0.236 C 
ATOM      2  N   UNL d   1       2.816   2.511  -0.306  0.00  0.00    -0.355 N 
ATOM      3  O   UNL d   1       2.867   1.606   1.788  0.00  0.00    -0.272 OA
ATOM      4  H   UNL d   1       3.344   2.941  -1.055  0.00  0.00     0.162 HD
ENDROOT
BRANCH   2   5
ATOM      5  C   UNL d   1       1.368   2.521  -0.368  0.00  0.00     0.166 C 
BRANCH   5   6
ATOM      6  C   UNL d   1       0.759   3.850  -0.076  0.00  0.00     0.020 A 
ATOM      7  C   UNL d   1      -0.646   4.186  -0.146  0.00  0.00     0.075 A 
ATOM      8  N   UNL d   1      -0.823   5.492   0.114  0.00  0.00    -0.260 N 
ATOM      9  O   UNL d   1       0.409   6.004   0.423  0.00  0.00    -0.242 OA
ATOM     10  HN  UNL d   1      -1.705   6.004   0.087  1.00  0.00     0.195 HD
ATOM     11  C   UNL d   1       1.349   5.034   0.332  0.00  0.00     0.082 A 
ATOM     12  C   UNL d   1       2.717   5.461   0.692  0.00  0.00     0.079 C 
BRANCH   7  13
ATOM     13  C   UNL d   1      -1.817   3.347  -0.439  0.00  0.00    -0.007 A 
ATOM     14  C   UNL d   1      -2.935   3.904  -1.085  0.00  0.00     0.014 A 
ATOM     15  C   UNL d   1      -4.084   3.142  -1.325  0.00  0.00     0.001 A 
ATOM     16  C   UNL d   1      -4.130   1.809  -0.928  0.00  0.00     0.000 A 
ATOM     17  C   UNL d   1      -3.035   1.242  -0.282  0.00  0.00     0.001 A 
ATOM     18  C   UNL d   1      -1.892   2.009  -0.029  0.00  0.00     0.014 A 
ENDBRANCH   7  13
ENDBRANCH   5   6
ENDBRANCH   2   5
BRANCH   1  19
ATOM     19  C   UNL d   1       4.993   1.973   0.743  0.00  0.00     0.238 C 
BRANCH  19  20
ATOM     20  N   UNL d   1       5.619   1.716  -0.540  0.00  0.00    -0.271 N 
ATOM     21  C   UNL d   1       6.022   0.469  -0.938  0.00  0.00     0.262 A 
ATOM     22  C   UNL d   1       6.927   0.667  -2.072  0.00  0.00     0.048 A 
ATOM     23  O   UNL d   1       5.768  -0.611  -0.444  0.00  0.00    -0.267 OA
ATOM     24  C   UNL d   1       7.690  -0.247  -2.774  0.00  0.00     0.018 A 
ATOM     25  C   UNL d   1       7.022   2.027  -2.296  0.00  0.00     0.048 A 
ATOM     26  C   UNL d   1       8.585   0.263  -3.721  0.00  0.00     0.001 A 
ATOM     27  C   UNL d   1       8.694   1.653  -3.939  0.00  0.00     0.001 A 
ATOM     28  C   UNL d   1       7.900   2.555  -3.224  0.00  0.00     0.018 A 
ATOM     29  C   UNL d   1       6.152   2.695  -1.327  0.00  0.00     0.262 A 
ATOM     30  O   UNL d   1       5.982   3.897  -1.255  0.00  0.00    -0.267 OA
ENDBRANCH  19  20
ENDBRANCH   1  19
TORSDOF 5
