REMARK  2 active torsions:
REMARK  status: ('A' for Active; 'I' for Inactive)
REMARK    1  A    between atoms: C_7  and  C_4 
REMARK       I    between atoms: N_13  and  C_7 
REMARK    2  A    between atoms: N_16  and  N_13 
ROOT
ATOM      1  C   UNL d   1      -0.860  -0.459  -0.001  0.00  0.00     0.024 A 
ATOM      2  S   UNL d   1      -1.692  -1.955   0.009  0.00  0.00    -0.083 SA
ATOM      3  C   UNL d   1      -1.743   0.606  -0.015  0.00  0.00    -0.029 A 
ATOM      4  C   UNL d   1      -3.230  -1.220  -0.010  0.00  0.00     0.075 A 
ATOM      5  C   UNL d   1       0.609  -0.383   0.000  0.00  0.00    -0.000 A 
ATOM      6  C   UNL d   1      -3.110   0.154  -0.018  0.00  0.00     0.034 A 
ATOM      7  S   UNL d   1       0.398   2.451   0.113  0.00  0.00    -0.124 SA
ATOM      8  C   UNL d   1       1.241   0.875   0.027  0.00  0.00     0.012 A 
ATOM      9  C   UNL d   1      -1.365   2.048  -0.046  0.00  0.00     0.119 C 
ATOM     10  C   UNL d   1       1.417  -1.539  -0.020  0.00  0.00     0.038 A 
ATOM     11  C   UNL d   1       2.647   0.946   0.020  0.00  0.00     0.021 A 
ATOM     12  C   UNL d   1       2.809  -1.447  -0.021  0.00  0.00     0.035 A 
ATOM     13  C   UNL d   1       3.429  -0.208  -0.005  0.00  0.00     0.025 A 
ATOM     14 CL   UNL d   1       3.758  -2.883  -0.037  0.00  0.00    -0.084 Cl
ENDROOT
BRANCH   4  15
ATOM     15  C   UNL d   1      -4.456  -2.007  -0.004  0.00  0.00     0.272 C 
ATOM     16  O   UNL d   1      -5.583  -1.504   0.030  0.00  0.00    -0.266 OA
ATOM     17  N   UNL d   1      -4.283  -3.391  -0.038  0.00  0.00    -0.289 N 
ATOM     18  H   UNL d   1      -3.345  -3.767  -0.163  0.00  0.00     0.183 HD
BRANCH  17  19
ATOM     19  N   UNL d   1      -5.391  -4.264  -0.071  0.00  0.00    -0.247 NA
ATOM     20  H   UNL d   1      -6.229  -3.682  -0.211  0.00  0.00     0.143 HD
ATOM     21  H   UNL d   1      -5.511  -4.656   0.866  0.00  0.00     0.143 HD
ENDBRANCH  17  19
ENDBRANCH   4  15
TORSDOF 2
