REMARK  5 active torsions:
REMARK  status: ('A' for Active; 'I' for Inactive)
REMARK    1  A    between atoms: C_16  and  N_3 
REMARK    2  A    between atoms: C_14  and  C_9 
REMARK    3  A    between atoms: O_20  and  C_21 
REMARK    4  A    between atoms: C_23  and  O_20 
REMARK    5  A    between atoms: C_26  and  C_23 
ROOT
ATOM      1  C   UNL d   1       1.477  -0.606  -0.178  0.00  0.00     0.137 A 
ATOM      2  C   UNL d   1       1.504   0.771  -0.117  0.00  0.00     0.025 A 
ATOM      3  N   UNL d   1       2.778  -1.047  -0.003  0.00  0.00    -0.239 N 
ATOM      4  N   UNL d   1       3.619   0.004   0.223  0.00  0.00    -0.296 N 
ATOM      5  HN  UNL d   1       4.609  -0.036   0.462  1.00  0.00     0.187 HD
ATOM      6  C   UNL d   1      -0.984   0.684  -0.314  0.00  0.00     0.023 A 
ATOM      7  N   UNL d   1       0.324  -1.326  -0.272  0.00  0.00    -0.343 N 
ATOM      8  C   UNL d   1      -0.911  -0.671  -0.332  0.00  0.00     0.022 A 
ATOM      9  C   UNL d   1       0.239   1.585  -0.151  0.00  0.00     0.096 A 
ATOM     10  C   UNL d   1       2.865   1.101   0.065  0.00  0.00     0.033 A 
ATOM     11  C   UNL d   1      -2.299   1.371  -0.374  0.00  0.00     0.159 C 
ATOM     12  C   UNL d   1      -2.166  -1.513  -0.336  0.00  0.00     0.067 C 
ATOM     13  C   UNL d   1      -3.329  -0.849   0.438  0.00  0.00    -0.036 C 
ATOM     14  C   UNL d   1      -3.558   0.586  -0.075  0.00  0.00     0.092 C 
ATOM     15  O   UNL d   1      -2.360   2.556  -0.698  0.00  0.00    -0.293 OA
ATOM     16  C   UNL d   1       3.495   2.441   0.160  0.00  0.00     0.070 C 
ATOM     17  C   UNL d   1      -3.039  -0.846   1.956  0.00  0.00     0.015 C 
ATOM     18  C   UNL d   1      -4.622  -1.657   0.220  0.00  0.00     0.015 C 
ATOM     19  H   UNL d   1       0.297  -2.332  -0.124  0.00  0.00     0.167 HD
ENDROOT
BRANCH   9  20
ATOM     20  C   UNL d   1       0.202   2.273   1.212  0.00  0.00    -0.045 A 
ATOM     21  C   UNL d   1       0.178   3.670   1.315  0.00  0.00     0.011 A 
ATOM     22  C   UNL d   1       0.152   4.284   2.571  0.00  0.00     0.037 A 
ATOM     23  C   UNL d   1       0.137   3.513   3.734  0.00  0.00     0.069 A 
ATOM     24  C   UNL d   1       0.089   2.125   3.639  0.00  0.00     0.037 A 
ATOM     25  C   UNL d   1       0.144   1.513   2.395  0.00  0.00     0.011 A 
BRANCH  23  26
ATOM     26  O   UNL d   1       0.178   4.203   4.915  0.00  0.00    -0.347 OA
BRANCH  26  27
ATOM     27  C   UNL d   1       0.642   3.435   6.027  0.00  0.00     0.214 C 
BRANCH  27  28
ATOM     28  C   UNL d   1       1.107   4.359   7.119  0.00  0.00    -0.034 A 
ATOM     29  C   UNL d   1       0.203   5.223   7.750  0.00  0.00     0.009 A 
ATOM     30  C   UNL d   1       0.636   6.059   8.779  0.00  0.00     0.001 A 
ATOM     31  C   UNL d   1       1.972   6.038   9.181  0.00  0.00     0.000 A 
ATOM     32  C   UNL d   1       2.879   5.186   8.556  0.00  0.00     0.001 A 
ATOM     33  C   UNL d   1       2.449   4.350   7.526  0.00  0.00     0.009 A 
ENDBRANCH  27  28
ENDBRANCH  26  27
ENDBRANCH  23  26
ENDBRANCH   9  20
BRANCH   3  34
ATOM     34  C   UNL d   1       3.297  -2.366  -0.039  0.00  0.00     0.058 A 
ATOM     35  C   UNL d   1       2.708  -3.350  -0.842  0.00  0.00     0.031 A 
ATOM     36  C   UNL d   1       3.268  -4.628  -0.895  0.00  0.00     0.002 A 
ATOM     37  C   UNL d   1       4.398  -4.933  -0.135  0.00  0.00     0.000 A 
ATOM     38  C   UNL d   1       4.985  -3.957   0.668  0.00  0.00     0.002 A 
ATOM     39  C   UNL d   1       4.449  -2.669   0.704  0.00  0.00     0.031 A 
ENDBRANCH   3  34
TORSDOF 5
