REMARK  1 active torsions:
REMARK  status: ('A' for Active; 'I' for Inactive)
REMARK    1  A    between atoms: C_3  and  N_1 
ROOT
ATOM      1  C   UNL d   1       2.086  -1.499  -0.070  0.00  0.00     0.066 A 
ATOM      2  C   UNL d   1       2.369  -2.367  -1.141  0.00  0.00     0.063 A 
ATOM      3  C   UNL d   1       3.532  -3.145  -1.133  0.00  0.00     0.050 A 
ATOM      4  C   UNL d   1       3.007  -1.404   0.986  0.00  0.00     0.034 A 
ATOM      5  C   UNL d   1       4.412  -3.065  -0.057  0.00  0.00     0.035 A 
ATOM      6 CL   UNL d   1       1.386  -2.437  -2.563  0.00  0.00    -0.082 Cl
ATOM      7  C   UNL d   1       4.157  -2.197   1.001  0.00  0.00     0.026 A 
ATOM      8 CL   UNL d   1       5.830  -4.039  -0.039  0.00  0.00    -0.084 Cl
ENDROOT
BRANCH   1   9
ATOM      9  N   UNL d   1       0.907  -0.721  -0.006  0.00  0.00    -0.259 N 
ATOM     10  C   UNL d   1       0.928   0.665   0.158  0.00  0.00     0.376 A 
ATOM     11  O   UNL d   1      -0.376   1.156   0.177  0.00  0.00    -0.271 OA
ATOM     12  O   UNL d   1       1.909   1.392   0.259  0.00  0.00    -0.237 OA
ATOM     13  C   UNL d   1      -1.118  -0.015   0.068  0.00  0.00     0.172 A 
ATOM     14  C   UNL d   1      -0.397  -1.124  -0.041  0.00  0.00     0.041 A 
ATOM     15  C   UNL d   1      -0.877  -2.528  -0.029  0.00  0.00     0.071 C 
ENDBRANCH   1   9
TORSDOF 1
