REMARK  0 active torsions:
REMARK  status: ('A' for Active; 'I' for Inactive)
ROOT
ATOM      1  N   UNL d   1      -1.028  -2.108  -0.358  0.00  0.00    -0.238 N 
ATOM      2  C   UNL d   1      -1.098   0.093   0.489  0.00  0.00     0.060 A 
ATOM      3  C   UNL d   1      -0.414  -0.900  -0.088  0.00  0.00     0.085 A 
ATOM      4  C   UNL d   1      -2.332  -2.332   0.121  0.00  0.00     0.134 A 
ATOM      5  N   UNL d   1      -0.548  -3.184  -1.021  0.00  0.00    -0.303 N 
ATOM      6  HN  UNL d   1       0.329  -3.262  -1.536  1.00  0.00     0.186 HD
ATOM      7  N   UNL d   1      -3.075  -1.337   0.724  0.00  0.00    -0.349 N 
ATOM      8  HN  UNL d   1      -4.032  -1.495   1.037  1.00  0.00     0.167 HD
ATOM      9  C   UNL d   1      -0.216   1.250   0.677  0.00  0.00     0.197 A 
ATOM     10  C   UNL d   1       0.975  -0.509  -0.226  0.00  0.00     0.008 A 
ATOM     11  C   UNL d   1      -2.566  -3.681  -0.066  0.00  0.00     0.001 C 
ATOM     12  C   UNL d   1      -2.486  -0.183   0.872  0.00  0.00     0.107 A 
ATOM     13  C   UNL d   1       1.108   0.805   0.222  0.00  0.00     0.028 A 
ATOM     14  C   UNL d   1      -1.478  -4.120  -0.851  0.00  0.00     0.118 C 
ATOM     15  O   UNL d   1      -0.514   2.328   1.141  0.00  0.00    -0.286 OA
ATOM     16  C   UNL d   1       2.094  -1.241  -0.578  0.00  0.00     0.015 A 
ATOM     17  C   UNL d   1      -3.682  -4.505   0.441  0.00  0.00     0.054 C 
ATOM     18  C   UNL d   1       2.325   1.452   0.297  0.00  0.00     0.016 A 
ATOM     19  C   UNL d   1       3.343  -0.621  -0.483  0.00  0.00     0.001 A 
ATOM     20  C   UNL d   1       3.458   0.718  -0.062  0.00  0.00     0.001 A 
ENDROOT
TORSDOF 0
