REMARK  5 active torsions:
REMARK  status: ('A' for Active; 'I' for Inactive)
REMARK    1  A    between atoms: C_2  and  C_1 
REMARK       I    between atoms: N_4  and  C_1 
REMARK    2  A    between atoms: S_5  and  C_3 
REMARK    3  A    between atoms: C_16  and  S_5 
REMARK    4  A    between atoms: C_8  and  C_12 
REMARK    5  A    between atoms: O_23  and  C_13 
ROOT
ATOM      1  C   UNL d   1       0.983   0.088   0.313  0.00  0.00     0.256 C 
ATOM      2  N   UNL d   1       0.161   0.029  -0.837  0.00  0.00    -0.348 N 
ATOM      3  O   UNL d   1       0.611   0.588   1.373  0.00  0.00    -0.267 OA
ATOM      4  C   UNL d   1      -0.981   0.944  -0.841  0.00  0.00     0.127 C 
ATOM      5  C   UNL d   1       0.622  -0.474  -2.131  0.00  0.00     0.127 C 
ATOM      6  C   UNL d   1      -1.628   0.251  -3.196  0.00  0.00     0.024 C 
ATOM      7  C   UNL d   1      -2.110   0.517  -1.766  0.00  0.00     0.029 C 
ATOM      8  C   UNL d   1      -0.472  -0.761  -3.158  0.00  0.00     0.029 C 
ENDROOT
BRANCH   1   9
ATOM      9  C   UNL d   1       2.397  -0.349   0.235  0.00  0.00     0.066 A 
ATOM     10  C   UNL d   1       2.965  -1.291   1.097  0.00  0.00     0.090 A 
ATOM     11  N   UNL d   1       4.271  -1.669   0.973  0.00  0.00    -0.359 N 
ATOM     12  C   UNL d   1       5.039  -1.048   0.053  0.00  0.00     0.089 A 
ATOM     13  HN  UNL d   1       4.658  -2.406   1.563  1.00  0.00     0.166 HD
ATOM     14  C   UNL d   1       4.577  -0.046  -0.775  0.00  0.00     0.018 A 
ATOM     15  C   UNL d   1       3.240   0.316  -0.669  0.00  0.00     0.021 A 
BRANCH  10  16
ATOM     16  S   UNL d   1       2.059  -2.123   2.389  0.00  0.00    -0.072 SA
BRANCH  16  17
ATOM     17  C   UNL d   1       3.084  -2.023   3.861  0.00  0.00     0.007 A 
ATOM     18  C   UNL d   1       4.138  -1.125   4.045  0.00  0.00     0.019 A 
ATOM     19  C   UNL d   1       4.870  -1.102   5.244  0.00  0.00     0.008 A 
ATOM     20  C   UNL d   1       4.538  -1.958   6.298  0.00  0.00    -0.062 A 
ATOM     21  C   UNL d   1       3.488  -2.859   6.121  0.00  0.00     0.008 A 
ATOM     22  C   UNL d   1       5.329  -1.942   7.574  0.00  0.00     0.048 C 
ATOM     23  C   UNL d   1       2.767  -2.887   4.920  0.00  0.00     0.019 A 
ENDBRANCH  16  17
ENDBRANCH  10  16
ENDBRANCH   1   9
BRANCH   6  24
ATOM     24  C   UNL d   1      -1.443   1.537  -4.000  0.00  0.00    -0.021 A 
ATOM     25  C   UNL d   1      -2.567   2.217  -4.521  0.00  0.00     0.074 A 
ATOM     26  C   UNL d   1      -2.439   3.435  -5.202  0.00  0.00     0.037 A 
ATOM     27  C   UNL d   1      -1.182   3.995  -5.400  0.00  0.00     0.003 A 
ATOM     28  C   UNL d   1      -0.057   3.337  -4.912  0.00  0.00     0.001 A 
ATOM     29  C   UNL d   1      -0.189   2.123  -4.227  0.00  0.00     0.010 A 
BRANCH  25  30
ATOM     30  O   UNL d   1      -3.843   1.773  -4.288  0.00  0.00    -0.355 OA
ATOM     31  C   UNL d   1      -4.236   0.765  -5.221  0.00  0.00     0.210 C 
ENDBRANCH  25  30
ENDBRANCH   6  24
TORSDOF 5
