REMARK  4 active torsions:
REMARK  status: ('A' for Active; 'I' for Inactive)
REMARK    1  A    between atoms: N_12  and  N_5 
REMARK    2  A    between atoms: C_16  and  N_7 
REMARK       I    between atoms: C_13  and  N_12 
REMARK    3  A    between atoms: C_17  and  C_13 
REMARK    4  A    between atoms: N_15  and  C_17 
ROOT
ATOM      1  C   UNL d   1       0.141  -0.589  -0.536  0.00  0.00     0.147 C 
ATOM      2  C   UNL d   1       0.059   0.680  -0.006  0.00  0.00     0.148 C 
ATOM      3  N   UNL d   1      -0.815  -1.228  -1.256  0.00  0.00    -0.329 N 
ATOM      4  HN  UNL d   1      -0.656  -2.130  -1.706  1.00  0.00     0.168 HD
ATOM      5  N   UNL d   1      -2.225   0.609  -0.659  0.00  0.00    -0.222 N 
ATOM      6  C   UNL d   1      -1.217   1.371  -0.035  0.00  0.00     0.294 C 
ATOM      7  N   UNL d   1       1.397  -1.060  -0.166  0.00  0.00    -0.292 N 
ATOM      8  N   UNL d   1       1.267   1.109   0.465  0.00  0.00    -0.344 N 
ATOM      9  HN  UNL d   1       1.502   2.023   0.852  1.00  0.00     0.167 HD
ATOM     10  C   UNL d   1      -1.958  -0.594  -1.327  0.00  0.00     0.100 C 
ATOM     11  C   UNL d   1       2.059   0.068   0.302  0.00  0.00     0.191 C 
ATOM     12  O   UNL d   1      -1.417   2.499   0.410  0.00  0.00    -0.264 OA
ATOM     13  C   UNL d   1      -3.010  -1.203  -2.226  0.00  0.00     0.091 C 
ENDROOT
BRANCH   5  14
ATOM     14  N   UNL d   1      -3.546   1.188  -0.593  0.00  0.00    -0.161 NA
ATOM     15  C   UNL d   1      -4.568   0.406  -0.078  0.00  0.00     0.244 C 
ATOM     16  O   UNL d   1      -4.458  -0.808   0.098  0.00  0.00    -0.276 OA
ATOM     17  H   UNL d   1      -3.516   2.144  -0.228  0.00  0.00     0.156 HD
BRANCH  15  18
ATOM     18  C   UNL d   1      -5.880   1.151   0.210  0.00  0.00     0.370 C 
BRANCH  18  19
ATOM     19  N   UNL d   1      -6.115   1.259   1.661  0.00  0.00     0.096 N 
ATOM     20  C   UNL d   1      -6.298  -0.047   2.322  0.00  0.00     0.273 C 
ATOM     21  C   UNL d   1      -7.764  -0.162   2.672  0.00  0.00     0.032 C 
ATOM     22  C   UNL d   1      -8.169   1.269   2.923  0.00  0.00     0.032 C 
ATOM     23  C   UNL d   1      -7.312   2.068   1.953  0.00  0.00     0.273 C 
ENDBRANCH  18  19
ENDBRANCH  15  18
ENDBRANCH   5  14
BRANCH   7  24
ATOM     24  C   UNL d   1       1.909  -2.398  -0.173  0.00  0.00     0.042 A 
ATOM     25  C   UNL d   1       1.121  -3.476  -0.600  0.00  0.00     0.030 A 
ATOM     26  C   UNL d   1       1.599  -4.789  -0.518  0.00  0.00     0.002 A 
ATOM     27  C   UNL d   1       2.868  -5.045  -0.009  0.00  0.00     0.000 A 
ATOM     28  C   UNL d   1       3.664  -3.987   0.415  0.00  0.00     0.002 A 
ATOM     29  C   UNL d   1       3.192  -2.671   0.335  0.00  0.00     0.030 A 
ENDBRANCH   7  24
TORSDOF 4
