REMARK  7 active torsions:
REMARK  status: ('A' for Active; 'I' for Inactive)
REMARK    1  A    between atoms: C_7  and  C_1 
REMARK    2  A    between atoms: C_9  and  C_4 
REMARK       I    between atoms: N_13  and  C_7 
REMARK    3  A    between atoms: O_17  and  C_8 
REMARK    4  A    between atoms: O_18  and  C_10 
REMARK    5  A    between atoms: C_19  and  N_13 
REMARK    6  A    between atoms: C_15  and  C_21 
REMARK    7  A    between atoms: C_21  and  C_19 
ROOT
ATOM      1  C   UNL d   1       0.390  -2.682  -0.140  0.00  0.00     0.256 C 
ATOM      2  O   UNL d   1      -0.447  -3.572  -0.240  0.00  0.00    -0.267 OA
ATOM      3  N   UNL d   1       1.744  -2.972  -0.114  0.00  0.00    -0.356 N 
ATOM      4  H   UNL d   1       2.398  -2.252   0.160  0.00  0.00     0.162 HD
ENDROOT
BRANCH   1   5
ATOM      5  C   UNL d   1       0.015  -1.289  -0.004  0.00  0.00     0.092 A 
ATOM      6  C   UNL d   1      -1.171  -0.744   0.601  0.00  0.00     0.083 A 
ATOM      7  N   UNL d   1      -1.206   0.589   0.430  0.00  0.00    -0.259 N 
ATOM      8  O   UNL d   1      -0.058   0.931  -0.238  0.00  0.00    -0.241 OA
ATOM      9  HN  UNL d   1      -1.944   1.223   0.738  1.00  0.00     0.195 HD
ATOM     10  C   UNL d   1       0.681  -0.178  -0.487  0.00  0.00     0.090 A 
ATOM     11  C   UNL d   1       1.937   0.057  -1.224  0.00  0.00     0.080 C 
BRANCH   6  12
ATOM     12  C   UNL d   1      -2.245  -1.411   1.350  0.00  0.00    -0.006 A 
ATOM     13  C   UNL d   1      -3.556  -0.919   1.314  0.00  0.00     0.014 A 
ATOM     14  C   UNL d   1      -4.580  -1.544   2.035  0.00  0.00     0.001 A 
ATOM     15  C   UNL d   1      -4.304  -2.672   2.804  0.00  0.00     0.000 A 
ATOM     16  C   UNL d   1      -3.003  -3.165   2.865  0.00  0.00     0.001 A 
ATOM     17  C   UNL d   1      -1.978  -2.532   2.157  0.00  0.00     0.014 A 
ENDBRANCH   6  12
ENDBRANCH   1   5
BRANCH   3  18
ATOM     18  C   UNL d   1       2.158  -4.366  -0.074  0.00  0.00     0.127 C 
BRANCH  18  19
ATOM     19  C   UNL d   1       3.673  -4.554  -0.060  0.00  0.00     0.058 C 
BRANCH  19  20
ATOM     20  C   UNL d   1       4.048  -6.017  -0.091  0.00  0.00    -0.054 A 
ATOM     21  C   UNL d   1       4.196  -6.683  -1.318  0.00  0.00     0.046 A 
ATOM     22  C   UNL d   1       4.516  -8.050  -1.376  0.00  0.00     0.102 A 
ATOM     23  C   UNL d   1       4.726  -8.753  -0.179  0.00  0.00     0.101 A 
ATOM     24  C   UNL d   1       4.545  -8.095   1.044  0.00  0.00     0.040 A 
ATOM     25  C   UNL d   1       4.210  -6.740   1.092  0.00  0.00     0.010 A 
BRANCH  22  26
ATOM     26  O   UNL d   1       4.658  -8.716  -2.565  0.00  0.00    -0.353 OA
ATOM     27  C   UNL d   1       3.837  -8.273  -3.640  0.00  0.00     0.210 C 
ENDBRANCH  22  26
BRANCH  23  28
ATOM     28  O   UNL d   1       5.034 -10.082  -0.039  0.00  0.00    -0.353 OA
ATOM     29  C   UNL d   1       5.854 -10.657  -1.049  0.00  0.00     0.210 C 
ENDBRANCH  23  28
ENDBRANCH  19  20
ENDBRANCH  18  19
ENDBRANCH   3  18
TORSDOF 7
