REMARK  5 active torsions:
REMARK  status: ('A' for Active; 'I' for Inactive)
REMARK    1  A    between atoms: C_9  and  C_1 
REMARK    2  A    between atoms: C_11  and  C_2 
REMARK    3  A    between atoms: N_6  and  C_8 
REMARK    4  A    between atoms: C_14  and  C_10 
REMARK    5  A    between atoms: C_12  and  C_13 
ROOT
ATOM      1  C   UNL d   1       1.483   0.061   0.067  0.00  0.00    -0.011 A 
ATOM      2  C   UNL d   1       0.699   1.243  -0.047  0.00  0.00     0.001 A 
ATOM      3  C   UNL d   1      -0.693   1.056  -0.097  0.00  0.00     0.101 A 
ATOM      4  N   UNL d   1      -1.347  -0.130  -0.061  0.00  0.00    -0.365 N 
ATOM      5  HN  UNL d   1      -2.365  -0.179  -0.100  1.00  0.00     0.165 HD
ATOM      6  C   UNL d   1       0.794  -1.178   0.099  0.00  0.00     0.042 A 
ATOM      7  C   UNL d   1      -0.593  -1.236   0.028  0.00  0.00     0.032 A 
ENDROOT
BRANCH   7   8
ATOM      8  C   UNL d   1      -1.279  -2.537   0.055  0.00  0.00     0.029 C 
ATOM      9  C   UNL d   1      -2.612  -2.686   0.033  0.00  0.00     0.004 C 
BRANCH   9  10
ATOM     10  C   UNL d   1      -3.259  -3.977   0.118  0.00  0.00     0.017 C 
ATOM     11  C   UNL d   1      -4.583  -4.136   0.091  0.00  0.00     0.085 C 
BRANCH  11  12
ATOM     12  N   UNL d   1      -5.311  -5.304   0.250  0.00  0.00    -0.390 N 
ATOM     13  C   UNL d   1      -6.771  -5.342   0.298  0.00  0.00     0.122 C 
ATOM     14  C   UNL d   1      -7.063  -6.338   1.409  0.00  0.00     0.021 C 
ATOM     15  C   UNL d   1      -5.962  -7.371   1.231  0.00  0.00     0.021 C 
ATOM     16  C   UNL d   1      -4.753  -6.550   0.786  0.00  0.00     0.122 C 
ENDBRANCH  11  12
ENDBRANCH   9  10
ENDBRANCH   7   8
BRANCH   1  17
ATOM     17  C   UNL d   1       2.975   0.018   0.160  0.00  0.00    -0.025 A 
ATOM     18  C   UNL d   1       3.711   0.935   0.930  0.00  0.00     0.012 A 
ATOM     19  C   UNL d   1       5.111   0.950   0.918  0.00  0.00     0.001 A 
ATOM     20  C   UNL d   1       5.815  -0.013   0.205  0.00  0.00     0.000 A 
ATOM     21  C   UNL d   1       5.118  -0.985  -0.503  0.00  0.00     0.001 A 
ATOM     22  C   UNL d   1       3.719  -0.956  -0.540  0.00  0.00     0.012 A 
ENDBRANCH   1  17
BRANCH   2  23
ATOM     23  C   UNL d   1       1.227   2.635  -0.115  0.00  0.00    -0.024 A 
ATOM     24  C   UNL d   1       2.351   2.973  -0.889  0.00  0.00     0.012 A 
ATOM     25  C   UNL d   1       2.925   4.248  -0.830  0.00  0.00     0.001 A 
ATOM     26  C   UNL d   1       2.332   5.245  -0.063  0.00  0.00     0.000 A 
ATOM     27  C   UNL d   1       1.165   4.968   0.639  0.00  0.00     0.001 A 
ATOM     28  C   UNL d   1       0.628   3.676   0.625  0.00  0.00     0.012 A 
ENDBRANCH   2  23
TORSDOF 5
