REMARK  4 active torsions:
REMARK  status: ('A' for Active; 'I' for Inactive)
REMARK    1  A    between atoms: C_6  and  N_1 
REMARK    2  A    between atoms: C_7  and  C_6 
REMARK       I    between atoms: N_8  and  C_7 
REMARK    3  A    between atoms: C_22  and  N_9 
REMARK    4  A    between atoms: C_21  and  C_22 
ROOT
ATOM      1  C   UNL d   1       3.850   1.372  -0.091  0.00  0.00     0.238 C 
ATOM      2  N   UNL d   1       3.034   2.499  -0.146  0.00  0.00    -0.347 N 
ATOM      3  N   UNL d   1       1.116   4.679  -0.768  0.00  0.00     0.095 N 
ATOM      4  O   UNL d   1       4.978   1.379  -0.594  0.00  0.00    -0.272 OA
ATOM      5  C   UNL d   1       1.846   2.730   0.681  0.00  0.00     0.156 C 
ATOM      6  C   UNL d   1       3.495   3.700  -0.857  0.00  0.00     0.156 C 
ATOM      7  C   UNL d   1       0.725   3.416  -0.111  0.00  0.00     0.292 C 
ATOM      8  C   UNL d   1       2.332   4.425  -1.583  0.00  0.00     0.292 C 
ENDROOT
BRANCH   1   9
ATOM      9  C   UNL d   1       3.342   0.096   0.615  0.00  0.00     0.238 C 
BRANCH   9  10
ATOM     10  N   UNL d   1       3.865  -0.049   1.964  0.00  0.00    -0.271 N 
ATOM     11  C   UNL d   1       3.420   0.680   3.027  0.00  0.00     0.262 C 
ATOM     12  C   UNL d   1       4.183   0.252   4.184  0.00  0.00     0.048 A 
ATOM     13  O   UNL d   1       2.502   1.468   3.112  0.00  0.00    -0.267 OA
ATOM     14  C   UNL d   1       4.232   0.805   5.448  0.00  0.00     0.018 A 
ATOM     15  C   UNL d   1       4.877  -0.886   3.826  0.00  0.00     0.048 A 
ATOM     16  C   UNL d   1       5.004   0.138   6.397  0.00  0.00     0.001 A 
ATOM     17  C   UNL d   1       5.655  -1.069   6.068  0.00  0.00     0.001 A 
ATOM     18  C   UNL d   1       5.595  -1.597   4.768  0.00  0.00     0.018 A 
ATOM     19  C   UNL d   1       4.652  -1.093   2.386  0.00  0.00     0.262 C 
ATOM     20  O   UNL d   1       5.065  -2.066   1.770  0.00  0.00    -0.267 OA
ENDBRANCH   9  10
ENDBRANCH   1   9
BRANCH   3  21
ATOM     21  C   UNL d   1       1.332   5.788   0.177  0.00  0.00     0.311 C 
BRANCH  21  22
ATOM     22  C   UNL d   1       0.129   6.123   1.043  0.00  0.00    -0.027 A 
ATOM     23  C   UNL d   1       0.212   5.995   2.442  0.00  0.00     0.048 A 
ATOM     24  C   UNL d   1      -0.893   6.330   3.197  0.00  0.00     0.105 A 
ATOM     25  O   UNL d   1      -0.976   6.264   4.553  0.00  0.00    -0.323 OA
ATOM     26  C   UNL d   1      -2.055   6.782   2.621  0.00  0.00     0.105 A 
ATOM     27  C   UNL d   1      -2.334   6.705   4.762  0.00  0.00     0.352 A 
ATOM     28  O   UNL d   1      -3.016   7.064   3.542  0.00  0.00    -0.323 OA
ATOM     29  C   UNL d   1      -2.181   6.916   1.255  0.00  0.00     0.040 A 
ATOM     30  C   UNL d   1      -1.077   6.579   0.461  0.00  0.00     0.012 A 
ENDBRANCH  21  22
ENDBRANCH   3  21
TORSDOF 4
