REMARK  7 active torsions:
REMARK  status: ('A' for Active; 'I' for Inactive)
REMARK    1  A    between atoms: C_11  and  N_1 
REMARK    2  A    between atoms: N_2  and  C_12 
REMARK    3  A    between atoms: C_16  and  C_3 
REMARK    4  A    between atoms: C_15  and  C_4 
REMARK    5  A    between atoms: C_9  and  C_18 
REMARK    6  A    between atoms: C_10  and  C_17 
REMARK    7  A    between atoms: C_12  and  C_11 
ROOT
ATOM      1  C   UNL d   1      -1.359  -2.233   0.096  0.00  0.00     0.147 C 
ENDROOT
BRANCH   1   2
ATOM      2  N   UNL d   1      -2.474  -2.078  -0.841  0.00  0.00    -0.332 N 
ATOM      3  C   UNL d   1      -2.574  -2.830  -2.078  0.00  0.00     0.183 C 
ATOM      4  S   UNL d   1      -4.011  -2.180  -2.984  0.00  0.00    -0.130 SA
ATOM      5  C   UNL d   1      -4.481  -1.029  -1.688  0.00  0.00     0.179 C 
ATOM      6  C   UNL d   1      -3.385  -1.047  -0.655  0.00  0.00     0.230 C 
ATOM      7  O   UNL d   1      -3.350  -0.253   0.276  0.00  0.00    -0.273 OA
BRANCH   3   8
ATOM      8  C   UNL d   1      -1.361  -2.827  -2.990  0.00  0.00    -0.025 A 
ATOM      9  C   UNL d   1      -1.134  -3.946  -3.812  0.00  0.00     0.011 A 
ATOM     10  C   UNL d   1      -0.112  -3.947  -4.764  0.00  0.00     0.017 A 
ATOM     11  C   UNL d   1       0.717  -2.829  -4.918  0.00  0.00     0.047 A 
ATOM     12  C   UNL d   1       0.525  -1.727  -4.073  0.00  0.00     0.017 A 
ATOM     13  C   UNL d   1      -0.510  -1.720  -3.131  0.00  0.00     0.011 A 
BRANCH  11  14
ATOM     14  C   UNL d   1       1.756  -2.810  -6.013  0.00  0.00     0.417 C 
ATOM     15  F   UNL d   1       2.468  -1.650  -6.070  0.00  0.00    -0.166 F 
ATOM     16  F   UNL d   1       2.673  -3.807  -5.887  0.00  0.00    -0.166 F 
ATOM     17  F   UNL d   1       1.203  -2.965  -7.250  0.00  0.00    -0.166 F 
ENDBRANCH  11  14
ENDBRANCH   3   8
ENDBRANCH   1   2
BRANCH   1  18
ATOM     18  C   UNL d   1      -0.793  -3.641   0.318  0.00  0.00     0.147 C 
BRANCH  18  19
ATOM     19  N   UNL d   1      -1.655  -4.729   0.787  0.00  0.00    -0.332 N 
ATOM     20  C   UNL d   1      -2.941  -4.544   1.437  0.00  0.00     0.183 A 
ATOM     21  S   UNL d   1      -3.475  -6.171   2.042  0.00  0.00    -0.130 SA
ATOM     22  C   UNL d   1      -2.126  -7.059   1.256  0.00  0.00     0.179 A 
ATOM     23  C   UNL d   1      -1.191  -6.033   0.668  0.00  0.00     0.230 A 
ATOM     24  O   UNL d   1      -0.133  -6.336   0.132  0.00  0.00    -0.273 OA
BRANCH  20  25
ATOM     25  C   UNL d   1      -2.989  -3.522   2.550  0.00  0.00    -0.025 A 
ATOM     26  C   UNL d   1      -3.987  -2.533   2.519  0.00  0.00     0.011 A 
ATOM     27  C   UNL d   1      -4.071  -1.560   3.514  0.00  0.00     0.017 A 
ATOM     28  C   UNL d   1      -3.179  -1.572   4.592  0.00  0.00     0.047 A 
ATOM     29  C   UNL d   1      -2.185  -2.562   4.636  0.00  0.00     0.017 A 
ATOM     30  C   UNL d   1      -2.087  -3.525   3.624  0.00  0.00     0.011 A 
BRANCH  28  31
ATOM     31  C   UNL d   1      -3.299  -0.561   5.706  0.00  0.00     0.417 C 
ATOM     32  F   UNL d   1      -4.281   0.363   5.503  0.00  0.00    -0.166 F 
ATOM     33  F   UNL d   1      -3.585  -1.146   6.903  0.00  0.00    -0.166 F 
ATOM     34  F   UNL d   1      -2.154   0.148   5.900  0.00  0.00    -0.166 F 
ENDBRANCH  28  31
ENDBRANCH  20  25
ENDBRANCH  18  19
ENDBRANCH   1  18
TORSDOF 7
