REMARK  4 active torsions:
REMARK  status: ('A' for Active; 'I' for Inactive)
REMARK    1  A    between atoms: C_10  and  C_1 
REMARK    2  A    between atoms: N_7  and  C_17 
REMARK    3  A    between atoms: C_11  and  C_9 
REMARK    4  A    between atoms: O_22  and  C_13 
ROOT
ATOM      1  C   UNL d   1      -3.899  -0.771  -0.022  0.00  0.00    -0.002 A 
ATOM      2  C   UNL d   1      -4.634  -0.221  -1.083  0.00  0.00     0.016 A 
ATOM      3  C   UNL d   1      -4.593  -1.523   0.937  0.00  0.00     0.016 A 
ATOM      4  C   UNL d   1      -6.707  -1.151  -0.214  0.00  0.00     0.031 A 
ATOM      5  C   UNL d   1      -5.977  -1.710   0.837  0.00  0.00     0.030 A 
ATOM      6  C   UNL d   1      -6.018  -0.425  -1.188  0.00  0.00     0.030 A 
ENDROOT
BRANCH   1   7
ATOM      7  C   UNL d   1      -2.450  -0.515   0.068  0.00  0.00     0.085 A 
ATOM      8  N   UNL d   1      -1.859   0.562  -0.413  0.00  0.00    -0.349 N 
ATOM      9  C   UNL d   1      -0.502   0.530  -0.137  0.00  0.00     0.050 A 
ATOM     10  HN  UNL d   1      -2.334   1.313  -0.915  1.00  0.00     0.166 HD
ATOM     11  C   UNL d   1       0.434   1.533  -0.459  0.00  0.00     0.031 A 
ATOM     12  C   UNL d   1      -0.056  -0.613   0.522  0.00  0.00     0.034 A 
ATOM     13  C   UNL d   1       1.779   1.368  -0.108  0.00  0.00     0.009 A 
ATOM     14  C   UNL d   1       2.213   0.215   0.551  0.00  0.00    -0.061 A 
ATOM     15  C   UNL d   1       1.294  -0.793   0.874  0.00  0.00     0.028 A 
ATOM     16  C   UNL d   1       3.662   0.069   0.921  0.00  0.00     0.048 C 
ATOM     17  S   UNL d   1      -1.389  -1.658   0.796  0.00  0.00    -0.070 SA
ENDBRANCH   1   7
BRANCH   4  18
ATOM     18  N   UNL d   1      -8.094  -1.381  -0.223  0.00  0.00    -0.365 N 
ATOM     19  C   UNL d   1      -8.891  -0.435  -0.613  0.00  0.00     0.102 C 
ATOM     20  HN  UNL d   1      -8.470  -2.281   0.073  1.00  0.00     0.165 HD
BRANCH  19  21
ATOM     21  C   UNL d   1     -10.358  -0.596  -0.542  0.00  0.00     0.012 A 
ATOM     22  C   UNL d   1     -10.956  -1.698   0.080  0.00  0.00     0.077 A 
ATOM     23  C   UNL d   1     -12.341  -1.775   0.193  0.00  0.00     0.037 A 
ATOM     24  C   UNL d   1     -13.138  -0.752  -0.324  0.00  0.00     0.003 A 
ATOM     25  C   UNL d   1     -12.548   0.343  -0.959  0.00  0.00     0.001 A 
ATOM     26  C   UNL d   1     -11.158   0.425  -1.067  0.00  0.00     0.015 A 
BRANCH  22  27
ATOM     27  O   UNL d   1     -10.235  -2.731   0.615  0.00  0.00    -0.360 OA
ATOM     28  H   UNL d   1      -9.286  -2.543   0.431  0.00  0.00     0.217 HD
ENDBRANCH  22  27
ENDBRANCH  19  21
ENDBRANCH   4  18
TORSDOF 4
