REMARK  9 active torsions:
REMARK  status: ('A' for Active; 'I' for Inactive)
REMARK    1  A    between atoms: O_10  and  N_1 
REMARK    2  A    between atoms: C_7  and  C_3 
REMARK    3  A    between atoms: N_21  and  C_3 
REMARK    4  A    between atoms: C_4  and  S_16 
REMARK    5  A    between atoms: C_6  and  O_10 
REMARK    6  A    between atoms: C_12  and  C_6 
REMARK    7  A    between atoms: C_8  and  C_9 
REMARK    8  A    between atoms: C_22  and  C_12 
REMARK    9  A    between atoms: S_16  and  C_22 
ROOT
ATOM      1  N   UNL d   1       0.954  -0.281   0.200  0.00  0.00    -0.246 N 
ATOM      2  HN  UNL d   1       1.939  -0.534   0.281  1.00  0.00     0.196 HD
ATOM      3  C   UNL d   1       0.269  -0.415  -0.896  0.00  0.00     0.109 C 
ENDROOT
BRANCH   3   4
ATOM      4  C   UNL d   1       0.990  -0.935  -2.109  0.00  0.00     0.004 A 
ATOM      5  C   UNL d   1       2.092  -1.784  -1.978  0.00  0.00     0.015 A 
ATOM      6  C   UNL d   1       2.778  -2.237  -3.117  0.00  0.00     0.009 A 
ATOM      7  C   UNL d   1       2.400  -1.841  -4.416  0.00  0.00    -0.051 A 
ATOM      8  C   UNL d   1       1.279  -0.997  -4.521  0.00  0.00     0.009 A 
ATOM      9  C   UNL d   1       0.583  -0.551  -3.388  0.00  0.00     0.015 A 
BRANCH   7  10
ATOM     10  C   UNL d   1       3.219  -2.284  -5.646  0.00  0.00    -0.024 C 
ATOM     11  C   UNL d   1       2.689  -1.708  -6.980  0.00  0.00     0.019 C 
ATOM     12  C   UNL d   1       4.681  -1.808  -5.499  0.00  0.00     0.019 C 
ATOM     13  C   UNL d   1       3.211  -3.822  -5.782  0.00  0.00     0.019 C 
ENDBRANCH   7  10
ENDBRANCH   3   4
BRANCH   3  14
ATOM     14  N   UNL d   1      -1.069  -0.115  -1.006  0.00  0.00    -0.286 NA
ATOM     15  H   UNL d   1      -1.528  -0.048  -0.102  0.00  0.00     0.125 HD
ATOM     16  H   UNL d   1      -1.590  -0.696  -1.654  0.00  0.00     0.125 HD
ENDBRANCH   3  14
BRANCH   1  17
ATOM     17  O   UNL d   1       0.195   0.253   1.272  0.00  0.00    -0.198 OA
BRANCH  17  18
ATOM     18  C   UNL d   1       0.996   0.351   2.373  0.00  0.00     0.281 C 
ATOM     19  O   UNL d   1       2.182   0.015   2.434  0.00  0.00    -0.263 OA
BRANCH  18  20
ATOM     20  C   UNL d   1       0.323   0.927   3.598  0.00  0.00     0.123 C 
BRANCH  20  21
ATOM     21  C   UNL d   1      -1.096   1.457   3.498  0.00  0.00     0.090 C 
BRANCH  21  22
ATOM     22  S   UNL d   1      -2.349   0.149   3.294  0.00  0.00    -0.122 SA
BRANCH  22  23
ATOM     23  C   UNL d   1      -3.800   1.134   3.448  0.00  0.00     0.041 A 
ATOM     24  S   UNL d   1      -4.489   1.955   2.117  0.00  0.00    -0.095 SA
ATOM     25  C   UNL d   1      -5.715   2.638   3.096  0.00  0.00     0.051 A 
ATOM     26  C   UNL d   1      -5.613   2.234   4.408  0.00  0.00     0.009 A 
ATOM     27  C   UNL d   1      -4.507   1.355   4.610  0.00  0.00     0.026 A 
ENDBRANCH  22  23
ENDBRANCH  21  22
ENDBRANCH  20  21
ENDBRANCH  18  20
ENDBRANCH  17  18
ENDBRANCH   1  17
TORSDOF 9
