REMARK  3 active torsions:
REMARK  status: ('A' for Active; 'I' for Inactive)
REMARK       I    between atoms: C_5  and  N_1 
REMARK    1  A    between atoms: C_8  and  C_5 
REMARK    2  A    between atoms: O_10  and  C_8 
REMARK    3  A    between atoms: C_11  and  O_10 
ROOT
ATOM      1  N   UNL d   1      -0.008  -1.337   0.817  0.00  0.00    -0.278 N 
ATOM      2  S   UNL d   1       0.046   1.740   0.493  0.00  0.00    -0.086 SA
ATOM      3  C   UNL d   1      -1.175  -0.741   0.230  0.00  0.00     0.059 A 
ATOM      4  C   UNL d   1       1.245  -0.770   0.376  0.00  0.00     0.059 A 
ATOM      5  C   UNL d   1      -0.038  -2.422   1.716  0.00  0.00     0.253 C 
ATOM      6  C   UNL d   1      -1.290   0.652   0.060  0.00  0.00     0.033 A 
ATOM      7  C   UNL d   1       1.376   0.610   0.124  0.00  0.00     0.033 A 
ATOM      8  O   UNL d   1       0.970  -3.027   2.103  0.00  0.00    -0.270 OA
ATOM      9  C   UNL d   1       2.357  -1.591   0.125  0.00  0.00     0.031 A 
ATOM     10  C   UNL d   1      -2.203  -1.550  -0.278  0.00  0.00     0.031 A 
ATOM     11  C   UNL d   1      -2.454   1.210  -0.485  0.00  0.00     0.021 A 
ATOM     12  C   UNL d   1       2.573   1.136  -0.384  0.00  0.00     0.021 A 
ATOM     13  C   UNL d   1      -3.349  -0.993  -0.852  0.00  0.00     0.002 A 
ATOM     14  C   UNL d   1       3.546  -1.064  -0.390  0.00  0.00     0.002 A 
ATOM     15  C   UNL d   1       3.651   0.296  -0.651  0.00  0.00     0.002 A 
ATOM     16  C   UNL d   1      -3.485   0.389  -0.933  0.00  0.00     0.002 A 
ENDROOT
BRANCH   5  17
ATOM     17  C   UNL d   1      -1.373  -2.777   2.389  0.00  0.00     0.279 C 
BRANCH  17  18
ATOM     18  O   UNL d   1      -1.937  -3.929   1.770  0.00  0.00    -0.342 OA
BRANCH  18  19
ATOM     19  C   UNL d   1      -3.214  -4.252   2.138  0.00  0.00     0.069 A 
ATOM     20  C   UNL d   1      -3.872  -3.794   3.281  0.00  0.00     0.037 A 
ATOM     21  C   UNL d   1      -5.192  -4.178   3.531  0.00  0.00     0.003 A 
ATOM     22  C   UNL d   1      -5.857  -5.026   2.647  0.00  0.00     0.000 A 
ATOM     23  C   UNL d   1      -5.196  -5.507   1.520  0.00  0.00     0.003 A 
ATOM     24  C   UNL d   1      -3.876  -5.126   1.272  0.00  0.00     0.037 A 
ENDBRANCH  18  19
ENDBRANCH  17  18
ENDBRANCH   5  17
TORSDOF 3
