REMARK  4 active torsions:
REMARK  status: ('A' for Active; 'I' for Inactive)
REMARK    1  A    between atoms: C_8  and  N_1 
REMARK    2  A    between atoms: C_3  and  C_2 
REMARK    3  A    between atoms: C_9  and  C_7 
REMARK    4  A    between atoms: O_25  and  C_17 
ROOT
ATOM      1  N   UNL d   1      -0.238  -1.308   0.093  0.00  0.00    -0.239 N 
ATOM      2  C   UNL d   1       0.958  -0.677  -0.005  0.00  0.00     0.149 A 
ATOM      3  N   UNL d   1       0.853   0.603  -0.160  0.00  0.00    -0.238 N 
ATOM      4  HN  UNL d   1       1.612   1.278  -0.251  1.00  0.00     0.196 HD
ATOM      5  C   UNL d   1      -1.188  -0.347  -0.079  0.00  0.00     0.395 A 
ATOM      6  O   UNL d   1      -0.547   0.868  -0.175  0.00  0.00    -0.179 OA
ATOM      7  O   UNL d   1      -2.397  -0.481  -0.138  0.00  0.00    -0.235 OA
ENDROOT
BRANCH   2   8
ATOM      8  C   UNL d   1       2.269  -1.363  -0.047  0.00  0.00     0.041 A 
ATOM      9  C   UNL d   1       3.448  -0.875   0.537  0.00  0.00     0.067 A 
ATOM     10  C   UNL d   1       4.646  -1.595   0.316  0.00  0.00     0.073 A 
ATOM     11  C   UNL d   1       4.620  -2.759  -0.432  0.00  0.00     0.142 A 
ATOM     12  N   UNL d   1       3.502  -3.232  -1.000  0.00  0.00    -0.346 N 
ATOM     13  C   UNL d   1       2.374  -2.516  -0.821  0.00  0.00     0.106 A 
ATOM     14  HN  UNL d   1       3.504  -4.095  -1.544  1.00  0.00     0.167 HD
BRANCH   9  15
ATOM     15  C   UNL d   1       3.555   0.354   1.405  0.00  0.00     0.418 C 
ATOM     16  F   UNL d   1       2.393   0.932   1.786  0.00  0.00    -0.166 F 
ATOM     17  F   UNL d   1       4.191   0.062   2.580  0.00  0.00    -0.166 F 
ATOM     18  F   UNL d   1       4.309   1.329   0.825  0.00  0.00    -0.166 F 
ENDBRANCH   9  15
BRANCH  11  19
ATOM     19  O   UNL d   1       5.800  -3.444  -0.606  0.00  0.00    -0.341 OA
ATOM     20  C   UNL d   1       5.616  -4.652  -1.347  0.00  0.00     0.211 C 
ENDBRANCH  11  19
ENDBRANCH   2   8
BRANCH   1  21
ATOM     21  C   UNL d   1      -0.518  -2.685   0.151  0.00  0.00     0.052 A 
ATOM     22  C   UNL d   1      -0.084  -3.490   1.219  0.00  0.00    -0.034 A 
ATOM     23  C   UNL d   1      -0.240  -4.886   1.121  0.00  0.00     0.015 A 
ATOM     24  C   UNL d   1       0.493  -2.940   2.494  0.00  0.00     0.050 C 
ATOM     25  C   UNL d   1      -0.811  -5.482  -0.011  0.00  0.00    -0.061 A 
ATOM     26  C   UNL d   1      -1.270  -4.667  -1.047  0.00  0.00     0.009 A 
ATOM     27  C   UNL d   1      -0.950  -6.975  -0.083  0.00  0.00     0.048 C 
ATOM     28  C   UNL d   1      -1.143  -3.280  -0.959  0.00  0.00     0.031 A 
ENDBRANCH   1  21
TORSDOF 4
