REMARK  3 active torsions:
REMARK  status: ('A' for Active; 'I' for Inactive)
REMARK    1  A    between atoms: C_8  and  C_3 
REMARK    2  A    between atoms: C_10  and  C_4 
REMARK    3  A    between atoms: C_15  and  C_10 
ROOT
ATOM      1  N   UNL d   1       1.782  -1.010   0.022  0.00  0.00    -0.297 N 
ATOM      2  HN  UNL d   1       2.381  -1.835   0.020  1.00  0.00     0.187 HD
ATOM      3  C   UNL d   1       2.106   0.071  -0.629  0.00  0.00     0.066 C 
ATOM      4  C   UNL d   1       0.098   1.272   0.041  0.00  0.00     0.014 C 
ATOM      5  N   UNL d   1       0.600  -0.985   0.710  0.00  0.00    -0.266 N 
ATOM      6  C   UNL d   1       1.158   1.216  -0.787  0.00  0.00     0.045 C 
ATOM      7  C   UNL d   1       0.017   0.205   1.070  0.00  0.00     0.266 C 
ATOM      8  O   UNL d   1      -0.560   0.359   2.143  0.00  0.00    -0.266 OA
ATOM      9  H   UNL d   1       0.491  -1.743   1.376  0.00  0.00     0.190 HD
ENDROOT
BRANCH   4  10
ATOM     10  C   UNL d   1      -0.889   2.409   0.118  0.00  0.00     0.049 C 
BRANCH  10  11
ATOM     11  C   UNL d   1      -2.421   2.217  -0.101  0.00  0.00    -0.010 C 
ATOM     12  C   UNL d   1      -3.169   1.314   0.892  0.00  0.00     0.005 C 
ATOM     13  C   UNL d   1      -3.232  -0.175   0.549  0.00  0.00     0.000 C 
ATOM     14  C   UNL d   1      -3.406  -0.505  -0.928  0.00  0.00     0.000 C 
ATOM     15  C   UNL d   1      -2.657   0.414  -1.884  0.00  0.00     0.000 C 
ATOM     16  C   UNL d   1      -2.832   1.882  -1.536  0.00  0.00     0.005 C 
ENDBRANCH  10  11
ENDBRANCH   4  10
BRANCH   3  17
ATOM     17  C   UNL d   1       3.477   0.130  -1.125  0.00  0.00     0.033 A 
ATOM     18  S   UNL d   1       4.023   1.259  -2.288  0.00  0.00    -0.100 SA
ATOM     19  C   UNL d   1       5.637   0.694  -2.190  0.00  0.00     0.050 A 
ATOM     20  C   UNL d   1       5.770  -0.339  -1.292  0.00  0.00     0.008 A 
ATOM     21  C   UNL d   1       4.524  -0.674  -0.695  0.00  0.00     0.021 A 
ENDBRANCH   3  17
TORSDOF 3
