REMARK  3 active torsions:
REMARK  status: ('A' for Active; 'I' for Inactive)
REMARK    1  A    between atoms: C_13  and  C_2 
REMARK    2  A    between atoms: O_15  and  C_10 
REMARK    3  A    between atoms: C_17  and  O_15 
ROOT
ATOM      1  N   UNL d   1       0.150   0.688  -0.060  0.00  0.00    -0.218 N 
ATOM      2  C   UNL d   1       1.449   1.167  -0.035  0.00  0.00     0.154 A 
ATOM      3  N   UNL d   1       2.273   0.132  -0.139  0.00  0.00    -0.282 N 
ATOM      4  HN  UNL d   1       3.291   0.186  -0.162  1.00  0.00     0.188 HD
ATOM      5  C   UNL d   1       0.266  -0.687  -0.173  0.00  0.00     0.143 A 
ATOM      6  N   UNL d   1      -1.017   1.402   0.018  0.00  0.00    -0.270 N 
ATOM      7  HN  UNL d   1      -1.055   2.418   0.101  1.00  0.00     0.190 HD
ATOM      8  N   UNL d   1       1.533  -1.025  -0.212  0.00  0.00    -0.282 N 
ATOM      9  HN  UNL d   1       1.902  -1.973  -0.283  1.00  0.00     0.188 HD
ATOM     10  C   UNL d   1      -2.064   0.645  -0.025  0.00  0.00     0.163 A 
ATOM     11  C   UNL d   1      -0.922  -1.450  -0.234  0.00  0.00     0.056 A 
ATOM     12  C   UNL d   1      -2.106  -0.824  -0.184  0.00  0.00     0.061 A 
ENDROOT
BRANCH  10  13
ATOM     13  O   UNL d   1      -3.364   1.106   0.099  0.00  0.00    -0.293 OA
BRANCH  13  14
ATOM     14  C   UNL d   1      -3.569   2.360   0.707  0.00  0.00     0.078 A 
ATOM     15  C   UNL d   1      -2.951   2.688   1.915  0.00  0.00     0.044 A 
ATOM     16  C   UNL d   1      -3.224   3.913   2.540  0.00  0.00    -0.053 A 
ATOM     17  C   UNL d   1      -2.525   4.245   3.830  0.00  0.00     0.049 C 
ATOM     18  C   UNL d   1      -4.162   4.790   1.959  0.00  0.00    -0.056 A 
ATOM     19  C   UNL d   1      -4.790   4.429   0.752  0.00  0.00     0.010 A 
ATOM     20  C   UNL d   1      -4.505   6.104   2.605  0.00  0.00     0.049 C 
ATOM     21  C   UNL d   1      -4.498   3.216   0.129  0.00  0.00     0.038 A 
ENDBRANCH  13  14
ENDBRANCH  10  13
BRANCH   2  22
ATOM     22  C   UNL d   1       1.857   2.574   0.051  0.00  0.00     0.011 A 
ATOM     23  C   UNL d   1       1.075   3.555   0.676  0.00  0.00     0.015 A 
ATOM     24  C   UNL d   1       1.501   4.887   0.729  0.00  0.00     0.001 A 
ATOM     25  C   UNL d   1       2.716   5.255   0.164  0.00  0.00     0.000 A 
ATOM     26  C   UNL d   1       3.515   4.292  -0.450  0.00  0.00     0.001 A 
ATOM     27  C   UNL d   1       3.090   2.962  -0.500  0.00  0.00     0.015 A 
ENDBRANCH   2  22
TORSDOF 3
