REMARK  9 active torsions:
REMARK  status: ('A' for Active; 'I' for Inactive)
REMARK    1  A    between atoms: S_8  and  C_2 
REMARK    2  A    between atoms: N_9  and  C_3 
REMARK    3  A    between atoms: C_10  and  S_8 
REMARK    4  A    between atoms: C_11  and  C_10 
REMARK    5  A    between atoms: C_15  and  C_11 
REMARK    6  A    between atoms: C_12  and  C_13 
REMARK    7  A    between atoms: C_13  and  C_14 
REMARK    8  A    between atoms: C_14  and  C_16 
REMARK    9  A    between atoms: C_16  and  C_15 
ROOT
ATOM      1  S   UNL d   1       1.444   3.050  -2.597  0.00  0.00    -0.027 SA
ATOM      2  C   UNL d   1       2.248   2.081  -1.437  0.00  0.00     0.130 A 
ATOM      3  C   UNL d   1       0.039   2.919  -1.621  0.00  0.00     0.159 A 
ATOM      4  N   UNL d   1       1.513   1.744  -0.398  0.00  0.00    -0.286 N 
ATOM      5  HN  UNL d   1       1.850   1.193   0.391  1.00  0.00     0.188 HD
ATOM      6  N   UNL d   1       0.224   2.234  -0.514  0.00  0.00    -0.279 N 
ATOM      7  HN  UNL d   1      -0.504   2.081   0.183  1.00  0.00     0.189 HD
ENDROOT
BRANCH   2   8
ATOM      8  S   UNL d   1       3.908   1.598  -1.660  0.00  0.00    -0.103 SA
BRANCH   8   9
ATOM      9  C   UNL d   1       4.269   0.691  -0.128  0.00  0.00     0.081 C 
BRANCH   9  10
ATOM     10  C   UNL d   1       5.731   0.229  -0.114  0.00  0.00     0.010 C 
BRANCH  10  11
ATOM     11  C   UNL d   1       6.735   1.389  -0.100  0.00  0.00     0.001 C 
BRANCH  11  12
ATOM     12  C   UNL d   1       8.179   0.892  -0.132  0.00  0.00     0.000 C 
BRANCH  12  13
ATOM     13  C   UNL d   1       9.154   2.070  -0.161  0.00  0.00     0.000 C 
BRANCH  13  14
ATOM     14  C   UNL d   1      10.603   1.590  -0.197  0.00  0.00    -0.000 C 
BRANCH  14  15
ATOM     15  C   UNL d   1      11.577   2.767  -0.219  0.00  0.00    -0.005 C 
ATOM     16  C   UNL d   1      13.018   2.288  -0.251  0.00  0.00     0.005 C 
ENDBRANCH  14  15
ENDBRANCH  13  14
ENDBRANCH  12  13
ENDBRANCH  11  12
ENDBRANCH  10  11
ENDBRANCH   9  10
ENDBRANCH   8   9
ENDBRANCH   2   8
BRANCH   3  17
ATOM     17  N   UNL d   1      -1.122   3.484  -1.998  0.00  0.00    -0.379 N 
ATOM     18  H   UNL d   1      -1.099   4.222  -2.692  0.00  0.00     0.158 HD
ATOM     19  H   UNL d   1      -1.833   3.590  -1.287  0.00  0.00     0.158 HD
ENDBRANCH   3  17
TORSDOF 9
