REMARK  9 active torsions:
REMARK  status: ('A' for Active; 'I' for Inactive)
REMARK    1  A    between atoms: C_4  and  C_1 
REMARK    2  A    between atoms: C_2  and  O_6 
REMARK       I    between atoms: C_3  and  N_12 
REMARK       I    between atoms: N_5  and  C_3 
REMARK    3  A    between atoms: C_16  and  N_5 
REMARK    4  A    between atoms: O_6  and  C_17 
REMARK    5  A    between atoms: N_12  and  C_27 
REMARK    6  A    between atoms: C_26  and  C_18 
REMARK    7  A    between atoms: S_19  and  C_26 
REMARK    8  A    between atoms: C_29  and  S_19 
REMARK    9  A    between atoms: C_27  and  C_29 
ROOT
ATOM      1  C   UNL d   1       0.008  -9.315   2.581  0.00  0.00     0.320 C 
ATOM      2  N   UNL d   1       0.460 -10.599   2.822  0.00  0.00    -0.309 N 
ATOM      3  O   UNL d   1      -1.138  -8.987   2.319  0.00  0.00    -0.247 OA
ATOM      4  N   UNL d   1       1.034  -8.397   2.631  0.00  0.00    -0.342 N 
ATOM      5  H   UNL d   1       1.454 -10.696   2.974  0.00  0.00     0.170 HD
ATOM      6  H   UNL d   1       1.813  -8.604   3.239  0.00  0.00     0.164 HD
ENDROOT
BRANCH   4   7
ATOM      7  C   UNL d   1       0.787  -6.984   2.377  0.00  0.00     0.134 C 
BRANCH   7   8
ATOM      8  C   UNL d   1       0.455  -6.168   3.634  0.00  0.00     0.094 C 
BRANCH   8   9
ATOM      9  S   UNL d   1       1.870  -6.224   4.789  0.00  0.00    -0.163 SA
BRANCH   9  10
ATOM     10  C   UNL d   1       1.307  -5.018   6.041  0.00  0.00     0.112 C 
BRANCH  10  11
ATOM     11  C   UNL d   1       2.338  -4.933   7.144  0.00  0.00    -0.048 A 
ATOM     12  C   UNL d   1       3.414  -4.035   7.052  0.00  0.00     0.024 A 
ATOM     13  C   UNL d   1       4.443  -4.040   8.009  0.00  0.00     0.048 A 
ATOM     14  C   UNL d   1       4.373  -4.947   9.077  0.00  0.00     0.016 A 
ATOM     15  C   UNL d   1       3.302  -5.832   9.185  0.00  0.00     0.001 A 
ATOM     16  C   UNL d   1       2.293  -5.827   8.223  0.00  0.00     0.008 A 
BRANCH  13  17
ATOM     17  C   UNL d   1       5.629  -3.114   7.889  0.00  0.00     0.417 C 
ATOM     18  F   UNL d   1       5.590  -2.313   6.788  0.00  0.00    -0.166 F 
ATOM     19  F   UNL d   1       6.811  -3.788   7.815  0.00  0.00    -0.166 F 
ATOM     20  F   UNL d   1       5.746  -2.275   8.956  0.00  0.00    -0.166 F 
ENDBRANCH  13  17
ENDBRANCH  10  11
ENDBRANCH   9  10
ENDBRANCH   8   9
ENDBRANCH   7   8
ENDBRANCH   4   7
BRANCH   2  21
ATOM     21  C   UNL d   1      -0.303 -11.788   2.830  0.00  0.00     0.036 A 
ATOM     22  C   UNL d   1      -1.675 -11.835   2.574  0.00  0.00     0.032 A 
ATOM     23  C   UNL d   1      -2.392 -13.043   2.643  0.00  0.00     0.039 A 
ATOM     24  C   UNL d   1      -1.733 -14.234   2.930  0.00  0.00     0.078 A 
ATOM     25  C   UNL d   1      -0.358 -14.193   3.183  0.00  0.00     0.039 A 
ATOM     26  C   UNL d   1       0.352 -12.986   3.128  0.00  0.00     0.032 A 
BRANCH  24  27
ATOM     27  O   UNL d   1      -2.279 -15.479   3.002  0.00  0.00    -0.255 OA
BRANCH  27  28
ATOM     28  C   UNL d   1      -3.585 -15.723   2.499  0.00  0.00     0.530 C 
ATOM     29  F   UNL d   1      -3.916 -14.921   1.464  0.00  0.00    -0.144 F 
ATOM     30  F   UNL d   1      -3.634 -16.998   2.057  0.00  0.00    -0.144 F 
ATOM     31  F   UNL d   1      -4.496 -15.581   3.483  0.00  0.00    -0.144 F 
ENDBRANCH  27  28
ENDBRANCH  24  27
ENDBRANCH   2  21
TORSDOF 9
