REMARK  9 active torsions:
REMARK  status: ('A' for Active; 'I' for Inactive)
REMARK    1  A    between atoms: N_3  and  N_1 
REMARK    2  A    between atoms: N_7  and  C_5 
REMARK    3  A    between atoms: N_8  and  C_6 
REMARK    4  A    between atoms: C_21  and  N_7 
REMARK    5  A    between atoms: C_22  and  N_7 
REMARK    6  A    between atoms: C_23  and  N_8 
REMARK    7  A    between atoms: C_24  and  N_8 
REMARK    8  A    between atoms: C_15  and  C_13 
REMARK    9  A    between atoms: C_16  and  C_14 
ROOT
ATOM      1  N   UNL d   1       0.923   0.365  -0.121  0.00  0.00    -0.311 N 
ATOM      2  HN  UNL d   1       0.332  -0.127  -0.791  1.00  0.00     0.186 HD
ATOM      3  C   UNL d   1       2.192   0.583  -0.274  0.00  0.00     0.118 C 
ENDROOT
BRANCH   1   4
ATOM      4  N   UNL d   1       0.483   0.894   1.084  0.00  0.00    -0.311 N 
ATOM      5  C   UNL d   1      -0.782   0.673   1.249  0.00  0.00     0.118 C 
ATOM      6  HN  UNL d   1       1.075   1.391   1.749  1.00  0.00     0.186 HD
BRANCH   5   7
ATOM      7  C   UNL d   1      -1.505   1.169   2.433  0.00  0.00    -0.019 A 
ATOM      8  C   UNL d   1      -0.843   1.902   3.414  0.00  0.00     0.015 A 
ATOM      9  C   UNL d   1      -1.557   2.406   4.506  0.00  0.00     0.030 A 
ATOM     10  C   UNL d   1      -2.942   2.217   4.637  0.00  0.00     0.030 A 
ATOM     11  C   UNL d   1      -3.573   1.452   3.641  0.00  0.00     0.030 A 
ATOM     12  C   UNL d   1      -2.869   0.926   2.550  0.00  0.00     0.015 A 
BRANCH  10  13
ATOM     13  N   UNL d   1      -3.653   2.787   5.684  0.00  0.00    -0.382 N 
BRANCH  13  14
ATOM     14  C   UNL d   1      -3.073   2.858   7.028  0.00  0.00     0.118 C 
ATOM     15  C   UNL d   1      -2.589   4.261   7.363  0.00  0.00     0.026 C 
ENDBRANCH  13  14
BRANCH  13  16
ATOM     16  C   UNL d   1      -5.027   3.264   5.498  0.00  0.00     0.118 C 
ATOM     17  C   UNL d   1      -5.076   4.444   4.534  0.00  0.00     0.026 C 
ENDBRANCH  13  16
ENDBRANCH  10  13
ENDBRANCH   5   7
ENDBRANCH   1   4
BRANCH   3  18
ATOM     18  C   UNL d   1       2.913   0.153  -1.485  0.00  0.00    -0.019 A 
ATOM     19  C   UNL d   1       2.241  -0.468  -2.532  0.00  0.00     0.015 A 
ATOM     20  C   UNL d   1       2.944  -0.845  -3.682  0.00  0.00     0.030 A 
ATOM     21  C   UNL d   1       4.319  -0.601  -3.827  0.00  0.00     0.030 A 
ATOM     22  C   UNL d   1       4.967   0.016  -2.743  0.00  0.00     0.030 A 
ATOM     23  C   UNL d   1       4.280   0.388  -1.580  0.00  0.00     0.015 A 
BRANCH  21  24
ATOM     24  N   UNL d   1       4.987  -0.931  -4.999  0.00  0.00    -0.382 N 
BRANCH  24  25
ATOM     25  C   UNL d   1       4.670  -2.183  -5.694  0.00  0.00     0.118 C 
ATOM     26  C   UNL d   1       3.862  -1.926  -6.957  0.00  0.00     0.026 C 
ENDBRANCH  24  25
BRANCH  24  27
ATOM     27  C   UNL d   1       6.160  -0.178  -5.453  0.00  0.00     0.118 C 
ATOM     28  C   UNL d   1       5.778   1.241  -5.855  0.00  0.00     0.026 C 
ENDBRANCH  24  27
ENDBRANCH  21  24
ENDBRANCH   3  18
TORSDOF 9
