REMARK  5 active torsions:
REMARK  status: ('A' for Active; 'I' for Inactive)
REMARK    1  A    between atoms: O_13  and  C_2 
REMARK    2  A    between atoms: C_8  and  C_3 
REMARK    3  A    between atoms: C_9  and  C_6 
REMARK    4  A    between atoms: C_21  and  O_13 
REMARK    5  A    between atoms: C_23  and  C_21 
ROOT
ATOM      1  C   UNL d   1       0.541   0.065   0.113  0.00  0.00     0.108 A 
ATOM      2  C   UNL d   1      -0.266  -1.071   0.170  0.00  0.00     0.165 A 
ATOM      3  C   UNL d   1      -0.090   1.315   0.021  0.00  0.00     0.025 A 
ATOM      4  N   UNL d   1      -1.617  -1.043   0.097  0.00  0.00    -0.335 N 
ATOM      5  HN  UNL d   1      -2.164  -1.904   0.127  1.00  0.00     0.168 HD
ATOM      6  C   UNL d   1      -2.217   0.162  -0.016  0.00  0.00     0.052 A 
ATOM      7  C   UNL d   1      -1.493   1.345  -0.041  0.00  0.00     0.046 A 
ATOM      8  C   UNL d   1       1.964  -0.084   0.127  0.00  0.00     0.105 C 
ATOM      9  N   UNL d   1       3.119  -0.189   0.151  0.00  0.00    -0.191 NA
ENDROOT
BRANCH   2  10
ATOM     10  O   UNL d   1       0.353  -2.306   0.236  0.00  0.00    -0.330 OA
BRANCH  10  11
ATOM     11  C   UNL d   1      -0.496  -3.332   0.760  0.00  0.00     0.216 C 
BRANCH  11  12
ATOM     12  C   UNL d   1       0.196  -4.682   0.734  0.00  0.00    -0.034 A 
ATOM     13  C   UNL d   1       1.593  -4.811   0.766  0.00  0.00     0.012 A 
ATOM     14  C   UNL d   1       2.188  -6.076   0.762  0.00  0.00     0.043 A 
ATOM     15  C   UNL d   1       1.388  -7.213   0.740  0.00  0.00     0.116 A 
ATOM     16  C   UNL d   1       0.004  -7.111   0.727  0.00  0.00     0.043 A 
ATOM     17  F   UNL d   1       1.960  -8.424   0.735  0.00  0.00    -0.206 F 
ATOM     18  C   UNL d   1      -0.592  -5.849   0.730  0.00  0.00     0.012 A 
ENDBRANCH  11  12
ENDBRANCH  10  11
ENDBRANCH   2  10
BRANCH   3  19
ATOM     19  C   UNL d   1       0.627   2.591  -0.029  0.00  0.00     0.086 A 
ATOM     20  O   UNL d   1      -0.017   3.591  -0.708  0.00  0.00    -0.322 OA
ATOM     21  C   UNL d   1       0.760   4.700  -0.647  0.00  0.00     0.142 A 
ATOM     22  C   UNL d   1       1.907   4.439   0.062  0.00  0.00     0.027 A 
ATOM     23  C   UNL d   1       1.823   3.080   0.461  0.00  0.00     0.040 A 
ENDBRANCH   3  19
BRANCH   6  24
ATOM     24  C   UNL d   1      -3.673   0.109  -0.203  0.00  0.00     0.031 A 
ATOM     25  S   UNL d   1      -4.693   1.383   0.340  0.00  0.00    -0.100 SA
ATOM     26  C   UNL d   1      -6.090   0.642  -0.305  0.00  0.00     0.050 A 
ATOM     27  C   UNL d   1      -5.808  -0.572  -0.886  0.00  0.00     0.008 A 
ATOM     28  C   UNL d   1      -4.420  -0.888  -0.807  0.00  0.00     0.021 A 
ENDBRANCH   6  24
TORSDOF 5
