REMARK  6 active torsions:
REMARK  status: ('A' for Active; 'I' for Inactive)
REMARK    1  A    between atoms: C_4  and  C_1 
REMARK    2  A    between atoms: O_12  and  C_2 
REMARK    3  A    between atoms: O_11  and  C_4 
REMARK       I    between atoms: C_8  and  N_5 
REMARK    4  A    between atoms: N_6  and  C_13 
REMARK    5  A    between atoms: C_10  and  O_12 
REMARK    6  A    between atoms: C_27  and  O_11 
ROOT
ATOM      1  C   UNL d   1      -1.060   3.220   0.848  0.00  0.00     0.322 C 
ATOM      2  O   UNL d   1      -1.248   2.964   2.030  0.00  0.00    -0.257 OA
ENDROOT
BRANCH   1   3
ATOM      3  C   UNL d   1       0.025   4.044   0.358  0.00  0.00     0.153 A 
ATOM      4  O   UNL d   1       0.131   4.370  -0.971  0.00  0.00    -0.281 OA
ATOM      5  C   UNL d   1       1.219   5.183  -1.107  0.00  0.00     0.191 A 
ATOM      6  C   UNL d   1       1.847   5.341   0.110  0.00  0.00     0.067 A 
ATOM      7  C   UNL d   1       1.071   4.629   1.053  0.00  0.00     0.048 A 
BRANCH   5   8
ATOM      8  O   UNL d   1       1.421   5.621  -2.349  0.00  0.00    -0.288 OA
BRANCH   8   9
ATOM      9  C   UNL d   1       2.102   6.795  -2.583  0.00  0.00     0.081 A 
ATOM     10  C   UNL d   1       2.962   6.830  -3.683  0.00  0.00     0.061 A 
ATOM     11  C   UNL d   1       3.628   8.016  -4.000  0.00  0.00     0.038 A 
ATOM     12 CL   UNL d   1       4.684   8.065  -5.358  0.00  0.00    -0.084 Cl
ATOM     13  C   UNL d   1       3.445   9.165  -3.233  0.00  0.00     0.048 A 
ATOM     14  C   UNL d   1       2.573   9.123  -2.147  0.00  0.00     0.038 A 
ATOM     15  C   UNL d   1       1.891   7.951  -1.825  0.00  0.00     0.061 A 
ATOM     16 CL   UNL d   1       2.327  10.537  -1.197  0.00  0.00    -0.084 Cl
ENDBRANCH   8   9
ENDBRANCH   5   8
ENDBRANCH   1   3
BRANCH   1  17
ATOM     17  O   UNL d   1      -1.844   2.768  -0.214  0.00  0.00    -0.273 OA
BRANCH  17  18
ATOM     18  C   UNL d   1      -2.927   1.885  -0.015  0.00  0.00     0.079 A 
ATOM     19  C   UNL d   1      -3.995   2.027  -0.892  0.00  0.00     0.039 A 
ATOM     20  C   UNL d   1      -5.080   1.146  -0.810  0.00  0.00     0.032 A 
ATOM     21  C   UNL d   1      -5.128   0.098   0.124  0.00  0.00     0.030 A 
ATOM     22  C   UNL d   1      -4.034  -0.012   0.997  0.00  0.00     0.032 A 
ATOM     23  C   UNL d   1      -2.936   0.863   0.927  0.00  0.00     0.039 A 
BRANCH  21  24
ATOM     24  N   UNL d   1      -6.237  -0.731   0.191  0.00  0.00    -0.378 N 
ATOM     25  C   UNL d   1      -6.535  -1.564   1.373  0.00  0.00     0.143 C 
ATOM     26  C   UNL d   1      -8.066  -1.685   1.538  0.00  0.00     0.145 C 
ATOM     27  N   UNL d   1      -8.724  -2.147   0.302  0.00  0.00    -0.349 N 
ATOM     28  C   UNL d   1      -8.367  -1.352  -0.884  0.00  0.00     0.145 C 
ATOM     29  C   UNL d   1      -9.635  -3.178   0.379  0.00  0.00     0.215 C 
ATOM     30  C   UNL d   1      -6.837  -1.254  -1.053  0.00  0.00     0.143 C 
ATOM     31  O   UNL d   1      -9.878  -3.752   1.444  0.00  0.00    -0.274 OA
ATOM     32  C   UNL d   1     -10.354  -3.651  -0.862  0.00  0.00     0.117 C 
ENDBRANCH  21  24
ENDBRANCH  17  18
ENDBRANCH   1  17
TORSDOF 6
