REMARK  2 active torsions:
REMARK  status: ('A' for Active; 'I' for Inactive)
REMARK    1  A    between atoms: C_11  and  C_3 
REMARK    2  A    between atoms: O_12  and  C_5 
ROOT
ATOM      1  N   UNL d   1       0.613   0.287  -0.073  0.00  0.00    -0.280 N 
ATOM      2  C   UNL d   1       1.540   1.333  -0.023  0.00  0.00     0.266 A 
ATOM      3  C   UNL d   1       2.983   0.891  -0.028  0.00  0.00     0.077 A 
ATOM      4  C   UNL d   1       1.008  -1.034  -0.091  0.00  0.00     0.066 A 
ATOM      5  C   UNL d   1       3.339  -0.417  -0.078  0.00  0.00     0.094 A 
ATOM      6  C   UNL d   1      -0.765   0.320  -0.084  0.00  0.00     0.027 A 
ATOM      7  C   UNL d   1       2.327  -1.491  -0.090  0.00  0.00     0.026 A 
ATOM      8  C   UNL d   1      -1.240  -0.981  -0.076  0.00  0.00    -0.022 A 
ATOM      9  C   UNL d   1      -0.115  -1.849  -0.071  0.00  0.00     0.000 A 
ATOM     10  O   UNL d   1       1.157   2.492   0.029  0.00  0.00    -0.267 OA
ATOM     11  C   UNL d   1       2.494  -2.882  -0.051  0.00  0.00     0.017 A 
ATOM     12  C   UNL d   1      -1.604   1.554  -0.039  0.00  0.00     0.058 C 
ATOM     13  C   UNL d   1       0.077  -3.240  -0.037  0.00  0.00     0.014 A 
ATOM     14  C   UNL d   1      -2.698  -1.301  -0.072  0.00  0.00     0.041 C 
ATOM     15  C   UNL d   1       1.387  -3.740  -0.021  0.00  0.00     0.002 A 
ATOM     16  C   UNL d   1      -3.067   1.206  -0.365  0.00  0.00     0.006 C 
ATOM     17  C   UNL d   1      -3.531  -0.075   0.348  0.00  0.00     0.005 C 
ENDROOT
BRANCH   3  18
ATOM     18  C   UNL d   1       3.998   1.959   0.070  0.00  0.00    -0.018 A 
ATOM     19  C   UNL d   1       4.510   2.574  -1.079  0.00  0.00     0.012 A 
ATOM     20  C   UNL d   1       5.390   3.653  -0.964  0.00  0.00     0.001 A 
ATOM     21  C   UNL d   1       5.765   4.121   0.296  0.00  0.00     0.000 A 
ATOM     22  C   UNL d   1       5.270   3.505   1.444  0.00  0.00     0.001 A 
ATOM     23  C   UNL d   1       4.391   2.426   1.332  0.00  0.00     0.012 A 
ENDBRANCH   3  18
BRANCH   5  24
ATOM     24  O   UNL d   1       4.671  -0.789  -0.098  0.00  0.00    -0.359 OA
ATOM     25  H   UNL d   1       4.746  -1.747  -0.217  0.00  0.00     0.217 HD
ENDBRANCH   5  24
TORSDOF 2
