REMARK  2 active torsions:
REMARK  status: ('A' for Active; 'I' for Inactive)
REMARK    1  A    between atoms: C_5  and  C_2 
REMARK    2  A    between atoms: N_13  and  C_5 
ROOT
ATOM      1  S   UNL d   1      -1.008   0.013  -0.070  0.00  0.00    -0.086 SA
ATOM      2  C   UNL d   1       0.175   1.266  -0.041  0.00  0.00     0.043 A 
ATOM      3  C   UNL d   1       0.161  -1.240   0.002  0.00  0.00     0.022 A 
ATOM      4  C   UNL d   1      -0.218  -2.635   0.053  0.00  0.00     0.021 A 
ATOM      5  C   UNL d   1       1.445   0.715  -0.009  0.00  0.00     0.023 A 
ATOM      6  C   UNL d   1       1.436  -0.711   0.017  0.00  0.00     0.021 A 
ATOM      7  S   UNL d   1       0.786  -3.806   0.815  0.00  0.00    -0.101 SA
ATOM      8  C   UNL d   1      -1.364  -3.229  -0.448  0.00  0.00     0.021 A 
ATOM      9  C   UNL d   1      -0.311  -5.074   0.490  0.00  0.00     0.050 A 
ATOM     10  C   UNL d   1      -1.418  -4.633  -0.196  0.00  0.00     0.008 A 
ENDROOT
BRANCH   2  11
ATOM     11  C   UNL d   1      -0.234   2.662  -0.053  0.00  0.00     0.111 C 
ATOM     12  S   UNL d   1       0.866   3.916  -0.016  0.00  0.00    -0.059 SA
BRANCH  11  13
ATOM     13  N   UNL d   1      -1.568   2.961  -0.091  0.00  0.00    -0.389 N 
ATOM     14  H   UNL d   1      -2.274   2.236  -0.102  0.00  0.00     0.157 HD
ATOM     15  H   UNL d   1      -1.862   3.928  -0.086  0.00  0.00     0.157 HD
ENDBRANCH  11  13
ENDBRANCH   2  11
TORSDOF 2
