REMARK  4 active torsions:
REMARK  status: ('A' for Active; 'I' for Inactive)
REMARK    1  A    between atoms: C_7  and  CA_1 
REMARK    2  A    between atoms: C_8  and  C_2 
REMARK    3  A    between atoms: OXT_12  and  C_7 
REMARK    4  A    between atoms: O_11  and  C_8 
ROOT
ATOM      1  CA  UNL d   1      -1.372  -0.844   0.059  0.00  0.00     0.141 A 
ATOM      2  C   UNL d   1      -0.053  -1.295   0.013  0.00  0.00     0.143 A 
ATOM      3  N   UNL d   1      -1.444   0.541   0.039  0.00  0.00    -0.345 N 
ATOM      4  HN  UNL d   1      -2.284   1.120   0.058  1.00  0.00     0.167 HD
ATOM      5  N   UNL d   1       0.673  -0.112  -0.035  0.00  0.00    -0.340 N 
ATOM      6  C   UNL d   1      -0.200   0.943  -0.009  0.00  0.00     0.183 A 
ATOM      7  C   UNL d   1       2.105   0.084  -0.068  0.00  0.00     0.157 C 
ENDROOT
BRANCH   1   8
ATOM      8  C   UNL d   1      -2.610  -1.607   0.108  0.00  0.00     0.196 C 
ATOM      9  O   UNL d   1      -2.652  -2.826   0.212  0.00  0.00    -0.645 OA
BRANCH   8  10
ATOM     10  OXT UNL d   1      -3.709  -0.815   0.065  0.00  0.00    -0.772 OA
ATOM     11  HXT UNL d   1      -3.391   0.118   0.015  0.00  0.00     0.167 HD
ENDBRANCH   8  10
ENDBRANCH   1   8
BRANCH   2  12
ATOM     12  C   UNL d   1       0.532  -2.621  -0.016  0.00  0.00     0.196 C 
ATOM     13  O   UNL d   1       1.681  -2.862  -0.362  0.00  0.00    -0.645 OA
BRANCH  12  14
ATOM     14  O   UNL d   1      -0.264  -3.620   0.420  0.00  0.00    -0.772 OA
ATOM     15  H   UNL d   1      -1.218  -3.431   0.557  0.00  0.00     0.167 HD
ENDBRANCH  12  14
ENDBRANCH   2  12
TORSDOF 4
