REMARK  13 active torsions:
REMARK  status: ('A' for Active; 'I' for Inactive)
REMARK       I    between atoms: C_7  and  N_1 
REMARK    1  A    between atoms: C_2  and  O_12 
REMARK    2  A    between atoms: C_3  and  O_13 
REMARK    3  A    between atoms: C_4  and  O_11 
REMARK    4  A    between atoms: C_5  and  O_14 
REMARK    5  A    between atoms: C_10  and  C_6 
REMARK       I    between atoms: N_27  and  C_7 
REMARK    6  A    between atoms: C_9  and  C_24 
REMARK    7  A    between atoms: O_11  and  C_15 
REMARK    8  A    between atoms: C_19  and  O_12 
REMARK    9  A    between atoms: C_20  and  O_13 
REMARK   10  A    between atoms: C_21  and  O_14 
REMARK   11  A    between atoms: O_35  and  C_18 
REMARK   12  A    between atoms: C_22  and  O_28 
REMARK   13  A    between atoms: O_28  and  C_24 
ROOT
ATOM      1  C   UNL d   1       0.426   0.760  -6.689  0.00  0.00     0.219 C 
ATOM      2  C   UNL d   1       0.623   1.210  -5.220  0.00  0.00     0.198 C 
ATOM      3  C   UNL d   1      -0.623  -0.367  -6.743  0.00  0.00     0.299 C 
ATOM      4  C   UNL d   1      -0.723   1.474  -4.507  0.00  0.00     0.195 C 
ATOM      5  O   UNL d   1      -1.836   0.095  -6.140  0.00  0.00    -0.348 OA
ATOM      6  C   UNL d   1      -1.698   0.307  -4.732  0.00  0.00     0.181 C 
ENDROOT
BRANCH   3   7
ATOM      7  O   UNL d   1      -0.895  -0.765  -8.092  0.00  0.00    -0.315 OA
BRANCH   7   8
ATOM      8  C   UNL d   1      -1.615  -1.926  -8.260  0.00  0.00     0.105 A 
ATOM      9  C   UNL d   1      -2.131  -2.693  -7.209  0.00  0.00     0.040 A 
ATOM     10  C   UNL d   1      -2.792  -3.900  -7.447  0.00  0.00     0.013 A 
ATOM     11  C   UNL d   1      -2.937  -4.399  -8.746  0.00  0.00    -0.023 A 
ATOM     12  C   UNL d   1      -2.473  -3.597  -9.806  0.00  0.00     0.049 A 
ATOM     13  C   UNL d   1      -1.844  -2.362  -9.575  0.00  0.00     0.102 A 
BRANCH  11  14
ATOM     14  C   UNL d   1      -3.536  -5.773  -9.035  0.00  0.00     0.184 C 
ATOM     15  N   UNL d   1      -3.973  -6.492  -7.847  0.00  0.00    -0.316 N 
ATOM     16  C   UNL d   1      -5.209  -6.468  -7.247  0.00  0.00     0.319 C 
ATOM     17  C   UNL d   1      -2.936  -7.327  -7.241  0.00  0.00     0.139 C 
ATOM     18  O   UNL d   1      -5.416  -7.052  -6.185  0.00  0.00    -0.247 OA
ATOM     19  N   UNL d   1      -6.195  -5.778  -7.892  0.00  0.00    -0.347 N 
ATOM     20  C   UNL d   1      -7.568  -5.816  -7.444  0.00  0.00     0.151 C 
ATOM     21  H   UNL d   1      -6.037  -5.397  -8.808  0.00  0.00     0.163 HD
ATOM     22  C   UNL d   1      -1.728  -7.460  -8.157  0.00  0.00     0.096 C 
ATOM     23  S   UNL d   1      -2.287  -6.885  -9.770  0.00  0.00    -0.137 SA
ENDBRANCH  11  14
BRANCH  13  24
ATOM     24  O   UNL d   1      -1.388  -1.563 -10.596  0.00  0.00    -0.353 OA
ATOM     25  C   UNL d   1      -2.178  -1.593 -11.783  0.00  0.00     0.210 C 
ENDBRANCH  13  24
ENDBRANCH   7   8
ENDBRANCH   3   7
BRANCH   1  26
ATOM     26  O   UNL d   1       1.712   0.275  -7.144  0.00  0.00    -0.308 OA
BRANCH  26  27
ATOM     27  C   UNL d   1       2.076   0.562  -8.416  0.00  0.00     0.255 C 
ATOM     28  O   UNL d   1       1.370   1.108  -9.252  0.00  0.00    -0.266 OA
ATOM     29  C   UNL d   1       3.525   0.241  -8.627  0.00  0.00     0.126 C 
ENDBRANCH  26  27
ENDBRANCH   1  26
BRANCH   2  30
ATOM     30  O   UNL d   1       1.398   2.442  -5.190  0.00  0.00    -0.311 OA
BRANCH  30  31
ATOM     31  C   UNL d   1       2.750   2.308  -5.082  0.00  0.00     0.255 C 
ATOM     32  O   UNL d   1       3.360   1.254  -4.981  0.00  0.00    -0.266 OA
ATOM     33  C   UNL d   1       3.414   3.648  -5.144  0.00  0.00     0.126 C 
ENDBRANCH  30  31
ENDBRANCH   2  30
BRANCH   6  34
ATOM     34  C   UNL d   1      -3.098   0.589  -4.166  0.00  0.00     0.213 C 
BRANCH  34  35
ATOM     35  O   UNL d   1      -3.961  -0.556  -4.351  0.00  0.00    -0.319 OA
BRANCH  35  36
ATOM     36  C   UNL d   1      -3.808  -1.563  -3.452  0.00  0.00     0.254 C 
ATOM     37  O   UNL d   1      -3.037  -1.541  -2.503  0.00  0.00    -0.266 OA
ATOM     38  C   UNL d   1      -4.714  -2.714  -3.772  0.00  0.00     0.126 C 
ENDBRANCH  35  36
ENDBRANCH  34  35
ENDBRANCH   6  34
BRANCH   4  39
ATOM     39  O   UNL d   1      -0.566   1.817  -3.105  0.00  0.00    -0.311 OA
BRANCH  39  40
ATOM     40  C   UNL d   1      -0.048   0.887  -2.257  0.00  0.00     0.255 C 
ATOM     41  O   UNL d   1       0.328  -0.229  -2.589  0.00  0.00    -0.266 OA
ATOM     42  C   UNL d   1      -0.015   1.396  -0.849  0.00  0.00     0.126 C 
ENDBRANCH  39  40
ENDBRANCH   4  39
TORSDOF 13
