REMARK  5 active torsions:
REMARK  status: ('A' for Active; 'I' for Inactive)
REMARK    1  A    between atoms: C_7  and  C_1 
REMARK    2  A    between atoms: C_8  and  C_2 
REMARK    3  A    between atoms: C_12  and  C_4 
REMARK    4  A    between atoms: C_6  and  C_8 
REMARK    5  A    between atoms: C_17  and  C_9 
ROOT
ATOM      1  C   UNL d   1      -1.764  -3.151   0.685  0.00  0.00     0.096 C 
ATOM      2  C   UNL d   1      -1.774  -4.435   0.265  0.00  0.00     0.038 C 
ATOM      3  C   UNL d   1      -0.962  -2.724   1.777  0.00  0.00     0.103 C 
ATOM      4  N   UNL d   1      -0.305  -2.376   2.671  0.00  0.00    -0.191 NA
ENDROOT
BRANCH   1   5
ATOM      5  C   UNL d   1      -2.714  -2.189   0.019  0.00  0.00     0.209 C 
ATOM      6  O   UNL d   1      -3.708  -2.653  -0.545  0.00  0.00    -0.285 OA
BRANCH   5   7
ATOM      7  C   UNL d   1      -2.503  -0.741   0.072  0.00  0.00     0.058 A 
ATOM      8  S   UNL d   1      -0.962  -0.026   0.031  0.00  0.00    -0.081 SA
ATOM      9  C   UNL d   1      -1.584   1.582   0.065  0.00  0.00     0.100 A 
ATOM     10  C   UNL d   1      -2.978   1.585   0.067  0.00  0.00    -0.003 A 
ATOM     11  C   UNL d   1      -3.483   0.232   0.042  0.00  0.00     0.036 A 
BRANCH   9  12
ATOM     12  C   UNL d   1      -0.590   2.708   0.051  0.00  0.00     0.424 C 
ATOM     13  F   UNL d   1       0.691   2.292  -0.147  0.00  0.00    -0.166 F 
ATOM     14  F   UNL d   1      -0.849   3.608  -0.931  0.00  0.00    -0.166 F 
ATOM     15  F   UNL d   1      -0.576   3.390   1.226  0.00  0.00    -0.166 F 
ENDBRANCH   9  12
BRANCH  10  16
ATOM     16  C   UNL d   1      -3.825   2.793   0.036  0.00  0.00    -0.025 A 
ATOM     17  C   UNL d   1      -5.027   2.780  -0.692  0.00  0.00     0.012 A 
ATOM     18  C   UNL d   1      -5.868   3.900  -0.725  0.00  0.00     0.001 A 
ATOM     19  C   UNL d   1      -5.513   5.060  -0.045  0.00  0.00     0.000 A 
ATOM     20  C   UNL d   1      -4.333   5.089   0.689  0.00  0.00     0.001 A 
ATOM     21  C   UNL d   1      -3.510   3.958   0.748  0.00  0.00     0.012 A 
ENDBRANCH  10  16
ENDBRANCH   5   7
ENDBRANCH   1   5
BRANCH   2  22
ATOM     22  C   UNL d   1      -0.947  -5.497   0.853  0.00  0.00    -0.035 A 
ATOM     23  C   UNL d   1      -1.413  -6.224   1.955  0.00  0.00     0.013 A 
ATOM     24  C   UNL d   1      -0.603  -7.197   2.549  0.00  0.00     0.024 A 
ATOM     25  C   UNL d   1       0.670  -7.444   2.039  0.00  0.00     0.034 A 
ATOM     26  C   UNL d   1       1.137  -6.735   0.934  0.00  0.00     0.024 A 
ATOM     27 CL   UNL d   1       1.674  -8.628   2.781  0.00  0.00    -0.084 Cl
ATOM     28  C   UNL d   1       0.328  -5.761   0.340  0.00  0.00     0.013 A 
ENDBRANCH   2  22
TORSDOF 5
