REMARK  4 active torsions:
REMARK  status: ('A' for Active; 'I' for Inactive)
REMARK    1  A    between atoms: C_7  and  C_1 
REMARK    2  A    between atoms: C_8  and  C_2 
REMARK    3  A    between atoms: O_12  and  C_7 
REMARK    4  A    between atoms: O_16  and  C_13 
ROOT
ATOM      1  C   UNL d   1       2.073   0.689   0.113  0.00  0.00     0.066 C 
ATOM      2  C   UNL d   1       1.114   1.835  -0.088  0.00  0.00     0.158 C 
ATOM      3  C   UNL d   1       1.659  -0.596   0.026  0.00  0.00     0.022 C 
ATOM      4  C   UNL d   1      -0.663   0.101  -0.158  0.00  0.00     0.172 C 
ATOM      5  N   UNL d   1       0.313  -0.844  -0.158  0.00  0.00    -0.337 N 
ATOM      6  N   UNL d   1      -0.270   1.387  -0.031  0.00  0.00    -0.354 N 
ATOM      7  S   UNL d   1      -2.268  -0.305  -0.267  0.00  0.00    -0.041 SA
ATOM      8  C   UNL d   1       2.504  -1.839   0.070  0.00  0.00     0.069 C 
ATOM      9  H   UNL d   1      -0.007  -1.806  -0.222  0.00  0.00     0.168 HD
ATOM     10  H   UNL d   1      -1.000   2.088  -0.037  0.00  0.00     0.163 HD
ENDROOT
BRANCH   2  11
ATOM     11  C   UNL d   1       1.246   3.019   0.857  0.00  0.00    -0.028 A 
ATOM     12  C   UNL d   1       1.467   4.308   0.330  0.00  0.00     0.046 A 
ATOM     13  C   UNL d   1       1.503   5.426   1.163  0.00  0.00     0.068 A 
ATOM     14  C   UNL d   1       1.325   5.257   2.537  0.00  0.00     0.037 A 
ATOM     15  C   UNL d   1       1.118   3.987   3.077  0.00  0.00     0.003 A 
ATOM     16  C   UNL d   1       1.077   2.872   2.242  0.00  0.00     0.010 A 
BRANCH  13  17
ATOM     17  O   UNL d   1       1.685   6.721   0.761  0.00  0.00    -0.356 OA
ATOM     18  C   UNL d   1       1.854   6.946  -0.634  0.00  0.00     0.210 C 
ENDBRANCH  13  17
ENDBRANCH   2  11
BRANCH   1  19
ATOM     19  C   UNL d   1       3.499   1.016   0.366  0.00  0.00     0.293 C 
ATOM     20  O   UNL d   1       4.239   0.356   1.078  0.00  0.00    -0.259 OA
BRANCH  19  21
ATOM     21  O   UNL d   1       3.846   2.152  -0.290  0.00  0.00    -0.323 OA
ATOM     22  C   UNL d   1       5.154   2.649   0.010  0.00  0.00     0.213 C 
ENDBRANCH  19  21
ENDBRANCH   1  19
TORSDOF 4
