REMARK  2 active torsions:
REMARK  status: ('A' for Active; 'I' for Inactive)
REMARK    1  A    between atoms: C_10  and  C_4 
REMARK    2  A    between atoms: C_8  and  C_7 
ROOT
ATOM      1  N   UNL d   1       1.487   0.372  -0.010  0.00  0.00    -0.337 N 
ATOM      2  HN  UNL d   1       2.317   0.965   0.011  1.00  0.00     0.167 HD
ATOM      3  N   UNL d   1       0.187  -1.454  -0.072  0.00  0.00    -0.307 N 
ATOM      4  C   UNL d   1       1.436  -0.924  -0.085  0.00  0.00     0.119 A 
ATOM      5  C   UNL d   1       0.161   0.769   0.034  0.00  0.00     0.105 A 
ATOM      6  C   UNL d   1      -0.715  -0.445   0.033  0.00  0.00     0.274 A 
ATOM      7  C   UNL d   1      -0.230   2.047   0.068  0.00  0.00     0.072 C 
ATOM      8  O   UNL d   1      -1.920  -0.551   0.135  0.00  0.00    -0.266 OA
ATOM      9  H   UNL d   1      -0.082  -2.423  -0.053  0.00  0.00     0.170 HD
ENDROOT
BRANCH   4  10
ATOM     10  C   UNL d   1       2.608  -1.811  -0.171  0.00  0.00     0.008 A 
ATOM     11  C   UNL d   1       2.529  -3.045  -0.828  0.00  0.00     0.015 A 
ATOM     12  C   UNL d   1       3.663  -3.852  -0.931  0.00  0.00     0.001 A 
ATOM     13  C   UNL d   1       4.871  -3.433  -0.377  0.00  0.00     0.000 A 
ATOM     14  C   UNL d   1       4.952  -2.206   0.281  0.00  0.00     0.001 A 
ATOM     15  C   UNL d   1       3.823  -1.390   0.380  0.00  0.00     0.015 A 
ENDBRANCH   4  10
BRANCH   7  16
ATOM     16  C   UNL d   1      -1.591   2.428   0.115  0.00  0.00     0.077 A 
ATOM     17  O   UNL d   1      -2.371   2.582  -1.007  0.00  0.00    -0.323 OA
ATOM     18  C   UNL d   1      -3.620   2.931  -0.608  0.00  0.00     0.142 A 
ATOM     19  C   UNL d   1      -3.676   3.034   0.758  0.00  0.00     0.027 A 
ATOM     20  C   UNL d   1      -2.376   2.724   1.222  0.00  0.00     0.039 A 
ENDBRANCH   7  16
TORSDOF 2
