REMARK  9 active torsions:
REMARK  status: ('A' for Active; 'I' for Inactive)
REMARK    1  A    between atoms: N_5  and  S_1 
REMARK    2  A    between atoms: C_9  and  S_1 
REMARK    3  A    between atoms: S_2  and  N_8 
REMARK    4  A    between atoms: C_10  and  S_2 
REMARK    5  A    between atoms: C_3  and  C_7 
REMARK    6  A    between atoms: C_4  and  C_6 
REMARK    7  A    between atoms: C_11  and  N_5 
REMARK    8  A    between atoms: N_8  and  C_32 
REMARK       I    between atoms: C_17  and  N_20 
REMARK    9  A    between atoms: N_20  and  C_33 
ROOT
ATOM      1  C   UNL d   1       0.421   0.113   1.723  0.00  0.00     0.080 A 
ATOM      2  C   UNL d   1       0.215  -1.062   2.453  0.00  0.00     0.027 A 
ATOM      3  C   UNL d   1       0.231   1.363   2.322  0.00  0.00     0.027 A 
ATOM      4  C   UNL d   1      -0.492   0.263   4.351  0.00  0.00     0.042 A 
ATOM      5  C   UNL d   1      -0.236  -0.983   3.775  0.00  0.00     0.031 A 
ATOM      6  C   UNL d   1      -0.245   1.434   3.634  0.00  0.00     0.031 A 
ENDROOT
BRANCH   1   7
ATOM      7  S   UNL d   1       0.947   0.022   0.020  0.00  0.00     0.263 S 
ATOM      8  O   UNL d   1       1.614   1.262  -0.309  0.00  0.00    -0.200 OA
ATOM      9  O   UNL d   1       1.590  -1.261  -0.164  0.00  0.00    -0.200 OA
BRANCH   7  10
ATOM     10  N   UNL d   1      -0.518  -0.060  -0.828  0.00  0.00    -0.281 N 
ATOM     11  H   UNL d   1      -0.898  -1.006  -0.848  0.00  0.00     0.179 HD
BRANCH  10  12
ATOM     12  C   UNL d   1      -1.425   1.029  -0.744  0.00  0.00     0.044 A 
ATOM     13  C   UNL d   1      -1.221   2.160  -1.532  0.00  0.00     0.046 A 
ATOM     14  C   UNL d   1      -2.082   3.264  -1.430  0.00  0.00     0.050 A 
ATOM     15  C   UNL d   1      -3.130   3.221  -0.493  0.00  0.00     0.032 A 
ATOM     16  C   UNL d   1      -3.324   2.096   0.324  0.00  0.00     0.050 A 
ATOM     17  C   UNL d   1      -2.471   0.991   0.176  0.00  0.00     0.046 A 
BRANCH  14  18
ATOM     18  C   UNL d   1      -1.867   4.475  -2.308  0.00  0.00     0.417 C 
ATOM     19  F   UNL d   1      -2.781   5.463  -2.092  0.00  0.00    -0.166 F 
ATOM     20  F   UNL d   1      -0.648   5.048  -2.118  0.00  0.00    -0.166 F 
ATOM     21  F   UNL d   1      -1.946   4.178  -3.634  0.00  0.00    -0.166 F 
ENDBRANCH  14  18
BRANCH  16  22
ATOM     22  C   UNL d   1      -4.404   2.067   1.379  0.00  0.00     0.417 C 
ATOM     23  F   UNL d   1      -5.160   3.197   1.415  0.00  0.00    -0.166 F 
ATOM     24  F   UNL d   1      -5.272   1.034   1.206  0.00  0.00    -0.166 F 
ATOM     25  F   UNL d   1      -3.889   1.921   2.631  0.00  0.00    -0.166 F 
ENDBRANCH  16  22
ENDBRANCH  10  12
ENDBRANCH   7  10
ENDBRANCH   1   7
BRANCH   4  26
ATOM     26  N   UNL d   1      -1.059   0.339   5.646  0.00  0.00    -0.281 N 
ATOM     27  H   UNL d   1      -1.948   0.819   5.768  0.00  0.00     0.179 HD
BRANCH  26  28
ATOM     28  S   UNL d   1      -0.099   0.303   7.026  0.00  0.00     0.263 S 
ATOM     29  O   UNL d   1      -0.987   0.573   8.133  0.00  0.00    -0.200 OA
ATOM     30  O   UNL d   1       0.725  -0.886   6.994  0.00  0.00    -0.200 OA
BRANCH  28  31
ATOM     31  C   UNL d   1       0.960   1.721   6.842  0.00  0.00     0.080 A 
ATOM     32  C   UNL d   1       0.549   2.972   7.309  0.00  0.00     0.027 A 
ATOM     33  C   UNL d   1       1.406   4.074   7.180  0.00  0.00     0.031 A 
ATOM     34  C   UNL d   1       2.673   3.933   6.595  0.00  0.00     0.034 A 
ATOM     35  C   UNL d   1       3.075   2.668   6.160  0.00  0.00     0.031 A 
ATOM     36  C   UNL d   1       2.228   1.562   6.286  0.00  0.00     0.027 A 
BRANCH  34  37
ATOM     37  N   UNL d   1       3.478   5.090   6.483  0.00  0.00    -0.328 N 
ATOM     38  C   UNL d   1       4.736   5.177   5.910  0.00  0.00     0.218 C 
ATOM     39  O   UNL d   1       5.373   4.263   5.398  0.00  0.00    -0.274 OA
ATOM     40  C   UNL d   1       5.319   6.569   5.944  0.00  0.00     0.117 C 
ATOM     41  H   UNL d   1       3.082   5.945   6.853  0.00  0.00     0.169 HD
ENDBRANCH  34  37
ENDBRANCH  28  31
ENDBRANCH  26  28
ENDBRANCH   4  26
TORSDOF 9
