REMARK  6 active torsions:
REMARK  status: ('A' for Active; 'I' for Inactive)
REMARK    1  A    between atoms: C_4  and  C_2 
REMARK    2  A    between atoms: C_8  and  C_4 
REMARK    3  A    between atoms: C_9  and  N_11 
REMARK       I    between atoms: N_11  and  C_14 
REMARK    4  A    between atoms: C_14  and  C_24 
REMARK    5  A    between atoms: O_20  and  C_15 
REMARK    6  A    between atoms: C_24  and  O_20 
ROOT
ATOM      1  N   UNL d   1       6.614   1.953  -1.202  0.00  0.00    -0.324 N 
ATOM      2  C   UNL d   1       5.878   1.536  -0.101  0.00  0.00     0.246 C 
ATOM      3  O   UNL d   1       6.051   1.946   1.045  0.00  0.00    -0.271 OA
ATOM      4  H   UNL d   1       6.094   1.977  -2.071  0.00  0.00     0.169 HD
ENDROOT
BRANCH   1   5
ATOM      5  C   UNL d   1       7.770   2.764  -1.112  0.00  0.00     0.049 A 
ATOM      6  C   UNL d   1       8.865   2.540  -0.242  0.00  0.00     0.043 A 
ATOM      7  C   UNL d   1       9.991   3.385  -0.348  0.00  0.00     0.041 A 
ATOM      8  C   UNL d   1       9.974   4.499  -1.186  0.00  0.00     0.035 A 
ATOM      9  C   UNL d   1       8.884   4.740  -2.010  0.00  0.00     0.026 A 
ATOM     10 CL   UNL d   1      11.312   5.581  -1.200  0.00  0.00    -0.084 Cl
ATOM     11  C   UNL d   1       7.810   3.849  -2.006  0.00  0.00     0.032 A 
BRANCH   6  12
ATOM     12  C   UNL d   1       8.950   1.353   0.673  0.00  0.00     0.196 C 
ATOM     13  O   UNL d   1       8.469   0.285   0.290  0.00  0.00    -0.287 OA
BRANCH  12  14
ATOM     14  C   UNL d   1       9.747   1.355   1.949  0.00  0.00     0.037 C 
ATOM     15  C   UNL d   1      10.024   2.479   2.741  0.00  0.00     0.048 C 
ATOM     16 CL   UNL d   1       9.144   3.965   2.642  0.00  0.00    -0.083 Cl
ATOM     17  C   UNL d   1      11.000   2.409   3.747  0.00  0.00     0.025 C 
ATOM     18  C   UNL d   1      11.600   1.194   4.071  0.00  0.00     0.002 C 
ATOM     19  C   UNL d   1      11.206   0.038   3.407  0.00  0.00     0.001 C 
ATOM     20  C   UNL d   1      10.305   0.121   2.340  0.00  0.00     0.017 C 
ENDBRANCH  12  14
ENDBRANCH   6  12
ENDBRANCH   1   5
BRANCH   2  21
ATOM     21  C   UNL d   1       4.763   0.545  -0.463  0.00  0.00     0.278 C 
BRANCH  21  22
ATOM     22  O   UNL d   1       3.657   1.246  -1.027  0.00  0.00    -0.341 OA
BRANCH  22  23
ATOM     23  C   UNL d   1       2.642   0.509  -1.592  0.00  0.00     0.078 A 
ATOM     24  C   UNL d   1       1.750   1.230  -2.412  0.00  0.00     0.006 A 
ATOM     25  C   UNL d   1       0.698   0.547  -3.064  0.00  0.00     0.092 A 
ATOM     26  C   UNL d   1       1.855   2.727  -2.553  0.00  0.00     0.054 C 
ATOM     27  C   UNL d   1       0.514  -0.815  -2.863  0.00  0.00     0.044 A 
ATOM     28  O   UNL d   1      -0.110   1.297  -3.886  0.00  0.00    -0.339 OA
ATOM     29  C   UNL d   1      -0.625  -1.494  -3.523  0.00  0.00     0.165 C 
ATOM     30  C   UNL d   1       1.384  -1.528  -2.032  0.00  0.00     0.021 A 
ATOM     31  O   UNL d   1      -0.813  -2.696  -3.390  0.00  0.00    -0.292 OA
ATOM     32  C   UNL d   1      -1.567  -0.609  -4.304  0.00  0.00     0.121 C 
ATOM     33  C   UNL d   1      -0.803   0.565  -4.912  0.00  0.00     0.067 C 
ATOM     34  C   UNL d   1       0.175   0.139  -6.021  0.00  0.00     0.046 C 
ATOM     35  C   UNL d   1      -1.800   1.562  -5.525  0.00  0.00     0.046 C 
ATOM     36  C   UNL d   1       2.448  -0.862  -1.403  0.00  0.00     0.038 A 
ENDBRANCH  22  23
ENDBRANCH  21  22
ENDBRANCH   2  21
TORSDOF 6
