REMARK  5 active torsions:
REMARK  status: ('A' for Active; 'I' for Inactive)
REMARK    1  A    between atoms: N_8  and  C_2 
REMARK    2  A    between atoms: C_18  and  N_3 
REMARK    3  A    between atoms: C_7  and  C_6 
REMARK    4  A    between atoms: C_13  and  C_9 
REMARK    5  A    between atoms: N_21  and  C_17 
ROOT
ATOM      1  C   UNL d   1      -2.929  -2.710   0.160  0.00  0.00     0.120 C 
ATOM      2  C   UNL d   1      -3.918  -3.672   0.030  0.00  0.00     0.157 C 
ATOM      3  N   UNL d   1      -5.112  -2.973  -0.039  0.00  0.00    -0.237 N 
ATOM      4  N   UNL d   1      -4.885  -1.625  -0.205  0.00  0.00    -0.289 N 
ATOM      5  HN  UNL d   1      -5.573  -0.913  -0.450  1.00  0.00     0.188 HD
ATOM      6  C   UNL d   1      -3.563  -1.434   0.022  0.00  0.00     0.094 C 
ATOM      7  C   UNL d   1      -1.538  -2.965   0.231  0.00  0.00     0.106 C 
ATOM      8  N   UNL d   1      -0.391  -3.202   0.286  0.00  0.00    -0.191 NA
ENDROOT
BRANCH   2   9
ATOM      9  N   UNL d   1      -3.789  -5.067  -0.099  0.00  0.00    -0.316 N 
ATOM     10  C   UNL d   1      -4.623  -5.921  -0.808  0.00  0.00     0.098 A 
ATOM     11  C   UNL d   1      -4.206  -7.224  -0.659  0.00  0.00     0.019 A 
ATOM     12  C   UNL d   1      -3.037  -7.190   0.120  0.00  0.00     0.019 A 
ATOM     13  C   UNL d   1      -2.792  -5.868   0.431  0.00  0.00     0.098 A 
ENDBRANCH   2   9
BRANCH   6  14
ATOM     14  C   UNL d   1      -2.886  -0.123   0.019  0.00  0.00     0.075 C 
ATOM     15  C   UNL d   1      -3.386   0.939  -0.674  0.00  0.00     0.038 C 
ATOM     16  C   UNL d   1      -1.648   0.044   0.773  0.00  0.00     0.102 C 
ATOM     17  N   UNL d   1      -0.664   0.187   1.364  0.00  0.00    -0.191 NA
BRANCH  15  18
ATOM     18  C   UNL d   1      -2.720   2.257  -0.750  0.00  0.00    -0.013 A 
ATOM     19  C   UNL d   1      -1.730   2.559  -1.696  0.00  0.00     0.046 A 
ATOM     20  C   UNL d   1      -1.016   3.767  -1.629  0.00  0.00     0.054 A 
ATOM     21 CL   UNL d   1      -1.346   1.462  -2.979  0.00  0.00    -0.083 Cl
ATOM     22  C   UNL d   1      -1.261   4.728  -0.634  0.00  0.00     0.031 A 
ATOM     23  C   UNL d   1      -2.292   4.428   0.270  0.00  0.00     0.030 A 
ATOM     24  C   UNL d   1      -3.010   3.219   0.220  0.00  0.00     0.015 A 
BRANCH  22  25
ATOM     25  N   UNL d   1      -0.548   5.917  -0.594  0.00  0.00    -0.390 N 
ATOM     26  C   UNL d   1       0.881   5.944  -0.911  0.00  0.00     0.149 C 
ATOM     27  C   UNL d   1      -1.044   7.104   0.095  0.00  0.00     0.149 C 
ENDBRANCH  22  25
ENDBRANCH  15  18
ENDBRANCH   6  14
BRANCH   3  28
ATOM     28  C   UNL d   1      -6.437  -3.501   0.100  0.00  0.00     0.058 A 
ATOM     29  C   UNL d   1      -6.688  -4.584   0.967  0.00  0.00     0.031 A 
ATOM     30  C   UNL d   1      -7.925  -5.234   0.955  0.00  0.00     0.002 A 
ATOM     31  C   UNL d   1      -8.929  -4.795   0.099  0.00  0.00     0.000 A 
ATOM     32  C   UNL d   1      -8.708  -3.683  -0.718  0.00  0.00     0.002 A 
ATOM     33  C   UNL d   1      -7.472  -3.020  -0.707  0.00  0.00     0.031 A 
ENDBRANCH   3  28
TORSDOF 5
