REMARK  3 active torsions:
REMARK  status: ('A' for Active; 'I' for Inactive)
REMARK       I    between atoms: C_2  and  N_1 
REMARK    1  A    between atoms: C_6  and  N_1 
REMARK    2  A    between atoms: C_5  and  C_2 
REMARK    3  A    between atoms: C_7  and  C_5 
ROOT
ATOM      1  N   UNL d   1       0.991  -0.271   0.040  0.00  0.00    -0.321 N 
ATOM      2  C   UNL d   1       0.147  -1.360   0.147  0.00  0.00     0.245 C 
ATOM      3  O   UNL d   1      -1.073  -1.342   0.035  0.00  0.00    -0.268 OA
ATOM      4  H   UNL d   1       1.965  -0.452  -0.162  0.00  0.00     0.169 HD
ENDROOT
BRANCH   1   5
ATOM      5  C   UNL d   1       0.555   1.071  -0.068  0.00  0.00     0.073 A 
ATOM      6  C   UNL d   1      -0.656   1.552   0.451  0.00  0.00     0.143 A 
ATOM      7  F   UNL d   1      -1.429   0.795   1.242  0.00  0.00    -0.204 F 
ATOM      8  C   UNL d   1      -1.052   2.873   0.250  0.00  0.00     0.044 A 
ATOM      9  C   UNL d   1      -0.230   3.746  -0.456  0.00  0.00     0.003 A 
ATOM     10  C   UNL d   1       1.003   3.300  -0.930  0.00  0.00     0.002 A 
ATOM     11  C   UNL d   1       1.401   1.974  -0.725  0.00  0.00     0.033 A 
ENDBRANCH   1   5
BRANCH   2  12
ATOM     12  C   UNL d   1       0.876  -2.645   0.326  0.00  0.00     0.075 C 
BRANCH  12  13
ATOM     13  C   UNL d   1       0.150  -3.771   0.427  0.00  0.00     0.024 C 
ATOM     14  C   UNL d   1       0.721  -5.059   0.637  0.00  0.00     0.004 A 
ATOM     15  S   UNL d   1      -0.344  -6.422   0.681  0.00  0.00    -0.102 SA
ATOM     16  C   UNL d   1       2.028  -5.472   0.837  0.00  0.00     0.019 A 
ATOM     17  C   UNL d   1       0.930  -7.513   0.983  0.00  0.00     0.050 A 
ATOM     18  C   UNL d   1       2.147  -6.879   1.041  0.00  0.00     0.008 A 
ENDBRANCH  12  13
ENDBRANCH   2  12
TORSDOF 3
