REMARK  5 active torsions:
REMARK  status: ('A' for Active; 'I' for Inactive)
REMARK    1  A    between atoms: N_17  and  C_29 
REMARK    2  A    between atoms: C_30  and  N_18 
REMARK    3  A    between atoms: C_29  and  C_32 
REMARK    4  A    between atoms: C_31  and  C_30 
REMARK    5  A    between atoms: C_32  and  C_31 
ROOT
ATOM      1  C   UNL d   1       3.629   2.434   0.021  0.00  0.00     0.022 C 
ENDROOT
BRANCH   1   2
ATOM      2  C   UNL d   1       4.093   1.678   1.267  0.00  0.00     0.130 C 
BRANCH   2   3
ATOM      3  N   UNL d   1       3.653   0.301   1.275  0.00  0.00    -0.335 N 
ATOM      4  C   UNL d   1       4.312  -0.781   0.761  0.00  0.00     0.149 A 
ATOM      5  C   UNL d   1       3.524  -1.846   1.069  0.00  0.00     0.145 A 
ATOM      6  C   UNL d   1       5.539  -0.900   0.049  0.00  0.00     0.282 A 
ATOM      7  N   UNL d   1       3.870  -3.124   0.711  0.00  0.00    -0.287 N 
ATOM      8  N   UNL d   1       2.404  -1.472   1.750  0.00  0.00    -0.336 N 
ATOM      9  C   UNL d   1       5.060  -3.348   0.017  0.00  0.00     0.332 A 
ATOM     10  C   UNL d   1       3.028  -4.257   1.036  0.00  0.00     0.163 C 
ATOM     11  N   UNL d   1       5.851  -2.224  -0.283  0.00  0.00    -0.269 N 
ATOM     12  O   UNL d   1       5.395  -4.487  -0.320  0.00  0.00    -0.246 OA
ATOM     13  C   UNL d   1       7.089  -2.429  -1.011  0.00  0.00     0.164 C 
ATOM     14  C   UNL d   1       2.510  -0.166   1.867  0.00  0.00     0.185 A 
ATOM     15  HN  UNL d   1       1.653  -2.071   2.092  1.00  0.00     0.168 HD
ATOM     16  O   UNL d   1       6.244   0.063  -0.246  0.00  0.00    -0.265 OA
ENDBRANCH   2   3
ENDBRANCH   1   2
BRANCH   1  17
ATOM     17  C   UNL d   1       4.134   3.878   0.005  0.00  0.00     0.022 C 
BRANCH  17  18
ATOM     18  C   UNL d   1       5.661   3.951  -0.027  0.00  0.00     0.130 C 
BRANCH  18  19
ATOM     19  N   UNL d   1       6.150   5.311   0.003  0.00  0.00    -0.335 N 
ATOM     20  C   UNL d   1       6.449   6.054   1.111  0.00  0.00     0.149 A 
ATOM     21  C   UNL d   1       6.924   7.232   0.618  0.00  0.00     0.145 A 
ATOM     22  C   UNL d   1       6.338   5.777   2.503  0.00  0.00     0.282 A 
ATOM     23  N   UNL d   1       7.336   8.244   1.446  0.00  0.00    -0.287 N 
ATOM     24  N   UNL d   1       6.929   7.251  -0.744  0.00  0.00    -0.336 N 
ATOM     25  C   UNL d   1       7.837   9.499   0.923  0.00  0.00     0.163 C 
ATOM     26  C   UNL d   1       7.271   8.069   2.827  0.00  0.00     0.332 A 
ATOM     27  N   UNL d   1       6.777   6.838   3.302  0.00  0.00    -0.269 N 
ATOM     28  O   UNL d   1       7.626   8.959   3.608  0.00  0.00    -0.246 OA
ATOM     29  C   UNL d   1       6.713   6.685   4.742  0.00  0.00     0.164 C 
ATOM     30  C   UNL d   1       6.461   6.071  -1.093  0.00  0.00     0.185 A 
ATOM     31  HN  UNL d   1       7.229   8.009  -1.357  1.00  0.00     0.168 HD
ATOM     32  O   UNL d   1       5.896   4.718   2.939  0.00  0.00    -0.265 OA
ENDBRANCH  18  19
ENDBRANCH  17  18
ENDBRANCH   1  17
TORSDOF 5
