REMARK  4 active torsions:
REMARK  status: ('A' for Active; 'I' for Inactive)
REMARK       I    between atoms: C_3  and  N_1 
REMARK    1  A    between atoms: C_7  and  C_3 
REMARK    2  A    between atoms: C_4  and  C_9 
REMARK    3  A    between atoms: O_11  and  C_4 
REMARK    4  A    between atoms: C_9  and  C_7 
ROOT
ATOM      1  N   UNL d   1      -1.169   1.451  -0.184  0.00  0.00    -0.318 N 
ATOM      2  C   UNL d   1       0.070   0.721  -0.086  0.00  0.00     0.043 A 
ATOM      3  C   UNL d   1      -1.246   2.672  -0.866  0.00  0.00     0.224 C 
ATOM      4  C   UNL d   1       0.045  -0.688   0.023  0.00  0.00    -0.031 A 
ATOM      5  O   UNL d   1      -0.287   3.239  -1.398  0.00  0.00    -0.273 OA
ATOM      6  C   UNL d   1      -2.333   0.732   0.359  0.00  0.00     0.132 C 
ATOM      7  C   UNL d   1       1.316   1.364  -0.083  0.00  0.00     0.030 A 
ATOM      8  C   UNL d   1      -2.458  -0.628  -0.304  0.00  0.00     0.025 C 
ATOM      9  C   UNL d   1      -1.245  -1.470   0.066  0.00  0.00     0.042 C 
ATOM     10  C   UNL d   1       1.251  -1.408   0.103  0.00  0.00     0.009 A 
ATOM     11  C   UNL d   1       2.509   0.639   0.001  0.00  0.00     0.002 A 
ATOM     12  C   UNL d   1       2.477  -0.747   0.085  0.00  0.00     0.001 A 
ENDROOT
BRANCH   3  13
ATOM     13  C   UNL d   1      -2.611   3.339  -0.974  0.00  0.00     0.114 C 
BRANCH  13  14
ATOM     14  C   UNL d   1      -2.630   4.331  -2.137  0.00  0.00     0.119 C 
BRANCH  14  15
ATOM     15  C   UNL d   1      -3.985   4.974  -2.292  0.00  0.00     0.139 C 
ATOM     16  O   UNL d   1      -4.923   4.812  -1.530  0.00  0.00    -0.650 OA
BRANCH  15  17
ATOM     17  O   UNL d   1      -4.056   5.765  -3.381  0.00  0.00    -0.776 OA
ATOM     18  H   UNL d   1      -3.227   5.800  -3.897  0.00  0.00     0.167 HD
ENDBRANCH  15  17
ENDBRANCH  14  15
ENDBRANCH  13  14
ENDBRANCH   3  13
TORSDOF 4
