REMARK  3 active torsions:
REMARK  status: ('A' for Active; 'I' for Inactive)
REMARK    1  A    between atoms: C_12  and  C_8 
REMARK    2  A    between atoms: C_15  and  N_9 
REMARK    3  A    between atoms: C_13  and  C_15 
ROOT
ATOM      1  C   UNL d   1      -0.236   0.649  -0.021  0.00  0.00     0.067 A 
ATOM      2  C   UNL d   1      -0.120  -0.721  -0.046  0.00  0.00     0.091 A 
ATOM      3  C   UNL d   1       0.979   1.441   0.005  0.00  0.00     0.261 A 
ATOM      4  N   UNL d   1       1.033  -1.435  -0.051  0.00  0.00    -0.346 N 
ATOM      5  HN  UNL d   1       1.055  -2.455  -0.072  1.00  0.00     0.167 HD
ATOM      6  C   UNL d   1      -1.595   1.081  -0.010  0.00  0.00     0.039 A 
ATOM      7  S   UNL d   1      -1.644  -1.478  -0.067  0.00  0.00    -0.071 SA
ATOM      8  C   UNL d   1      -2.487   0.022   0.004  0.00  0.00     0.018 A 
ATOM      9  N   UNL d   1       2.145   0.676  -0.001  0.00  0.00    -0.306 N 
ATOM     10  C   UNL d   1       2.104  -0.708  -0.027  0.00  0.00     0.187 A 
ATOM     11  O   UNL d   1       0.953   2.666   0.040  0.00  0.00    -0.267 OA
ENDROOT
BRANCH   8  12
ATOM     12  C   UNL d   1      -3.959   0.055   0.056  0.00  0.00    -0.019 A 
ATOM     13  C   UNL d   1      -4.669   1.074  -0.598  0.00  0.00     0.013 A 
ATOM     14  C   UNL d   1      -6.065   1.133  -0.532  0.00  0.00     0.001 A 
ATOM     15  C   UNL d   1      -6.772   0.175   0.190  0.00  0.00     0.000 A 
ATOM     16  C   UNL d   1      -6.085  -0.843   0.845  0.00  0.00     0.001 A 
ATOM     17  C   UNL d   1      -4.691  -0.901   0.780  0.00  0.00     0.013 A 
ENDBRANCH   8  12
BRANCH   9  18
ATOM     18  C   UNL d   1       3.425   1.354   0.045  0.00  0.00     0.159 C 
BRANCH  18  19
ATOM     19  C   UNL d   1       3.975   1.650  -1.326  0.00  0.00    -0.017 C 
ATOM     20  C   UNL d   1       3.450   1.349  -2.523  0.00  0.00     0.008 C 
ENDBRANCH  18  19
ENDBRANCH   9  18
TORSDOF 3
