REMARK  6 active torsions:
REMARK  status: ('A' for Active; 'I' for Inactive)
REMARK       I    between atoms: N_4  and  C_1 
REMARK    1  A    between atoms: C_11  and  C_1 
REMARK       I    between atoms: C_2  and  N_5 
REMARK    2  A    between atoms: C_3  and  C_12 
REMARK    3  A    between atoms: O_13  and  C_3 
REMARK    4  A    between atoms: C_10  and  N_4 
REMARK    5  A    between atoms: N_5  and  C_9 
REMARK    6  A    between atoms: C_12  and  C_11 
ROOT
ATOM      1  C   UNL d   1       2.066   0.836  -5.110  0.00  0.00     0.034 A 
ATOM      2  C   UNL d   1       0.696   0.486  -2.662  0.00  0.00     0.034 A 
ATOM      3  C   UNL d   1       2.252  -0.318  -4.352  0.00  0.00     0.032 A 
ATOM      4  C   UNL d   1       0.449   1.607  -3.454  0.00  0.00     0.032 A 
ATOM      5  C   UNL d   1       1.136   1.783  -4.665  0.00  0.00     0.032 A 
ATOM      6  C   UNL d   1       1.583  -0.485  -3.132  0.00  0.00     0.032 A 
ENDROOT
BRANCH   2   7
ATOM      7  N   UNL d   1       0.179   0.317  -1.361  0.00  0.00    -0.327 N 
ATOM      8  C   UNL d   1      -0.808   1.060  -0.749  0.00  0.00     0.222 C 
ATOM      9  O   UNL d   1      -1.594   1.815  -1.311  0.00  0.00    -0.273 OA
ATOM     10  H   UNL d   1       0.622  -0.420  -0.809  0.00  0.00     0.169 HD
BRANCH   8  11
ATOM     11  C   UNL d   1      -0.845   0.908   0.766  0.00  0.00     0.113 C 
BRANCH  11  12
ATOM     12  C   UNL d   1      -1.403  -0.421   1.262  0.00  0.00     0.119 C 
BRANCH  12  13
ATOM     13  C   UNL d   1      -0.396  -1.540   1.177  0.00  0.00     0.139 C 
ATOM     14  O   UNL d   1       0.675  -1.466   0.593  0.00  0.00    -0.650 OA
BRANCH  13  15
ATOM     15  O   UNL d   1      -0.808  -2.670   1.789  0.00  0.00    -0.776 OA
ATOM     16  H   UNL d   1      -1.692  -2.610   2.199  0.00  0.00     0.167 HD
ENDBRANCH  13  15
ENDBRANCH  12  13
ENDBRANCH  11  12
ENDBRANCH   8  11
ENDBRANCH   2   7
BRANCH   1  17
ATOM     17  N   UNL d   1       2.794   1.137  -6.284  0.00  0.00    -0.328 N 
ATOM     18  C   UNL d   1       3.799   0.383  -6.859  0.00  0.00     0.218 C 
ATOM     19  O   UNL d   1       4.172  -0.731  -6.511  0.00  0.00    -0.274 OA
ATOM     20  C   UNL d   1       4.465   1.064  -8.030  0.00  0.00     0.117 C 
ATOM     21  H   UNL d   1       2.589   2.033  -6.707  0.00  0.00     0.169 HD
ENDBRANCH   1  17
TORSDOF 6
