REMARK  1 active torsions:
REMARK  status: ('A' for Active; 'I' for Inactive)
REMARK    1  A    between atoms: C_8  and  C_4 
ROOT
ATOM      1  N   UNL d   1       1.161   1.119   0.187  0.00  0.00    -0.301 N 
ATOM      2  HN  UNL d   1       1.637   1.996   0.397  1.00  0.00     0.186 HD
ATOM      3  N   UNL d   1      -0.191   1.077   0.025  0.00  0.00    -0.270 N 
ATOM      4  C   UNL d   1       1.827   0.009   0.068  0.00  0.00     0.036 C 
ATOM      5  C   UNL d   1      -0.973  -0.046  -0.025  0.00  0.00     0.236 C 
ATOM      6  O   UNL d   1      -2.190   0.017  -0.186  0.00  0.00    -0.272 OA
ATOM      7  C   UNL d   1       1.160  -1.306  -0.272  0.00  0.00     0.069 C 
ATOM      8  C   UNL d   1      -0.264  -1.343   0.232  0.00  0.00     0.110 C 
ATOM      9  H   UNL d   1      -0.664   1.973  -0.044  0.00  0.00     0.190 HD
ENDROOT
BRANCH   4  10
ATOM     10  C   UNL d   1       3.314   0.032   0.203  0.00  0.00    -0.012 A 
ATOM     11  C   UNL d   1       3.919   1.032   0.975  0.00  0.00     0.013 A 
ATOM     12  C   UNL d   1       5.309   1.066   1.114  0.00  0.00     0.001 A 
ATOM     13  C   UNL d   1       6.098   0.109   0.477  0.00  0.00     0.000 A 
ATOM     14  C   UNL d   1       5.503  -0.878  -0.306  0.00  0.00     0.001 A 
ATOM     15  C   UNL d   1       4.114  -0.918  -0.445  0.00  0.00     0.013 A 
ENDBRANCH   4  10
TORSDOF 1
