REMARK  14 active torsions:
REMARK  status: ('A' for Active; 'I' for Inactive)
REMARK    1  A    between atoms: C_2  and  S_1 
REMARK    2  A    between atoms: N_7  and  S_1 
REMARK    3  A    between atoms: C_11  and  C_5 
REMARK    4  A    between atoms: C_6  and  N_7 
REMARK    5  A    between atoms: O_19  and  C_11 
REMARK    6  A    between atoms: O_20  and  C_14 
REMARK    7  A    between atoms: O_21  and  C_15 
REMARK    8  A    between atoms: C_25  and  O_19 
REMARK    9  A    between atoms: C_26  and  O_20 
REMARK   10  A    between atoms: C_27  and  O_21 
REMARK   11  A    between atoms: O_23  and  C_29 
REMARK   12  A    between atoms: O_24  and  C_28 
REMARK   13  A    between atoms: C_28  and  C_26 
REMARK   14  A    between atoms: C_29  and  C_27 
ROOT
ATOM      1  C   UNL d   1       2.074   2.172   2.090  0.00  0.00     0.064 A 
ATOM      2  C   UNL d   1       0.756   2.132   1.603  0.00  0.00     0.042 A 
ATOM      3  C   UNL d   1       2.304   2.728   3.364  0.00  0.00     0.059 A 
ATOM      4  C   UNL d   1      -0.277   2.712   2.354  0.00  0.00     0.065 A 
ATOM      5  C   UNL d   1       1.257   3.244   4.139  0.00  0.00     0.103 A 
ATOM      6  C   UNL d   1      -0.036   3.306   3.597  0.00  0.00     0.103 A 
ENDROOT
BRANCH   2   7
ATOM      7  N   UNL d   1       0.350   1.472   0.398  0.00  0.00    -0.179 NA
ATOM      8  H   UNL d   1       0.927   1.635  -0.427  0.00  0.00     0.146 HD
BRANCH   7   9
ATOM      9  S   UNL d   1      -0.052  -0.175   0.519  0.00  0.00     0.263 S 
ATOM     10  O   UNL d   1       0.200  -0.741  -0.797  0.00  0.00    -0.204 OA
ATOM     11  O   UNL d   1       0.517  -0.753   1.712  0.00  0.00    -0.204 OA
BRANCH   9  12
ATOM     12  C   UNL d   1      -1.786  -0.354   0.699  0.00  0.00     0.161 A 
ATOM     13  N   UNL d   1      -2.647   0.711   0.928  0.00  0.00    -0.341 N 
ATOM     14  C   UNL d   1      -3.856   0.204   0.820  0.00  0.00     0.183 A 
ATOM     15  HN  UNL d   1      -2.396   1.677   1.136  1.00  0.00     0.167 HD
ATOM     16  N   UNL d   1      -3.818  -1.135   0.546  0.00  0.00    -0.354 N 
ATOM     17  C   UNL d   1      -2.508  -1.520   0.507  0.00  0.00     0.134 A 
ATOM     18  C   UNL d   1      -4.968  -1.952   0.247  0.00  0.00     0.156 C 
ENDBRANCH   9  12
ENDBRANCH   7   9
ENDBRANCH   2   7
BRANCH   1  19
ATOM     19  C   UNL d   1       3.286   1.675   1.381  0.00  0.00     0.295 C 
ATOM     20  O   UNL d   1       4.320   1.391   1.968  0.00  0.00    -0.259 OA
BRANCH  19  21
ATOM     21  O   UNL d   1       3.135   1.694   0.030  0.00  0.00    -0.318 OA
BRANCH  21  22
ATOM     22  C   UNL d   1       4.324   1.353  -0.715  0.00  0.00     0.174 C 
ATOM     23  C   UNL d   1       4.476  -0.154  -0.824  0.00  0.00     0.034 C 
ENDBRANCH  21  22
ENDBRANCH  19  21
ENDBRANCH   1  19
BRANCH   6  24
ATOM     24  O   UNL d   1      -0.987   3.978   4.313  0.00  0.00    -0.346 OA
BRANCH  24  25
ATOM     25  C   UNL d   1      -2.318   4.053   3.806  0.00  0.00     0.201 C 
BRANCH  25  26
ATOM     26  C   UNL d   1      -3.160   4.813   4.829  0.00  0.00     0.193 C 
BRANCH  26  27
ATOM     27  O   UNL d   1      -4.508   4.913   4.372  0.00  0.00    -0.394 OA
ATOM     28  C   UNL d   1      -5.319   5.615   5.307  0.00  0.00     0.201 C 
ENDBRANCH  26  27
ENDBRANCH  25  26
ENDBRANCH  24  25
ENDBRANCH   6  24
BRANCH   5  29
ATOM     29  O   UNL d   1       1.640   3.664   5.395  0.00  0.00    -0.346 OA
BRANCH  29  30
ATOM     30  C   UNL d   1       0.632   3.573   6.409  0.00  0.00     0.201 C 
BRANCH  30  31
ATOM     31  C   UNL d   1       1.249   3.342   7.787  0.00  0.00     0.193 C 
BRANCH  31  32
ATOM     32  O   UNL d   1       0.183   3.269   8.740  0.00  0.00    -0.394 OA
ATOM     33  C   UNL d   1       0.647   3.015  10.057  0.00  0.00     0.201 C 
ENDBRANCH  31  32
ENDBRANCH  30  31
ENDBRANCH  29  30
ENDBRANCH   5  29
TORSDOF 14
