REMARK  4 active torsions:
REMARK  status: ('A' for Active; 'I' for Inactive)
REMARK    1  A    between atoms: C_2  and  C_1 
REMARK       I    between atoms: N_8  and  C_2 
REMARK    2  A    between atoms: C_6  and  O_9 
REMARK    3  A    between atoms: C_16  and  N_8 
REMARK    4  A    between atoms: O_9  and  C_12 
ROOT
ATOM      1  N   UNL d   1      -2.479   5.119  -0.765  0.00  0.00    -0.344 N 
ATOM      2  HN  UNL d   1      -2.982   5.747  -1.391  1.00  0.00     0.167 HD
ATOM      3  C   UNL d   1      -3.092   4.509   0.269  0.00  0.00     0.148 A 
ATOM      4  C   UNL d   1      -0.421   3.983  -0.126  0.00  0.00     0.050 A 
ATOM      5  C   UNL d   1      -1.158   4.853  -0.931  0.00  0.00     0.119 A 
ATOM      6  C   UNL d   1      -2.469   3.583   1.090  0.00  0.00     0.059 A 
ATOM      7  C   UNL d   1      -1.113   3.317   0.886  0.00  0.00     0.035 A 
ENDROOT
BRANCH   4   8
ATOM      8  N   UNL d   1       0.965   3.729  -0.265  0.00  0.00    -0.322 N 
ATOM      9  C   UNL d   1       1.838   4.425  -1.087  0.00  0.00     0.258 C 
ATOM     10  O   UNL d   1       1.518   5.408  -1.747  0.00  0.00    -0.267 OA
ATOM     11  H   UNL d   1       1.360   3.031   0.348  0.00  0.00     0.169 HD
BRANCH   9  12
ATOM     12  C   UNL d   1       3.207   3.913  -1.109  0.00  0.00     0.064 A 
ATOM     13  C   UNL d   1       4.271   4.527  -1.759  0.00  0.00     0.065 A 
ATOM     14  O   UNL d   1       5.408   3.789  -1.623  0.00  0.00    -0.319 OA
ATOM     15  C   UNL d   1       4.435   5.764  -2.558  0.00  0.00     0.077 C 
ATOM     16  C   UNL d   1       5.096   2.691  -0.892  0.00  0.00     0.050 A 
ATOM     17  C   UNL d   1       3.764   2.720  -0.544  0.00  0.00     0.051 A 
ATOM     18  C   UNL d   1       6.199   1.739  -0.656  0.00  0.00     0.076 C 
ENDBRANCH   9  12
ENDBRANCH   4   8
BRANCH   3  19
ATOM     19  O   UNL d   1      -4.403   4.839   0.592  0.00  0.00    -0.290 OA
BRANCH  19  20
ATOM     20  C   UNL d   1      -4.872   6.050   0.127  0.00  0.00     0.121 A 
ATOM     21  C   UNL d   1      -6.032   6.048  -0.658  0.00  0.00     0.069 A 
ATOM     22 CL   UNL d   1      -6.834   4.575  -1.079  0.00  0.00    -0.081 Cl
ATOM     23  C   UNL d   1      -6.593   7.250  -1.107  0.00  0.00     0.027 A 
ATOM     24  C   UNL d   1      -5.995   8.465  -0.777  0.00  0.00     0.003 A 
ATOM     25  C   UNL d   1      -4.854   8.480   0.024  0.00  0.00     0.027 A 
ATOM     26  C   UNL d   1      -4.307   7.281   0.498  0.00  0.00     0.069 A 
ATOM     27 CL   UNL d   1      -2.985   7.410   1.608  0.00  0.00    -0.081 Cl
ENDBRANCH  19  20
ENDBRANCH   3  19
TORSDOF 4
