REMARK  3 active torsions:
REMARK  status: ('A' for Active; 'I' for Inactive)
REMARK    1  A    between atoms: N_7  and  C_1 
REMARK    2  A    between atoms: C_5  and  C_11 
REMARK       I    between atoms: C_11  and  N_7 
REMARK    3  A    between atoms: O_24  and  C_22 
ROOT
ATOM      1  C   UNL d   1      -3.071   1.132  -0.269  0.00  0.00     0.152 C 
ATOM      2  C   UNL d   1      -1.012   0.412  -0.076  0.00  0.00     0.058 C 
ATOM      3  N   UNL d   1      -1.828   1.533  -0.141  0.00  0.00    -0.335 N 
ATOM      4  HN  UNL d   1      -1.515   2.502  -0.097  1.00  0.00     0.168 HD
ATOM      5  C   UNL d   1      -1.686  -0.793  -0.059  0.00  0.00     0.014 C 
ATOM      6  S   UNL d   1      -3.335  -0.557  -0.375  0.00  0.00    -0.056 SA
ATOM      7  C   UNL d   1       0.448   0.398  -0.001  0.00  0.00    -0.002 A 
ATOM      8  C   UNL d   1       1.119  -0.845  -0.118  0.00  0.00    -0.043 A 
ATOM      9  C   UNL d   1       1.203   1.563   0.158  0.00  0.00     0.017 A 
ATOM     10  C   UNL d   1      -1.060  -2.113   0.204  0.00  0.00     0.053 C 
ATOM     11  C   UNL d   1       2.520  -0.886  -0.083  0.00  0.00     0.044 A 
ATOM     12  C   UNL d   1       0.355  -2.130  -0.382  0.00  0.00     0.045 C 
ATOM     13  C   UNL d   1       3.269   0.279   0.080  0.00  0.00     0.068 A 
ATOM     14  C   UNL d   1       2.609   1.503   0.200  0.00  0.00     0.037 A 
ENDROOT
BRANCH   1  15
ATOM     15  N   UNL d   1      -4.246   1.829  -0.279  0.00  0.00    -0.302 N 
ATOM     16  C   UNL d   1      -4.382   3.060   0.315  0.00  0.00     0.276 C 
ATOM     17  O   UNL d   1      -3.483   3.773   0.747  0.00  0.00    -0.266 OA
ATOM     18  H   UNL d   1      -5.092   1.305  -0.458  0.00  0.00     0.171 HD
BRANCH  16  19
ATOM     19  C   UNL d   1      -5.794   3.434   0.496  0.00  0.00     0.125 A 
ATOM     20  N   UNL d   1      -6.800   2.712  -0.037  0.00  0.00    -0.256 N 
ATOM     21  O   UNL d   1      -7.970   3.312   0.400  0.00  0.00    -0.242 OA
ATOM     22  HN  UNL d   1      -6.717   1.892  -0.638  1.00  0.00     0.195 HD
ATOM     23  C   UNL d   1      -7.670   4.370   1.200  0.00  0.00     0.075 A 
ATOM     24  C   UNL d   1      -6.306   4.505   1.271  0.00  0.00     0.071 A 
ATOM     25  C   UNL d   1      -8.806   5.087   1.807  0.00  0.00     0.079 C 
ENDBRANCH  16  19
ENDBRANCH   1  15
BRANCH  13  26
ATOM     26  O   UNL d   1       4.620   0.066   0.095  0.00  0.00    -0.356 OA
ATOM     27  C   UNL d   1       5.464   1.201   0.219  0.00  0.00     0.210 C 
ENDBRANCH  13  26
TORSDOF 3
