REMARK  6 active torsions:
REMARK  status: ('A' for Active; 'I' for Inactive)
REMARK    1  A    between atoms: N_4  and  C_3 
REMARK       I    between atoms: C_5  and  N_4 
REMARK    2  A    between atoms: C_9  and  C_5 
REMARK    3  A    between atoms: C_6  and  C_9 
REMARK    4  A    between atoms: C_11  and  C_6 
REMARK    5  A    between atoms: C_8  and  C_11 
REMARK    6  A    between atoms: O_16  and  C_8 
ROOT
ATOM      1  N   UNL d   1      -3.791   5.684  -0.373  0.00  0.00    -0.313 N 
ATOM      2  C   UNL d   1      -2.699   5.076   0.216  0.00  0.00     0.224 C 
ATOM      3  O   UNL d   1      -1.823   5.680   0.829  0.00  0.00    -0.273 OA
ATOM      4  H   UNL d   1      -4.351   5.174  -1.044  0.00  0.00     0.170 HD
ENDROOT
BRANCH   2   5
ATOM      5  C   UNL d   1      -2.689   3.543   0.094  0.00  0.00     0.113 C 
BRANCH   5   6
ATOM      6  C   UNL d   1      -1.282   2.847   0.185  0.00  0.00    -0.023 C 
ATOM      7  C   UNL d   1      -0.479   3.135  -1.119  0.00  0.00     0.010 C 
ATOM      8  C   UNL d   1      -0.925   2.320  -2.332  0.00  0.00     0.001 C 
ATOM      9  C   UNL d   1      -0.854   0.831  -2.033  0.00  0.00     0.000 C 
ATOM     10  C   UNL d   1      -1.767   0.486  -0.868  0.00  0.00     0.001 C 
ATOM     11  C   UNL d   1      -1.444   1.304   0.379  0.00  0.00     0.010 C 
BRANCH   6  12
ATOM     12  C   UNL d   1      -0.417   3.366   1.380  0.00  0.00     0.119 C 
BRANCH  12  13
ATOM     13  C   UNL d   1      -1.124   3.404   2.722  0.00  0.00     0.140 C 
ATOM     14  O   UNL d   1      -1.865   2.528   3.141  0.00  0.00    -0.650 OA
BRANCH  13  15
ATOM     15  O   UNL d   1      -0.813   4.490   3.462  0.00  0.00    -0.776 OA
ATOM     16  H   UNL d   1      -0.305   5.160   2.962  0.00  0.00     0.167 HD
ENDBRANCH  13  15
ENDBRANCH  12  13
ENDBRANCH   6  12
ENDBRANCH   5   6
ENDBRANCH   2   5
BRANCH   1  17
ATOM     17  C   UNL d   1      -4.134   7.045  -0.298  0.00  0.00     0.108 A 
ATOM     18  N   UNL d   1      -5.034   7.452  -1.221  0.00  0.00    -0.342 N 
ATOM     19  C   UNL d   1      -5.400   8.753  -1.242  0.00  0.00     0.043 A 
ATOM     20  HN  UNL d   1      -5.428   6.790  -1.890  1.00  0.00     0.167 HD
ATOM     21  C   UNL d   1      -4.910   9.693  -0.310  0.00  0.00    -0.009 A 
ATOM     22  C   UNL d   1      -6.285   9.216  -2.211  0.00  0.00     0.030 A 
ATOM     23  C   UNL d   1      -4.013   9.239   0.655  0.00  0.00     0.017 A 
ATOM     24  C   UNL d   1      -5.313  11.039  -0.363  0.00  0.00     0.013 A 
ATOM     25  C   UNL d   1      -3.617   7.904   0.661  0.00  0.00     0.049 A 
ATOM     26  C   UNL d   1      -6.195  11.472  -1.348  0.00  0.00     0.001 A 
ATOM     27  C   UNL d   1      -6.680  10.559  -2.276  0.00  0.00     0.002 A 
ENDBRANCH   1  17
TORSDOF 6
