REMARK  6 active torsions:
REMARK  status: ('A' for Active; 'I' for Inactive)
REMARK    1  A    between atoms: C_8  and  C_1 
REMARK    2  A    between atoms: N_5  and  C_4 
REMARK       I    between atoms: C_9  and  N_5 
REMARK    3  A    between atoms: O_14  and  C_8 
REMARK    4  A    between atoms: C_11  and  C_9 
REMARK    5  A    between atoms: N_10  and  C_11 
REMARK    6  A    between atoms: C_17  and  O_14 
ROOT
ATOM      1  C   UNL d   1      -3.386  -0.523  -0.011  0.00  0.00     0.117 A 
ATOM      2  N   UNL d   1      -1.987  -0.506   0.139  0.00  0.00    -0.331 N 
ATOM      3  HN  UNL d   1      -1.431   0.325   0.343  1.00  0.00     0.168 HD
ATOM      4  C   UNL d   1      -1.499  -1.721  -0.024  0.00  0.00     0.151 A 
ATOM      5  S   UNL d   1      -2.648  -2.926  -0.395  0.00  0.00    -0.063 SA
ATOM      6  C   UNL d   1      -3.896  -1.772  -0.314  0.00  0.00     0.089 A 
ENDROOT
BRANCH   4   7
ATOM      7  N   UNL d   1      -0.158  -2.016   0.057  0.00  0.00    -0.306 N 
ATOM      8  C   UNL d   1       0.431  -3.268   0.005  0.00  0.00     0.252 C 
ATOM      9  O   UNL d   1      -0.145  -4.351  -0.097  0.00  0.00    -0.271 OA
ATOM     10  H   UNL d   1       0.464  -1.236   0.240  0.00  0.00     0.171 HD
BRANCH   8  11
ATOM     11  C   UNL d   1       1.972  -3.230   0.027  0.00  0.00     0.374 C 
BRANCH  11  12
ATOM     12  N   UNL d   1       2.455  -1.981   0.633  0.00  0.00     0.097 N 
ATOM     13  C   UNL d   1       2.376  -2.001   2.102  0.00  0.00     0.273 C 
ATOM     14  C   UNL d   1       2.517  -0.557   2.582  0.00  0.00     0.030 C 
ATOM     15  C   UNL d   1       3.790   0.112   2.059  0.00  0.00     0.003 C 
ATOM     16  C   UNL d   1       4.074  -0.197   0.587  0.00  0.00     0.030 C 
ATOM     17  C   UNL d   1       3.834  -1.665   0.242  0.00  0.00     0.273 C 
ENDBRANCH  11  12
ENDBRANCH   8  11
ENDBRANCH   4   7
BRANCH   1  18
ATOM     18  C   UNL d   1      -4.277   0.634   0.134  0.00  0.00     0.310 C 
ATOM     19  O   UNL d   1      -5.499   0.533   0.152  0.00  0.00    -0.258 OA
BRANCH  18  20
ATOM     20  O   UNL d   1      -3.618   1.835   0.221  0.00  0.00    -0.317 OA
BRANCH  20  21
ATOM     21  C   UNL d   1      -4.468   2.988   0.358  0.00  0.00     0.175 C 
ATOM     22  C   UNL d   1      -5.061   3.407  -0.978  0.00  0.00     0.034 C 
ENDBRANCH  20  21
ENDBRANCH  18  20
ENDBRANCH   1  18
TORSDOF 6
