REMARK  8 active torsions:
REMARK  status: ('A' for Active; 'I' for Inactive)
REMARK    1  A    between atoms: C_3  and  C_1 
REMARK    2  A    between atoms: S_6  and  C_1 
REMARK    3  A    between atoms: S_7  and  C_1 
REMARK    4  A    between atoms: O_10  and  C_2 
REMARK    5  A    between atoms: O_13  and  C_4 
REMARK    6  A    between atoms: O_14  and  C_5 
REMARK    7  A    between atoms: C_12  and  S_6 
REMARK    8  A    between atoms: C_11  and  S_7 
ROOT
ATOM      1  C   UNL d   1       1.122   0.009  -0.053  0.00  0.00     0.152 C 
ENDROOT
BRANCH   1   2
ATOM      2  C   UNL d   1       0.795   1.358   0.597  0.00  0.00    -0.029 A 
ATOM      3  C   UNL d   1      -0.552   1.729   0.776  0.00  0.00     0.049 A 
ATOM      4  C   UNL d   1      -0.923   2.980   1.308  0.00  0.00     0.104 A 
ATOM      5  C   UNL d   1       0.073   3.888   1.736  0.00  0.00     0.135 A 
ATOM      6  C   UNL d   1       1.424   3.523   1.572  0.00  0.00     0.104 A 
ATOM      7  C   UNL d   1       1.759   2.294   0.979  0.00  0.00     0.049 A 
BRANCH   4   8
ATOM      8  O   UNL d   1      -2.233   3.385   1.347  0.00  0.00    -0.353 OA
ATOM      9  C   UNL d   1      -3.247   2.389   1.350  0.00  0.00     0.210 C 
ENDBRANCH   4   8
BRANCH   5  10
ATOM     10  O   UNL d   1      -0.145   5.125   2.281  0.00  0.00    -0.351 OA
ATOM     11  C   UNL d   1      -1.459   5.586   2.546  0.00  0.00     0.210 C 
ENDBRANCH   5  10
BRANCH   6  12
ATOM     12  O   UNL d   1       2.551   4.247   1.879  0.00  0.00    -0.353 OA
ATOM     13  C   UNL d   1       2.451   5.317   2.804  0.00  0.00     0.210 C 
ENDBRANCH   6  12
ENDBRANCH   1   2
BRANCH   1  14
ATOM     14  S   UNL d   1       0.570   0.088  -1.839  0.00  0.00    -0.109 SA
BRANCH  14  15
ATOM     15  C   UNL d   1       0.912  -1.562  -2.424  0.00  0.00     0.002 A 
ATOM     16  C   UNL d   1       0.328  -2.695  -1.853  0.00  0.00     0.018 A 
ATOM     17  C   UNL d   1       0.623  -3.967  -2.363  0.00  0.00     0.001 A 
ATOM     18  C   UNL d   1       1.493  -4.104  -3.442  0.00  0.00     0.000 A 
ATOM     19  C   UNL d   1       2.066  -2.977  -4.023  0.00  0.00     0.001 A 
ATOM     20  C   UNL d   1       1.771  -1.710  -3.519  0.00  0.00     0.018 A 
ENDBRANCH  14  15
ENDBRANCH   1  14
BRANCH   1  21
ATOM     21  S   UNL d   1       2.885  -0.543   0.000  0.00  0.00    -0.109 SA
BRANCH  21  22
ATOM     22  C   UNL d   1       3.291  -0.530   1.737  0.00  0.00     0.002 A 
ATOM     23  C   UNL d   1       2.434  -0.988   2.739  0.00  0.00     0.018 A 
ATOM     24  C   UNL d   1       2.823  -0.926   4.081  0.00  0.00     0.001 A 
ATOM     25  C   UNL d   1       4.074  -0.418   4.428  0.00  0.00     0.000 A 
ATOM     26  C   UNL d   1       4.945   0.018   3.434  0.00  0.00     0.001 A 
ATOM     27  C   UNL d   1       4.556  -0.045   2.095  0.00  0.00     0.018 A 
ENDBRANCH  21  22
ENDBRANCH   1  21
TORSDOF 8
