REMARK  2 active torsions:
REMARK  status: ('A' for Active; 'I' for Inactive)
REMARK    1  A    between atoms: C_8  and  N_1 
REMARK    2  A    between atoms: C_6  and  C_9 
ROOT
ATOM      1  C   UNL d   1       2.108  -1.418   0.001  0.00  0.00     0.056 A 
ATOM      2  C   UNL d   1       4.448  -2.977  -0.183  0.00  0.00     0.048 A 
ATOM      3  C   UNL d   1       2.220  -2.417  -0.977  0.00  0.00     0.032 A 
ATOM      4  C   UNL d   1       3.156  -1.221   0.909  0.00  0.00     0.032 A 
ATOM      5  C   UNL d   1       3.388  -3.178  -1.078  0.00  0.00     0.018 A 
ATOM      6  C   UNL d   1       4.314  -2.001   0.817  0.00  0.00     0.018 A 
ENDROOT
BRANCH   1   7
ATOM      7  N   UNL d   1       0.905  -0.661   0.086  0.00  0.00    -0.261 N 
ATOM      8  N   UNL d   1      -0.260  -1.216  -0.346  0.00  0.00    -0.298 N 
ATOM      9  C   UNL d   1      -1.219  -0.395   0.087  0.00  0.00     0.024 C 
ATOM     10  HN  UNL d   1      -0.375  -2.075  -0.885  1.00  0.00     0.187 HD
ATOM     11  C   UNL d   1      -2.650  -0.737  -0.095  0.00  0.00     0.070 C 
ATOM     12  C   UNL d   1      -0.680   0.770   0.660  0.00  0.00     0.052 C 
ATOM     13  C   UNL d   1       0.690   0.618   0.587  0.00  0.00     0.032 C 
ATOM     14  C   UNL d   1       1.740   1.624   0.888  0.00  0.00     0.070 C 
ENDBRANCH   1   7
BRANCH   2  15
ATOM     15  C   UNL d   1       5.710  -3.800  -0.265  0.00  0.00     0.417 C 
ATOM     16  F   UNL d   1       5.727  -4.678  -1.306  0.00  0.00    -0.166 F 
ATOM     17  F   UNL d   1       6.824  -3.028  -0.411  0.00  0.00    -0.166 F 
ATOM     18  F   UNL d   1       5.920  -4.545   0.856  0.00  0.00    -0.166 F 
ENDBRANCH   2  15
TORSDOF 2
