REMARK  2 active torsions:
REMARK  status: ('A' for Active; 'I' for Inactive)
REMARK    1  A    between atoms: C_12  and  N_7 
REMARK    2  A    between atoms: C_15  and  C_12 
ROOT
ATOM      1  C   UNL d   1      -0.317  -0.842  -0.001  0.00  0.00     0.160 A 
ATOM      2  C   UNL d   1      -0.567   0.495   0.011  0.00  0.00     0.165 A 
ATOM      3  N   UNL d   1      -1.462  -1.572  -0.009  0.00  0.00    -0.174 N 
ATOM      4  HN  UNL d   1      -1.543  -2.588  -0.050  1.00  0.00     0.186 HD
ATOM      5  N   UNL d   1       0.964  -1.337  -0.013  0.00  0.00    -0.287 N 
ATOM      6  C   UNL d   1      -2.447  -0.696   0.050  0.00  0.00     0.685 A 
ATOM      7  N   UNL d   1      -1.939   0.600   0.067  0.00  0.00    -0.170 N 
ATOM      8  N   UNL d   1       1.756   0.918  -0.014  0.00  0.00    -0.269 N 
ATOM      9  C   UNL d   1       2.048  -0.457  -0.009  0.00  0.00     0.332 A 
ATOM     10  C   UNL d   1       0.470   1.473  -0.010  0.00  0.00     0.282 A 
ATOM     11  N   UNL d   1      -3.776  -0.984  -0.016  0.00  0.00    -0.213 N 
ATOM     12  O   UNL d   1       3.209  -0.877   0.001  0.00  0.00    -0.246 OA
ATOM     13  O   UNL d   1       0.259   2.680   0.000  0.00  0.00    -0.265 OA
ATOM     14  C   UNL d   1       1.232  -2.760  -0.006  0.00  0.00     0.163 C 
ATOM     15  C   UNL d   1       2.864   1.856  -0.007  0.00  0.00     0.164 C 
ATOM     16  O   UNL d   1      -5.686  -2.720   1.285  0.00  0.00    -0.388 OA
ATOM     17  C   UNL d   1      -4.178  -2.285  -0.599  0.00  0.00     0.167 C 
ATOM     18  C   UNL d   1      -4.710  -0.484   1.008  0.00  0.00     0.167 C 
ATOM     19  C   UNL d   1      -5.171  -1.579   1.978  0.00  0.00     0.188 C 
ATOM     20  C   UNL d   1      -4.650  -3.284   0.466  0.00  0.00     0.188 C 
ENDROOT
BRANCH   7  21
ATOM     21  C   UNL d   1      -2.686   1.852   0.002  0.00  0.00     0.186 C 
BRANCH  21  22
ATOM     22  C   UNL d   1      -2.989   2.471   1.354  0.00  0.00    -0.036 A 
ATOM     23  C   UNL d   1      -4.102   3.321   1.477  0.00  0.00     0.051 A 
ATOM     24  C   UNL d   1      -4.380   3.949   2.689  0.00  0.00     0.117 A 
ATOM     25  F   UNL d   1      -5.444   4.758   2.782  0.00  0.00    -0.206 F 
ATOM     26  C   UNL d   1      -3.571   3.756   3.800  0.00  0.00     0.042 A 
ATOM     27  C   UNL d   1      -2.470   2.912   3.701  0.00  0.00     0.004 A 
ATOM     28  C   UNL d   1      -2.179   2.280   2.489  0.00  0.00     0.009 A 
ENDBRANCH  21  22
ENDBRANCH   7  21
TORSDOF 2
