REMARK  4 active torsions:
REMARK  status: ('A' for Active; 'I' for Inactive)
REMARK    1  A    between atoms: C_7  and  C_1 
REMARK    2  A    between atoms: C_8  and  C_3 
REMARK    3  A    between atoms: O_13  and  C_7 
REMARK    4  A    between atoms: O_18  and  C_15 
ROOT
ATOM      1  C   UNL d   1       2.086   0.708   0.068  0.00  0.00     0.066 C 
ATOM      2  C   UNL d   1       1.662  -0.575  -0.012  0.00  0.00     0.022 C 
ATOM      3  C   UNL d   1       1.116   1.857  -0.083  0.00  0.00     0.158 C 
ATOM      4  C   UNL d   1      -0.665   0.122  -0.116  0.00  0.00     0.172 C 
ATOM      5  N   UNL d   1       0.311  -0.819  -0.172  0.00  0.00    -0.337 N 
ATOM      6  N   UNL d   1      -0.267   1.404   0.025  0.00  0.00    -0.354 N 
ATOM      7  S   UNL d   1      -2.272  -0.288  -0.162  0.00  0.00    -0.041 SA
ATOM      8  C   UNL d   1       2.481  -1.837   0.043  0.00  0.00     0.069 C 
ATOM      9  H   UNL d   1      -0.012  -1.780  -0.239  0.00  0.00     0.168 HD
ATOM     10  H   UNL d   1      -0.997   2.102   0.095  0.00  0.00     0.163 HD
ENDROOT
BRANCH   3  11
ATOM     11  C   UNL d   1       1.271   3.018   0.886  0.00  0.00    -0.031 A 
ATOM     12  C   UNL d   1       1.509   4.315   0.402  0.00  0.00     0.012 A 
ATOM     13  C   UNL d   1       1.523   5.412   1.269  0.00  0.00     0.037 A 
ATOM     14  C   UNL d   1       1.293   5.224   2.632  0.00  0.00     0.068 A 
ATOM     15  C   UNL d   1       1.081   3.935   3.123  0.00  0.00     0.037 A 
ATOM     16  C   UNL d   1       1.083   2.837   2.264  0.00  0.00     0.012 A 
BRANCH  14  17
ATOM     17  O   UNL d   1       1.187   6.218   3.564  0.00  0.00    -0.356 OA
ATOM     18  C   UNL d   1       1.895   7.418   3.280  0.00  0.00     0.210 C 
ENDBRANCH  14  17
ENDBRANCH   3  11
BRANCH   1  19
ATOM     19  C   UNL d   1       3.521   1.031   0.278  0.00  0.00     0.293 C 
ATOM     20  O   UNL d   1       4.311   0.297   0.862  0.00  0.00    -0.259 OA
BRANCH  19  21
ATOM     21  O   UNL d   1       3.845   2.240  -0.243  0.00  0.00    -0.323 OA
ATOM     22  C   UNL d   1       5.180   2.672   0.048  0.00  0.00     0.213 C 
ENDBRANCH  19  21
ENDBRANCH   1  19
TORSDOF 4
