REMARK  4 active torsions:
REMARK  status: ('A' for Active; 'I' for Inactive)
REMARK       I    between atoms: C_2  and  N_1 
REMARK    1  A    between atoms: O_18  and  C_2 
REMARK       I    between atoms: C_3  and  N_5 
REMARK    2  A    between atoms: C_4  and  C_3 
REMARK    3  A    between atoms: N_5  and  C_14 
REMARK    4  A    between atoms: C_21  and  O_18 
ROOT
ATOM      1  C   UNL d   1      -2.133   1.286  -2.348  0.00  0.00     0.252 C 
ATOM      2  N   UNL d   1      -1.565   0.181  -1.733  0.00  0.00    -0.352 N 
ATOM      3  O   UNL d   1      -2.609   2.231  -1.728  0.00  0.00    -0.268 OA
ATOM      4  H   UNL d   1      -1.586  -0.676  -2.267  0.00  0.00     0.163 HD
ENDROOT
BRANCH   2   5
ATOM      5  C   UNL d   1      -1.509   0.032  -0.276  0.00  0.00     0.087 C 
ATOM      6  C   UNL d   1      -0.776   1.179   0.436  0.00  0.00     0.045 C 
ATOM      7  C   UNL d   1       0.711   1.160   0.132  0.00  0.00     0.130 C 
ATOM      8  N   UNL d   1       1.290  -0.119   0.514  0.00  0.00    -0.328 N 
ATOM      9  C   UNL d   1       2.557  -0.119   1.070  0.00  0.00     0.362 C 
ATOM     10  C   UNL d   1       0.675  -1.298  -0.079  0.00  0.00     0.130 C 
ATOM     11  O   UNL d   1       3.158   0.903   1.398  0.00  0.00    -0.238 OA
ATOM     12  C   UNL d   1      -0.845  -1.305   0.107  0.00  0.00     0.045 C 
BRANCH   9  13
ATOM     13  O   UNL d   1       3.094  -1.364   1.166  0.00  0.00    -0.304 OA
BRANCH  13  14
ATOM     14  C   UNL d   1       4.491  -1.399   1.487  0.00  0.00     0.176 C 
ATOM     15  C   UNL d   1       5.284  -1.264   0.198  0.00  0.00     0.034 C 
ENDBRANCH  13  14
ENDBRANCH   9  13
ENDBRANCH   2   5
BRANCH   1  16
ATOM     16  C   UNL d   1      -2.155   1.291  -3.846  0.00  0.00     0.033 A 
ATOM     17  C   UNL d   1      -1.424   0.372  -4.612  0.00  0.00     0.023 A 
ATOM     18  C   UNL d   1      -1.435   0.441  -6.011  0.00  0.00    -0.061 A 
ATOM     19  C   UNL d   1      -0.646  -0.535  -6.833  0.00  0.00     0.048 C 
ATOM     20  C   UNL d   1      -2.191   1.436  -6.643  0.00  0.00     0.013 A 
ATOM     21  C   UNL d   1      -2.920   2.369  -5.896  0.00  0.00    -0.061 A 
ATOM     22  C   UNL d   1      -2.894   2.291  -4.497  0.00  0.00     0.023 A 
ATOM     23  C   UNL d   1      -3.704   3.437  -6.601  0.00  0.00     0.048 C 
ENDBRANCH   1  16
TORSDOF 4
