REMARK  2 active torsions:
REMARK  status: ('A' for Active; 'I' for Inactive)
REMARK    1  A    between atoms: C_8  and  C_4 
REMARK    2  A    between atoms: C_14  and  N_7 
ROOT
ATOM      1  N   UNL d   1       1.448  -0.529   0.013  0.00  0.00    -0.335 N 
ATOM      2  HN  UNL d   1       2.359  -0.988  -0.009  1.00  0.00     0.168 HD
ATOM      3  C   UNL d   1       0.300  -1.165   0.010  0.00  0.00     0.149 A 
ATOM      4  C   UNL d   1       1.268   0.840   0.051  0.00  0.00     0.051 A 
ATOM      5  S   UNL d   1      -1.076  -0.131   0.156  0.00  0.00    -0.064 SA
ATOM      6  C   UNL d   1      -0.049   1.244   0.120  0.00  0.00     0.083 A 
ATOM      7  N   UNL d   1       0.133  -2.505  -0.085  0.00  0.00    -0.335 N 
ATOM      8  H   UNL d   1      -0.812  -2.858  -0.004  0.00  0.00     0.168 HD
ENDROOT
BRANCH   7   9
ATOM      9  C   UNL d   1       1.041  -3.421  -0.649  0.00  0.00     0.049 A 
ATOM     10  C   UNL d   1       2.248  -3.079  -1.267  0.00  0.00     0.117 A 
ATOM     11  N   UNL d   1       3.134  -3.963  -1.796  0.00  0.00    -0.373 N 
ATOM     12  C   UNL d   1       2.824  -5.267  -1.684  0.00  0.00     0.088 A 
ATOM     13  HN  UNL d   1       3.990  -3.654  -2.256  1.00  0.00     0.164 HD
ATOM     14  C   UNL d   1       1.677  -5.728  -1.065  0.00  0.00     0.019 A 
ATOM     15  C   UNL d   1       0.784  -4.792  -0.539  0.00  0.00     0.032 A 
ENDBRANCH   7   9
BRANCH   4  16
ATOM     16  C   UNL d   1       2.420   1.732   0.027  0.00  0.00    -0.009 A 
ATOM     17  C   UNL d   1       2.366   2.998  -0.570  0.00  0.00     0.015 A 
ATOM     18  C   UNL d   1       3.504   3.813  -0.605  0.00  0.00     0.020 A 
ATOM     19  C   UNL d   1       4.697   3.365  -0.041  0.00  0.00     0.011 A 
ATOM     20  C   UNL d   1       4.768   2.108   0.553  0.00  0.00     0.020 A 
ATOM     21 BR   UNL d   1       6.233   4.465  -0.095  0.00  0.00    -0.051 Br
ATOM     22  C   UNL d   1       3.633   1.294   0.582  0.00  0.00     0.015 A 
ENDBRANCH   4  16
TORSDOF 2
