REMARK  5 active torsions:
REMARK  status: ('A' for Active; 'I' for Inactive)
REMARK    1  A    between atoms: N_2  and  S_1 
REMARK    2  A    between atoms: C_5  and  S_1 
REMARK    3  A    between atoms: C_6  and  N_2 
REMARK    4  A    between atoms: C_3  and  C_4 
REMARK       I    between atoms: C_11  and  N_13 
REMARK    5  A    between atoms: N_13  and  C_21 
ROOT
ATOM      1  S   UNL d   1       1.108  -0.130  -0.105  0.00  0.00     0.247 S 
ATOM      2  O   UNL d   1       1.151   1.221  -0.623  0.00  0.00    -0.205 OA
ATOM      3  O   UNL d   1       2.284  -0.972  -0.049  0.00  0.00    -0.205 OA
ENDROOT
BRANCH   1   4
ATOM      4  N   UNL d   1      -0.162  -0.905  -0.919  0.00  0.00    -0.166 NA
ATOM      5  H   UNL d   1      -0.518  -0.215  -1.583  0.00  0.00     0.147 HD
BRANCH   4   6
ATOM      6  C   UNL d   1       0.239  -2.044  -1.651  0.00  0.00     0.093 A 
ATOM      7  N   UNL d   1       0.670  -1.772  -2.893  0.00  0.00    -0.355 N 
ATOM      8  C   UNL d   1       1.102  -2.828  -3.627  0.00  0.00     0.105 A 
ATOM      9  HN  UNL d   1       0.672  -0.822  -3.266  1.00  0.00     0.166 HD
ATOM     10  C   UNL d   1       1.091  -4.144  -3.180  0.00  0.00     0.063 A 
ATOM     11  C   UNL d   1       0.624  -4.380  -1.882  0.00  0.00     0.021 A 
ATOM     12  C   UNL d   1       0.199  -3.311  -1.097  0.00  0.00     0.044 A 
BRANCH  10  13
ATOM     13  C   UNL d   1       1.546  -5.266  -4.063  0.00  0.00     0.418 C 
ATOM     14  F   UNL d   1       1.986  -4.859  -5.285  0.00  0.00    -0.166 F 
ATOM     15  F   UNL d   1       2.567  -5.982  -3.517  0.00  0.00    -0.166 F 
ATOM     16  F   UNL d   1       0.551  -6.164  -4.306  0.00  0.00    -0.166 F 
ENDBRANCH  10  13
ENDBRANCH   4   6
ENDBRANCH   1   4
BRANCH   1  17
ATOM     17  C   UNL d   1       0.483  -0.044   1.562  0.00  0.00     0.075 A 
ATOM     18  C   UNL d   1       0.287  -1.222   2.287  0.00  0.00     0.027 A 
ATOM     19  C   UNL d   1      -0.132  -1.156   3.622  0.00  0.00     0.031 A 
ATOM     20  C   UNL d   1      -0.340   0.081   4.247  0.00  0.00     0.034 A 
ATOM     21  C   UNL d   1      -0.130   1.250   3.509  0.00  0.00     0.031 A 
ATOM     22  C   UNL d   1       0.278   1.193   2.171  0.00  0.00     0.027 A 
BRANCH  20  23
ATOM     23  N   UNL d   1      -0.737   0.068   5.603  0.00  0.00    -0.328 N 
ATOM     24  C   UNL d   1      -0.986   1.163   6.411  0.00  0.00     0.218 C 
ATOM     25  O   UNL d   1      -0.913   2.344   6.088  0.00  0.00    -0.274 OA
ATOM     26  C   UNL d   1      -1.381   0.795   7.820  0.00  0.00     0.117 C 
ATOM     27  H   UNL d   1      -0.842  -0.847   6.024  0.00  0.00     0.169 HD
ENDBRANCH  20  23
ENDBRANCH   1  17
TORSDOF 5
