REMARK  6 active torsions:
REMARK  status: ('A' for Active; 'I' for Inactive)
REMARK    1  A    between atoms: N_3  and  C_1 
REMARK    2  A    between atoms: C_7  and  N_3 
REMARK    3  A    between atoms: C_9  and  N_4 
REMARK    4  A    between atoms: C_5  and  C_7 
REMARK    5  A    between atoms: O_8  and  C_10 
REMARK    6  A    between atoms: C_10  and  C_9 
ROOT
ATOM      1  C   UNL d   1       0.912  -0.189  -0.013  0.00  0.00     0.167 C 
ATOM      2  S   UNL d   1      -0.062  -1.460  -0.485  0.00  0.00    -0.041 SA
ATOM      3  N   UNL d   1       2.267  -0.144  -0.100  0.00  0.00    -0.365 N 
ATOM      4  H   UNL d   1       2.728   0.696   0.223  0.00  0.00     0.161 HD
ENDROOT
BRANCH   1   5
ATOM      5  N   UNL d   1       0.303   0.904   0.526  0.00  0.00    -0.364 N 
ATOM      6  H   UNL d   1      -0.703   0.804   0.573  0.00  0.00     0.162 HD
BRANCH   5   7
ATOM      7  C   UNL d   1       0.802   2.264   0.591  0.00  0.00     0.148 C 
BRANCH   7   8
ATOM      8  C   UNL d   1       1.663   2.441   1.800  0.00  0.00    -0.018 C 
ATOM      9  C   UNL d   1       2.785   3.176   1.809  0.00  0.00     0.008 C 
ENDBRANCH   7   8
ENDBRANCH   5   7
ENDBRANCH   1   5
BRANCH   3  10
ATOM     10  C   UNL d   1       3.165  -1.146  -0.670  0.00  0.00     0.148 C 
BRANCH  10  11
ATOM     11  C   UNL d   1       3.514  -0.827  -2.123  0.00  0.00     0.183 C 
BRANCH  11  12
ATOM     12  O   UNL d   1       4.265   0.388  -2.185  0.00  0.00    -0.399 OA
ATOM     13  H   UNL d   1       4.416   0.573  -3.127  0.00  0.00     0.209 HD
ENDBRANCH  11  12
ENDBRANCH  10  11
ENDBRANCH   3  10
TORSDOF 6
