REMARK  4 active torsions:
REMARK  status: ('A' for Active; 'I' for Inactive)
REMARK    1  A    between atoms: C_9  and  N_1 
REMARK    2  A    between atoms: C_14  and  O_17 
REMARK    3  A    between atoms: O_17  and  C_20 
REMARK    4  A    between atoms: C_20  and  C_19 
ROOT
ATOM      1  C   UNL d   1      -2.551   7.844   4.902  0.00  0.00     0.086 A 
ATOM      2  C   UNL d   1      -3.134   7.537   6.126  0.00  0.00     0.043 A 
ATOM      3  C   UNL d   1      -3.552   8.638   7.009  0.00  0.00     0.165 C 
ATOM      4  O   UNL d   1      -2.397   9.113   4.418  0.00  0.00    -0.340 OA
ATOM      5  C   UNL d   1      -3.179  10.135   5.060  0.00  0.00     0.067 C 
ATOM      6  C   UNL d   1      -3.128  10.016   6.585  0.00  0.00     0.121 C 
ATOM      7  C   UNL d   1      -2.064   6.815   4.097  0.00  0.00     0.074 A 
ATOM      8  C   UNL d   1      -3.275   6.205   6.529  0.00  0.00     0.021 A 
ATOM      9  O   UNL d   1      -4.143   8.420   8.061  0.00  0.00    -0.292 OA
ATOM     10  C   UNL d   1      -2.179   5.479   4.497  0.00  0.00     0.071 A 
ATOM     11  C   UNL d   1      -2.797   5.176   5.711  0.00  0.00     0.038 A 
ATOM     12  C   UNL d   1      -4.619  10.109   4.519  0.00  0.00     0.046 C 
ATOM     13  C   UNL d   1      -2.531  11.465   4.645  0.00  0.00     0.046 C 
ENDROOT
BRANCH  10  14
ATOM     14  O   UNL d   1      -1.643   4.581   3.616  0.00  0.00    -0.347 OA
BRANCH  14  15
ATOM     15  C   UNL d   1      -1.709   3.200   3.963  0.00  0.00     0.214 C 
BRANCH  15  16
ATOM     16  C   UNL d   1      -0.971   2.415   2.902  0.00  0.00    -0.034 A 
ATOM     17  C   UNL d   1       0.401   2.637   2.689  0.00  0.00     0.012 A 
ATOM     18  C   UNL d   1       1.098   1.917   1.716  0.00  0.00     0.037 A 
ATOM     19  C   UNL d   1       0.419   0.964   0.949  0.00  0.00     0.102 A 
ATOM     20  C   UNL d   1      -0.948   0.730   1.149  0.00  0.00     0.037 A 
ATOM     21  C   UNL d   1      -1.637   1.456   2.125  0.00  0.00     0.012 A 
BRANCH  19  22
ATOM     22  N   UNL d   1       1.145   0.200  -0.073  0.00  0.00    -0.116 N 
ATOM     23  O   UNL d   1       0.510  -0.643  -0.723  0.00  0.00    -0.532 OA
ATOM     24  O   UNL d   1       2.353   0.439  -0.224  0.00  0.00    -0.532 OA
ENDBRANCH  19  22
ENDBRANCH  15  16
ENDBRANCH  14  15
ENDBRANCH  10  14
TORSDOF 4
