REMARK  8 active torsions:
REMARK  status: ('A' for Active; 'I' for Inactive)
REMARK    1  A    between atoms: N_16  and  C_1 
REMARK    2  A    between atoms: C_4  and  C_2 
REMARK    3  A    between atoms: C_3  and  O_14 
REMARK    4  A    between atoms: N_20  and  C_4 
REMARK    5  A    between atoms: O_13  and  N_7 
REMARK    6  A    between atoms: C_9  and  O_13 
REMARK       I    between atoms: N_12  and  C_9 
REMARK    7  A    between atoms: C_23  and  N_12 
REMARK    8  A    between atoms: O_14  and  C_24 
ROOT
ATOM      1  C   UNL d   1      -0.902   2.231   0.998  0.00  0.00     0.109 C 
ATOM      2  N   UNL d   1      -2.013   2.893   1.142  0.00  0.00    -0.244 N 
ATOM      3  HN  UNL d   1      -2.637   2.811   1.945  1.00  0.00     0.196 HD
ENDROOT
BRANCH   2   4
ATOM      4  O   UNL d   1      -2.239   3.741   0.033  0.00  0.00    -0.179 OA
BRANCH   4   5
ATOM      5  C   UNL d   1      -3.396   4.438   0.237  0.00  0.00     0.387 C 
ATOM      6  N   UNL d   1      -3.296   5.807   0.200  0.00  0.00    -0.301 N 
ATOM      7  H   UNL d   1      -4.206   6.229   0.317  0.00  0.00     0.171 HD
ATOM      8  O   UNL d   1      -4.494   3.902   0.409  0.00  0.00    -0.236 OA
BRANCH   6   9
ATOM      9  C   UNL d   1      -2.180   6.665   0.218  0.00  0.00     0.037 A 
ATOM     10  C   UNL d   1      -0.846   6.261   0.160  0.00  0.00     0.032 A 
ATOM     11  C   UNL d   1       0.201   7.196   0.247  0.00  0.00     0.039 A 
ATOM     12  C   UNL d   1      -0.073   8.554   0.359  0.00  0.00     0.078 A 
ATOM     13  C   UNL d   1      -1.405   8.962   0.431  0.00  0.00     0.039 A 
ATOM     14  C   UNL d   1      -2.448   8.032   0.352  0.00  0.00     0.032 A 
BRANCH  12  15
ATOM     15  O   UNL d   1       0.826   9.574   0.414  0.00  0.00    -0.255 OA
BRANCH  15  16
ATOM     16  C   UNL d   1       2.178   9.344   0.050  0.00  0.00     0.530 C 
ATOM     17  F   UNL d   1       2.321   8.395  -0.898  0.00  0.00    -0.144 F 
ATOM     18  F   UNL d   1       2.683  10.496  -0.448  0.00  0.00    -0.144 F 
ATOM     19  F   UNL d   1       2.901   9.003   1.137  0.00  0.00    -0.144 F 
ENDBRANCH  15  16
ENDBRANCH  12  15
ENDBRANCH   6   9
ENDBRANCH   4   5
ENDBRANCH   2   4
BRANCH   1  20
ATOM     20  C   UNL d   1      -0.417   1.444   2.170  0.00  0.00     0.007 A 
ATOM     21  C   UNL d   1      -1.325   0.949   3.109  0.00  0.00     0.040 A 
ATOM     22  C   UNL d   1      -0.853   0.328   4.268  0.00  0.00     0.057 A 
ATOM     23  C   UNL d   1       0.526   0.235   4.540  0.00  0.00     0.050 A 
ATOM     24 CL   UNL d   1      -2.015  -0.280   5.398  0.00  0.00    -0.082 Cl
ATOM     25  C   UNL d   1       1.417   0.672   3.542  0.00  0.00     0.057 A 
ATOM     26  C   UNL d   1       0.957   1.286   2.375  0.00  0.00     0.040 A 
ATOM     27 CL   UNL d   1       3.128   0.522   3.757  0.00  0.00    -0.082 Cl
BRANCH  23  28
ATOM     28  N   UNL d   1       0.998  -0.457   5.679  0.00  0.00    -0.300 NA
ATOM     29  H   UNL d   1       1.943  -0.186   5.944  0.00  0.00     0.124 HD
ATOM     30  H   UNL d   1       0.342  -0.429   6.457  0.00  0.00     0.124 HD
ENDBRANCH  23  28
ENDBRANCH   1  20
BRANCH   1  31
ATOM     31  N   UNL d   1      -0.141   2.250  -0.149  0.00  0.00    -0.286 NA
ATOM     32  H   UNL d   1       0.322   1.376  -0.379  0.00  0.00     0.125 HD
ATOM     33  H   UNL d   1      -0.667   2.608  -0.942  0.00  0.00     0.125 HD
ENDBRANCH   1  31
TORSDOF 8
