REMARK  7 active torsions:
REMARK  status: ('A' for Active; 'I' for Inactive)
REMARK    1  A    between atoms: C_2  and  N_1 
REMARK    2  A    between atoms: C_3  and  N_9 
REMARK    3  A    between atoms: N_14  and  C_3 
REMARK    4  A    between atoms: C_4  and  C_6 
REMARK       I    between atoms: N_7  and  C_4 
REMARK    5  A    between atoms: N_9  and  N_7 
REMARK    6  A    between atoms: C_17  and  N_14 
REMARK    7  A    between atoms: C_18  and  C_17 
ROOT
ATOM      1  C   UNL d   1      -2.105  -4.931  -4.852  0.00  0.00     0.270 C 
ATOM      2  N   UNL d   1      -2.821  -4.144  -3.969  0.00  0.00    -0.264 N 
ATOM      3  O   UNL d   1      -1.813  -4.632  -6.003  0.00  0.00    -0.266 OA
ATOM      4  H   UNL d   1      -3.102  -4.484  -3.056  0.00  0.00     0.190 HD
ENDROOT
BRANCH   2   5
ATOM      5  N   UNL d   1      -3.271  -2.868  -4.318  0.00  0.00    -0.278 N 
ATOM      6  H   UNL d   1      -2.625  -2.095  -4.188  0.00  0.00     0.189 HD
BRANCH   5   7
ATOM      7  C   UNL d   1      -4.365  -2.642  -5.127  0.00  0.00     0.165 C 
ATOM      8  S   UNL d   1      -5.201  -3.740  -6.062  0.00  0.00    -0.046 SA
BRANCH   7   9
ATOM      9  N   UNL d   1      -4.848  -1.353  -5.056  0.00  0.00    -0.264 NA
ATOM     10  H   UNL d   1      -5.605  -1.220  -5.717  0.00  0.00     0.130 HD
BRANCH   9  11
ATOM     11  C   UNL d   1      -5.112  -0.747  -3.758  0.00  0.00     0.133 C 
BRANCH  11  12
ATOM     12  C   UNL d   1      -4.057   0.233  -3.326  0.00  0.00    -0.045 A 
ATOM     13  C   UNL d   1      -3.852   1.416  -4.048  0.00  0.00     0.008 A 
ATOM     14  C   UNL d   1      -2.912   2.354  -3.618  0.00  0.00     0.001 A 
ATOM     15  C   UNL d   1      -2.164   2.115  -2.466  0.00  0.00     0.000 A 
ATOM     16  C   UNL d   1      -2.356   0.941  -1.742  0.00  0.00     0.001 A 
ATOM     17  C   UNL d   1      -3.300   0.004  -2.167  0.00  0.00     0.008 A 
ENDBRANCH  11  12
ENDBRANCH   9  11
ENDBRANCH   7   9
ENDBRANCH   5   7
ENDBRANCH   2   5
BRANCH   1  18
ATOM     18  C   UNL d   1      -1.657  -6.239  -4.305  0.00  0.00     0.034 A 
ATOM     19  C   UNL d   1      -1.711  -7.373  -5.129  0.00  0.00     0.019 A 
ATOM     20  C   UNL d   1      -1.179  -8.582  -4.686  0.00  0.00     0.037 A 
ATOM     21  C   UNL d   1      -0.578  -8.649  -3.418  0.00  0.00     0.108 A 
ATOM     22  C   UNL d   1      -0.517  -7.533  -2.567  0.00  0.00    -0.028 A 
ATOM     23  C   UNL d   1      -1.083  -6.327  -3.025  0.00  0.00     0.026 A 
ATOM     24  C   UNL d   1       0.146  -7.530  -1.216  0.00  0.00     0.050 C 
BRANCH  21  25
ATOM     25  N   UNL d   1       0.020  -9.923  -3.043  0.00  0.00    -0.115 N 
ATOM     26  O   UNL d   1      -0.441 -10.483  -2.035  0.00  0.00    -0.532 OA
ATOM     27  O   UNL d   1       0.930 -10.349  -3.761  0.00  0.00    -0.532 OA
ENDBRANCH  21  25
ENDBRANCH   1  18
TORSDOF 7
