REMARK  1 active torsions:
REMARK  status: ('A' for Active; 'I' for Inactive)
REMARK    1  A    between atoms: C_5  and  O_9 
ROOT
ATOM      1  C   UNL d   1       0.038   0.717   0.336  0.00  0.00    -0.035 C 
ATOM      2  C   UNL d   1       0.025  -0.724  -0.297  0.00  0.00    -0.037 C 
ATOM      3  C   UNL d   1      -1.251   1.479  -0.083  0.00  0.00     0.041 C 
ATOM      4  C   UNL d   1      -1.244  -1.486   0.166  0.00  0.00     0.012 C 
ATOM      5  C   UNL d   1      -2.558   0.727   0.220  0.00  0.00     0.118 C 
ATOM      6  C   UNL d   1      -2.544  -0.750  -0.191  0.00  0.00     0.032 C 
ATOM      7  C   UNL d   1       0.107   0.703   1.893  0.00  0.00     0.016 C 
ATOM      8  C   UNL d   1       1.297   1.480  -0.159  0.00  0.00     0.010 C 
ATOM      9  C   UNL d   1       0.005  -0.708  -1.857  0.00  0.00     0.016 C 
ATOM     10  C   UNL d   1       1.304  -1.482   0.140  0.00  0.00     0.010 C 
ATOM     11  C   UNL d   1       2.606   0.736   0.143  0.00  0.00     0.001 C 
ATOM     12  C   UNL d   1       2.592  -0.743  -0.246  0.00  0.00     0.001 C 
ENDROOT
BRANCH   5  13
ATOM     13  O   UNL d   1      -2.890   0.865   1.601  0.00  0.00    -0.396 OA
ATOM     14  H   UNL d   1      -2.745   0.015   2.047  0.00  0.00     0.210 HD
ENDBRANCH   5  13
TORSDOF 1
