REMARK  1 active torsions:
REMARK  status: ('A' for Active; 'I' for Inactive)
REMARK    1  A    between atoms: O_9  and  C_5 
ROOT
ATOM      1  N   UNL d   1       2.419  -0.719  -0.001  0.00  0.00    -0.275 N 
ATOM      2  HN  UNL d   1       3.300  -1.232  -0.014  1.00  0.00     0.189 HD
ATOM      3  N   UNL d   1       2.389   0.659  -0.004  0.00  0.00    -0.259 N 
ATOM      4  C   UNL d   1       1.220   1.423   0.036  0.00  0.00     0.272 A 
ATOM      5  C   UNL d   1       1.284  -1.329   0.020  0.00  0.00     0.166 A 
ATOM      6  C   UNL d   1      -0.057   0.680   0.027  0.00  0.00     0.048 A 
ATOM      7  C   UNL d   1      -0.034  -0.710   0.026  0.00  0.00     0.032 A 
ATOM      8  O   UNL d   1       1.205   2.652   0.064  0.00  0.00    -0.266 OA
ATOM      9  C   UNL d   1       3.666   1.341  -0.077  0.00  0.00     0.181 C 
ATOM     10  C   UNL d   1      -1.280   1.359  -0.011  0.00  0.00     0.018 A 
ATOM     11  C   UNL d   1      -1.227  -1.439  -0.000  0.00  0.00     0.017 A 
ATOM     12  C   UNL d   1      -2.474   0.635  -0.055  0.00  0.00     0.001 A 
ATOM     13  C   UNL d   1      -2.447  -0.761  -0.046  0.00  0.00     0.001 A 
ENDROOT
BRANCH   5  14
ATOM     14  O   UNL d   1       1.275  -2.668   0.020  0.00  0.00    -0.344 OA
ATOM     15  H   UNL d   1       2.202  -2.964  -0.002  0.00  0.00     0.219 HD
ENDBRANCH   5  14
TORSDOF 1
