REMARK  3 active torsions:
REMARK  status: ('A' for Active; 'I' for Inactive)
REMARK    1  A    between atoms: C_2  and  C_3 
REMARK    2  A    between atoms: O_10  and  C_3 
REMARK    3  A    between atoms: C_4  and  O_11 
ROOT
ATOM      1  C   UNL d   1       0.056  -1.135   0.258  0.00  0.00     0.029 C 
ATOM      2  C   UNL d   1      -1.189  -0.827  -0.605  0.00  0.00     0.090 C 
ATOM      3  C   UNL d   1       1.341  -0.738  -0.498  0.00  0.00     0.123 C 
ATOM      4  C   UNL d   1      -0.013   1.091   0.283  0.00  0.00    -0.011 C 
ATOM      5  C   UNL d   1      -0.037  -0.029   1.318  0.00  0.00     0.012 C 
ATOM      6  C   UNL d   1      -1.219   0.719  -0.600  0.00  0.00     0.020 C 
ATOM      7  C   UNL d   1       1.290   0.798  -0.488  0.00  0.00     0.037 C 
ENDROOT
BRANCH   2   8
ATOM      8  C   UNL d   1      -1.151  -1.439  -1.993  0.00  0.00     0.144 C 
ATOM      9  O   UNL d   1      -1.265  -0.819  -3.036  0.00  0.00    -0.650 OA
BRANCH   8  10
ATOM     10  O   UNL d   1      -1.007  -2.786  -1.972  0.00  0.00    -0.776 OA
ATOM     11  H   UNL d   1      -0.939  -3.178  -1.082  0.00  0.00     0.167 HD
ENDBRANCH   8  10
ENDBRANCH   2   8
BRANCH   3  12
ATOM     12  O   UNL d   1       2.482  -1.232   0.190  0.00  0.00    -0.395 OA
ATOM     13  H   UNL d   1       2.539  -0.808   1.063  0.00  0.00     0.210 HD
ENDBRANCH   3  12
TORSDOF 3
