REMARK  6 active torsions:
REMARK  status: ('A' for Active; 'I' for Inactive)
REMARK    1  A    between atoms: C_5  and  C_1 
REMARK    2  A    between atoms: N_7  and  C_2 
REMARK    3  A    between atoms: O_15  and  C_5 
REMARK       I    between atoms: C_8  and  N_7 
REMARK    4  A    between atoms: C_9  and  C_8 
REMARK    5  A    between atoms: C_10  and  C_11 
REMARK    6  A    between atoms: O_16  and  C_10 
ROOT
ATOM      1  C   UNL d   1       5.730  -2.807  -0.206  0.00  0.00     0.107 C 
ATOM      2  C   UNL d   1       4.988  -1.645  -0.383  0.00  0.00     0.064 C 
ATOM      3  S   UNL d   1       4.712  -4.183  -0.099  0.00  0.00    -0.093 SA
ATOM      4  C   UNL d   1       3.601  -1.928  -0.665  0.00  0.00    -0.027 C 
ATOM      5  C   UNL d   1       3.328  -3.271  -0.486  0.00  0.00     0.059 C 
ATOM      6  C   UNL d   1       2.581  -0.961  -1.177  0.00  0.00     0.051 C 
ENDROOT
BRANCH   2   7
ATOM      7  N   UNL d   1       5.582  -0.388  -0.377  0.00  0.00    -0.322 N 
ATOM      8  C   UNL d   1       5.193   0.719   0.328  0.00  0.00     0.245 C 
ATOM      9  O   UNL d   1       5.854   1.755   0.286  0.00  0.00    -0.268 OA
ATOM     10  H   UNL d   1       6.559  -0.335  -0.654  0.00  0.00     0.169 HD
BRANCH   8  11
ATOM     11  C   UNL d   1       4.107   0.569   1.326  0.00  0.00     0.081 C 
ATOM     12  C   UNL d   1       3.165   1.497   1.533  0.00  0.00     0.086 C 
BRANCH  12  13
ATOM     13  C   UNL d   1       2.966   2.651   0.653  0.00  0.00     0.165 C 
ATOM     14  O   UNL d   1       3.147   2.705  -0.548  0.00  0.00    -0.647 OA
BRANCH  13  15
ATOM     15  O   UNL d   1       2.441   3.671   1.348  0.00  0.00    -0.773 OA
ATOM     16  H   UNL d   1       2.348   4.380   0.678  0.00  0.00     0.167 HD
ENDBRANCH  13  15
ENDBRANCH  12  13
ENDBRANCH   8  11
ENDBRANCH   2   7
BRANCH   1  17
ATOM     17  C   UNL d   1       7.160  -2.997  -0.040  0.00  0.00     0.302 C 
ATOM     18  O   UNL d   1       7.720  -4.002   0.388  0.00  0.00    -0.259 OA
BRANCH  17  19
ATOM     19  O   UNL d   1       7.829  -1.881  -0.464  0.00  0.00    -0.322 OA
ATOM     20  C   UNL d   1       9.252  -1.987  -0.406  0.00  0.00     0.213 C 
ENDBRANCH  17  19
ENDBRANCH   1  17
TORSDOF 6
