REMARK  6 active torsions:
REMARK  status: ('A' for Active; 'I' for Inactive)
REMARK    1  A    between atoms: C_9  and  N_1 
REMARK    2  A    between atoms: C_2  and  C_9 
REMARK    3  A    between atoms: C_16  and  N_3 
REMARK    4  A    between atoms: S_15  and  C_4 
REMARK    5  A    between atoms: C_17  and  S_15 
REMARK    6  A    between atoms: C_19  and  C_17 
ROOT
ATOM      1  C   UNL d   1       1.512  -2.523   2.311  0.00  0.00     0.118 A 
ATOM      2  N   UNL d   1       2.295  -1.538   2.914  0.00  0.00    -0.314 N 
ATOM      3  C   UNL d   1       3.501  -2.154   3.160  0.00  0.00     0.163 A 
ATOM      4  N   UNL d   1       2.193  -3.653   2.293  0.00  0.00    -0.285 N 
ATOM      5  HN  UNL d   1       1.852  -4.550   1.947  1.00  0.00     0.188 HD
ATOM      6  N   UNL d   1       3.433  -3.420   2.819  0.00  0.00    -0.278 N 
ATOM      7  HN  UNL d   1       4.176  -4.109   2.927  1.00  0.00     0.189 HD
ENDROOT
BRANCH   1   8
ATOM      8  C   UNL d   1       0.177  -2.326   1.630  0.00  0.00     0.207 C 
BRANCH   8   9
ATOM      9  N   UNL d   1      -1.056  -2.400   2.450  0.00  0.00    -0.338 N 
ATOM     10  C   UNL d   1      -1.362  -3.644   3.059  0.00  0.00     0.052 A 
ATOM     11  C   UNL d   1      -1.868  -3.705   4.375  0.00  0.00     0.032 A 
ATOM     12  C   UNL d   1      -1.278  -4.851   2.339  0.00  0.00     0.031 A 
ATOM     13  C   UNL d   1      -2.241  -4.934   4.943  0.00  0.00     0.021 A 
ATOM     14  S   UNL d   1      -2.028  -2.242   5.389  0.00  0.00    -0.086 SA
ATOM     15  C   UNL d   1      -2.146  -6.113   4.208  0.00  0.00     0.002 A 
ATOM     16  C   UNL d   1      -1.671  -6.070   2.903  0.00  0.00     0.002 A 
ATOM     17  C   UNL d   1      -2.165  -0.985   4.129  0.00  0.00     0.032 A 
ATOM     18  C   UNL d   1      -1.666  -1.182   2.826  0.00  0.00     0.052 A 
ATOM     19  C   UNL d   1      -2.776   0.228   4.483  0.00  0.00     0.021 A 
ATOM     20  C   UNL d   1      -1.885  -0.160   1.883  0.00  0.00     0.031 A 
ATOM     21  C   UNL d   1      -2.510   1.040   2.235  0.00  0.00     0.002 A 
ATOM     22  C   UNL d   1      -2.940   1.240   3.540  0.00  0.00     0.002 A 
ENDBRANCH   8   9
ENDBRANCH   1   8
BRANCH   2  23
ATOM     23  C   UNL d   1       1.831  -0.202   3.230  0.00  0.00     0.128 C 
ATOM     24  C   UNL d   1       2.828   0.949   3.259  0.00  0.00     0.027 C 
ENDBRANCH   2  23
BRANCH   3  25
ATOM     25  S   UNL d   1       4.940  -1.410   3.782  0.00  0.00    -0.088 SA
BRANCH  25  26
ATOM     26  C   UNL d   1       6.223  -2.471   3.039  0.00  0.00     0.121 C 
BRANCH  26  27
ATOM     27  C   UNL d   1       7.644  -2.060   3.382  0.00  0.00    -0.048 A 
ATOM     28  C   UNL d   1       8.084  -2.001   4.716  0.00  0.00     0.009 A 
ATOM     29  C   UNL d   1       9.415  -1.715   5.021  0.00  0.00     0.024 A 
ATOM     30  C   UNL d   1      10.332  -1.493   3.992  0.00  0.00     0.034 A 
ATOM     31  C   UNL d   1       9.921  -1.549   2.666  0.00  0.00     0.024 A 
ATOM     32 CL   UNL d   1      11.983  -1.180   4.366  0.00  0.00    -0.084 Cl
ATOM     33  C   UNL d   1       8.584  -1.829   2.360  0.00  0.00     0.009 A 
ENDBRANCH  26  27
ENDBRANCH  25  26
ENDBRANCH   3  25
TORSDOF 6
