REMARK  4 active torsions:
REMARK  status: ('A' for Active; 'I' for Inactive)
REMARK       I    between atoms: C_2  and  N_13 
REMARK    1  A    between atoms: C_3  and  C_2 
REMARK    2  A    between atoms: O_16  and  C_4 
REMARK    3  A    between atoms: N_13  and  C_12 
REMARK    4  A    between atoms: C_20  and  O_16 
ROOT
ATOM      1  C   UNL d   1      -5.106  -0.591  -0.657  0.00  0.00     0.260 C 
ATOM      2  N   UNL d   1      -5.021  -1.389   0.473  0.00  0.00    -0.323 N 
ATOM      3  O   UNL d   1      -5.046  -0.980  -1.819  0.00  0.00    -0.267 OA
ATOM      4  H   UNL d   1      -5.186  -0.942   1.369  0.00  0.00     0.169 HD
ENDROOT
BRANCH   1   5
ATOM      5  C   UNL d   1      -5.152   0.874  -0.438  0.00  0.00     0.083 A 
ATOM      6  C   UNL d   1      -5.860   1.523   0.565  0.00  0.00     0.163 A 
ATOM      7  N   UNL d   1      -5.768   2.865   0.779  0.00  0.00    -0.346 N 
ATOM      8  C   UNL d   1      -5.035   3.595  -0.084  0.00  0.00     0.090 A 
ATOM      9  HN  UNL d   1      -6.240   3.304   1.570  1.00  0.00     0.167 HD
ATOM     10  C   UNL d   1      -4.351   3.048  -1.151  0.00  0.00     0.018 A 
ATOM     11  C   UNL d   1      -4.402   1.668  -1.318  0.00  0.00     0.023 A 
BRANCH   6  12
ATOM     12  O   UNL d   1      -6.712   0.791   1.383  0.00  0.00    -0.293 OA
BRANCH  12  13
ATOM     13  C   UNL d   1      -7.796   1.461   1.921  0.00  0.00     0.077 A 
ATOM     14  C   UNL d   1      -8.581   2.361   1.190  0.00  0.00     0.037 A 
ATOM     15  C   UNL d   1      -9.640   3.033   1.805  0.00  0.00     0.003 A 
ATOM     16  C   UNL d   1      -9.947   2.772   3.138  0.00  0.00     0.000 A 
ATOM     17  C   UNL d   1      -9.203   1.835   3.854  0.00  0.00     0.003 A 
ATOM     18  C   UNL d   1      -8.130   1.175   3.246  0.00  0.00     0.037 A 
ENDBRANCH  12  13
ENDBRANCH   6  12
ENDBRANCH   1   5
BRANCH   2  19
ATOM     19  C   UNL d   1      -4.576  -2.739   0.519  0.00  0.00     0.037 A 
ATOM     20  C   UNL d   1      -4.193  -3.451  -0.635  0.00  0.00     0.061 A 
ATOM     21  C   UNL d   1      -3.640  -4.747  -0.446  0.00  0.00     0.069 A 
ATOM     22  C   UNL d   1      -3.505  -5.330   0.932  0.00  0.00     0.067 A 
ATOM     23  N   UNL d   1      -3.184  -5.560  -1.410  0.00  0.00    -0.310 N 
ATOM     24  N   UNL d   1      -2.947  -6.550   0.940  0.00  0.00    -0.310 N 
ATOM     25  C   UNL d   1      -3.937  -4.605   2.064  0.00  0.00     0.035 A 
ATOM     26  S   UNL d   1      -2.621  -6.924  -0.647  0.00  0.00     0.068 SA
ATOM     27  HN  UNL d   1      -2.761  -7.132   1.757  1.00  0.00     0.176 HD
ATOM     28  C   UNL d   1      -4.464  -3.318   1.815  0.00  0.00     0.032 A 
ATOM     29  HN  UNL d   1      -3.183  -5.377  -2.413  1.00  0.00     0.176 HD
ENDBRANCH   2  19
TORSDOF 4
