REMARK  6 active torsions:
REMARK  status: ('A' for Active; 'I' for Inactive)
REMARK    1  A    between atoms: C_3  and  N_1 
REMARK    2  A    between atoms: C_2  and  C_10 
REMARK       I    between atoms: N_5  and  C_2 
REMARK    3  A    between atoms: N_4  and  C_6 
REMARK    4  A    between atoms: C_19  and  N_5 
REMARK    5  A    between atoms: C_20  and  N_5 
REMARK    6  A    between atoms: C_10  and  N_9 
ROOT
ATOM      1  N   UNL d   1      -3.233   2.574  -3.164  0.00  0.00    -0.364 N 
ATOM      2  N   UNL d   1      -4.755   3.452  -5.557  0.00  0.00     0.100 N 
ATOM      3  C   UNL d   1      -3.054   3.930  -3.715  0.00  0.00     0.154 C 
ATOM      4  C   UNL d   1      -3.810   1.589  -4.100  0.00  0.00     0.154 C 
ATOM      5  C   UNL d   1      -5.007   2.156  -4.900  0.00  0.00     0.293 C 
ATOM      6  C   UNL d   1      -4.261   4.410  -4.548  0.00  0.00     0.293 C 
ENDROOT
BRANCH   2   7
ATOM      7  C   UNL d   1      -3.878   3.327  -6.747  0.00  0.00     0.375 C 
BRANCH   7   8
ATOM      8  C   UNL d   1      -4.645   2.707  -7.943  0.00  0.00     0.253 C 
ATOM      9  N   UNL d   1      -3.929   2.006  -8.945  0.00  0.00    -0.312 N 
ATOM     10  O   UNL d   1      -5.876   2.836  -7.994  0.00  0.00    -0.271 OA
BRANCH   9  11
ATOM     11  C   UNL d   1      -4.750   1.385  -9.950  0.00  0.00     0.037 A 
ATOM     12  C   UNL d   1      -5.587   2.180 -10.746  0.00  0.00     0.030 A 
ATOM     13  C   UNL d   1      -6.345   1.611 -11.772  0.00  0.00     0.002 A 
ATOM     14  C   UNL d   1      -6.282   0.241 -12.008  0.00  0.00     0.000 A 
ATOM     15  C   UNL d   1      -5.495  -0.567 -11.190  0.00  0.00     0.002 A 
ATOM     16  C   UNL d   1      -4.753  -0.000 -10.149  0.00  0.00     0.030 A 
ENDBRANCH   9  11
BRANCH   9  17
ATOM     17  C   UNL d   1      -2.444   1.752  -8.961  0.00  0.00     0.093 C 
ATOM     18  C   UNL d   1      -1.604   3.057  -8.947  0.00  0.00     0.026 C 
ATOM     19  C   UNL d   1      -1.694   3.829 -10.261  0.00  0.00     0.002 C 
ATOM     20  C   UNL d   1      -1.201   2.991 -11.435  0.00  0.00     0.000 C 
ATOM     21  C   UNL d   1      -1.890   1.636 -11.494  0.00  0.00     0.002 C 
ATOM     22  C   UNL d   1      -1.848   0.919 -10.139  0.00  0.00     0.026 C 
ENDBRANCH   9  17
ENDBRANCH   7   8
ENDBRANCH   2   7
BRANCH   1  23
ATOM     23  C   UNL d   1      -3.628   2.465  -1.832  0.00  0.00     0.103 A 
ATOM     24  C   UNL d   1      -3.401   1.263  -1.151  0.00  0.00     0.051 A 
ATOM     25  C   UNL d   1      -3.731   1.131   0.196  0.00  0.00     0.041 A 
ATOM     26  C   UNL d   1      -4.290   2.224   0.848  0.00  0.00     0.118 A 
ATOM     27  C   UNL d   1      -4.485   3.392   0.132  0.00  0.00     0.125 A 
ATOM     28  N   UNL d   1      -4.156   3.529  -1.183  0.00  0.00    -0.350 N 
ATOM     29  HN  UNL d   1      -4.304   4.414  -1.667  1.00  0.00     0.166 HD
BRANCH  26  30
ATOM     30  N   UNL d   1      -4.645   2.152   2.257  0.00  0.00    -0.114 N 
ATOM     31  O   UNL d   1      -5.152   3.158   2.775  0.00  0.00    -0.532 OA
ATOM     32  O   UNL d   1      -4.418   1.091   2.854  0.00  0.00    -0.532 OA
ENDBRANCH  26  30
ENDBRANCH   1  23
TORSDOF 6
