REMARK  5 active torsions:
REMARK  status: ('A' for Active; 'I' for Inactive)
REMARK    1  A    between atoms: C_6  and  C_1 
REMARK    2  A    between atoms: O_7  and  C_1 
REMARK    3  A    between atoms: C_2  and  C_5 
REMARK    4  A    between atoms: O_8  and  C_4 
REMARK    5  A    between atoms: C_5  and  C_6 
ROOT
ATOM      1  C   UNL d   1      -1.938   0.642  -2.236  0.00  0.00    -0.024 A 
ATOM      2  C   UNL d   1      -2.592  -0.384  -2.940  0.00  0.00     0.074 A 
ATOM      3  C   UNL d   1      -2.039   1.962  -2.752  0.00  0.00     0.010 A 
ATOM      4  C   UNL d   1      -3.344  -0.051  -4.087  0.00  0.00     0.037 A 
ATOM      5  C   UNL d   1      -2.794   2.269  -3.883  0.00  0.00     0.001 A 
ATOM      6  C   UNL d   1      -3.455   1.256  -4.553  0.00  0.00     0.003 A 
ENDROOT
BRANCH   1   7
ATOM      7  C   UNL d   1      -1.110   0.515  -0.975  0.00  0.00     0.052 C 
BRANCH   7   8
ATOM      8  C   UNL d   1      -1.688   1.307   0.205  0.00  0.00     0.115 C 
BRANCH   8   9
ATOM      9  C   UNL d   1      -0.849   1.121   1.446  0.00  0.00     0.139 C 
ATOM     10  O   UNL d   1       0.147   0.423   1.528  0.00  0.00    -0.650 OA
BRANCH   9  11
ATOM     11  O   UNL d   1      -1.323   1.831   2.497  0.00  0.00    -0.776 OA
ATOM     12  H   UNL d   1      -2.127   2.346   2.297  0.00  0.00     0.167 HD
ENDBRANCH   9  11
ENDBRANCH   8   9
ENDBRANCH   7   8
ENDBRANCH   1   7
BRANCH   2  13
ATOM     13  O   UNL d   1      -2.662  -1.729  -2.725  0.00  0.00    -0.355 OA
ATOM     14  C   UNL d   1      -1.919  -2.380  -1.718  0.00  0.00     0.210 C 
ENDBRANCH   2  13
TORSDOF 5
