REMARK  5 active torsions:
REMARK  status: ('A' for Active; 'I' for Inactive)
REMARK    1  A    between atoms: C_2  and  S_1 
REMARK    2  A    between atoms: N_9  and  S_1 
REMARK    3  A    between atoms: C_19  and  N_9 
REMARK    4  A    between atoms: N_14  and  C_20 
REMARK    5  A    between atoms: C_20  and  C_21 
ROOT
ATOM      1  C   UNL d   1       0.139   1.790   2.140  0.00  0.00     0.022 A 
ATOM      2  C   UNL d   1       1.071   2.269   4.765  0.00  0.00    -0.030 A 
ATOM      3  C   UNL d   1       1.462   1.510   2.472  0.00  0.00     0.025 A 
ATOM      4  C   UNL d   1      -0.714   2.332   3.098  0.00  0.00     0.025 A 
ATOM      5  C   UNL d   1      -0.245   2.590   4.395  0.00  0.00     0.011 A 
ATOM      6  C   UNL d   1       1.923   1.753   3.772  0.00  0.00     0.011 A 
ENDROOT
BRANCH   1   7
ATOM      7  N   UNL d   1      -0.365   1.490   0.833  0.00  0.00    -0.181 NA
ATOM      8  H   UNL d   1       0.291   1.741   0.091  0.00  0.00     0.146 HD
BRANCH   7   9
ATOM      9  S   UNL d   1      -0.822  -0.128   0.558  0.00  0.00     0.250 S 
ATOM     10  O   UNL d   1      -1.300  -0.192  -0.808  0.00  0.00    -0.205 OA
ATOM     11  O   UNL d   1       0.238  -0.994   1.011  0.00  0.00    -0.205 OA
BRANCH   9  12
ATOM     12  C   UNL d   1      -2.192  -0.507   1.499  0.00  0.00     0.130 A 
ATOM     13  C   UNL d   1      -3.425   0.091   1.420  0.00  0.00     0.097 A 
ATOM     14  O   UNL d   1      -4.251  -0.488   2.333  0.00  0.00    -0.241 OA
ATOM     15  C   UNL d   1      -4.028   1.156   0.600  0.00  0.00     0.081 C 
ATOM     16  N   UNL d   1      -3.571  -1.483   3.007  0.00  0.00    -0.264 N 
ATOM     17  C   UNL d   1      -2.333  -1.502   2.491  0.00  0.00     0.054 A 
ATOM     18  HN  UNL d   1      -3.936  -2.083   3.747  1.00  0.00     0.194 HD
ATOM     19  C   UNL d   1      -1.362  -2.507   2.987  0.00  0.00     0.072 C 
ENDBRANCH   9  12
ENDBRANCH   7   9
ENDBRANCH   1   7
BRANCH   2  20
ATOM     20  C   UNL d   1       1.643   2.544   6.151  0.00  0.00     0.311 C 
BRANCH  20  21
ATOM     21  N   UNL d   1       0.675   2.562   7.262  0.00  0.00     0.094 N 
ATOM     22  C   UNL d   1       0.055   1.269   7.584  0.00  0.00     0.287 C 
ATOM     23  C   UNL d   1       0.940   0.247   8.274  0.00  0.00     0.170 C 
ATOM     24  S   UNL d   1       1.613   0.895   9.776  0.00  0.00     0.147 S 
ATOM     25  C   UNL d   1       2.216   2.489   9.290  0.00  0.00     0.170 C 
ATOM     26  O   UNL d   1       2.764   0.083  10.131  0.00  0.00    -0.228 OA
ATOM     27  O   UNL d   1       0.530   1.087  10.721  0.00  0.00    -0.228 OA
ATOM     28  C   UNL d   1       1.182   3.240   8.467  0.00  0.00     0.287 C 
ENDBRANCH  20  21
ENDBRANCH   2  20
TORSDOF 5
