REMARK  6 active torsions:
REMARK  status: ('A' for Active; 'I' for Inactive)
REMARK    1  A    between atoms: C_7  and  N_1 
REMARK    2  A    between atoms: C_6  and  C_4 
REMARK    3  A    between atoms: O_12  and  C_8 
REMARK    4  A    between atoms: S_10  and  C_9 
REMARK    5  A    between atoms: C_14  and  S_10 
REMARK    6  A    between atoms: C_11  and  C_14 
ROOT
ATOM      1  N   UNL d   1       3.176   4.552   2.717  0.00  0.00    -0.197 NA
ATOM      2  C   UNL d   1       2.459   3.702   2.392  0.00  0.00     0.059 C 
ATOM      3  C   UNL d   1       1.545   2.613   2.021  0.00  0.00     0.134 C 
ENDROOT
BRANCH   3   4
ATOM      4  C   UNL d   1       0.976   2.759   0.613  0.00  0.00     0.093 C 
BRANCH   4   5
ATOM      5  S   UNL d   1       2.170   2.677  -0.777  0.00  0.00    -0.127 SA
BRANCH   5   6
ATOM      6  C   UNL d   1       3.054   1.162  -0.408  0.00  0.00     0.027 A 
ATOM      7  C   UNL d   1       2.481  -0.126  -0.464  0.00  0.00     0.049 A 
ATOM      8  C   UNL d   1       3.285  -1.221  -0.085  0.00  0.00     0.031 A 
ATOM      9  C   UNL d   1       4.633  -1.067   0.241  0.00  0.00     0.002 A 
ATOM     10  C   UNL d   1       5.201   0.199   0.237  0.00  0.00     0.002 A 
ATOM     11  C   UNL d   1       4.413   1.308  -0.072  0.00  0.00     0.021 A 
BRANCH   7  12
ATOM     12  N   UNL d   1       1.131  -0.327  -0.863  0.00  0.00    -0.364 N 
ATOM     13  C   UNL d   1       0.904  -1.343  -1.642  0.00  0.00     0.102 C 
ATOM     14  HN  UNL d   1       0.381   0.292  -0.554  1.00  0.00     0.165 HD
BRANCH  13  15
ATOM     15  C   UNL d   1      -0.444  -1.728  -2.096  0.00  0.00     0.012 A 
ATOM     16  C   UNL d   1      -1.512  -0.831  -2.131  0.00  0.00     0.077 A 
ATOM     17  C   UNL d   1      -2.752  -1.245  -2.614  0.00  0.00     0.037 A 
ATOM     18  C   UNL d   1      -2.931  -2.565  -3.039  0.00  0.00     0.003 A 
ATOM     19  C   UNL d   1      -1.872  -3.470  -2.983  0.00  0.00     0.001 A 
ATOM     20  C   UNL d   1      -0.625  -3.051  -2.519  0.00  0.00     0.015 A 
BRANCH  16  21
ATOM     21  O   UNL d   1      -1.397   0.469  -1.723  0.00  0.00    -0.360 OA
ATOM     22  H   UNL d   1      -0.485   0.580  -1.371  0.00  0.00     0.217 HD
ENDBRANCH  16  21
ENDBRANCH  13  15
ENDBRANCH   7  12
ENDBRANCH   5   6
ENDBRANCH   4   5
ENDBRANCH   3   4
TORSDOF 6
