REMARK  5 active torsions:
REMARK  status: ('A' for Active; 'I' for Inactive)
REMARK    1  A    between atoms: C_13  and  C_3 
REMARK    2  A    between atoms: C_12  and  C_7 
REMARK    3  A    between atoms: O_9  and  C_8 
REMARK    4  A    between atoms: C_11  and  O_9 
REMARK    5  A    between atoms: O_19  and  C_10 
ROOT
ATOM      1  N   UNL d   1       2.582  -1.660  -0.266  0.00  0.00    -0.331 N 
ATOM      2  HN  UNL d   1       2.698  -0.788   0.250  1.00  0.00     0.168 HD
ATOM      3  C   UNL d   1       3.477  -2.350  -0.899  0.00  0.00     0.162 A 
ATOM      4  C   UNL d   1       1.440  -2.393  -0.462  0.00  0.00     0.111 A 
ATOM      5  O   UNL d   1       3.074  -3.477  -1.531  0.00  0.00    -0.256 OA
ATOM      6  C   UNL d   1       1.733  -3.596  -1.304  0.00  0.00     0.316 A 
ATOM      7  C   UNL d   1       0.263  -2.064   0.077  0.00  0.00     0.047 C 
ATOM      8  O   UNL d   1       1.008  -4.479  -1.702  0.00  0.00    -0.257 OA
ENDROOT
BRANCH   7   9
ATOM      9  C   UNL d   1      -0.968  -2.842  -0.041  0.00  0.00    -0.031 A 
ATOM     10  C   UNL d   1      -1.311  -3.739   0.979  0.00  0.00     0.051 A 
ATOM     11  C   UNL d   1      -2.508  -4.462   0.921  0.00  0.00     0.102 A 
ATOM     12  C   UNL d   1      -3.344  -4.294  -0.195  0.00  0.00     0.112 A 
ATOM     13  C   UNL d   1      -2.978  -3.439  -1.239  0.00  0.00     0.041 A 
ATOM     14  C   UNL d   1      -1.801  -2.698  -1.151  0.00  0.00     0.014 A 
BRANCH  11  15
ATOM     15  O   UNL d   1      -2.916  -5.345   1.890  0.00  0.00    -0.353 OA
ATOM     16  C   UNL d   1      -2.278  -5.218   3.159  0.00  0.00     0.210 C 
ENDBRANCH  11  15
BRANCH  12  17
ATOM     17  O   UNL d   1      -4.537  -5.057  -0.248  0.00  0.00    -0.276 OA
BRANCH  17  18
ATOM     18  C   UNL d   1      -5.698  -4.536  -0.816  0.00  0.00     0.260 C 
ATOM     19  O   UNL d   1      -5.845  -3.425  -1.309  0.00  0.00    -0.265 OA
ATOM     20  C   UNL d   1      -6.797  -5.557  -0.765  0.00  0.00     0.126 C 
ENDBRANCH  17  18
ENDBRANCH  12  17
ENDBRANCH   7   9
BRANCH   3  21
ATOM     21  C   UNL d   1       4.913  -2.051  -0.996  0.00  0.00     0.015 A 
ATOM     22  C   UNL d   1       5.417  -0.927  -0.330  0.00  0.00     0.016 A 
ATOM     23  C   UNL d   1       6.783  -0.643  -0.372  0.00  0.00     0.001 A 
ATOM     24  C   UNL d   1       7.647  -1.479  -1.080  0.00  0.00     0.000 A 
ATOM     25  C   UNL d   1       7.147  -2.594  -1.753  0.00  0.00     0.001 A 
ATOM     26  C   UNL d   1       5.782  -2.882  -1.713  0.00  0.00     0.016 A 
ENDBRANCH   3  21
TORSDOF 5
