REMARK  6 active torsions:
REMARK  status: ('A' for Active; 'I' for Inactive)
REMARK    1  A    between atoms: C_8  and  C_1 
REMARK    2  A    between atoms: N_15  and  C_2 
REMARK       I    between atoms: C_6  and  N_7 
REMARK    3  A    between atoms: O_11  and  C_6 
REMARK    4  A    between atoms: C_12  and  C_8 
REMARK    5  A    between atoms: C_17  and  O_11 
REMARK    6  A    between atoms: O_23  and  C_20 
ROOT
ATOM      1  C   UNL d   1       1.278  -1.645  -0.028  0.00  0.00     0.056 A 
ATOM      2  C   UNL d   1       2.376  -0.797  -0.137  0.00  0.00     0.083 A 
ATOM      3  C   UNL d   1       0.046  -0.884  -0.085  0.00  0.00    -0.025 A 
ATOM      4  C   UNL d   1       0.268   0.476  -0.199  0.00  0.00     0.010 A 
ATOM      5  S   UNL d   1       1.917   0.855  -0.234  0.00  0.00    -0.074 SA
ATOM      6  C   UNL d   1      -2.813   1.569   1.109  0.00  0.00     0.363 C 
ATOM      7  N   UNL d   1      -2.064   0.946   0.135  0.00  0.00    -0.323 N 
ATOM      8  C   UNL d   1      -0.797   1.536  -0.299  0.00  0.00     0.174 C 
ATOM      9  C   UNL d   1      -1.360  -1.421   0.014  0.00  0.00     0.060 C 
ATOM     10  C   UNL d   1      -2.386  -0.368  -0.429  0.00  0.00     0.133 C 
ATOM     11  O   UNL d   1      -2.583   2.695   1.526  0.00  0.00    -0.238 OA
ENDROOT
BRANCH   1  12
ATOM     12  C   UNL d   1       1.308  -3.112   0.076  0.00  0.00     0.195 C 
ATOM     13  O   UNL d   1       0.422  -3.803  -0.428  0.00  0.00    -0.287 OA
BRANCH  12  14
ATOM     14  C   UNL d   1       2.390  -3.829   0.803  0.00  0.00     0.015 A 
ATOM     15  C   UNL d   1       2.698  -5.138   0.402  0.00  0.00     0.018 A 
ATOM     16  C   UNL d   1       3.714  -5.857   1.039  0.00  0.00     0.037 A 
ATOM     17  C   UNL d   1       4.427  -5.272   2.087  0.00  0.00     0.068 A 
ATOM     18  C   UNL d   1       4.116  -3.975   2.493  0.00  0.00     0.037 A 
ATOM     19  C   UNL d   1       3.080  -3.265   1.880  0.00  0.00     0.018 A 
BRANCH  17  20
ATOM     20  O   UNL d   1       5.468  -5.861   2.746  0.00  0.00    -0.356 OA
ATOM     21  C   UNL d   1       5.362  -7.272   2.904  0.00  0.00     0.210 C 
ENDBRANCH  17  20
ENDBRANCH  12  14
ENDBRANCH   1  12
BRANCH   2  22
ATOM     22  N   UNL d   1       3.695  -1.088  -0.176  0.00  0.00    -0.393 N 
ATOM     23  H   UNL d   1       4.063  -2.022  -0.327  0.00  0.00     0.156 HD
ATOM     24  H   UNL d   1       4.372  -0.344  -0.319  0.00  0.00     0.156 HD
ENDBRANCH   2  22
BRANCH   6  25
ATOM     25  O   UNL d   1      -3.842   0.795   1.538  0.00  0.00    -0.294 OA
BRANCH  25  26
ATOM     26  C   UNL d   1      -4.829   1.293   2.482  0.00  0.00     0.061 C 
ATOM     27  C   UNL d   1      -5.597   2.478   1.890  0.00  0.00     0.046 C 
ATOM     28  C   UNL d   1      -5.796   0.110   2.683  0.00  0.00     0.046 C 
ATOM     29  C   UNL d   1      -4.211   1.641   3.840  0.00  0.00     0.046 C 
ENDBRANCH  25  26
ENDBRANCH   6  25
TORSDOF 6
