REMARK  3 active torsions:
REMARK  status: ('A' for Active; 'I' for Inactive)
REMARK    1  A    between atoms: C_2  and  C_1 
REMARK       I    between atoms: N_5  and  C_2 
REMARK    2  A    between atoms: C_3  and  C_4 
REMARK    3  A    between atoms: C_6  and  N_5 
ROOT
ATOM      1  C   UNL d   1       1.168   2.666  -0.383  0.00  0.00     0.258 C 
ATOM      2  N   UNL d   1       0.602   3.671   0.378  0.00  0.00    -0.321 N 
ATOM      3  O   UNL d   1       2.061   2.892  -1.205  0.00  0.00    -0.267 OA
ATOM      4  H   UNL d   1       0.209   3.450   1.287  0.00  0.00     0.169 HD
ENDROOT
BRANCH   1   5
ATOM      5  C   UNL d   1       0.709   1.241  -0.248  0.00  0.00     0.062 A 
ATOM      6  C   UNL d   1      -0.273   0.676   0.581  0.00  0.00     0.066 A 
ATOM      7  C   UNL d   1      -0.620  -0.683   0.384  0.00  0.00     0.034 A 
ATOM      8  C   UNL d   1       0.037  -1.440  -0.567  0.00  0.00     0.088 A 
ATOM      9  N   UNL d   1       1.017  -0.944  -1.333  0.00  0.00    -0.374 N 
ATOM     10  C   UNL d   1       1.324   0.366  -1.160  0.00  0.00     0.105 A 
ATOM     11  HN  UNL d   1       1.509  -1.523  -2.014  1.00  0.00     0.164 HD
BRANCH   6  12
ATOM     12  C   UNL d   1      -1.032   1.387   1.658  0.00  0.00     0.418 C 
ATOM     13  F   UNL d   1      -0.319   2.369   2.273  0.00  0.00    -0.166 F 
ATOM     14  F   UNL d   1      -2.167   1.970   1.198  0.00  0.00    -0.166 F 
ATOM     15  F   UNL d   1      -1.419   0.556   2.668  0.00  0.00    -0.166 F 
ENDBRANCH   6  12
ENDBRANCH   1   5
BRANCH   2  16
ATOM     16  C   UNL d   1       0.766   5.066   0.140  0.00  0.00     0.057 A 
ATOM     17  C   UNL d   1       0.501   5.983   1.175  0.00  0.00     0.062 A 
ATOM     18  C   UNL d   1       0.644   7.364   0.970  0.00  0.00     0.050 A 
ATOM     19 CL   UNL d   1       0.036   5.447   2.752  0.00  0.00    -0.082 Cl
ATOM     20  C   UNL d   1       1.023   7.835  -0.283  0.00  0.00     0.035 A 
ATOM     21  C   UNL d   1       1.262   6.946  -1.326  0.00  0.00     0.026 A 
ATOM     22 CL   UNL d   1       1.185   9.527  -0.543  0.00  0.00    -0.084 Cl
ATOM     23  C   UNL d   1       1.130   5.571  -1.116  0.00  0.00     0.033 A 
ENDBRANCH   2  16
TORSDOF 3
