REMARK  9 active torsions:
REMARK  status: ('A' for Active; 'I' for Inactive)
REMARK    1  A    between atoms: N_8  and  C_1 
REMARK    2  A    between atoms: C_13  and  C_2 
REMARK    3  A    between atoms: C_6  and  S_16 
REMARK       I    between atoms: C_9  and  N_7 
REMARK       I    between atoms: C_17  and  N_8 
REMARK    4  A    between atoms: O_25  and  C_9 
REMARK    5  A    between atoms: O_26  and  C_13 
REMARK    6  A    between atoms: S_16  and  C_24 
REMARK    7  A    between atoms: C_24  and  C_17 
REMARK    8  A    between atoms: C_28  and  O_25 
REMARK    9  A    between atoms: C_29  and  O_26 
ROOT
ATOM      1  C   UNL d   1       2.171   1.025  -0.222  0.00  0.00     0.094 A 
ATOM      2  C   UNL d   1       1.055   1.850  -0.222  0.00  0.00     0.080 A 
ATOM      3  C   UNL d   1       0.124  -0.307  -0.071  0.00  0.00     0.010 A 
ATOM      4  C   UNL d   1      -0.148   1.051  -0.097  0.00  0.00    -0.023 A 
ATOM      5  S   UNL d   1       1.791  -0.630  -0.111  0.00  0.00    -0.074 SA
ATOM      6  N   UNL d   1      -2.218  -0.848  -0.283  0.00  0.00    -0.323 N 
ATOM      7  C   UNL d   1      -2.992  -1.397  -1.284  0.00  0.00     0.363 C 
ATOM      8  C   UNL d   1      -0.895  -1.415  -0.016  0.00  0.00     0.174 C 
ATOM      9  C   UNL d   1      -1.574   1.540  -0.087  0.00  0.00     0.061 C 
ATOM     10  C   UNL d   1      -2.531   0.427   0.376  0.00  0.00     0.133 C 
ATOM     11  O   UNL d   1      -2.689  -2.404  -1.914  0.00  0.00    -0.238 OA
ENDROOT
BRANCH   1  12
ATOM     12  N   UNL d   1       3.506   1.389  -0.199  0.00  0.00    -0.320 N 
ATOM     13  C   UNL d   1       4.454   0.824  -1.043  0.00  0.00     0.232 C 
ATOM     14  O   UNL d   1       4.203   0.032  -1.950  0.00  0.00    -0.272 OA
ATOM     15  H   UNL d   1       3.707   2.343   0.086  0.00  0.00     0.169 HD
BRANCH  13  16
ATOM     16  C   UNL d   1       5.861   1.393  -0.875  0.00  0.00     0.185 C 
BRANCH  16  17
ATOM     17  S   UNL d   1       6.264   1.632   0.879  0.00  0.00    -0.084 SA
BRANCH  17  18
ATOM     18  C   UNL d   1       7.909   2.165   0.802  0.00  0.00     0.146 A 
ATOM     19  N   UNL d   1       8.658   2.421   1.923  0.00  0.00    -0.341 N 
ATOM     20  C   UNL d   1       9.904   2.819   1.488  0.00  0.00     0.109 A 
ATOM     21  C   UNL d   1       8.281   2.322   3.314  0.00  0.00     0.158 C 
ATOM     22  C   UNL d   1       9.838   2.778   0.119  0.00  0.00     0.107 A 
ATOM     23  N   UNL d   1       8.588   2.380  -0.298  0.00  0.00    -0.345 N 
ATOM     24  HN  UNL d   1       8.260   2.276  -1.258  1.00  0.00     0.167 HD
ENDBRANCH  17  18
ENDBRANCH  16  17
ENDBRANCH  13  16
ENDBRANCH   1  12
BRANCH   2  25
ATOM     25  C   UNL d   1       1.095   3.300  -0.440  0.00  0.00     0.296 C 
ATOM     26  O   UNL d   1       0.097   4.010  -0.444  0.00  0.00    -0.259 OA
BRANCH  25  27
ATOM     27  O   UNL d   1       2.352   3.755  -0.737  0.00  0.00    -0.318 OA
BRANCH  27  28
ATOM     28  C   UNL d   1       2.428   4.982  -1.476  0.00  0.00     0.174 C 
ATOM     29  C   UNL d   1       2.956   6.097  -0.599  0.00  0.00     0.034 C 
ENDBRANCH  27  28
ENDBRANCH  25  27
ENDBRANCH   2  25
BRANCH   7  30
ATOM     30  O   UNL d   1      -4.112  -0.665  -1.526  0.00  0.00    -0.304 OA
BRANCH  30  31
ATOM     31  C   UNL d   1      -4.794  -0.948  -2.756  0.00  0.00     0.176 C 
ATOM     32  C   UNL d   1      -4.194  -0.068  -3.838  0.00  0.00     0.034 C 
ENDBRANCH  30  31
ENDBRANCH   7  30
TORSDOF 9
