REMARK  3 active torsions:
REMARK  status: ('A' for Active; 'I' for Inactive)
REMARK    1  A    between atoms: N_2  and  C_3 
REMARK    2  A    between atoms: C_17  and  N_4 
REMARK    3  A    between atoms: C_19  and  C_17 
ROOT
ATOM      1  C   UNL d   1       0.340  -0.745   0.002  0.00  0.00     0.137 A 
ATOM      2  C   UNL d   1      -0.849  -1.466  -0.140  0.00  0.00     0.160 A 
ATOM      3  N   UNL d   1       1.495   1.096   0.064  0.00  0.00    -0.254 N 
ATOM      4  C   UNL d   1       0.209   0.637   0.012  0.00  0.00     0.154 A 
ATOM      5  N   UNL d   1       2.374   0.072   0.135  0.00  0.00    -0.018 NA
ATOM      6  N   UNL d   1       1.675  -1.060   0.086  0.00  0.00    -0.277 N 
ATOM      7  HN  UNL d   1       2.064  -2.002   0.107  1.00  0.00     0.184 HD
ATOM      8  N   UNL d   1      -2.029  -0.771  -0.249  0.00  0.00    -0.335 N 
ATOM      9  HN  UNL d   1      -2.912  -1.265  -0.378  1.00  0.00     0.168 HD
ATOM     10  N   UNL d   1      -0.922   1.356  -0.048  0.00  0.00    -0.336 N 
ATOM     11  HN  UNL d   1      -0.956   2.374   0.001  1.00  0.00     0.168 HD
ATOM     12  C   UNL d   1      -1.999   0.572  -0.182  0.00  0.00     0.183 A 
ENDROOT
BRANCH   2  13
ATOM     13  N   UNL d   1      -0.868  -2.886  -0.174  0.00  0.00    -0.242 N 
ATOM     14  N   UNL d   1       0.122  -3.613   0.412  0.00  0.00    -0.297 N 
ATOM     15  C   UNL d   1      -0.302  -4.878   0.380  0.00  0.00     0.024 A 
ATOM     16  HN  UNL d   1       1.001  -3.265   0.795  1.00  0.00     0.187 HD
ATOM     17  C   UNL d   1       0.483  -5.965   1.011  0.00  0.00     0.070 C 
ATOM     18  C   UNL d   1      -1.515  -5.001  -0.320  0.00  0.00     0.052 A 
ATOM     19  C   UNL d   1      -1.851  -3.718  -0.702  0.00  0.00     0.034 A 
ATOM     20  C   UNL d   1      -2.986  -3.292  -1.563  0.00  0.00     0.070 C 
ENDBRANCH   2  13
BRANCH   3  21
ATOM     21  C   UNL d   1       1.948   2.474   0.092  0.00  0.00     0.189 C 
BRANCH  21  22
ATOM     22  C   UNL d   1       2.223   3.008  -1.296  0.00  0.00    -0.017 A 
ATOM     23  C   UNL d   1       1.286   3.747  -2.039  0.00  0.00     0.042 A 
ATOM     24 CL   UNL d   1      -0.247   4.213  -1.397  0.00  0.00    -0.084 Cl
ATOM     25  C   UNL d   1       1.579   4.170  -3.340  0.00  0.00     0.024 A 
ATOM     26  C   UNL d   1       2.817   3.884  -3.913  0.00  0.00     0.002 A 
ATOM     27  C   UNL d   1       3.766   3.176  -3.183  0.00  0.00     0.001 A 
ATOM     28  C   UNL d   1       3.471   2.736  -1.890  0.00  0.00     0.010 A 
ENDBRANCH  21  22
ENDBRANCH   3  21
TORSDOF 3
