REMARK  6 active torsions:
REMARK  status: ('A' for Active; 'I' for Inactive)
REMARK    1  A    between atoms: C_2  and  C_1 
REMARK       I    between atoms: N_5  and  C_2 
REMARK    2  A    between atoms: C_4  and  C_3 
REMARK    3  A    between atoms: C_8  and  N_5 
REMARK    4  A    between atoms: C_23  and  N_5 
REMARK    5  A    between atoms: C_6  and  C_8 
REMARK    6  A    between atoms: O_21  and  C_13 
ROOT
ATOM      1  C   UNL d   1       1.014   2.560  -0.291  0.00  0.00     0.256 C 
ATOM      2  N   UNL d   1       0.412   3.781   0.033  0.00  0.00    -0.344 N 
ATOM      3  O   UNL d   1       2.179   2.488  -0.680  0.00  0.00    -0.267 OA
ENDROOT
BRANCH   1   4
ATOM      4  C   UNL d   1       0.292   1.265  -0.178  0.00  0.00     0.062 A 
ATOM      5  C   UNL d   1      -0.435   0.791   0.921  0.00  0.00     0.069 A 
ATOM      6  C   UNL d   1      -0.962  -0.515   0.856  0.00  0.00     0.073 A 
ATOM      7  C   UNL d   1      -0.704  -1.309  -0.248  0.00  0.00     0.142 A 
ATOM      8  N   UNL d   1       0.012  -0.889  -1.303  0.00  0.00    -0.346 N 
ATOM      9  C   UNL d   1       0.500   0.376  -1.239  0.00  0.00     0.108 A 
ATOM     10  HN  UNL d   1       0.181  -1.490  -2.111  1.00  0.00     0.167 HD
BRANCH   5  11
ATOM     11  C   UNL d   1      -0.705   1.557   2.184  0.00  0.00     0.418 C 
ATOM     12  F   UNL d   1       0.145   2.575   2.445  0.00  0.00    -0.166 F 
ATOM     13  F   UNL d   1      -1.957   2.096   2.191  0.00  0.00    -0.166 F 
ATOM     14  F   UNL d   1      -0.653   0.761   3.290  0.00  0.00    -0.166 F 
ENDBRANCH   5  11
BRANCH   7  15
ATOM     15  O   UNL d   1      -1.222  -2.586  -0.211  0.00  0.00    -0.341 OA
ATOM     16  C   UNL d   1      -0.750  -3.418  -1.266  0.00  0.00     0.211 C 
ENDBRANCH   7  15
ENDBRANCH   1   4
BRANCH   2  17
ATOM     17  C   UNL d   1       1.248   4.992  -0.093  0.00  0.00     0.166 C 
BRANCH  17  18
ATOM     18  C   UNL d   1       2.365   5.230   0.913  0.00  0.00    -0.017 A 
ATOM     19  C   UNL d   1       3.124   6.425   0.850  0.00  0.00     0.063 A 
ATOM     20  C   UNL d   1       4.172   6.658   1.761  0.00  0.00     0.056 A 
ATOM     21 CL   UNL d   1       2.755   7.619  -0.362  0.00  0.00    -0.082 Cl
ATOM     22 CL   UNL d   1       5.133   8.098   1.732  0.00  0.00    -0.083 Cl
ATOM     23  C   UNL d   1       4.476   5.711   2.738  0.00  0.00     0.026 A 
ATOM     24  C   UNL d   1       3.741   4.534   2.812  0.00  0.00     0.002 A 
ATOM     25  C   UNL d   1       2.700   4.299   1.910  0.00  0.00     0.011 A 
ENDBRANCH  17  18
ENDBRANCH   2  17
BRANCH   2  26
ATOM     26  C   UNL d   1      -1.041   3.999   0.021  0.00  0.00     0.122 C 
ATOM     27  C   UNL d   1      -1.552   4.684  -1.241  0.00  0.00     0.026 C 
ENDBRANCH   2  26
TORSDOF 6
