REMARK  5 active torsions:
REMARK  status: ('A' for Active; 'I' for Inactive)
REMARK    1  A    between atoms: C_3  and  C_1 
REMARK    2  A    between atoms: C_6  and  C_1 
REMARK    3  A    between atoms: C_2  and  C_9 
REMARK    4  A    between atoms: O_10  and  C_2 
REMARK    5  A    between atoms: C_9  and  C_6 
ROOT
ATOM      1  C   UNL d   1       2.486  -0.079   0.011  0.00  0.00     0.160 C 
ATOM      2  O   UNL d   1       3.098   0.857   0.522  0.00  0.00    -0.292 OA
ENDROOT
BRANCH   1   3
ATOM      3  C   UNL d   1       0.995  -0.073   0.016  0.00  0.00     0.010 A 
ATOM      4  C   UNL d   1       0.324   1.156   0.023  0.00  0.00     0.015 A 
ATOM      5  C   UNL d   1      -1.074   1.196   0.006  0.00  0.00     0.007 A 
ATOM      6  C   UNL d   1      -1.817   0.009  -0.008  0.00  0.00    -0.062 A 
ATOM      7  C   UNL d   1      -1.143  -1.216   0.008  0.00  0.00     0.007 A 
ATOM      8  C   UNL d   1      -3.317   0.052  -0.034  0.00  0.00     0.048 C 
ATOM      9  C   UNL d   1       0.253  -1.258   0.025  0.00  0.00     0.015 A 
ENDBRANCH   1   3
BRANCH   1  10
ATOM     10  C   UNL d   1       3.209  -1.200  -0.711  0.00  0.00     0.094 C 
BRANCH  10  11
ATOM     11  C   UNL d   1       4.561  -1.506  -0.071  0.00  0.00     0.117 C 
BRANCH  11  12
ATOM     12  C   UNL d   1       5.202  -2.695  -0.741  0.00  0.00     0.139 C 
ATOM     13  O   UNL d   1       4.715  -3.331  -1.661  0.00  0.00    -0.650 OA
BRANCH  12  14
ATOM     14  O   UNL d   1       6.401  -3.009  -0.202  0.00  0.00    -0.776 OA
ATOM     15  H   UNL d   1       6.673  -2.417   0.526  0.00  0.00     0.167 HD
ENDBRANCH  12  14
ENDBRANCH  11  12
ENDBRANCH  10  11
ENDBRANCH   1  10
TORSDOF 5
