REMARK  3 active torsions:
REMARK  status: ('A' for Active; 'I' for Inactive)
REMARK    1  A    between atoms: C_11  and  C_3 
REMARK    2  A    between atoms: C_12  and  C_6 
REMARK    3  A    between atoms: C_16  and  C_10 
ROOT
ATOM      1  N   UNL d   1      -0.089   0.276  -0.092  0.00  0.00    -0.254 N 
ATOM      2  C   UNL d   1       0.600   1.445  -0.053  0.00  0.00     0.160 A 
ATOM      3  C   UNL d   1      -1.446   0.595  -0.081  0.00  0.00     0.082 A 
ATOM      4  N   UNL d   1      -0.143   2.501   0.004  0.00  0.00    -0.333 N 
ATOM      5  HN  UNL d   1       0.153   3.477   0.037  1.00  0.00     0.168 HD
ATOM      6  C   UNL d   1      -1.430   2.002   0.008  0.00  0.00     0.073 A 
ATOM      7  C   UNL d   1       0.695  -0.874  -0.146  0.00  0.00     0.271 A 
ATOM      8  C   UNL d   1       2.127  -0.447  -0.084  0.00  0.00     0.077 A 
ATOM      9  S   UNL d   1       2.304   1.286  -0.086  0.00  0.00    -0.048 SA
ATOM     10  C   UNL d   1       3.139  -1.326  -0.014  0.00  0.00     0.037 C 
ATOM     11  O   UNL d   1       0.246  -2.003  -0.212  0.00  0.00    -0.266 OA
ENDROOT
BRANCH  10  12
ATOM     12  C   UNL d   1       4.552  -0.929   0.057  0.00  0.00    -0.019 A 
ATOM     13  C   UNL d   1       5.149  -0.545   1.256  0.00  0.00     0.099 A 
ATOM     14  N   UNL d   1       6.421  -0.096   1.363  0.00  0.00    -0.374 N 
ATOM     15  C   UNL d   1       7.133  -0.014   0.219  0.00  0.00     0.087 A 
ATOM     16  HN  UNL d   1       6.823   0.166   2.263  1.00  0.00     0.164 HD
ATOM     17  C   UNL d   1       6.634  -0.374  -1.023  0.00  0.00     0.018 A 
ATOM     18  C   UNL d   1       5.324  -0.841  -1.102  0.00  0.00     0.014 A 
ENDBRANCH  10  12
BRANCH   3  19
ATOM     19  C   UNL d   1      -2.559  -0.363  -0.202  0.00  0.00    -0.006 A 
ATOM     20  C   UNL d   1      -2.594  -1.559   0.526  0.00  0.00     0.014 A 
ATOM     21  C   UNL d   1      -3.675  -2.442   0.415  0.00  0.00     0.001 A 
ATOM     22  C   UNL d   1      -4.758  -2.125  -0.400  0.00  0.00     0.000 A 
ATOM     23  C   UNL d   1      -4.749  -0.936  -1.121  0.00  0.00     0.001 A 
ATOM     24  C   UNL d   1      -3.652  -0.073  -1.035  0.00  0.00     0.014 A 
ENDBRANCH   3  19
BRANCH   6  25
ATOM     25  C   UNL d   1      -2.534   2.950   0.089  0.00  0.00    -0.007 A 
ATOM     26  C   UNL d   1      -3.718   2.692   0.788  0.00  0.00     0.014 A 
ATOM     27  C   UNL d   1      -4.706   3.679   0.888  0.00  0.00     0.001 A 
ATOM     28  C   UNL d   1      -4.513   4.934   0.310  0.00  0.00     0.000 A 
ATOM     29  C   UNL d   1      -3.335   5.207  -0.375  0.00  0.00     0.001 A 
ATOM     30  C   UNL d   1      -2.355   4.220  -0.485  0.00  0.00     0.014 A 
ENDBRANCH   6  25
TORSDOF 3
