REMARK  2 active torsions:
REMARK  status: ('A' for Active; 'I' for Inactive)
REMARK    1  A    between atoms: O_12  and  C_7 
REMARK    2  A    between atoms: O_13  and  C_8 
ROOT
ATOM      1  C   UNL d   1       0.307   0.572  -0.046  0.00  0.00     0.092 A 
ATOM      2  O   UNL d   1      -1.031   1.012  -0.076  0.00  0.00    -0.275 OA
ATOM      3  C   UNL d   1       1.299   1.551  -0.045  0.00  0.00     0.077 A 
ATOM      4  C   UNL d   1       0.613  -0.781  -0.010  0.00  0.00     0.001 A 
ATOM      5  C   UNL d   1      -2.085   0.109  -0.049  0.00  0.00     0.288 A 
ATOM      6  C   UNL d   1      -0.469  -1.751  -0.034  0.00  0.00     0.020 A 
ATOM      7  C   UNL d   1       2.650   1.182   0.004  0.00  0.00     0.104 A 
ATOM      8  C   UNL d   1       2.979  -0.189   0.060  0.00  0.00     0.102 A 
ATOM      9  C   UNL d   1      -1.736  -1.323  -0.053  0.00  0.00     0.083 A 
ATOM     10  C   UNL d   1       1.954  -1.155   0.046  0.00  0.00     0.054 A 
ATOM     11  O   UNL d   1      -3.257   0.468  -0.030  0.00  0.00    -0.260 OA
ENDROOT
BRANCH   7  12
ATOM     12  O   UNL d   1       3.669   2.096   0.002  0.00  0.00    -0.353 OA
ATOM     13  C   UNL d   1       3.340   3.478  -0.059  0.00  0.00     0.210 C 
ENDBRANCH   7  12
BRANCH   8  14
ATOM     14  O   UNL d   1       4.221  -0.768   0.131  0.00  0.00    -0.353 OA
ATOM     15  C   UNL d   1       5.370   0.065   0.171  0.00  0.00     0.210 C 
ENDBRANCH   8  14
TORSDOF 2
