REMARK  9 active torsions:
REMARK  status: ('A' for Active; 'I' for Inactive)
REMARK    1  A    between atoms: C_3  and  S_1 
REMARK    2  A    between atoms: N_4  and  S_1 
REMARK    3  A    between atoms: C_2  and  C_10 
REMARK    4  A    between atoms: O_9  and  C_2 
REMARK    5  A    between atoms: C_17  and  N_4 
REMARK    6  A    between atoms: C_18  and  N_4 
REMARK    7  A    between atoms: N_5  and  O_9 
REMARK    8  A    between atoms: C_22  and  C_17 
REMARK    9  A    between atoms: C_21  and  C_18 
ROOT
ATOM      1  C   UNL d   1       1.080  -1.613   0.646  0.00  0.00     0.079 A 
ATOM      2  C   UNL d   1       0.414  -4.088   1.817  0.00  0.00     0.041 A 
ATOM      3  C   UNL d   1       0.875  -2.732  -0.165  0.00  0.00     0.026 A 
ATOM      4  C   UNL d   1       1.089  -1.773   2.037  0.00  0.00     0.026 A 
ATOM      5  C   UNL d   1       0.734  -2.992   2.622  0.00  0.00     0.019 A 
ATOM      6  C   UNL d   1       0.543  -3.966   0.422  0.00  0.00     0.019 A 
ENDROOT
BRANCH   2   7
ATOM      7  C   UNL d   1      -0.148  -5.345   2.390  0.00  0.00     0.315 C 
ATOM      8  O   UNL d   1      -0.696  -6.199   1.707  0.00  0.00    -0.257 OA
BRANCH   7   9
ATOM      9  O   UNL d   1       0.062  -5.448   3.738  0.00  0.00    -0.195 OA
BRANCH   9  10
ATOM     10  N   UNL d   1      -1.151  -5.168   4.410  0.00  0.00    -0.266 N 
ATOM     11  C   UNL d   1      -1.311  -5.895   5.474  0.00  0.00     0.010 C 
ATOM     12  C   UNL d   1      -0.401  -7.003   5.959  0.00  0.00     0.054 C 
ATOM     13  C   UNL d   1      -2.532  -5.655   6.341  0.00  0.00     0.054 C 
ATOM     14  C   UNL d   1      -1.209  -8.294   6.104  0.00  0.00     0.006 C 
ATOM     15  C   UNL d   1      -2.522  -8.119   6.878  0.00  0.00     0.001 C 
ATOM     16  C   UNL d   1      -3.354  -6.937   6.376  0.00  0.00     0.006 C 
ATOM     17  HN  UNL d   1      -1.826  -4.472   4.093  1.00  0.00     0.194 HD
ENDBRANCH   9  10
ENDBRANCH   7   9
ENDBRANCH   2   7
BRANCH   1  18
ATOM     18  S   UNL d   1       1.471  -0.017  -0.081  0.00  0.00     0.260 S 
ATOM     19  O   UNL d   1       1.461  -0.188  -1.516  0.00  0.00    -0.200 OA
ATOM     20  O   UNL d   1       2.676   0.436   0.591  0.00  0.00    -0.200 OA
BRANCH  18  21
ATOM     21  N   UNL d   1       0.168   1.048   0.337  0.00  0.00    -0.307 N 
BRANCH  21  22
ATOM     22  C   UNL d   1      -0.979   1.021  -0.640  0.00  0.00     0.135 C 
BRANCH  22  23
ATOM     23  C   UNL d   1      -2.075   2.066  -0.379  0.00  0.00     0.016 C 
ATOM     24  C   UNL d   1      -3.160   2.025  -1.451  0.00  0.00     0.006 C 
ENDBRANCH  22  23
ENDBRANCH  21  22
BRANCH  21  25
ATOM     25  C   UNL d   1      -0.201   1.232   1.764  0.00  0.00     0.135 C 
BRANCH  25  26
ATOM     26  C   UNL d   1       0.917   1.731   2.678  0.00  0.00     0.016 C 
ATOM     27  C   UNL d   1       1.389   3.133   2.338  0.00  0.00     0.006 C 
ENDBRANCH  25  26
ENDBRANCH  21  25
ENDBRANCH  18  21
ENDBRANCH   1  18
TORSDOF 9
