REMARK  5 active torsions:
REMARK  status: ('A' for Active; 'I' for Inactive)
REMARK    1  A    between atoms: C_5  and  C_1 
REMARK       I    between atoms: C_2  and  N_4 
REMARK    2  A    between atoms: C_3  and  C_2 
REMARK    3  A    between atoms: N_4  and  C_22 
REMARK    4  A    between atoms: C_10  and  O_15 
REMARK    5  A    between atoms: O_15  and  C_16 
ROOT
ATOM      1  N   UNL d   1      -4.221   1.994   2.219  0.00  0.00    -0.344 N 
ATOM      2  HN  UNL d   1      -4.796   2.666   1.711  1.00  0.00     0.167 HD
ATOM      3  C   UNL d   1      -2.902   2.200   2.425  0.00  0.00     0.148 A 
ATOM      4  C   UNL d   1      -4.014  -0.129   3.395  0.00  0.00     0.050 A 
ATOM      5  C   UNL d   1      -4.742   0.851   2.721  0.00  0.00     0.119 A 
ATOM      6  C   UNL d   1      -2.085   1.284   3.068  0.00  0.00     0.059 A 
ATOM      7  C   UNL d   1      -2.651   0.102   3.554  0.00  0.00     0.035 A 
ENDROOT
BRANCH   4   8
ATOM      8  N   UNL d   1      -4.705  -1.260   3.885  0.00  0.00    -0.322 N 
ATOM      9  C   UNL d   1      -4.163  -2.354   4.534  0.00  0.00     0.256 C 
ATOM     10  O   UNL d   1      -2.971  -2.547   4.752  0.00  0.00    -0.267 OA
ATOM     11  H   UNL d   1      -5.711  -1.219   3.797  0.00  0.00     0.169 HD
BRANCH   9  12
ATOM     12  C   UNL d   1      -5.152  -3.355   5.046  0.00  0.00     0.033 A 
ATOM     13  C   UNL d   1      -4.793  -4.103   6.181  0.00  0.00     0.027 A 
ATOM     14  C   UNL d   1      -5.718  -4.986   6.712  0.00  0.00    -0.022 A 
ATOM     15  C   UNL d   1      -5.629  -5.830   7.924  0.00  0.00     0.068 C 
ATOM     16  C   UNL d   1      -6.972  -5.127   6.144  0.00  0.00     0.075 A 
ATOM     17  C   UNL d   1      -6.898  -6.667   7.739  0.00  0.00     0.180 C 
ATOM     18  O   UNL d   1      -7.788  -5.997   6.815  0.00  0.00    -0.350 OA
ATOM     19  C   UNL d   1      -7.345  -4.428   5.015  0.00  0.00     0.038 A 
ATOM     20  C   UNL d   1      -6.418  -3.545   4.450  0.00  0.00     0.020 A 
ENDBRANCH   9  12
ENDBRANCH   4   8
BRANCH   3  21
ATOM     21  O   UNL d   1      -2.287   3.363   1.967  0.00  0.00    -0.294 OA
BRANCH  21  22
ATOM     22  C   UNL d   1      -3.078   4.423   1.590  0.00  0.00     0.078 A 
ATOM     23  C   UNL d   1      -4.184   4.856   2.328  0.00  0.00     0.053 A 
ATOM     24  C   UNL d   1      -4.966   5.929   1.878  0.00  0.00     0.050 A 
ATOM     25  C   UNL d   1      -4.576   6.613   0.715  0.00  0.00     0.016 A 
ATOM     26  C   UNL d   1      -3.437   6.220   0.011  0.00  0.00     0.004 A 
ATOM     27  C   UNL d   1      -2.691   5.124   0.447  0.00  0.00     0.037 A 
BRANCH  24  28
ATOM     28  C   UNL d   1      -6.225   6.318   2.610  0.00  0.00     0.417 C 
ATOM     29  F   UNL d   1      -6.487   5.550   3.705  0.00  0.00    -0.166 F 
ATOM     30  F   UNL d   1      -7.333   6.227   1.821  0.00  0.00    -0.166 F 
ATOM     31  F   UNL d   1      -6.193   7.604   3.058  0.00  0.00    -0.166 F 
ENDBRANCH  24  28
ENDBRANCH  21  22
ENDBRANCH   3  21
TORSDOF 5
