REMARK  6 active torsions:
REMARK  status: ('A' for Active; 'I' for Inactive)
REMARK    1  A    between atoms: C_13  and  N_3 
REMARK    2  A    between atoms: C_12  and  N_10 
REMARK    3  A    between atoms: C_14  and  C_12 
REMARK    4  A    between atoms: C_17  and  C_13 
REMARK    5  A    between atoms: O_19  and  C_14 
REMARK    6  A    between atoms: C_25  and  O_19 
ROOT
ATOM      1  C   UNL d   1       0.202   0.672  -0.149  0.00  0.00     0.155 A 
ATOM      2  C   UNL d   1       0.264  -0.692   0.011  0.00  0.00     0.160 A 
ATOM      3  N   UNL d   1       1.506   1.069  -0.032  0.00  0.00    -0.254 N 
ATOM      4  N   UNL d   1      -0.892   1.450  -0.321  0.00  0.00    -0.335 N 
ATOM      5  HN  UNL d   1      -0.857   2.459  -0.463  1.00  0.00     0.168 HD
ATOM      6  N   UNL d   1       1.556  -1.096   0.151  0.00  0.00    -0.276 N 
ATOM      7  HN  UNL d   1       1.879  -2.057   0.267  1.00  0.00     0.184 HD
ATOM      8  N   UNL d   1       2.324  -0.004   0.111  0.00  0.00    -0.018 NA
ATOM      9  C   UNL d   1      -0.967  -1.446   0.048  0.00  0.00     0.280 A 
ATOM     10  N   UNL d   1      -2.098  -0.612  -0.082  0.00  0.00    -0.299 N 
ATOM     11  C   UNL d   1      -1.995   0.759  -0.285  0.00  0.00     0.188 A 
ATOM     12  O   UNL d   1      -1.032  -2.664   0.190  0.00  0.00    -0.265 OA
ENDROOT
BRANCH   3  13
ATOM     13  C   UNL d   1       2.025   2.422   0.018  0.00  0.00     0.187 C 
BRANCH  13  14
ATOM     14  C   UNL d   1       2.063   2.923   1.445  0.00  0.00    -0.039 A 
ATOM     15  C   UNL d   1       3.216   2.752   2.227  0.00  0.00     0.010 A 
ATOM     16  C   UNL d   1       3.205   3.077   3.585  0.00  0.00     0.024 A 
ATOM     17  C   UNL d   1       2.044   3.578   4.169  0.00  0.00     0.034 A 
ATOM     18  C   UNL d   1       0.906   3.797   3.397  0.00  0.00     0.024 A 
ATOM     19 CL   UNL d   1       2.004   3.896   5.859  0.00  0.00    -0.084 Cl
ATOM     20  C   UNL d   1       0.916   3.476   2.037  0.00  0.00     0.010 A 
ENDBRANCH  13  14
ENDBRANCH   3  13
BRANCH  10  21
ATOM     21  C   UNL d   1      -3.413  -1.232   0.027  0.00  0.00     0.244 C 
BRANCH  21  22
ATOM     22  C   UNL d   1      -3.914  -1.900  -1.243  0.00  0.00     0.277 C 
ATOM     23  O   UNL d   1      -5.001  -2.464  -1.307  0.00  0.00    -0.263 OA
BRANCH  22  24
ATOM     24  O   UNL d   1      -3.007  -1.839  -2.254  0.00  0.00    -0.321 OA
BRANCH  24  25
ATOM     25  C   UNL d   1      -3.172  -2.831  -3.278  0.00  0.00     0.174 C 
ATOM     26  C   UNL d   1      -2.441  -4.086  -2.835  0.00  0.00     0.034 C 
ENDBRANCH  24  25
ENDBRANCH  22  24
ENDBRANCH  21  22
ENDBRANCH  10  21
TORSDOF 6
