REMARK  5 active torsions:
REMARK  status: ('A' for Active; 'I' for Inactive)
REMARK    1  A    between atoms: C_3  and  C_1 
REMARK    2  A    between atoms: C_2  and  C_4 
REMARK       I    between atoms: C_5  and  N_8 
REMARK    3  A    between atoms: C_12  and  C_5 
REMARK    4  A    between atoms: N_8  and  C_7 
REMARK    5  A    between atoms: N_9  and  C_12 
ROOT
ATOM      1  C   UNL d   1       1.564   1.800   5.764  0.00  0.00     0.050 A 
ATOM      2  C   UNL d   1       1.600   1.875   3.331  0.00  0.00     0.050 A 
ATOM      3  C   UNL d   1       1.687   2.523   4.571  0.00  0.00     0.032 A 
ATOM      4  C   UNL d   1       1.200  -0.256   4.480  0.00  0.00     0.036 A 
ATOM      5  C   UNL d   1       1.314   0.416   5.703  0.00  0.00     0.045 A 
ATOM      6  C   UNL d   1       1.392   0.479   3.300  0.00  0.00     0.045 A 
ENDROOT
BRANCH   4   7
ATOM      7  N   UNL d   1       0.855  -1.629   4.368  0.00  0.00    -0.326 N 
ATOM      8  C   UNL d   1       0.434  -2.465   5.402  0.00  0.00     0.250 C 
ATOM      9  O   UNL d   1       0.373  -2.157   6.586  0.00  0.00    -0.271 OA
ATOM     10  H   UNL d   1       0.780  -2.004   3.431  0.00  0.00     0.169 HD
BRANCH   8  11
ATOM     11  C   UNL d   1      -0.003  -3.877   4.957  0.00  0.00     0.375 C 
BRANCH  11  12
ATOM     12  N   UNL d   1      -1.417  -3.911   4.521  0.00  0.00     0.101 N 
ATOM     13  C   UNL d   1      -2.379  -3.507   5.579  0.00  0.00     0.299 C 
ATOM     14  C   UNL d   1      -2.671  -4.580   6.641  0.00  0.00     0.198 C 
ATOM     15  O   UNL d   1      -3.165  -5.774   6.024  0.00  0.00    -0.388 OA
ATOM     16  C   UNL d   1      -2.194  -6.292   5.111  0.00  0.00     0.198 C 
ATOM     17  C   UNL d   1      -1.805  -5.258   4.032  0.00  0.00     0.299 C 
ENDBRANCH  11  12
ENDBRANCH   8  11
ENDBRANCH   4   7
BRANCH   1  18
ATOM     18  C   UNL d   1       1.671   2.481   7.109  0.00  0.00     0.417 C 
ATOM     19  F   UNL d   1       1.937   3.814   7.018  0.00  0.00    -0.166 F 
ATOM     20  F   UNL d   1       2.663   1.958   7.880  0.00  0.00    -0.166 F 
ATOM     21  F   UNL d   1       0.528   2.380   7.840  0.00  0.00    -0.166 F 
ENDBRANCH   1  18
BRANCH   2  22
ATOM     22  C   UNL d   1       1.700   2.666   2.045  0.00  0.00     0.417 C 
ATOM     23  F   UNL d   1       1.633   4.014   2.233  0.00  0.00    -0.166 F 
ATOM     24  F   UNL d   1       2.864   2.437   1.380  0.00  0.00    -0.166 F 
ATOM     25  F   UNL d   1       0.701   2.364   1.171  0.00  0.00    -0.166 F 
ENDBRANCH   2  22
TORSDOF 5
