REMARK  3 active torsions:
REMARK  status: ('A' for Active; 'I' for Inactive)
REMARK    1  A    between atoms: C_5  and  C_1 
REMARK    2  A    between atoms: C_2  and  C_6 
REMARK    3  A    between atoms: N_8  and  C_3 
REMARK       I    between atoms: C_6  and  N_9 
ROOT
ATOM      1  C   UNL d   1      -3.842   5.802   0.860  0.00  0.00     0.260 C 
ATOM      2  N   UNL d   1      -1.291   2.457   0.307  0.00  0.00    -0.266 NA
ATOM      3  N   UNL d   1      -2.957   4.718   0.771  0.00  0.00    -0.345 N 
ATOM      4  C   UNL d   1      -1.478   3.413  -0.801  0.00  0.00     0.117 C 
ATOM      5  C   UNL d   1      -2.550   2.271   1.045  0.00  0.00     0.117 C 
ATOM      6  C   UNL d   1      -1.831   4.791  -0.185  0.00  0.00     0.141 C 
ATOM      7  C   UNL d   1      -2.901   3.598   1.721  0.00  0.00     0.141 C 
ATOM      8  O   UNL d   1      -3.766   6.731   0.058  0.00  0.00    -0.267 OA
ENDROOT
BRANCH   1   9
ATOM      9  C   UNL d   1      -4.874   5.761   1.893  0.00  0.00     0.073 C 
ATOM     10  S   UNL d   1      -6.480   6.168   1.458  0.00  0.00    -0.084 SA
ATOM     11  C   UNL d   1      -7.087   5.805   3.020  0.00  0.00     0.022 C 
ATOM     12  C   UNL d   1      -8.484   5.957   3.344  0.00  0.00     0.021 A 
ATOM     13  C   UNL d   1      -6.072   5.398   3.862  0.00  0.00     0.022 C 
ATOM     14  S   UNL d   1      -9.286   4.876   4.410  0.00  0.00    -0.101 SA
ATOM     15  C   UNL d   1      -9.345   6.946   2.902  0.00  0.00     0.021 A 
ATOM     16  C   UNL d   1     -10.751   5.750   4.309  0.00  0.00     0.050 A 
ATOM     17  C   UNL d   1     -10.646   6.836   3.471  0.00  0.00     0.008 A 
ATOM     18  C   UNL d   1      -4.791   5.460   3.242  0.00  0.00     0.026 C 
ENDBRANCH   1   9
BRANCH   2  19
ATOM     19  C   UNL d   1      -0.669   1.253   0.017  0.00  0.00     0.097 A 
ATOM     20  C   UNL d   1       0.032   0.564   1.018  0.00  0.00     0.086 A 
ATOM     21  C   UNL d   1       0.579  -0.694   0.709  0.00  0.00     0.021 A 
ATOM     22  C   UNL d   1       0.443  -1.219  -0.568  0.00  0.00     0.018 A 
ATOM     23  C   UNL d   1      -0.235  -0.459  -1.498  0.00  0.00     0.089 A 
ATOM     24  N   UNL d   1      -0.781   0.749  -1.234  0.00  0.00    -0.356 N 
ATOM     25  HN  UNL d   1      -1.268   1.270  -1.962  1.00  0.00     0.166 HD
BRANCH  20  26
ATOM     26  C   UNL d   1       0.235   1.093   2.411  0.00  0.00     0.420 C 
ATOM     27  F   UNL d   1      -0.192   2.359   2.671  0.00  0.00    -0.166 F 
ATOM     28  F   UNL d   1      -0.395   0.310   3.338  0.00  0.00    -0.166 F 
ATOM     29  F   UNL d   1       1.552   1.082   2.774  0.00  0.00    -0.166 F 
ENDBRANCH  20  26
ENDBRANCH   2  19
TORSDOF 3
