REMARK  4 active torsions:
REMARK  status: ('A' for Active; 'I' for Inactive)
REMARK    1  A    between atoms: C_14  and  C_1 
REMARK    2  A    between atoms: C_11  and  C_16 
REMARK    3  A    between atoms: O_15  and  C_14 
REMARK    4  A    between atoms: C_17  and  O_15 
ROOT
ATOM      1  C   UNL d   1      -1.691  -0.264   0.056  0.00  0.00    -0.006 A 
ATOM      2  C   UNL d   1      -0.716   0.447  -0.627  0.00  0.00     0.093 A 
ATOM      3  N   UNL d   1       0.086  -0.062  -3.038  0.00  0.00    -0.191 NA
ATOM      4  C   UNL d   1      -0.255   0.170  -1.953  0.00  0.00     0.107 C 
ATOM      5  S   UNL d   1      -0.107   1.758   0.291  0.00  0.00    -0.090 SA
ATOM      6  C   UNL d   1      -1.123   1.393   1.613  0.00  0.00     0.052 A 
ATOM      7  C   UNL d   1      -1.907   0.290   1.366  0.00  0.00     0.018 A 
ENDROOT
BRANCH   1   8
ATOM      8  C   UNL d   1      -2.460  -1.444  -0.469  0.00  0.00     0.216 C 
BRANCH   8   9
ATOM      9  O   UNL d   1      -1.852  -2.672  -0.057  0.00  0.00    -0.347 OA
BRANCH   9  10
ATOM     10  C   UNL d   1      -2.691  -3.755  -0.032  0.00  0.00     0.069 A 
ATOM     11  C   UNL d   1      -3.862  -3.876  -0.782  0.00  0.00     0.037 A 
ATOM     12  C   UNL d   1      -4.683  -4.996  -0.629  0.00  0.00     0.014 A 
ATOM     13  C   UNL d   1      -4.326  -6.016   0.257  0.00  0.00    -0.034 A 
ATOM     14  C   UNL d   1      -3.129  -5.919   0.973  0.00  0.00     0.014 A 
ATOM     15  C   UNL d   1      -2.313  -4.793   0.821  0.00  0.00     0.037 A 
BRANCH  13  16
ATOM     16  C   UNL d   1      -5.206  -7.173   0.426  0.00  0.00     0.045 C 
ATOM     17  C   UNL d   1      -6.201  -7.260   1.332  0.00  0.00     0.125 C 
ATOM     18  C   UNL d   1      -6.495  -6.212   2.251  0.00  0.00     0.110 C 
ATOM     19  C   UNL d   1      -6.999  -8.438   1.369  0.00  0.00     0.110 C 
ATOM     20  N   UNL d   1      -6.740  -5.359   3.000  0.00  0.00    -0.191 NA
ATOM     21  N   UNL d   1      -7.637  -9.408   1.372  0.00  0.00    -0.191 NA
ENDBRANCH  13  16
ENDBRANCH   9  10
ENDBRANCH   8   9
ENDBRANCH   1   8
TORSDOF 4
