REMARK  3 active torsions:
REMARK  status: ('A' for Active; 'I' for Inactive)
REMARK    1  A    between atoms: N_5  and  N_1 
REMARK    2  A    between atoms: C_3  and  C_2 
REMARK    3  A    between atoms: C_9  and  C_3 
ROOT
ATOM      1  C   UNL d   1       4.843  -0.638  -0.326  0.00  0.00     0.198 C 
ATOM      2  N   UNL d   1       3.632  -1.447  -0.195  0.00  0.00    -0.230 N 
ATOM      3  HN  UNL d   1       3.660  -2.466  -0.201  1.00  0.00     0.200 HD
ATOM      4  N   UNL d   1       5.763   0.061  -0.437  0.00  0.00    -0.170 NA
ENDROOT
BRANCH   2   5
ATOM      5  N   UNL d   1       2.356  -0.693  -0.051  0.00  0.00    -0.254 N 
ATOM      6  C   UNL d   1       1.178  -1.376   0.074  0.00  0.00     0.118 A 
ATOM      7  C   UNL d   1      -0.061  -0.662   0.175  0.00  0.00     0.007 A 
ATOM      8  C   UNL d   1      -1.341  -1.234   0.420  0.00  0.00     0.015 C 
ATOM      9  C   UNL d   1      -0.030   0.738   0.017  0.00  0.00    -0.022 A 
ATOM     10  C   UNL d   1      -2.519  -0.490   0.334  0.00  0.00     0.001 C 
ATOM     11  C   UNL d   1      -2.457   0.869   0.071  0.00  0.00     0.001 C 
ATOM     12  C   UNL d   1      -1.217   1.486  -0.048  0.00  0.00     0.012 C 
ATOM     13  C   UNL d   1       1.192   1.390  -0.072  0.00  0.00     0.031 A 
ATOM     14  C   UNL d   1       2.368   0.660  -0.075  0.00  0.00     0.118 A 
BRANCH   6  15
ATOM     15  C   UNL d   1       1.223  -2.880   0.113  0.00  0.00     0.211 C 
ATOM     16  O   UNL d   1       2.030  -3.449   0.846  0.00  0.00    -0.285 OA
BRANCH  15  17
ATOM     17  C   UNL d   1       0.267  -3.738  -0.659  0.00  0.00     0.017 A 
ATOM     18  C   UNL d   1       0.034  -5.040  -0.183  0.00  0.00     0.017 A 
ATOM     19  C   UNL d   1      -0.897  -5.876  -0.807  0.00  0.00     0.025 A 
ATOM     20  C   UNL d   1      -1.605  -5.414  -1.912  0.00  0.00     0.034 A 
ATOM     21  C   UNL d   1      -1.381  -4.128  -2.402  0.00  0.00     0.025 A 
ATOM     22 CL   UNL d   1      -2.757  -6.436  -2.679  0.00  0.00    -0.084 Cl
ATOM     23  C   UNL d   1      -0.431  -3.296  -1.792  0.00  0.00     0.017 A 
ENDBRANCH  15  17
ENDBRANCH   6  15
ENDBRANCH   2   5
TORSDOF 3
