REMARK  7 active torsions:
REMARK  status: ('A' for Active; 'I' for Inactive)
REMARK    1  A    between atoms: C_4  and  C_1 
REMARK    2  A    between atoms: O_10  and  C_2 
REMARK    3  A    between atoms: C_9  and  C_4 
REMARK    4  A    between atoms: C_16  and  C_4 
REMARK    5  A    between atoms: N_5  and  C_11 
REMARK    6  A    between atoms: C_14  and  O_10 
REMARK    7  A    between atoms: C_19  and  C_16 
ROOT
ATOM      1  C   UNL d   1      -1.863  -1.332  -0.035  0.00  0.00     0.061 A 
ATOM      2  C   UNL d   1      -0.874  -1.383  -0.951  0.00  0.00     0.105 A 
ATOM      3  C   UNL d   1      -1.784  -0.344   1.072  0.00  0.00     0.298 A 
ATOM      4  O   UNL d   1      -0.646   0.443   1.160  0.00  0.00    -0.274 OA
ATOM      5  C   UNL d   1       0.271  -0.466  -0.898  0.00  0.00     0.033 A 
ATOM      6  C   UNL d   1       0.359   0.405   0.182  0.00  0.00     0.092 A 
ATOM      7  O   UNL d   1      -2.691  -0.217   1.889  0.00  0.00    -0.259 OA
ATOM      8  C   UNL d   1       1.292  -0.420  -1.858  0.00  0.00     0.017 A 
ATOM      9  C   UNL d   1       1.428   1.287   0.341  0.00  0.00     0.038 A 
ATOM     10  C   UNL d   1       2.375   0.455  -1.710  0.00  0.00     0.001 A 
ATOM     11  C   UNL d   1       2.445   1.306  -0.609  0.00  0.00     0.003 A 
ENDROOT
BRANCH   1  12
ATOM     12  C   UNL d   1      -3.090  -2.255  -0.050  0.00  0.00     0.067 C 
BRANCH  12  13
ATOM     13  C   UNL d   1      -3.154  -3.189   1.189  0.00  0.00    -0.047 A 
ATOM     14  C   UNL d   1      -1.976  -3.705   1.767  0.00  0.00     0.043 A 
ATOM     15  C   UNL d   1      -2.035  -4.521   2.913  0.00  0.00     0.103 A 
ATOM     16  C   UNL d   1      -3.264  -4.881   3.474  0.00  0.00     0.036 A 
ATOM     17  C   UNL d   1      -4.435  -4.420   2.888  0.00  0.00     0.003 A 
ATOM     18  C   UNL d   1      -4.378  -3.586   1.766  0.00  0.00     0.008 A 
BRANCH  15  19
ATOM     19  N   UNL d   1      -0.796  -4.987   3.548  0.00  0.00    -0.116 N 
ATOM     20  O   UNL d   1       0.280  -4.563   3.103  0.00  0.00    -0.532 OA
ATOM     21  O   UNL d   1      -0.898  -5.774   4.501  0.00  0.00    -0.532 OA
ENDBRANCH  15  19
ENDBRANCH  12  13
BRANCH  12  22
ATOM     22  C   UNL d   1      -4.416  -1.486  -0.285  0.00  0.00     0.092 C 
BRANCH  22  23
ATOM     23  C   UNL d   1      -4.497  -0.648  -1.545  0.00  0.00     0.124 C 
ATOM     24  O   UNL d   1      -3.597  -0.599  -2.377  0.00  0.00    -0.298 OA
ATOM     25  C   UNL d   1      -5.811   0.057  -1.786  0.00  0.00     0.091 C 
ENDBRANCH  22  23
ENDBRANCH  12  22
ENDBRANCH   1  12
BRANCH   2  26
ATOM     26  O   UNL d   1      -0.929  -2.258  -2.055  0.00  0.00    -0.277 OA
BRANCH  26  27
ATOM     27  C   UNL d   1      -0.107  -3.353  -1.966  0.00  0.00     0.260 C 
ATOM     28  O   UNL d   1       0.550  -3.692  -0.992  0.00  0.00    -0.265 OA
ATOM     29  C   UNL d   1      -0.157  -4.122  -3.254  0.00  0.00     0.126 C 
ENDBRANCH  26  27
ENDBRANCH   2  26
TORSDOF 7
