REMARK  3 active torsions:
REMARK  status: ('A' for Active; 'I' for Inactive)
REMARK       I    between atoms: C_5  and  N_1 
REMARK    1  A    between atoms: C_9  and  C_4 
REMARK    2  A    between atoms: C_12  and  C_5 
REMARK    3  A    between atoms: C_6  and  C_11 
ROOT
ATOM      1  N   UNL d   1       0.892  -0.725  -0.009  0.00  0.00    -0.231 N 
ATOM      2  N   UNL d   1       0.871   0.583  -0.378  0.00  0.00    -0.290 N 
ATOM      3  HN  UNL d   1       1.656   1.151  -0.696  1.00  0.00     0.187 HD
ATOM      4  C   UNL d   1      -0.404   0.962  -0.232  0.00  0.00     0.067 A 
ATOM      5  C   UNL d   1       2.101  -1.452  -0.015  0.00  0.00     0.276 C 
ATOM      6  C   UNL d   1      -1.208  -0.094   0.252  0.00  0.00     0.051 A 
ATOM      7  C   UNL d   1      -0.364  -1.175   0.336  0.00  0.00     0.122 A 
ATOM      8  O   UNL d   1       2.026  -2.678   0.041  0.00  0.00    -0.265 OA
ENDROOT
BRANCH   5   9
ATOM      9  C   UNL d   1       3.443  -0.812  -0.036  0.00  0.00     0.034 A 
ATOM     10  C   UNL d   1       3.681   0.352   0.704  0.00  0.00     0.018 A 
ATOM     11  C   UNL d   1       4.957   0.916   0.737  0.00  0.00     0.017 A 
ATOM     12  C   UNL d   1       6.016   0.320   0.038  0.00  0.00     0.048 A 
ATOM     13  C   UNL d   1       5.773  -0.855  -0.695  0.00  0.00     0.017 A 
ATOM     14  C   UNL d   1       4.494  -1.425  -0.724  0.00  0.00     0.018 A 
BRANCH  12  15
ATOM     15  C   UNL d   1       7.402   0.921   0.078  0.00  0.00     0.417 C 
ATOM     16  F   UNL d   1       7.486   2.042   0.848  0.00  0.00    -0.166 F 
ATOM     17  F   UNL d   1       8.329   0.058   0.576  0.00  0.00    -0.166 F 
ATOM     18  F   UNL d   1       7.848   1.282  -1.156  0.00  0.00    -0.166 F 
ENDBRANCH  12  15
ENDBRANCH   5   9
BRANCH   4  19
ATOM     19  C   UNL d   1      -0.850   2.354  -0.566  0.00  0.00     0.033 A 
ATOM     20  S   UNL d   1      -2.419   2.966  -0.277  0.00  0.00    -0.100 SA
ATOM     21  C   UNL d   1      -2.017   4.492  -0.939  0.00  0.00     0.050 A 
ATOM     22  C   UNL d   1      -0.715   4.533  -1.387  0.00  0.00     0.008 A 
ATOM     23  C   UNL d   1      -0.037   3.299  -1.162  0.00  0.00     0.021 A 
ENDBRANCH   4  19
TORSDOF 3
