REMARK  5 active torsions:
REMARK  status: ('A' for Active; 'I' for Inactive)
REMARK    1  A    between atoms: N_3  and  C_1 
REMARK    2  A    between atoms: N_7  and  C_1 
REMARK    3  A    between atoms: C_2  and  N_3 
REMARK    4  A    between atoms: C_11  and  N_7 
REMARK    5  A    between atoms: C_13  and  C_11 
ROOT
ATOM      1  N   UNL d   1       6.022   3.768   5.644  0.00  0.00    -0.191 NA
ATOM      2  C   UNL d   1       5.525   3.034   4.895  0.00  0.00     0.099 C 
ATOM      3  C   UNL d   1       4.914   2.114   3.974  0.00  0.00     0.044 A 
ATOM      4  C   UNL d   1       3.752   0.295   2.159  0.00  0.00    -0.040 A 
ATOM      5  C   UNL d   1       4.695   0.787   4.353  0.00  0.00     0.023 A 
ATOM      6  C   UNL d   1       4.551   2.531   2.689  0.00  0.00     0.023 A 
ATOM      7  C   UNL d   1       4.124  -0.113   3.451  0.00  0.00     0.010 A 
ATOM      8  C   UNL d   1       3.978   1.627   1.787  0.00  0.00     0.010 A 
ENDROOT
BRANCH   4   9
ATOM      9  C   UNL d   1       3.249  -0.748   1.194  0.00  0.00     0.160 C 
BRANCH   9  10
ATOM     10  N   UNL d   1       2.432  -0.264   0.099  0.00  0.00    -0.363 N 
ATOM     11  H   UNL d   1       2.803  -0.455  -0.825  0.00  0.00     0.162 HD
BRANCH  10  12
ATOM     12  C   UNL d   1       1.075  -0.107   0.067  0.00  0.00     0.172 C 
ATOM     13  S   UNL d   1       0.357  -0.353  -1.428  0.00  0.00    -0.041 SA
BRANCH  12  14
ATOM     14  N   UNL d   1       0.465   0.196   1.265  0.00  0.00    -0.332 N 
ATOM     15  H   UNL d   1       0.925  -0.184   2.077  0.00  0.00     0.168 HD
BRANCH  14  16
ATOM     16  C   UNL d   1      -0.901   0.567   1.431  0.00  0.00     0.062 C 
ATOM     17  C   UNL d   1      -1.481   1.625   0.693  0.00  0.00     0.061 C 
ATOM     18 CL   UNL d   1      -0.527   2.793  -0.171  0.00  0.00    -0.082 Cl
ATOM     19  C   UNL d   1      -2.854   1.881   0.759  0.00  0.00     0.026 C 
ATOM     20  C   UNL d   1      -3.662   1.128   1.601  0.00  0.00     0.002 C 
ATOM     21  C   UNL d   1      -3.085   0.161   2.422  0.00  0.00     0.009 C 
ATOM     22  C   UNL d   1      -1.701  -0.111   2.377  0.00  0.00    -0.034 C 
ATOM     23  C   UNL d   1      -1.202  -1.188   3.301  0.00  0.00     0.050 C 
ENDBRANCH  14  16
ENDBRANCH  12  14
ENDBRANCH  10  12
ENDBRANCH   9  10
ENDBRANCH   4   9
TORSDOF 5
