REMARK  7 active torsions:
REMARK  status: ('A' for Active; 'I' for Inactive)
REMARK    1  A    between atoms: C_10  and  N_1 
REMARK    2  A    between atoms: C_9  and  C_2 
REMARK    3  A    between atoms: C_16  and  C_8 
REMARK    4  A    between atoms: C_11  and  C_9 
REMARK    5  A    between atoms: C_13  and  C_9 
REMARK    6  A    between atoms: N_12  and  C_10 
REMARK    7  A    between atoms: N_14  and  C_13 
ROOT
ATOM      1  N   UNL d   1      -0.651   1.177   0.045  0.00  0.00    -0.226 N 
ATOM      2  C   UNL d   1      -0.497  -1.251   0.078  0.00  0.00     0.091 C 
ATOM      3  C   UNL d   1      -1.359  -0.001  -0.030  0.00  0.00     0.287 C 
ATOM      4  N   UNL d   1       0.793  -1.177   0.040  0.00  0.00    -0.339 N 
ATOM      5  HN  UNL d   1       1.364  -2.022   0.041  1.00  0.00     0.167 HD
ATOM      6  N   UNL d   1       0.730   1.189   0.008  0.00  0.00    -0.278 N 
ATOM      7  HN  UNL d   1       1.236   2.075  -0.013  1.00  0.00     0.189 HD
ATOM      8  C   UNL d   1       1.379   0.066  -0.002  0.00  0.00     0.131 C 
ATOM      9  O   UNL d   1      -2.565  -0.119  -0.175  0.00  0.00    -0.264 OA
ENDROOT
BRANCH   2  10
ATOM     10  C   UNL d   1      -1.238  -2.587   0.137  0.00  0.00     0.104 C 
BRANCH  10  11
ATOM     11  C   UNL d   1      -1.522  -3.092  -1.285  0.00  0.00    -0.025 A 
ATOM     12  C   UNL d   1      -2.823  -3.347  -1.758  0.00  0.00     0.041 A 
ATOM     13 CL   UNL d   1      -4.221  -3.226  -0.749  0.00  0.00    -0.084 Cl
ATOM     14  C   UNL d   1      -3.039  -3.729  -3.089  0.00  0.00     0.024 A 
ATOM     15  C   UNL d   1      -1.968  -3.877  -3.966  0.00  0.00     0.002 A 
ATOM     16  C   UNL d   1      -0.672  -3.663  -3.509  0.00  0.00     0.001 A 
ATOM     17  C   UNL d   1      -0.450  -3.284  -2.183  0.00  0.00     0.010 A 
ENDBRANCH  10  11
BRANCH  10  18
ATOM     18  C   UNL d   1      -0.531  -3.684   0.986  0.00  0.00     0.288 C 
BRANCH  18  19
ATOM     19  N   UNL d   1      -0.289  -3.395   2.426  0.00  0.00     0.089 N 
ATOM     20  C   UNL d   1      -1.545  -3.211   3.175  0.00  0.00     0.272 C 
ATOM     21  C   UNL d   1      -1.290  -2.933   4.660  0.00  0.00     0.030 C 
ATOM     22  C   UNL d   1      -0.472  -4.045   5.302  0.00  0.00     0.003 C 
ATOM     23  C   UNL d   1       0.809  -4.261   4.509  0.00  0.00     0.030 C 
ATOM     24  C   UNL d   1       0.512  -4.488   3.023  0.00  0.00     0.272 C 
ENDBRANCH  18  19
ENDBRANCH  10  18
ENDBRANCH   2  10
BRANCH   1  25
ATOM     25  C   UNL d   1      -1.341   2.476  -0.006  0.00  0.00     0.424 C 
BRANCH  25  26
ATOM     26  N   UNL d   1      -1.698   3.026   1.321  0.00  0.00     0.107 N 
ATOM     27  C   UNL d   1      -0.532   3.245   2.174  0.00  0.00     0.274 C 
ATOM     28  C   UNL d   1      -0.834   3.550   3.641  0.00  0.00     0.030 C 
ATOM     29  C   UNL d   1      -1.859   2.590   4.220  0.00  0.00     0.003 C 
ATOM     30  C   UNL d   1      -3.127   2.649   3.386  0.00  0.00     0.030 C 
ATOM     31  C   UNL d   1      -2.855   2.356   1.911  0.00  0.00     0.274 C 
ENDBRANCH  25  26
ENDBRANCH   1  25
BRANCH   8  32
ATOM     32  C   UNL d   1       2.878   0.064  -0.023  0.00  0.00     0.009 A 
ATOM     33  C   UNL d   1       3.588  -1.143  -0.080  0.00  0.00     0.015 A 
ATOM     34  C   UNL d   1       4.983  -1.142  -0.039  0.00  0.00     0.001 A 
ATOM     35  C   UNL d   1       5.676   0.065   0.053  0.00  0.00     0.000 A 
ATOM     36  C   UNL d   1       4.978   1.270   0.093  0.00  0.00     0.001 A 
ATOM     37  C   UNL d   1       3.580   1.274   0.050  0.00  0.00     0.015 A 
ENDBRANCH   8  32
TORSDOF 7
