REMARK  6 active torsions:
REMARK  status: ('A' for Active; 'I' for Inactive)
REMARK    1  A    between atoms: C_2  and  S_1 
REMARK    2  A    between atoms: C_5  and  S_1 
REMARK    3  A    between atoms: C_3  and  C_2 
REMARK    4  A    between atoms: C_4  and  C_2 
REMARK    5  A    between atoms: C_6  and  C_3 
REMARK    6  A    between atoms: O_17  and  C_4 
ROOT
ATOM      1  C   UNL d   1       0.455   0.910  -1.203  0.00  0.00     0.217 C 
ENDROOT
BRANCH   1   2
ATOM      2  S   UNL d   1       0.917   0.168   0.344  0.00  0.00     0.189 S 
ATOM      3  O   UNL d   1       0.116   0.753   1.405  0.00  0.00    -0.222 OA
ATOM      4  O   UNL d   1       2.365   0.152   0.452  0.00  0.00    -0.222 OA
BRANCH   2   5
ATOM      5  C   UNL d   1       0.432  -1.545   0.240  0.00  0.00     0.060 A 
ATOM      6  C   UNL d   1       1.315  -2.481  -0.309  0.00  0.00     0.025 A 
ATOM      7  C   UNL d   1       0.986  -3.840  -0.271  0.00  0.00     0.025 A 
ATOM      8  C   UNL d   1      -0.210  -4.251   0.320  0.00  0.00     0.034 A 
ATOM      9  C   UNL d   1      -1.084  -3.316   0.874  0.00  0.00     0.025 A 
ATOM     10 CL   UNL d   1      -0.596  -5.925   0.392  0.00  0.00    -0.084 Cl
ATOM     11  C   UNL d   1      -0.761  -1.959   0.844  0.00  0.00     0.025 A 
ENDBRANCH   2   5
ENDBRANCH   1   2
BRANCH   1  12
ATOM     12  C   UNL d   1      -1.046   0.772  -1.496  0.00  0.00     0.071 C 
BRANCH  12  13
ATOM     13  C   UNL d   1      -1.497   1.422  -2.794  0.00  0.00    -0.035 A 
ATOM     14  C   UNL d   1      -1.144   0.935  -4.065  0.00  0.00     0.042 A 
ATOM     15  C   UNL d   1      -1.517   1.622  -5.224  0.00  0.00     0.048 A 
ATOM     16 CL   UNL d   1      -0.252  -0.531  -4.258  0.00  0.00    -0.084 Cl
ATOM     17  C   UNL d   1      -2.271   2.788  -5.125  0.00  0.00     0.035 A 
ATOM     18  C   UNL d   1      -2.672   3.264  -3.882  0.00  0.00     0.024 A 
ATOM     19 CL   UNL d   1      -2.703   3.651  -6.550  0.00  0.00    -0.084 Cl
ATOM     20  C   UNL d   1      -2.288   2.584  -2.724  0.00  0.00     0.010 A 
ENDBRANCH  12  13
ENDBRANCH   1  12
BRANCH   1  21
ATOM     21  C   UNL d   1       0.871   2.353  -1.072  0.00  0.00     0.277 C 
ATOM     22  O   UNL d   1       0.120   3.281  -0.801  0.00  0.00    -0.264 OA
BRANCH  21  23
ATOM     23  O   UNL d   1       2.205   2.488  -1.309  0.00  0.00    -0.325 OA
ATOM     24  C   UNL d   1       2.726   3.793  -1.043  0.00  0.00     0.213 C 
ENDBRANCH  21  23
ENDBRANCH   1  21
TORSDOF 6
