REMARK  8 active torsions:
REMARK  status: ('A' for Active; 'I' for Inactive)
REMARK    1  A    between atoms: C_7  and  C_2 
REMARK    2  A    between atoms: S_8  and  C_14 
REMARK    3  A    between atoms: C_16  and  S_8 
REMARK    4  A    between atoms: O_11  and  C_13 
REMARK    5  A    between atoms: C_15  and  O_11 
REMARK    6  A    between atoms: C_12  and  C_15 
REMARK    7  A    between atoms: C_14  and  C_12 
REMARK    8  A    between atoms: O_19  and  C_12 
ROOT
ATOM      1  O   UNL d   1       5.899  -3.904  -0.333  0.00  0.00    -0.349 OA
ENDROOT
BRANCH   1   2
ATOM      2  C   UNL d   1       4.874  -3.032  -0.575  0.00  0.00     0.068 A 
ATOM      3  C   UNL d   1       4.887  -1.881   0.214  0.00  0.00     0.037 A 
ATOM      4  C   UNL d   1       3.907  -0.895   0.059  0.00  0.00     0.016 A 
ATOM      5  C   UNL d   1       2.893  -1.046  -0.896  0.00  0.00    -0.008 A 
ATOM      6  C   UNL d   1       2.871  -2.215  -1.668  0.00  0.00     0.016 A 
ATOM      7  C   UNL d   1       3.855  -3.200  -1.512  0.00  0.00     0.037 A 
BRANCH   5   8
ATOM      8  C   UNL d   1       1.874  -0.025  -1.103  0.00  0.00     0.063 A 
ATOM      9  N   UNL d   1       0.616  -0.349  -1.602  0.00  0.00    -0.292 N 
ATOM     10  N   UNL d   1      -0.158   0.717  -1.729  0.00  0.00    -0.061 NA
ATOM     11  HN  UNL d   1       0.324  -1.297  -1.841  1.00  0.00     0.183 HD
ATOM     12  S   UNL d   1       0.606   2.131  -1.274  0.00  0.00    -0.010 SA
ATOM     13  C   UNL d   1       2.066   1.327  -0.866  0.00  0.00     0.096 A 
ENDBRANCH   5   8
ENDBRANCH   1   2
BRANCH   1  14
ATOM     14  C   UNL d   1       5.991  -5.036  -1.193  0.00  0.00     0.208 C 
BRANCH  14  15
ATOM     15  C   UNL d   1       7.250  -5.854  -0.871  0.00  0.00     0.152 C 
BRANCH  15  16
ATOM     16  C   UNL d   1       7.256  -6.319   0.597  0.00  0.00     0.113 C 
BRANCH  16  17
ATOM     17  S   UNL d   1       8.783  -7.249   0.991  0.00  0.00    -0.127 SA
BRANCH  17  18
ATOM     18  C   UNL d   1       8.587  -7.680   2.718  0.00  0.00     0.000 A 
ATOM     19  C   UNL d   1       7.484  -7.345   3.508  0.00  0.00     0.018 A 
ATOM     20  C   UNL d   1       7.426  -7.730   4.853  0.00  0.00     0.001 A 
ATOM     21  C   UNL d   1       8.471  -8.454   5.423  0.00  0.00     0.000 A 
ATOM     22  C   UNL d   1       9.575  -8.793   4.649  0.00  0.00     0.001 A 
ATOM     23  C   UNL d   1       9.633  -8.409   3.306  0.00  0.00     0.018 A 
ENDBRANCH  17  18
ENDBRANCH  16  17
ENDBRANCH  15  16
BRANCH  15  24
ATOM     24  O   UNL d   1       7.297  -6.959  -1.783  0.00  0.00    -0.393 OA
ATOM     25  H   UNL d   1       6.673  -7.639  -1.475  0.00  0.00     0.210 HD
ENDBRANCH  15  24
ENDBRANCH  14  15
ENDBRANCH   1  14
TORSDOF 8
