REMARK  4 active torsions:
REMARK  status: ('A' for Active; 'I' for Inactive)
REMARK    1  A    between atoms: C_5  and  C_1 
REMARK       I    between atoms: N_9  and  C_5 
REMARK    2  A    between atoms: C_7  and  O_10 
REMARK    3  A    between atoms: C_17  and  N_9 
REMARK    4  A    between atoms: O_10  and  C_13 
ROOT
ATOM      1  N   UNL d   1       5.324   0.717  -0.698  0.00  0.00    -0.344 N 
ATOM      2  HN  UNL d   1       6.028   1.019  -1.372  1.00  0.00     0.167 HD
ATOM      3  C   UNL d   1       4.936   1.512   0.322  0.00  0.00     0.148 A 
ATOM      4  C   UNL d   1       3.731  -0.962   0.068  0.00  0.00     0.050 A 
ATOM      5  C   UNL d   1       4.733  -0.503  -0.786  0.00  0.00     0.119 A 
ATOM      6  C   UNL d   1       3.950   1.158   1.228  0.00  0.00     0.059 A 
ATOM      7  C   UNL d   1       3.341  -0.097   1.096  0.00  0.00     0.035 A 
ENDROOT
BRANCH   4   8
ATOM      8  N   UNL d   1       3.057  -2.203  -0.063  0.00  0.00    -0.320 N 
ATOM      9  C   UNL d   1       3.350  -3.199  -0.984  0.00  0.00     0.274 C 
ATOM     10  O   UNL d   1       4.362  -3.192  -1.675  0.00  0.00    -0.266 OA
ATOM     11  H   UNL d   1       2.280  -2.359   0.559  0.00  0.00     0.169 HD
BRANCH   9  12
ATOM     12  C   UNL d   1       2.366  -4.269  -1.085  0.00  0.00     0.120 A 
ATOM     13  N   UNL d   1       2.494  -5.385  -1.888  0.00  0.00    -0.291 N 
ATOM     14  N   UNL d   1       1.402  -6.176  -1.892  0.00  0.00    -0.303 N 
ATOM     15  C   UNL d   1       3.611  -5.823  -2.695  0.00  0.00     0.178 C 
ATOM     16  C   UNL d   1       0.570  -5.606  -1.023  0.00  0.00     0.024 A 
ATOM     17  HN  UNL d   1       1.247  -7.023  -2.440  1.00  0.00     0.186 HD
ATOM     18  C   UNL d   1       1.121  -4.421  -0.489  0.00  0.00     0.063 A 
ATOM     19  C   UNL d   1      -0.742  -6.237  -0.744  0.00  0.00     0.070 C 
ENDBRANCH   9  12
ENDBRANCH   4   8
BRANCH   3  20
ATOM     20  O   UNL d   1       5.573   2.734   0.529  0.00  0.00    -0.290 OA
BRANCH  20  21
ATOM     21  C   UNL d   1       6.800   2.901  -0.082  0.00  0.00     0.121 A 
ATOM     22  C   UNL d   1       6.979   3.983  -0.949  0.00  0.00     0.069 A 
ATOM     23 CL   UNL d   1       5.726   5.143  -1.221  0.00  0.00    -0.081 Cl
ATOM     24  C   UNL d   1       8.201   4.178  -1.607  0.00  0.00     0.027 A 
ATOM     25  C   UNL d   1       9.254   3.288  -1.401  0.00  0.00     0.003 A 
ATOM     26  C   UNL d   1       9.102   2.236  -0.498  0.00  0.00     0.027 A 
ATOM     27  C   UNL d   1       7.895   2.060   0.187  0.00  0.00     0.069 A 
ATOM     28 CL   UNL d   1       7.856   0.837   1.411  0.00  0.00    -0.081 Cl
ENDBRANCH  20  21
ENDBRANCH   3  20
TORSDOF 4
