REMARK  4 active torsions:
REMARK  status: ('A' for Active; 'I' for Inactive)
REMARK    1  A    between atoms: C_8  and  C_1 
REMARK    2  A    between atoms: C_4  and  C_6 
REMARK       I    between atoms: C_6  and  N_15 
REMARK    3  A    between atoms: C_21  and  C_7 
REMARK    4  A    between atoms: N_15  and  C_21 
ROOT
ATOM      1  C   UNL d   1      -0.359  -0.485   0.817  0.00  0.00     0.091 A 
ATOM      2  N   UNL d   1       0.664   0.302   1.102  0.00  0.00    -0.351 N 
ATOM      3  HN  UNL d   1       0.941   0.577   2.044  1.00  0.00     0.166 HD
ATOM      4  S   UNL d   1      -0.579  -0.791  -0.866  0.00  0.00    -0.081 SA
ATOM      5  C   UNL d   1       1.311   0.703  -0.065  0.00  0.00     0.034 A 
ATOM      6  C   UNL d   1       0.766   0.194  -1.227  0.00  0.00     0.078 A 
ENDROOT
BRANCH   5   7
ATOM      7  C   UNL d   1       2.482   1.628   0.017  0.00  0.00     0.180 C 
BRANCH   7   8
ATOM      8  N   UNL d   1       3.701   0.863   0.131  0.00  0.00    -0.350 N 
ATOM      9  C   UNL d   1       4.454   0.505  -0.964  0.00  0.00     0.277 C 
ATOM     10  O   UNL d   1       4.119   0.798  -2.111  0.00  0.00    -0.265 OA
ATOM     11  H   UNL d   1       3.945   0.487   1.038  0.00  0.00     0.163 HD
BRANCH   9  12
ATOM     12  C   UNL d   1       5.660  -0.225  -0.661  0.00  0.00     0.167 A 
ATOM     13  O   UNL d   1       6.011  -0.434   0.642  0.00  0.00    -0.233 OA
ATOM     14  N   UNL d   1       7.212  -1.121   0.697  0.00  0.00    -0.272 N 
ATOM     15  C   UNL d   1       7.564  -1.319  -0.575  0.00  0.00     0.117 A 
ATOM     16  HN  UNL d   1       7.720  -1.414   1.532  1.00  0.00     0.194 HD
ATOM     17  C   UNL d   1       6.626  -0.780  -1.471  0.00  0.00     0.064 A 
ENDBRANCH   9  12
ENDBRANCH   7   8
ENDBRANCH   5   7
BRANCH   1  18
ATOM     18  C   UNL d   1      -1.220  -1.027   1.849  0.00  0.00     0.038 A 
ATOM     19  S   UNL d   1      -2.525  -2.103   1.528  0.00  0.00    -0.099 SA
ATOM     20  C   UNL d   1      -2.951  -2.212   3.177  0.00  0.00     0.050 A 
ATOM     21  C   UNL d   1      -2.127  -1.452   3.973  0.00  0.00     0.008 A 
ATOM     22  C   UNL d   1      -1.132  -0.771   3.209  0.00  0.00     0.022 A 
ENDBRANCH   1  18
TORSDOF 4
