REMARK  1 active torsions:
REMARK  status: ('A' for Active; 'I' for Inactive)
REMARK    1  A    between atoms: C_2  and  N_1 
ROOT
ATOM      1  C   UNL d   1       0.022   2.332  -0.030  0.00  0.00     0.046 A 
ATOM      2  C   UNL d   1      -0.654   3.074   0.951  0.00  0.00     0.037 A 
ATOM      3  C   UNL d   1      -0.619   4.482   0.980  0.00  0.00    -0.054 A 
ATOM      4  C   UNL d   1       0.724   3.046  -1.009  0.00  0.00     0.031 A 
ATOM      5  C   UNL d   1       0.076   5.177  -0.024  0.00  0.00    -0.056 A 
ATOM      6  C   UNL d   1       0.742   4.445  -1.013  0.00  0.00     0.009 A 
ATOM      7  C   UNL d   1      -1.309   5.211   2.102  0.00  0.00     0.049 C 
ATOM      8  C   UNL d   1       0.137   6.679  -0.049  0.00  0.00     0.049 C 
ENDROOT
BRANCH   1   9
ATOM      9  N   UNL d   1       0.006   0.908  -0.024  0.00  0.00    -0.245 N 
ATOM     10  C   UNL d   1      -0.901   0.123   0.634  0.00  0.00     0.255 A 
ATOM     11  C   UNL d   1      -0.540  -1.276   0.385  0.00  0.00     0.080 A 
ATOM     12  O   UNL d   1      -1.887   0.408   1.295  0.00  0.00    -0.268 OA
ATOM     13  C   UNL d   1       0.540  -1.288  -0.390  0.00  0.00     0.080 A 
ATOM     14  C   UNL d   1       0.910   0.104  -0.665  0.00  0.00     0.255 A 
ATOM     15  O   UNL d   1       1.902   0.369  -1.325  0.00  0.00    -0.268 OA
ENDBRANCH   1   9
TORSDOF 1
