REMARK  3 active torsions:
REMARK  status: ('A' for Active; 'I' for Inactive)
REMARK    1  A    between atoms: C_9  and  N_4 
REMARK    2  A    between atoms: N_7  and  C_10 
REMARK    3  A    between atoms: C_10  and  C_9 
ROOT
ATOM      1  C   UNL d   1      -3.380  -0.540  -0.172  0.00  0.00     0.170 C 
ATOM      2  N   UNL d   1      -2.428   0.419  -0.098  0.00  0.00    -0.342 N 
ATOM      3  N   UNL d   1      -2.938  -1.819  -0.191  0.00  0.00    -0.342 N 
ATOM      4  N   UNL d   1      -0.697  -1.175   0.198  0.00  0.00     0.124 N 
ATOM      5  C   UNL d   1      -1.035   0.148  -0.302  0.00  0.00     0.399 C 
ATOM      6  C   UNL d   1      -1.568  -2.142  -0.444  0.00  0.00     0.399 C 
ATOM      7  S   UNL d   1      -4.997  -0.174  -0.179  0.00  0.00    -0.041 SA
ATOM      8  H   UNL d   1      -2.751   1.377  -0.138  0.00  0.00     0.163 HD
ATOM      9  H   UNL d   1      -3.643  -2.532  -0.322  0.00  0.00     0.163 HD
ENDROOT
BRANCH   4  10
ATOM     10  C   UNL d   1      -0.698  -1.216   1.675  0.00  0.00     0.306 C 
BRANCH  10  11
ATOM     11  C   UNL d   1      -0.243  -2.573   2.271  0.00  0.00     0.302 C 
BRANCH  11  12
ATOM     12  N   UNL d   1      -0.189  -2.597   3.748  0.00  0.00     0.090 N 
ATOM     13  C   UNL d   1       0.341  -3.887   4.228  0.00  0.00     0.272 C 
ATOM     14  C   UNL d   1      -0.863  -4.807   4.297  0.00  0.00     0.032 C 
ATOM     15  C   UNL d   1      -1.975  -3.888   4.760  0.00  0.00     0.032 C 
ATOM     16  C   UNL d   1      -1.522  -2.485   4.371  0.00  0.00     0.272 C 
ENDBRANCH  11  12
ENDBRANCH  10  11
ENDBRANCH   4  10
TORSDOF 3
