REMARK  7 active torsions:
REMARK  status: ('A' for Active; 'I' for Inactive)
REMARK    1  A    between atoms: C_6  and  C_2 
REMARK    2  A    between atoms: O_13  and  C_3 
REMARK    3  A    between atoms: C_9  and  C_7 
REMARK    4  A    between atoms: C_18  and  O_13 
REMARK    5  A    between atoms: C_14  and  C_18 
REMARK    6  A    between atoms: C_15  and  C_14 
REMARK    7  A    between atoms: O_29  and  C_26 
ROOT
ATOM      1  C   UNL d   1       0.563   0.058   0.114  0.00  0.00     0.110 A 
ATOM      2  C   UNL d   1      -0.070   1.309   0.041  0.00  0.00     0.075 A 
ATOM      3  C   UNL d   1      -0.247  -1.078   0.116  0.00  0.00     0.165 A 
ATOM      4  N   UNL d   1      -1.597  -1.038   0.023  0.00  0.00    -0.335 N 
ATOM      5  HN  UNL d   1      -2.146  -1.898   0.014  1.00  0.00     0.168 HD
ATOM      6  C   UNL d   1      -2.199   0.168  -0.057  0.00  0.00     0.052 A 
ATOM      7  C   UNL d   1      -1.475   1.350  -0.038  0.00  0.00     0.048 A 
ATOM      8  C   UNL d   1       1.986  -0.089   0.165  0.00  0.00     0.104 C 
ATOM      9  N   UNL d   1       3.141  -0.196   0.203  0.00  0.00    -0.191 NA
ENDROOT
BRANCH   2  10
ATOM     10  C   UNL d   1       0.653   2.631   0.027  0.00  0.00     0.419 C 
ATOM     11  F   UNL d   1       2.003   2.559   0.089  0.00  0.00    -0.166 F 
ATOM     12  F   UNL d   1       0.367   3.345  -1.097  0.00  0.00    -0.166 F 
ATOM     13  F   UNL d   1       0.272   3.418   1.071  0.00  0.00    -0.166 F 
ENDBRANCH   2  10
BRANCH   3  14
ATOM     14  O   UNL d   1       0.356  -2.320   0.234  0.00  0.00    -0.327 OA
BRANCH  14  15
ATOM     15  C   UNL d   1      -0.578  -3.394   0.220  0.00  0.00     0.261 C 
BRANCH  15  16
ATOM     16  C   UNL d   1       0.109  -4.747   0.345  0.00  0.00     0.183 C 
ATOM     17  O   UNL d   1       0.419  -5.418  -0.637  0.00  0.00    -0.290 OA
BRANCH  16  18
ATOM     18  C   UNL d   1       0.329  -5.305   1.707  0.00  0.00     0.012 A 
ATOM     19  C   UNL d   1       0.239  -6.691   1.890  0.00  0.00     0.018 A 
ATOM     20  C   UNL d   1       0.398  -7.250   3.164  0.00  0.00     0.037 A 
ATOM     21  C   UNL d   1       0.661  -6.426   4.258  0.00  0.00     0.068 A 
ATOM     22  C   UNL d   1       0.791  -5.048   4.066  0.00  0.00     0.037 A 
ATOM     23  C   UNL d   1       0.616  -4.485   2.798  0.00  0.00     0.018 A 
BRANCH  21  24
ATOM     24  O   UNL d   1       0.855  -6.851   5.543  0.00  0.00    -0.356 OA
ATOM     25  C   UNL d   1       0.196  -8.060   5.903  0.00  0.00     0.210 C 
ENDBRANCH  21  24
ENDBRANCH  16  18
ENDBRANCH  15  16
ENDBRANCH  14  15
ENDBRANCH   3  14
BRANCH   6  26
ATOM     26  C   UNL d   1      -3.652   0.115  -0.246  0.00  0.00     0.031 A 
ATOM     27  S   UNL d   1      -4.682   1.330   0.400  0.00  0.00    -0.100 SA
ATOM     28  C   UNL d   1      -6.076   0.617  -0.284  0.00  0.00     0.050 A 
ATOM     29  C   UNL d   1      -5.782  -0.542  -0.963  0.00  0.00     0.008 A 
ATOM     30  C   UNL d   1      -4.389  -0.843  -0.922  0.00  0.00     0.021 A 
ENDBRANCH   6  26
TORSDOF 7
