REMARK  1 active torsions:
REMARK  status: ('A' for Active; 'I' for Inactive)
REMARK    1  A    between atoms: C_8  and  C_1 
ROOT
ATOM      1  C   UNL d   1      -1.690   1.619  -0.174  0.00  0.00     0.142 A 
ATOM      2  N   UNL d   1      -0.849   0.516   0.012  0.00  0.00    -0.282 N 
ATOM      3  N   UNL d   1      -2.944   1.207  -0.048  0.00  0.00    -0.283 N 
ATOM      4  HN  UNL d   1      -3.767   1.809  -0.082  1.00  0.00     0.188 HD
ATOM      5  C   UNL d   1      -1.716  -0.553   0.144  0.00  0.00     0.114 A 
ATOM      6  N   UNL d   1      -2.963  -0.140   0.135  0.00  0.00    -0.286 N 
ATOM      7  HN  UNL d   1      -3.793  -0.723   0.245  1.00  0.00     0.188 HD
ATOM      8  C   UNL d   1       0.569   0.386   0.095  0.00  0.00     0.059 A 
ATOM      9  S   UNL d   1       0.218  -2.345  -0.527  0.00  0.00    -0.120 SA
ATOM     10  C   UNL d   1       1.157  -0.872  -0.156  0.00  0.00     0.028 A 
ATOM     11  C   UNL d   1      -1.275  -1.941   0.405  0.00  0.00     0.158 C 
ATOM     12  C   UNL d   1       1.393   1.472   0.411  0.00  0.00     0.031 A 
ATOM     13  C   UNL d   1       2.553  -0.994  -0.171  0.00  0.00     0.021 A 
ATOM     14  C   UNL d   1       2.785   1.339   0.372  0.00  0.00     0.002 A 
ATOM     15  C   UNL d   1       3.365   0.111   0.074  0.00  0.00     0.002 A 
ENDROOT
BRANCH   1  16
ATOM     16  C   UNL d   1      -1.378   3.021  -0.479  0.00  0.00     0.048 A 
ATOM     17  C   UNL d   1      -0.353   3.425  -1.336  0.00  0.00     0.130 A 
ATOM     18  F   UNL d   1       0.393   2.521  -1.986  0.00  0.00    -0.205 F 
ATOM     19  C   UNL d   1      -0.065   4.776  -1.544  0.00  0.00     0.043 A 
ATOM     20  C   UNL d   1      -0.864   5.755  -0.960  0.00  0.00     0.003 A 
ATOM     21  C   UNL d   1      -1.954   5.379  -0.179  0.00  0.00     0.001 A 
ATOM     22  C   UNL d   1      -2.203   4.025   0.064  0.00  0.00     0.018 A 
ENDBRANCH   1  16
TORSDOF 1
