REMARK  7 active torsions:
REMARK  status: ('A' for Active; 'I' for Inactive)
REMARK    1  A    between atoms: C_2  and  N_1 
REMARK    2  A    between atoms: C_3  and  C_4 
REMARK    3  A    between atoms: C_4  and  O_19 
REMARK    4  A    between atoms: S_18  and  C_7 
REMARK    5  A    between atoms: C_21  and  S_18 
REMARK    6  A    between atoms: O_19  and  C_22 
REMARK    7  A    between atoms: C_22  and  C_21 
ROOT
ATOM      1  C   UNL d   1       0.510   1.274   2.111  0.00  0.00     0.121 A 
ATOM      2  N   UNL d   1       0.644   5.657   0.034  0.00  0.00    -0.191 NA
ATOM      3  C   UNL d   1      -0.557   0.575   1.525  0.00  0.00     0.033 A 
ATOM      4  C   UNL d   1       0.404   4.567   0.343  0.00  0.00     0.099 C 
ATOM      5  C   UNL d   1       0.846   2.584   1.724  0.00  0.00     0.060 A 
ATOM      6  C   UNL d   1       0.103   3.216   0.727  0.00  0.00     0.047 A 
ATOM      7  C   UNL d   1      -1.279   1.226   0.514  0.00  0.00     0.022 A 
ATOM      8  C   UNL d   1      -0.953   2.531   0.117  0.00  0.00     0.024 A 
ENDROOT
BRANCH   1   9
ATOM      9  N   UNL d   1       1.308   0.677   3.165  0.00  0.00    -0.114 N 
ATOM     10  O   UNL d   1       1.924  -0.360   2.892  0.00  0.00    -0.532 OA
ATOM     11  O   UNL d   1       1.371   1.296   4.235  0.00  0.00    -0.532 OA
ENDBRANCH   1   9
BRANCH   3  12
ATOM     12  S   UNL d   1      -1.208  -0.986   2.105  0.00  0.00    -0.125 SA
BRANCH  12  13
ATOM     13  C   UNL d   1      -0.341  -2.168   1.001  0.00  0.00     0.106 C 
BRANCH  13  14
ATOM     14  C   UNL d   1      -0.839  -3.597   1.254  0.00  0.00     0.189 C 
BRANCH  14  15
ATOM     15  O   UNL d   1      -0.703  -3.989   2.632  0.00  0.00    -0.316 OA
BRANCH  15  16
ATOM     16  C   UNL d   1       0.547  -4.381   3.022  0.00  0.00     0.300 C 
ATOM     17  O   UNL d   1       1.494  -4.478   2.250  0.00  0.00    -0.259 OA
BRANCH  16  18
ATOM     18  C   UNL d   1       0.555  -4.643   4.449  0.00  0.00     0.080 A 
ATOM     19  S   UNL d   1       2.017  -5.132   5.203  0.00  0.00    -0.096 SA
ATOM     20  C   UNL d   1       1.285  -5.202   6.745  0.00  0.00     0.050 A 
ATOM     21  C   UNL d   1      -0.051  -4.873   6.698  0.00  0.00     0.009 A 
ATOM     22  C   UNL d   1      -0.473  -4.555   5.373  0.00  0.00     0.025 A 
ENDBRANCH  16  18
ENDBRANCH  15  16
ENDBRANCH  14  15
ENDBRANCH  13  14
ENDBRANCH  12  13
ENDBRANCH   3  12
TORSDOF 7
