REMARK  5 active torsions:
REMARK  status: ('A' for Active; 'I' for Inactive)
REMARK    1  A    between atoms: C_8  and  C_2 
REMARK    2  A    between atoms: C_11  and  N_5 
REMARK    3  A    between atoms: O_21  and  C_8 
REMARK    4  A    between atoms: C_13  and  C_14 
REMARK    5  A    between atoms: C_25  and  O_21 
ROOT
ATOM      1  C   UNL d   1      -0.696   1.285   0.004  0.00  0.00     0.122 A 
ATOM      2  C   UNL d   1       1.288  -0.043   0.016  0.00  0.00     0.131 A 
ATOM      3  N   UNL d   1       0.648  -1.170   0.038  0.00  0.00    -0.285 N 
ATOM      4  HN  UNL d   1       1.157  -2.053   0.073  1.00  0.00     0.188 HD
ATOM      5  N   UNL d   1      -0.726  -1.157   0.015  0.00  0.00    -0.219 N 
ATOM      6  C   UNL d   1      -1.478   0.020  -0.031  0.00  0.00     0.288 A 
ATOM      7  C   UNL d   1       0.649   1.297   0.041  0.00  0.00    -0.001 A 
ATOM      8  C   UNL d   1      -1.444   2.500   0.001  0.00  0.00     0.106 C 
ATOM      9  N   UNL d   1      -1.985   3.525   0.001  0.00  0.00    -0.191 NA
ATOM     10  O   UNL d   1      -2.707   0.094  -0.050  0.00  0.00    -0.265 OA
ATOM     11  C   UNL d   1       1.446   2.568   0.107  0.00  0.00     0.052 C 
ENDROOT
BRANCH   5  12
ATOM     12  C   UNL d   1      -1.318  -2.464   0.004  0.00  0.00     0.060 A 
ATOM     13  C   UNL d   1      -2.590  -2.697  -0.529  0.00  0.00     0.032 A 
ATOM     14  C   UNL d   1      -3.183  -3.964  -0.469  0.00  0.00     0.010 A 
ATOM     15  C   UNL d   1      -2.538  -5.053   0.137  0.00  0.00    -0.051 A 
ATOM     16  C   UNL d   1      -1.242  -4.829   0.627  0.00  0.00     0.010 A 
ATOM     17  C   UNL d   1      -0.637  -3.563   0.546  0.00  0.00     0.032 A 
BRANCH  15  18
ATOM     18  C   UNL d   1      -3.261  -6.405   0.251  0.00  0.00    -0.024 C 
ATOM     19  C   UNL d   1      -2.441  -7.486   0.988  0.00  0.00     0.019 C 
ATOM     20  C   UNL d   1      -4.581  -6.221   1.035  0.00  0.00     0.019 C 
ATOM     21  C   UNL d   1      -3.583  -6.945  -1.158  0.00  0.00     0.019 C 
ENDBRANCH  15  18
ENDBRANCH   5  12
BRANCH   2  22
ATOM     22  C   UNL d   1       2.809  -0.142  -0.133  0.00  0.00     0.312 C 
ATOM     23  O   UNL d   1       3.427   0.579  -0.901  0.00  0.00    -0.258 OA
BRANCH  22  24
ATOM     24  O   UNL d   1       3.295  -1.184   0.575  0.00  0.00    -0.317 OA
BRANCH  24  25
ATOM     25  C   UNL d   1       4.615  -1.603   0.198  0.00  0.00     0.175 C 
ATOM     26  C   UNL d   1       4.541  -2.456  -1.059  0.00  0.00     0.034 C 
ENDBRANCH  24  25
ENDBRANCH  22  24
ENDBRANCH   2  22
TORSDOF 5
