REMARK  10 active torsions:
REMARK  status: ('A' for Active; 'I' for Inactive)
REMARK    1  A    between atoms: C_10  and  C_1 
REMARK    2  A    between atoms: C_11  and  C_2 
REMARK    3  A    between atoms: C_4  and  N_6 
REMARK    4  A    between atoms: N_7  and  C_5 
REMARK    5  A    between atoms: N_6  and  C_9 
REMARK    6  A    between atoms: C_8  and  N_7 
REMARK    7  A    between atoms: O_15  and  C_10 
REMARK    8  A    between atoms: O_14  and  C_11 
REMARK    9  A    between atoms: C_23  and  O_14 
REMARK   10  A    between atoms: C_22  and  O_15 
ROOT
ATOM      1  C   UNL d   1       3.100  -4.837   0.539  0.00  0.00    -0.014 C 
ATOM      2  C   UNL d   1       2.619  -6.134   0.853  0.00  0.00     0.020 C 
ATOM      3  C   UNL d   1       4.498  -4.614   0.455  0.00  0.00     0.040 C 
ATOM      4  C   UNL d   1       5.369  -5.643   0.852  0.00  0.00     0.030 C 
ATOM      5  C   UNL d   1       3.530  -7.145   1.200  0.00  0.00     0.024 C 
ATOM      6  C   UNL d   1       2.126  -3.708   0.310  0.00  0.00     0.052 C 
ATOM      7  C   UNL d   1       4.893  -6.888   1.239  0.00  0.00     0.004 C 
ENDROOT
BRANCH   2   8
ATOM      8  N   UNL d   1       1.236  -6.454   0.660  0.00  0.00    -0.263 NA
ATOM      9  H   UNL d   1       1.087  -6.515  -0.349  0.00  0.00     0.133 HD
BRANCH   8  10
ATOM     10  C   UNL d   1       0.622  -7.516   1.335  0.00  0.00    -0.008 C 
ATOM     11  C   UNL d   1       0.526  -7.503   2.679  0.00  0.00     0.101 C 
ATOM     12  C   UNL d   1       0.075  -8.643   0.490  0.00  0.00     0.062 C 
BRANCH  11  13
ATOM     13  C   UNL d   1      -0.122  -8.537   3.508  0.00  0.00     0.284 C 
ATOM     14  O   UNL d   1      -0.601  -9.586   3.117  0.00  0.00    -0.260 OA
BRANCH  13  15
ATOM     15  O   UNL d   1      -0.158  -8.052   4.775  0.00  0.00    -0.319 OA
BRANCH  15  16
ATOM     16  C   UNL d   1      -1.049  -8.729   5.668  0.00  0.00     0.174 C 
ATOM     17  C   UNL d   1      -2.432  -8.125   5.508  0.00  0.00     0.034 C 
ENDBRANCH  15  16
ENDBRANCH  13  15
ENDBRANCH  11  13
ENDBRANCH   8  10
ENDBRANCH   2   8
BRANCH   3  18
ATOM     18  N   UNL d   1       5.017  -3.385  -0.037  0.00  0.00    -0.359 N 
ATOM     19  H   UNL d   1       4.692  -2.593   0.514  0.00  0.00     0.166 HD
BRANCH  18  20
ATOM     20  C   UNL d   1       6.257  -3.191  -0.671  0.00  0.00     0.011 C 
ATOM     21  C   UNL d   1       6.780  -4.088  -1.530  0.00  0.00     0.106 C 
ATOM     22  C   UNL d   1       6.897  -1.852  -0.385  0.00  0.00     0.068 C 
BRANCH  21  23
ATOM     23  C   UNL d   1       8.048  -4.138  -2.292  0.00  0.00     0.284 C 
ATOM     24  O   UNL d   1       8.163  -4.856  -3.277  0.00  0.00    -0.260 OA
BRANCH  23  25
ATOM     25  O   UNL d   1       9.047  -3.429  -1.718  0.00  0.00    -0.318 OA
BRANCH  25  26
ATOM     26  C   UNL d   1      10.347  -3.603  -2.312  0.00  0.00     0.174 C 
ATOM     27  C   UNL d   1      10.521  -2.733  -3.545  0.00  0.00     0.034 C 
ENDBRANCH  25  26
ENDBRANCH  23  25
ENDBRANCH  21  23
ENDBRANCH  18  20
ENDBRANCH   3  18
TORSDOF 10
