REMARK  3 active torsions:
REMARK  status: ('A' for Active; 'I' for Inactive)
REMARK    1  A    between atoms: C_4  and  C_1 
REMARK    2  A    between atoms: N_9  and  C_2 
REMARK    3  A    between atoms: N_3  and  C_5 
ROOT
ATOM      1  C   UNL d   1       0.847   1.243   0.039  0.00  0.00     0.094 A 
ATOM      2  C   UNL d   1      -0.551   1.326  -0.009  0.00  0.00     0.118 A 
ATOM      3  C   UNL d   1       0.672  -1.171  -0.031  0.00  0.00     0.119 A 
ATOM      4  N   UNL d   1      -1.307   0.196  -0.026  0.00  0.00    -0.349 N 
ATOM      5  HN  UNL d   1      -2.325   0.260  -0.034  1.00  0.00     0.166 HD
ATOM      6  C   UNL d   1       1.458  -0.028  -0.002  0.00  0.00     0.057 A 
ATOM      7  C   UNL d   1      -0.698  -1.020  -0.033  0.00  0.00     0.125 A 
ENDROOT
BRANCH   2   8
ATOM      8  N   UNL d   1      -1.202   2.538   0.054  0.00  0.00    -0.363 N 
ATOM      9  C   UNL d   1      -2.566   2.579   0.612  0.00  0.00     0.150 C 
ATOM     10  C   UNL d   1      -2.804   4.019   1.111  0.00  0.00     0.187 C 
ATOM     11  O   UNL d   1      -2.653   4.982   0.048  0.00  0.00    -0.388 OA
ATOM     12  C   UNL d   1      -1.343   4.889  -0.545  0.00  0.00     0.187 C 
ATOM     13  C   UNL d   1      -1.078   3.470  -1.084  0.00  0.00     0.150 C 
ENDBRANCH   2   8
BRANCH   1  14
ATOM     14  C   UNL d   1       1.754   2.433   0.173  0.00  0.00     0.421 C 
ATOM     15  F   UNL d   1       1.188   3.608   0.555  0.00  0.00    -0.166 F 
ATOM     16  F   UNL d   1       2.744   2.209   1.089  0.00  0.00    -0.166 F 
ATOM     17  F   UNL d   1       2.405   2.701  -0.997  0.00  0.00    -0.166 F 
ENDBRANCH   1  14
BRANCH   3  18
ATOM     18  N   UNL d   1       1.278  -2.491  -0.032  0.00  0.00    -0.114 N 
ATOM     19  O   UNL d   1       2.517  -2.558  -0.057  0.00  0.00    -0.532 OA
ATOM     20  O   UNL d   1       0.521  -3.475  -0.012  0.00  0.00    -0.532 OA
ENDBRANCH   3  18
TORSDOF 3
