REMARK  6 active torsions:
REMARK  status: ('A' for Active; 'I' for Inactive)
REMARK    1  A    between atoms: N_5  and  C_1 
REMARK    2  A    between atoms: C_8  and  C_2 
REMARK       I    between atoms: C_7  and  N_5 
REMARK    3  A    between atoms: C_11  and  C_6 
REMARK       I    between atoms: N_9  and  C_7 
REMARK    4  A    between atoms: O_13  and  C_8 
REMARK    5  A    between atoms: C_14  and  N_9 
REMARK    6  A    between atoms: C_17  and  O_13 
ROOT
ATOM      1  C   UNL d   1       0.420   1.228   0.103  0.00  0.00     0.074 C 
ATOM      2  C   UNL d   1       1.687   0.686  -0.048  0.00  0.00     0.069 C 
ATOM      3  S   UNL d   1      -0.794   0.053   0.348  0.00  0.00    -0.076 SA
ATOM      4  C   UNL d   1       1.574  -0.766   0.056  0.00  0.00     0.040 C 
ATOM      5  C   UNL d   1       0.283  -1.260   0.145  0.00  0.00     0.018 C 
ENDROOT
BRANCH   1   6
ATOM      6  N   UNL d   1      -0.125   2.494   0.235  0.00  0.00    -0.208 NA
ATOM      7  C   UNL d   1      -0.334   3.362  -0.805  0.00  0.00     0.282 C 
ATOM      8  N   UNL d   1       0.624   3.421  -1.782  0.00  0.00    -0.215 NA
ATOM      9  O   UNL d   1      -1.342   4.068  -0.761  0.00  0.00    -0.260 OA
ATOM     10  H   UNL d   1       1.529   3.302  -1.347  0.00  0.00     0.138 HD
ATOM     11  H   UNL d   1      -1.011   2.473   0.734  0.00  0.00     0.138 HD
BRANCH   8  12
ATOM     12  C   UNL d   1       0.560   4.493  -2.700  0.00  0.00     0.016 A 
ATOM     13  C   UNL d   1       1.425   5.576  -2.531  0.00  0.00     0.024 A 
ATOM     14  C   UNL d   1       1.330   6.680  -3.376  0.00  0.00     0.002 A 
ATOM     15  C   UNL d   1       0.396   6.685  -4.412  0.00  0.00     0.000 A 
ATOM     16  C   UNL d   1      -0.451   5.591  -4.596  0.00  0.00     0.002 A 
ATOM     17  C   UNL d   1      -0.379   4.497  -3.732  0.00  0.00     0.024 A 
ENDBRANCH   8  12
ENDBRANCH   1   6
BRANCH   2  18
ATOM     18  C   UNL d   1       2.989   1.331  -0.235  0.00  0.00     0.295 C 
ATOM     19  O   UNL d   1       4.036   0.697  -0.191  0.00  0.00    -0.259 OA
BRANCH  18  20
ATOM     20  O   UNL d   1       2.945   2.658  -0.564  0.00  0.00    -0.318 OA
BRANCH  20  21
ATOM     21  C   UNL d   1       4.144   3.203  -1.150  0.00  0.00     0.174 C 
ATOM     22  C   UNL d   1       4.960   3.996  -0.148  0.00  0.00     0.034 C 
ENDBRANCH  20  21
ENDBRANCH  18  20
ENDBRANCH   2  18
BRANCH   5  23
ATOM     23  C   UNL d   1      -0.203  -2.662   0.069  0.00  0.00    -0.019 A 
ATOM     24  C   UNL d   1       0.654  -3.678  -0.387  0.00  0.00     0.013 A 
ATOM     25  C   UNL d   1       0.208  -4.996  -0.552  0.00  0.00     0.001 A 
ATOM     26  C   UNL d   1      -1.111  -5.330  -0.262  0.00  0.00     0.000 A 
ATOM     27  C   UNL d   1      -1.977  -4.348   0.209  0.00  0.00     0.001 A 
ATOM     28  C   UNL d   1      -1.526  -3.031   0.379  0.00  0.00     0.013 A 
ENDBRANCH   5  23
TORSDOF 6
