REMARK  2 active torsions:
REMARK  status: ('A' for Active; 'I' for Inactive)
REMARK    1  A    between atoms: C_11  and  C_4 
REMARK    2  A    between atoms: O_21  and  C_17 
ROOT
ATOM      1  C   UNL d   1      -0.196   0.104  -0.098  0.00  0.00     0.053 A 
ATOM      2  C   UNL d   1       0.306  -1.139  -0.257  0.00  0.00    -0.017 A 
ATOM      3  C   UNL d   1       2.603  -0.289  -0.152  0.00  0.00     0.124 A 
ATOM      4  C   UNL d   1       1.764  -1.346  -0.296  0.00  0.00     0.009 A 
ATOM      5  N   UNL d   1       0.658   1.163   0.051  0.00  0.00    -0.321 N 
ATOM      6  C   UNL d   1       2.023   1.069   0.044  0.00  0.00     0.267 A 
ATOM      7  C   UNL d   1      -1.663   0.326  -0.066  0.00  0.00    -0.003 A 
ATOM      8  C   UNL d   1       4.023  -0.390  -0.157  0.00  0.00     0.106 C 
ATOM      9  C   UNL d   1      -0.630  -2.325  -0.371  0.00  0.00     0.046 C 
ATOM     10  N   UNL d   1       5.180  -0.500  -0.156  0.00  0.00    -0.191 NA
ATOM     11  O   UNL d   1       2.718   2.069   0.202  0.00  0.00    -0.266 OA
ATOM     12  C   UNL d   1      -2.509  -0.769   0.209  0.00  0.00    -0.045 A 
ATOM     13  C   UNL d   1      -1.904  -2.126   0.458  0.00  0.00     0.044 C 
ATOM     14  C   UNL d   1      -2.248   1.579  -0.303  0.00  0.00     0.014 A 
ATOM     15  C   UNL d   1      -3.896  -0.590   0.298  0.00  0.00     0.008 A 
ATOM     16  C   UNL d   1      -3.634   1.746  -0.233  0.00  0.00     0.001 A 
ATOM     17  C   UNL d   1      -4.455   0.666   0.075  0.00  0.00     0.001 A 
ATOM     18  H   UNL d   1       0.299   2.094   0.222  0.00  0.00     0.169 HD
ENDROOT
BRANCH   4  19
ATOM     19  C   UNL d   1       2.346  -2.701  -0.467  0.00  0.00    -0.024 A 
ATOM     20  C   UNL d   1       2.627  -3.489   0.658  0.00  0.00     0.015 A 
ATOM     21  C   UNL d   1       3.114  -4.792   0.508  0.00  0.00     0.037 A 
ATOM     22  C   UNL d   1       3.325  -5.321  -0.765  0.00  0.00     0.068 A 
ATOM     23  C   UNL d   1       3.046  -4.534  -1.886  0.00  0.00     0.037 A 
ATOM     24  C   UNL d   1       2.561  -3.231  -1.743  0.00  0.00     0.015 A 
BRANCH  22  25
ATOM     25  O   UNL d   1       3.793  -6.575  -1.044  0.00  0.00    -0.356 OA
ATOM     26  C   UNL d   1       4.090  -7.413   0.067  0.00  0.00     0.210 C 
ENDBRANCH  22  25
ENDBRANCH   4  19
TORSDOF 2
