REMARK  4 active torsions:
REMARK  status: ('A' for Active; 'I' for Inactive)
REMARK    1  A    between atoms: C_2  and  S_1 
REMARK    2  A    between atoms: C_14  and  S_1 
REMARK    3  A    between atoms: C_6  and  N_3 
REMARK    4  A    between atoms: C_5  and  C_4 
ROOT
ATOM      1  C   UNL d   1       0.424  -0.721  -1.515  0.00  0.00     0.146 C 
ATOM      2  C   UNL d   1      -0.476  -1.723  -1.464  0.00  0.00     0.065 C 
ATOM      3  C   UNL d   1       0.959  -0.056  -0.386  0.00  0.00     0.112 C 
ATOM      4  N   UNL d   1       1.389   0.493   0.540  0.00  0.00    -0.191 NA
ENDROOT
BRANCH   1   5
ATOM      5  S   UNL d   1       0.908  -0.186  -3.093  0.00  0.00     0.216 S 
ATOM      6  O   UNL d   1       0.013   0.879  -3.509  0.00  0.00    -0.216 OA
ATOM      7  O   UNL d   1       1.085  -1.344  -3.955  0.00  0.00    -0.216 OA
BRANCH   5   8
ATOM      8  C   UNL d   1       2.529   0.534  -2.904  0.00  0.00     0.065 A 
ATOM      9  C   UNL d   1       3.665  -0.276  -3.010  0.00  0.00     0.024 A 
ATOM     10  C   UNL d   1       4.932   0.306  -2.942  0.00  0.00     0.002 A 
ATOM     11  C   UNL d   1       5.061   1.686  -2.781  0.00  0.00     0.000 A 
ATOM     12  C   UNL d   1       3.925   2.492  -2.690  0.00  0.00     0.002 A 
ATOM     13  C   UNL d   1       2.654   1.920  -2.759  0.00  0.00     0.024 A 
ENDBRANCH   5   8
ENDBRANCH   1   5
BRANCH   2  14
ATOM     14  C   UNL d   1      -0.882  -2.317  -0.239  0.00  0.00     0.041 A 
ATOM     15  N   UNL d   1      -1.962  -1.866   0.529  0.00  0.00    -0.322 N 
ATOM     16  C   UNL d   1      -1.901  -2.551   1.735  0.00  0.00     0.097 A 
ATOM     17  C   UNL d   1      -0.911  -3.503   1.681  0.00  0.00     0.020 A 
ATOM     18  C   UNL d   1      -0.280  -3.366   0.434  0.00  0.00     0.031 A 
BRANCH  15  19
ATOM     19  C   UNL d   1      -3.010  -0.946   0.204  0.00  0.00     0.042 A 
ATOM     20  C   UNL d   1      -3.450  -0.778  -1.115  0.00  0.00     0.054 A 
ATOM     21  C   UNL d   1      -4.571   0.018  -1.380  0.00  0.00     0.037 A 
ATOM     22 CL   UNL d   1      -5.149   0.157  -2.996  0.00  0.00    -0.084 Cl
ATOM     23  C   UNL d   1      -5.252   0.667  -0.354  0.00  0.00     0.048 A 
ATOM     24  C   UNL d   1      -4.799   0.523   0.951  0.00  0.00     0.037 A 
ATOM     25  C   UNL d   1      -3.689  -0.275   1.236  0.00  0.00     0.054 A 
ATOM     26 CL   UNL d   1      -5.627   1.317   2.234  0.00  0.00    -0.084 Cl
ENDBRANCH  15  19
ENDBRANCH   2  14
TORSDOF 4
