REMARK  2 active torsions:
REMARK  status: ('A' for Active; 'I' for Inactive)
REMARK    1  A    between atoms: C_10  and  C_4 
REMARK    2  A    between atoms: N_6  and  C_9 
ROOT
ATOM      1  C   UNL d   1       0.321  -0.219  -0.639  0.00  0.00     0.147 A 
ATOM      2  N   UNL d   1       1.433  -0.786  -1.010  0.00  0.00    -0.335 N 
ATOM      3  HN  UNL d   1       1.588  -1.400  -1.810  1.00  0.00     0.168 HD
ATOM      4  C   UNL d   1       2.358  -0.360  -0.065  0.00  0.00     0.060 A 
ATOM      5  N   UNL d   1       0.471   0.543   0.469  0.00  0.00    -0.335 N 
ATOM      6  C   UNL d   1       1.762   0.480   0.868  0.00  0.00     0.123 A 
ATOM      7  S   UNL d   1      -1.283  -0.217  -1.246  0.00  0.00    -0.092 SA
ATOM      8  C   UNL d   1      -0.709   1.174   1.011  0.00  0.00     0.141 C 
ATOM      9  C   UNL d   1      -1.770   1.134  -0.095  0.00  0.00     0.102 C 
ENDROOT
BRANCH   4  10
ATOM     10  C   UNL d   1       3.752  -0.785  -0.083  0.00  0.00    -0.008 A 
ATOM     11  C   UNL d   1       4.205  -1.614  -1.123  0.00  0.00     0.016 A 
ATOM     12  C   UNL d   1       5.528  -2.065  -1.164  0.00  0.00     0.037 A 
ATOM     13  C   UNL d   1       6.415  -1.683  -0.152  0.00  0.00     0.102 A 
ATOM     14  C   UNL d   1       5.986  -0.852   0.890  0.00  0.00     0.037 A 
ATOM     15  C   UNL d   1       4.659  -0.407   0.919  0.00  0.00     0.016 A 
BRANCH  13  16
ATOM     16  N   UNL d   1       7.802  -2.162  -0.175  0.00  0.00    -0.116 N 
ATOM     17  O   UNL d   1       8.142  -2.904  -1.109  0.00  0.00    -0.532 OA
ATOM     18  O   UNL d   1       8.553  -1.798   0.741  0.00  0.00    -0.532 OA
ENDBRANCH  13  16
ENDBRANCH   4  10
TORSDOF 2
