REMARK  1 active torsions:
REMARK  status: ('A' for Active; 'I' for Inactive)
REMARK    1  A    between atoms: O_22  and  C_16 
ROOT
ATOM      1  C   UNL d   1      -0.537  -1.547  -0.874  0.00  0.00    -0.013 C 
ATOM      2  C   UNL d   1      -2.026  -1.211  -1.028  0.00  0.00    -0.067 C 
ATOM      3  C   UNL d   1       1.866   1.710   1.166  0.00  0.00    -0.014 C 
ATOM      4  C   UNL d   1       0.210  -0.432  -0.028  0.00  0.00     0.003 C 
ATOM      5  C   UNL d   1       0.604   2.125   0.348  0.00  0.00     0.001 C 
ATOM      6  C   UNL d   1      -0.168   1.012  -0.427  0.00  0.00    -0.004 C 
ATOM      7  C   UNL d   1      -3.010  -2.121  -0.902  0.00  0.00     0.059 C 
ATOM      8  C   UNL d   1      -0.385  -2.907  -0.121  0.00  0.00     0.055 C 
ATOM      9  C   UNL d   1      -1.325  -3.966  -0.606  0.00  0.00    -0.016 C 
ATOM     10  C   UNL d   1      -2.755  -3.568  -0.712  0.00  0.00     0.177 C 
ATOM     11  C   UNL d   1       2.480   0.324   0.875  0.00  0.00     0.012 C 
ATOM     12  C   UNL d   1       1.736  -0.560  -0.111  0.00  0.00     0.007 C 
ATOM     13  C   UNL d   1      -1.694   1.190  -0.444  0.00  0.00     0.010 C 
ATOM     14  C   UNL d   1      -0.222   3.022   1.310  0.00  0.00     0.008 C 
ATOM     15  C   UNL d   1      -2.362   0.210  -1.394  0.00  0.00     0.035 C 
ATOM     16  C   UNL d   1       1.384   1.810   2.637  0.00  0.00     0.126 C 
ATOM     17  O   UNL d   1      -3.682  -4.367  -0.680  0.00  0.00    -0.288 OA
ATOM     18  C   UNL d   1      -0.975  -5.218  -0.937  0.00  0.00     0.023 C 
ATOM     19  C   UNL d   1       0.476   3.026   2.667  0.00  0.00     0.033 C 
ATOM     20  C   UNL d   1       0.058  -1.696  -2.295  0.00  0.00     0.021 C 
ATOM     21  C   UNL d   1       2.973   2.773   0.931  0.00  0.00     0.018 C 
ENDROOT
BRANCH  16  22
ATOM     22  O   UNL d   1       0.622   0.666   3.010  0.00  0.00    -0.395 OA
ATOM     23  H   UNL d   1       0.338   0.791   3.932  0.00  0.00     0.210 HD
ENDBRANCH  16  22
TORSDOF 1
