REMARK  5 active torsions:
REMARK  status: ('A' for Active; 'I' for Inactive)
REMARK    1  A    between atoms: N_2  and  S_1 
REMARK    2  A    between atoms: C_4  and  S_1 
REMARK    3  A    between atoms: N_5  and  N_2 
REMARK    4  A    between atoms: C_3  and  C_11 
REMARK    5  A    between atoms: O_21  and  C_9 
ROOT
ATOM      1  N   UNL d   1       0.479  -0.973  -1.250  0.00  0.00    -0.223 N 
ATOM      2  H   UNL d   1      -0.325  -1.577  -1.069  0.00  0.00     0.200 HD
ENDROOT
BRANCH   1   3
ATOM      3  S   UNL d   1       0.989   0.034   0.038  0.00  0.00     0.276 S 
ATOM      4  O   UNL d   1       0.359   1.329  -0.129  0.00  0.00    -0.199 OA
ATOM      5  O   UNL d   1       2.420  -0.101   0.189  0.00  0.00    -0.199 OA
BRANCH   3   6
ATOM      6  C   UNL d   1       0.215  -0.755   1.429  0.00  0.00     0.081 A 
ATOM      7  C   UNL d   1       0.925  -1.718   2.150  0.00  0.00     0.026 A 
ATOM      8  C   UNL d   1       0.318  -2.340   3.241  0.00  0.00     0.008 A 
ATOM      9  C   UNL d   1      -0.988  -1.997   3.619  0.00  0.00    -0.062 A 
ATOM     10  C   UNL d   1      -1.670  -0.999   2.911  0.00  0.00     0.008 A 
ATOM     11  C   UNL d   1      -1.638  -2.707   4.771  0.00  0.00     0.048 C 
ATOM     12  C   UNL d   1      -1.070  -0.372   1.819  0.00  0.00     0.026 A 
ENDBRANCH   3   6
ENDBRANCH   1   3
BRANCH   1  13
ATOM     13  N   UNL d   1       0.891  -0.603  -2.570  0.00  0.00    -0.301 N 
ATOM     14  C   UNL d   1       0.470  -1.335  -3.548  0.00  0.00     0.122 C 
ATOM     15  HN  UNL d   1       1.491   0.206  -2.731  1.00  0.00     0.186 HD
BRANCH  14  16
ATOM     16  C   UNL d   1       0.837  -0.983  -4.940  0.00  0.00     0.015 A 
ATOM     17  C   UNL d   1       1.635   0.136  -5.231  0.00  0.00     0.077 A 
ATOM     18  C   UNL d   1       1.933   0.468  -6.550  0.00  0.00     0.039 A 
ATOM     19  C   UNL d   1       1.427  -0.305  -7.593  0.00  0.00     0.026 A 
ATOM     20  C   UNL d   1       0.642  -1.422  -7.306  0.00  0.00     0.035 A 
ATOM     21  C   UNL d   1       0.348  -1.772  -5.985  0.00  0.00     0.039 A 
ATOM     22 CL   UNL d   1       0.013  -2.368  -8.599  0.00  0.00    -0.084 Cl
BRANCH  17  23
ATOM     23  O   UNL d   1       2.156   0.966  -4.279  0.00  0.00    -0.360 OA
ATOM     24  H   UNL d   1       1.853   0.662  -3.394  0.00  0.00     0.217 HD
ENDBRANCH  17  23
ENDBRANCH  14  16
ENDBRANCH   1  13
TORSDOF 5
