REMARK  4 active torsions:
REMARK  status: ('A' for Active; 'I' for Inactive)
REMARK    1  A    between atoms: N_8  and  C_1 
REMARK    2  A    between atoms: C_11  and  N_3 
REMARK    3  A    between atoms: N_12  and  C_7 
REMARK    4  A    between atoms: C_13  and  N_8 
ROOT
ATOM      1  C   UNL d   1      -0.736   1.145  -0.064  0.00  0.00     0.696 C 
ATOM      2  C   UNL d   1       1.352  -0.112   0.102  0.00  0.00     0.348 C 
ATOM      3  N   UNL d   1       0.658   1.123   0.069  0.00  0.00    -0.096 N 
ATOM      4  N   UNL d   1       0.649  -1.302  -0.007  0.00  0.00    -0.283 N 
ATOM      5  HN  UNL d   1       1.120  -2.202   0.085  1.00  0.00     0.173 HD
ATOM      6  N   UNL d   1      -1.291  -0.077  -0.300  0.00  0.00    -0.165 N 
ATOM      7  C   UNL d   1      -0.617  -1.236  -0.227  0.00  0.00     0.173 C 
ATOM      8  O   UNL d   1       2.578  -0.178   0.198  0.00  0.00    -0.245 OA
ATOM      9  H   UNL d   1      -2.253  -0.105  -0.598  0.00  0.00     0.187 HD
ENDROOT
BRANCH   1  10
ATOM     10  N   UNL d   1      -1.392   2.259   0.084  0.00  0.00    -0.191 N 
ATOM     11  HN  UNL d   1      -0.863   3.120   0.222  1.00  0.00     0.184 HD
BRANCH  10  12
ATOM     12  C   UNL d   1      -2.793   2.329   0.060  0.00  0.00     0.049 A 
ATOM     13  C   UNL d   1      -3.616   1.492   0.827  0.00  0.00     0.030 A 
ATOM     14  C   UNL d   1      -5.007   1.600   0.760  0.00  0.00     0.002 A 
ATOM     15  C   UNL d   1      -5.590   2.589  -0.029  0.00  0.00     0.000 A 
ATOM     16  C   UNL d   1      -4.781   3.472  -0.743  0.00  0.00     0.002 A 
ATOM     17  C   UNL d   1      -3.391   3.338  -0.697  0.00  0.00     0.030 A 
ENDBRANCH  10  12
ENDBRANCH   1  10
BRANCH   3  18
ATOM     18  C   UNL d   1       1.414   2.345   0.089  0.00  0.00     0.061 A 
ATOM     19  C   UNL d   1       1.143   3.366  -0.837  0.00  0.00     0.031 A 
ATOM     20  C   UNL d   1       1.911   4.533  -0.864  0.00  0.00     0.002 A 
ATOM     21  C   UNL d   1       2.947   4.706   0.049  0.00  0.00     0.000 A 
ATOM     22  C   UNL d   1       3.221   3.710   0.983  0.00  0.00     0.002 A 
ATOM     23  C   UNL d   1       2.467   2.533   0.995  0.00  0.00     0.031 A 
ENDBRANCH   3  18
BRANCH   7  24
ATOM     24  N   UNL d   1      -1.375  -2.348  -0.373  0.00  0.00    -0.273 NA
ATOM     25  H   UNL d   1      -0.825  -3.184  -0.181  0.00  0.00     0.127 HD
ATOM     26  H   UNL d   1      -2.228  -2.361   0.171  0.00  0.00     0.127 HD
ENDBRANCH   7  24
TORSDOF 4
