REMARK  2 active torsions:
REMARK  status: ('A' for Active; 'I' for Inactive)
REMARK    1  A    between atoms: S_12  and  C_3 
REMARK    2  A    between atoms: C_4  and  C_7 
ROOT
ATOM      1  C   UNL d   1       0.607   3.600  -0.710  0.00  0.00     0.125 C 
ATOM      2  N   UNL d   1       2.806   3.199  -2.006  0.00  0.00    -0.191 NA
ATOM      3  N   UNL d   1      -0.311   6.014  -0.601  0.00  0.00    -0.191 NA
ATOM      4  C   UNL d   1       1.814   3.381  -1.430  0.00  0.00     0.111 C 
ATOM      5  C   UNL d   1       0.107   4.932  -0.660  0.00  0.00     0.111 C 
ENDROOT
BRANCH   1   6
ATOM      6  C   UNL d   1      -0.093   2.624  -0.099  0.00  0.00     0.052 C 
ATOM      7  C   UNL d   1       0.287   1.248  -0.048  0.00  0.00     0.008 A 
ATOM      8  S   UNL d   1      -0.953   0.049  -0.071  0.00  0.00    -0.083 SA
ATOM      9  C   UNL d   1       1.528   0.644   0.064  0.00  0.00     0.021 A 
ATOM     10  C   UNL d   1       0.164  -1.242  -0.004  0.00  0.00     0.041 A 
ATOM     11  C   UNL d   1       1.457  -0.780   0.080  0.00  0.00     0.027 A 
BRANCH  10  12
ATOM     12  S   UNL d   1      -0.382  -2.913   0.004  0.00  0.00    -0.127 SA
ATOM     13  C   UNL d   1       0.961  -3.754  -0.863  0.00  0.00     0.096 C 
ENDBRANCH  10  12
ENDBRANCH   1   6
TORSDOF 2
