REMARK  4 active torsions:
REMARK  status: ('A' for Active; 'I' for Inactive)
REMARK    1  A    between atoms: C_5  and  C_1 
REMARK    2  A    between atoms: N_2  and  C_6 
REMARK    3  A    between atoms: C_4  and  C_7 
REMARK    4  A    between atoms: O_22  and  C_9 
ROOT
ATOM      1  N   UNL d   1       0.447  -3.060   4.074  0.00  0.00    -0.364 N 
ATOM      2  HN  UNL d   1       1.329  -3.565   3.989  1.00  0.00     0.165 HD
ATOM      3  C   UNL d   1      -0.562  -3.592   4.691  0.00  0.00     0.102 C 
ENDROOT
BRANCH   1   4
ATOM      4  C   UNL d   1       0.302  -1.769   3.520  0.00  0.00     0.054 A 
ATOM      5  C   UNL d   1       0.715  -1.618   2.186  0.00  0.00     0.047 A 
ATOM      6  C   UNL d   1       0.685  -0.372   1.537  0.00  0.00     0.050 A 
ATOM      7  C   UNL d   1       0.208   0.744   2.238  0.00  0.00     0.018 A 
ATOM      8  C   UNL d   1      -0.195   0.620   3.568  0.00  0.00     0.027 A 
ATOM      9  C   UNL d   1      -0.127  -0.620   4.215  0.00  0.00     0.060 A 
ATOM     10 CL   UNL d   1      -0.543  -0.652   5.894  0.00  0.00    -0.082 Cl
BRANCH   6  11
ATOM     11  C   UNL d   1       1.186  -0.213   0.121  0.00  0.00     0.417 C 
ATOM     12  F   UNL d   1       1.642  -1.370  -0.432  0.00  0.00    -0.166 F 
ATOM     13  F   UNL d   1       2.215   0.675   0.034  0.00  0.00    -0.166 F 
ATOM     14  F   UNL d   1       0.221   0.251  -0.721  0.00  0.00    -0.166 F 
ENDBRANCH   6  11
ENDBRANCH   1   4
BRANCH   3  15
ATOM     15  C   UNL d   1      -0.459  -4.935   5.301  0.00  0.00     0.014 A 
ATOM     16  C   UNL d   1       0.573  -5.821   4.967  0.00  0.00     0.077 A 
ATOM     17  C   UNL d   1       0.623  -7.091   5.536  0.00  0.00     0.039 A 
ATOM     18  C   UNL d   1      -0.348  -7.475   6.462  0.00  0.00     0.022 A 
ATOM     19  C   UNL d   1      -1.365  -6.584   6.808  0.00  0.00     0.011 A 
ATOM     20  C   UNL d   1      -1.433  -5.316   6.228  0.00  0.00     0.034 A 
ATOM     21 BR   UNL d   1      -2.664  -7.099   8.083  0.00  0.00    -0.051 Br
BRANCH  16  22
ATOM     22  O   UNL d   1       1.563  -5.504   4.078  0.00  0.00    -0.360 OA
ATOM     23  H   UNL d   1       1.463  -4.548   3.866  0.00  0.00     0.217 HD
ENDBRANCH  16  22
ENDBRANCH   3  15
TORSDOF 4
