REMARK  6 active torsions:
REMARK  status: ('A' for Active; 'I' for Inactive)
REMARK    1  A    between atoms: C_2  and  N_1 
REMARK    2  A    between atoms: O_7  and  C_3 
REMARK    3  A    between atoms: C_10  and  C_5 
REMARK    4  A    between atoms: C_12  and  O_7 
REMARK    5  A    between atoms: O_14  and  C_8 
REMARK    6  A    between atoms: C_15  and  C_12 
ROOT
ATOM      1  C   UNL d   1      -1.428  -3.123  -4.295  0.00  0.00     0.103 A 
ATOM      2  C   UNL d   1      -0.962  -4.433  -4.486  0.00  0.00     0.101 A 
ATOM      3  C   UNL d   1      -0.759  -2.292  -3.379  0.00  0.00     0.051 A 
ATOM      4  C   UNL d   1       0.331  -2.757  -2.623  0.00  0.00    -0.032 A 
ATOM      5  C   UNL d   1       0.122  -4.899  -3.733  0.00  0.00     0.040 A 
ATOM      6  C   UNL d   1       0.772  -4.069  -2.820  0.00  0.00     0.014 A 
ENDROOT
BRANCH   1   7
ATOM      7  O   UNL d   1      -2.489  -2.691  -5.046  0.00  0.00    -0.344 OA
BRANCH   7   8
ATOM      8  C   UNL d   1      -3.373  -1.751  -4.430  0.00  0.00     0.214 C 
BRANCH   8   9
ATOM      9  C   UNL d   1      -4.535  -1.481  -5.357  0.00  0.00    -0.034 A 
ATOM     10  C   UNL d   1      -5.385  -2.518  -5.765  0.00  0.00     0.009 A 
ATOM     11  C   UNL d   1      -6.467  -2.259  -6.611  0.00  0.00     0.001 A 
ATOM     12  C   UNL d   1      -6.713  -0.960  -7.052  0.00  0.00     0.000 A 
ATOM     13  C   UNL d   1      -5.879   0.081  -6.651  0.00  0.00     0.001 A 
ATOM     14  C   UNL d   1      -4.796  -0.177  -5.809  0.00  0.00     0.009 A 
ENDBRANCH   8   9
ENDBRANCH   7   8
ENDBRANCH   1   7
BRANCH   2  15
ATOM     15  O   UNL d   1      -1.493  -5.389  -5.313  0.00  0.00    -0.353 OA
ATOM     16  C   UNL d   1      -2.021  -4.934  -6.552  0.00  0.00     0.210 C 
ENDBRANCH   2  15
BRANCH   4  17
ATOM     17  C   UNL d   1       1.004  -1.834  -1.696  0.00  0.00     0.035 C 
ATOM     18  C   UNL d   1       1.600  -2.239  -0.566  0.00  0.00     0.168 C 
BRANCH  18  19
ATOM     19  N   UNL d   1       2.241  -1.277   0.300  0.00  0.00    -0.127 N 
ATOM     20  O   UNL d   1       2.791  -1.742   1.305  0.00  0.00    -0.532 OA
ATOM     21  O   UNL d   1       2.202  -0.078  -0.004  0.00  0.00    -0.532 OA
ENDBRANCH  18  19
ENDBRANCH   4  17
TORSDOF 6
