REMARK  4 active torsions:
REMARK  status: ('A' for Active; 'I' for Inactive)
REMARK    1  A    between atoms: C_4  and  C_1 
REMARK    2  A    between atoms: C_6  and  N_2 
REMARK    3  A    between atoms: C_11  and  C_5 
REMARK    4  A    between atoms: O_14  and  C_7 
ROOT
ATOM      1  N   UNL d   1      -4.108  -2.426  -0.083  0.00  0.00    -0.365 N 
ATOM      2  HN  UNL d   1      -3.895  -1.920   0.776  1.00  0.00     0.165 HD
ATOM      3  C   UNL d   1      -3.755  -1.960  -1.237  0.00  0.00     0.102 C 
ENDROOT
BRANCH   1   4
ATOM      4  C   UNL d   1      -4.798  -3.658  -0.050  0.00  0.00     0.038 A 
ATOM      5  C   UNL d   1      -4.412  -4.697   0.828  0.00  0.00    -0.028 A 
ATOM      6  C   UNL d   1      -5.161  -5.897   0.818  0.00  0.00     0.010 A 
ATOM      7  C   UNL d   1      -6.262  -6.069  -0.016  0.00  0.00     0.001 A 
ATOM      8  C   UNL d   1      -6.649  -5.039  -0.860  0.00  0.00     0.002 A 
ATOM      9  C   UNL d   1      -5.932  -3.843  -0.863  0.00  0.00     0.030 A 
BRANCH   5  10
ATOM     10  C   UNL d   1      -3.215  -4.665   1.776  0.00  0.00     0.013 C 
ATOM     11  C   UNL d   1      -1.978  -5.266   1.101  0.00  0.00     0.015 C 
ATOM     12  C   UNL d   1      -2.872  -3.322   2.420  0.00  0.00     0.015 C 
ENDBRANCH   5  10
ENDBRANCH   1   4
BRANCH   3  13
ATOM     13  C   UNL d   1      -2.998  -0.697  -1.355  0.00  0.00     0.014 A 
ATOM     14  C   UNL d   1      -2.846   0.183  -0.276  0.00  0.00     0.077 A 
ATOM     15  C   UNL d   1      -2.074   1.335  -0.412  0.00  0.00     0.039 A 
ATOM     16  C   UNL d   1      -1.436   1.604  -1.624  0.00  0.00     0.022 A 
ATOM     17  C   UNL d   1      -1.597   0.731  -2.701  0.00  0.00     0.011 A 
ATOM     18  C   UNL d   1      -2.387  -0.412  -2.579  0.00  0.00     0.034 A 
ATOM     19 BR   UNL d   1      -0.709   1.083  -4.333  0.00  0.00    -0.051 Br
BRANCH  14  20
ATOM     20  O   UNL d   1      -3.427  -0.030   0.943  0.00  0.00    -0.360 OA
ATOM     21  H   UNL d   1      -3.840  -0.924   0.916  0.00  0.00     0.217 HD
ENDBRANCH  14  20
ENDBRANCH   3  13
TORSDOF 4
