REMARK  7 active torsions:
REMARK  status: ('A' for Active; 'I' for Inactive)
REMARK    1  A    between atoms: C_3  and  S_1 
REMARK    2  A    between atoms: N_7  and  S_1 
REMARK       I    between atoms: C_2  and  N_6 
REMARK    3  A    between atoms: C_9  and  C_2 
REMARK    4  A    between atoms: N_6  and  C_12 
REMARK    5  A    between atoms: N_13  and  C_9 
REMARK    6  A    between atoms: C_16  and  N_13 
REMARK    7  A    between atoms: C_17  and  N_13 
ROOT
ATOM      1  C   UNL d   1       0.840  -0.057  -2.039  0.00  0.00     0.074 A 
ATOM      2  C   UNL d   1      -0.521  -0.123  -2.345  0.00  0.00     0.027 A 
ATOM      3  C   UNL d   1       1.759  -0.829  -2.745  0.00  0.00     0.027 A 
ATOM      4  C   UNL d   1      -0.059  -1.789  -4.052  0.00  0.00     0.034 A 
ATOM      5  C   UNL d   1      -0.966  -0.976  -3.364  0.00  0.00     0.031 A 
ATOM      6  C   UNL d   1       1.304  -1.695  -3.745  0.00  0.00     0.031 A 
ENDROOT
BRANCH   4   7
ATOM      7  N   UNL d   1      -0.558  -2.671  -5.033  0.00  0.00    -0.326 N 
ATOM      8  C   UNL d   1       0.112  -3.776  -5.548  0.00  0.00     0.250 C 
ATOM      9  O   UNL d   1       1.207  -4.187  -5.178  0.00  0.00    -0.271 OA
ATOM     10  H   UNL d   1      -1.507  -2.530  -5.361  0.00  0.00     0.169 HD
BRANCH   8  11
ATOM     11  C   UNL d   1      -0.672  -4.527  -6.624  0.00  0.00     0.374 C 
BRANCH  11  12
ATOM     12  N   UNL d   1      -0.962  -3.687  -7.813  0.00  0.00     0.096 N 
BRANCH  12  13
ATOM     13  C   UNL d   1       0.263  -3.105  -8.401  0.00  0.00     0.268 C 
ATOM     14  C   UNL d   1       1.291  -4.080  -8.971  0.00  0.00     0.037 C 
ENDBRANCH  12  13
BRANCH  12  15
ATOM     15  C   UNL d   1      -1.746  -4.489  -8.774  0.00  0.00     0.268 C 
ATOM     16  C   UNL d   1      -2.166  -3.732 -10.030  0.00  0.00     0.037 C 
ENDBRANCH  12  15
ENDBRANCH  11  12
ENDBRANCH   8  11
ENDBRANCH   4   7
BRANCH   1  17
ATOM     17  S   UNL d   1       1.405   0.971  -0.722  0.00  0.00     0.239 S 
ATOM     18  O   UNL d   1       0.255   1.499  -0.011  0.00  0.00    -0.206 OA
ATOM     19  O   UNL d   1       2.468   1.820  -1.194  0.00  0.00    -0.206 OA
BRANCH  17  20
ATOM     20  N   UNL d   1       2.091  -0.137   0.337  0.00  0.00    -0.225 NA
ATOM     21  H   UNL d   1       1.425  -0.404   1.063  0.00  0.00     0.136 HD
ATOM     22  H   UNL d   1       2.962   0.245   0.705  0.00  0.00     0.136 HD
ENDBRANCH  17  20
ENDBRANCH   1  17
TORSDOF 7
