REMARK  1 active torsions:
REMARK  status: ('A' for Active; 'I' for Inactive)
REMARK    1  A    between atoms: C_14  and  N_7 
ROOT
ATOM      1  C   UNL d   1       0.940  -0.895  -0.315  0.00  0.00     0.102 C 
ATOM      2  C   UNL d   1       0.493   0.405  -0.180  0.00  0.00     0.071 C 
ATOM      3  C   UNL d   1       2.278  -1.448  -0.239  0.00  0.00     0.268 C 
ATOM      4  S   UNL d   1      -0.341  -2.015  -0.450  0.00  0.00    -0.064 SA
ATOM      5  C   UNL d   1      -0.969   0.484  -0.227  0.00  0.00     0.032 C 
ATOM      6  C   UNL d   1      -1.501  -0.805  -0.214  0.00  0.00     0.088 C 
ATOM      7  N   UNL d   1       3.031  -0.802   0.735  0.00  0.00    -0.305 N 
ATOM      8  N   UNL d   1       1.294   1.524   0.020  0.00  0.00    -0.324 N 
ATOM      9  N   UNL d   1      -2.790  -1.162  -0.054  0.00  0.00    -0.354 N 
ATOM     10  HN  UNL d   1      -3.092  -2.136  -0.057  1.00  0.00     0.166 HD
ATOM     11  C   UNL d   1      -1.926   1.545  -0.208  0.00  0.00    -0.045 C 
ATOM     12  C   UNL d   1       2.627   1.650   0.264  0.00  0.00     0.240 C 
ATOM     13  C   UNL d   1       3.584   0.468   0.298  0.00  0.00     0.235 C 
ATOM     14  O   UNL d   1       2.665  -2.409  -0.893  0.00  0.00    -0.266 OA
ATOM     15  C   UNL d   1      -3.273   1.187  -0.002  0.00  0.00     0.032 C 
ATOM     16  C   UNL d   1      -3.646  -0.144   0.110  0.00  0.00     0.006 C 
ATOM     17  O   UNL d   1       3.074   2.801   0.349  0.00  0.00    -0.271 OA
ATOM     18  C   UNL d   1      -1.660   3.020  -0.368  0.00  0.00     0.049 C 
ATOM     19  C   UNL d   1      -5.066  -0.495   0.440  0.00  0.00     0.068 C 
ATOM     20  H   UNL d   1       0.833   2.420   0.065  0.00  0.00     0.169 HD
ENDROOT
BRANCH   7  21
ATOM     21  C   UNL d   1       3.687  -1.522   1.784  0.00  0.00     0.038 A 
ATOM     22  C   UNL d   1       3.835  -2.917   1.760  0.00  0.00     0.031 A 
ATOM     23  C   UNL d   1       4.432  -3.602   2.826  0.00  0.00     0.026 A 
ATOM     24  C   UNL d   1       4.849  -2.903   3.951  0.00  0.00     0.034 A 
ATOM     25  C   UNL d   1       4.678  -1.524   4.017  0.00  0.00     0.026 A 
ATOM     26 CL   UNL d   1       5.560  -3.746   5.270  0.00  0.00    -0.084 Cl
ATOM     27  C   UNL d   1       4.106  -0.838   2.937  0.00  0.00     0.031 A 
ENDBRANCH   7  21
TORSDOF 1
