REMARK  2 active torsions:
REMARK  status: ('A' for Active; 'I' for Inactive)
REMARK    1  A    between atoms: C_16  and  N_3 
REMARK    2  A    between atoms: C_14  and  C_9 
ROOT
ATOM      1  C   UNL d   1       1.478  -0.605  -0.074  0.00  0.00     0.137 A 
ATOM      2  C   UNL d   1       1.501   0.772  -0.006  0.00  0.00     0.025 A 
ATOM      3  N   UNL d   1       2.782  -1.043   0.081  0.00  0.00    -0.239 N 
ATOM      4  N   UNL d   1       3.619   0.010   0.315  0.00  0.00    -0.296 N 
ATOM      5  HN  UNL d   1       4.610  -0.028   0.556  1.00  0.00     0.187 HD
ATOM      6  C   UNL d   1      -0.975   0.683  -0.249  0.00  0.00     0.023 A 
ATOM      7  N   UNL d   1       0.327  -1.327  -0.192  0.00  0.00    -0.343 N 
ATOM      8  C   UNL d   1      -0.906  -0.671  -0.264  0.00  0.00     0.022 A 
ATOM      9  C   UNL d   1       0.243   1.583  -0.095  0.00  0.00     0.096 A 
ATOM     10  C   UNL d   1       2.861   1.105   0.159  0.00  0.00     0.033 C 
ATOM     11  C   UNL d   1      -2.288   1.361  -0.343  0.00  0.00     0.159 C 
ATOM     12  C   UNL d   1      -2.164  -1.509  -0.303  0.00  0.00     0.067 C 
ATOM     13  C   UNL d   1      -3.325  -0.852   0.479  0.00  0.00    -0.036 C 
ATOM     14  C   UNL d   1      -3.547   0.594  -0.006  0.00  0.00     0.092 C 
ATOM     15  O   UNL d   1      -2.353   2.531  -0.709  0.00  0.00    -0.293 OA
ATOM     16  C   UNL d   1       3.489   2.448   0.207  0.00  0.00     0.070 C 
ATOM     17  C   UNL d   1      -3.028  -0.878   1.994  0.00  0.00     0.015 C 
ATOM     18  C   UNL d   1      -4.623  -1.645   0.244  0.00  0.00     0.015 C 
ATOM     19  H   UNL d   1       0.302  -2.338  -0.074  0.00  0.00     0.167 HD
ENDROOT
BRANCH   9  20
ATOM     20  C   UNL d   1       0.171   2.376   1.212  0.00  0.00    -0.045 A 
ATOM     21  C   UNL d   1       0.130   3.779   1.168  0.00  0.00     0.010 A 
ATOM     22  C   UNL d   1      -0.026   4.525   2.339  0.00  0.00     0.024 A 
ATOM     23  C   UNL d   1      -0.159   3.874   3.563  0.00  0.00     0.034 A 
ATOM     24  C   UNL d   1      -0.118   2.485   3.632  0.00  0.00     0.024 A 
ATOM     25 CL   UNL d   1      -0.388   4.793   4.999  0.00  0.00    -0.084 Cl
ATOM     26  C   UNL d   1       0.054   1.740   2.464  0.00  0.00     0.010 A 
ENDBRANCH   9  20
BRANCH   3  27
ATOM     27  C   UNL d   1       3.309  -2.357   0.003  0.00  0.00     0.058 A 
ATOM     28  C   UNL d   1       2.723  -3.320  -0.827  0.00  0.00     0.031 A 
ATOM     29  C   UNL d   1       3.286  -4.596  -0.913  0.00  0.00     0.002 A 
ATOM     30  C   UNL d   1       4.415  -4.919  -0.160  0.00  0.00     0.000 A 
ATOM     31  C   UNL d   1       5.002  -3.961   0.665  0.00  0.00     0.002 A 
ATOM     32  C   UNL d   1       4.464  -2.675   0.733  0.00  0.00     0.031 A 
ENDBRANCH   3  27
TORSDOF 2
