REMARK  4 active torsions:
REMARK  status: ('A' for Active; 'I' for Inactive)
REMARK    1  A    between atoms: C_6  and  C_1 
REMARK    2  A    between atoms: C_5  and  C_2 
REMARK    3  A    between atoms: N_14  and  C_6 
REMARK    4  A    between atoms: O_15  and  N_9 
ROOT
ATOM      1  C   UNL d   1      -2.629   2.855   0.081  0.00  0.00     0.113 A 
ATOM      2  C   UNL d   1      -3.692   3.734   0.057  0.00  0.00     0.191 A 
ATOM      3  N   UNL d   1      -1.435   3.572   0.085  0.00  0.00    -0.336 N 
ATOM      4  HN  UNL d   1      -0.483   3.207   0.126  1.00  0.00     0.168 HD
ATOM      5  O   UNL d   1      -3.170   5.007   0.009  0.00  0.00    -0.291 OA
ATOM      6  C   UNL d   1      -1.818   4.829   0.024  0.00  0.00     0.120 A 
ATOM      7  C   UNL d   1      -0.997   6.055  -0.030  0.00  0.00     0.098 C 
ENDROOT
BRANCH   1   8
ATOM      8  C   UNL d   1      -2.652   1.404   0.104  0.00  0.00     0.127 C 
ATOM      9  N   UNL d   1      -3.662   0.771  -0.392  0.00  0.00    -0.256 N 
ATOM     10  HN  UNL d   1      -4.489   1.216  -0.788  1.00  0.00     0.195 HD
BRANCH   9  11
ATOM     11  O   UNL d   1      -3.462  -0.617  -0.310  0.00  0.00    -0.288 OA
ATOM     12  H   UNL d   1      -4.311  -0.966  -0.643  0.00  0.00     0.244 HD
ENDBRANCH   9  11
BRANCH   8  13
ATOM     13  N   UNL d   1      -1.516   0.868   0.642  0.00  0.00    -0.285 NA
ATOM     14  H   UNL d   1      -0.695   1.460   0.555  0.00  0.00     0.125 HD
ATOM     15  H   UNL d   1      -1.381  -0.096   0.361  0.00  0.00     0.125 HD
ENDBRANCH   8  13
ENDBRANCH   1   8
BRANCH   2  16
ATOM     16  C   UNL d   1      -5.161   3.620   0.111  0.00  0.00     0.441 C 
ATOM     17  F   UNL d   1      -5.633   2.357   0.240  0.00  0.00    -0.164 F 
ATOM     18  F   UNL d   1      -5.666   4.315   1.169  0.00  0.00    -0.164 F 
ATOM     19  F   UNL d   1      -5.747   4.143  -1.000  0.00  0.00    -0.164 F 
ENDBRANCH   2  16
TORSDOF 4
