REMARK  8 active torsions:
REMARK  status: ('A' for Active; 'I' for Inactive)
REMARK    1  A    between atoms: C_9  and  C_1 
REMARK    2  A    between atoms: C_10  and  C_2 
REMARK    3  A    between atoms: C_11  and  C_3 
REMARK    4  A    between atoms: C_13  and  C_5 
REMARK    5  A    between atoms: O_20  and  C_9 
REMARK    6  A    between atoms: O_19  and  C_10 
REMARK    7  A    between atoms: O_18  and  C_11 
REMARK    8  A    between atoms: O_21  and  C_13 
ROOT
ATOM      1  C   UNL d   1      -2.875   3.523  -1.246  0.00  0.00     0.196 C 
ATOM      2  C   UNL d   1      -3.216   2.059  -1.629  0.00  0.00     0.175 C 
ATOM      3  C   UNL d   1      -3.716   1.474   0.658  0.00  0.00     0.068 C 
ATOM      4  N   UNL d   1      -2.433   3.467   0.211  0.00  0.00    -0.326 N 
ATOM      5  C   UNL d   1      -4.087   1.446  -0.770  0.00  0.00     0.052 C 
ATOM      6  C   UNL d   1      -2.944   2.492   1.079  0.00  0.00     0.112 C 
ATOM      7  S   UNL d   1      -1.650   4.508  -2.200  0.00  0.00    -0.084 SA
ATOM      8  C   UNL d   1      -1.032   3.802   0.246  0.00  0.00     0.053 C 
ATOM      9  C   UNL d   1      -0.553   4.567  -0.822  0.00  0.00     0.030 C 
ATOM     10  C   UNL d   1      -0.104   3.356   1.188  0.00  0.00     0.031 C 
ATOM     11  C   UNL d   1       0.731   5.098  -0.840  0.00  0.00     0.021 C 
ATOM     12  C   UNL d   1       1.231   3.776   1.113  0.00  0.00     0.002 C 
ATOM     13  C   UNL d   1       1.630   4.701   0.146  0.00  0.00     0.002 C 
ENDROOT
BRANCH   1  14
ATOM     14  C   UNL d   1      -4.185   4.290  -1.599  0.00  0.00     0.299 C 
ATOM     15  O   UNL d   1      -4.749   4.146  -2.690  0.00  0.00    -0.261 OA
BRANCH  14  16
ATOM     16  O   UNL d   1      -4.633   5.167  -0.662  0.00  0.00    -0.324 OA
ATOM     17  C   UNL d   1      -5.794   5.874  -1.123  0.00  0.00     0.213 C 
ENDBRANCH  14  16
ENDBRANCH   1  14
BRANCH   2  18
ATOM     18  C   UNL d   1      -2.030   1.191  -1.877  0.00  0.00     0.271 C 
ATOM     19  O   UNL d   1      -0.899   1.587  -2.139  0.00  0.00    -0.264 OA
BRANCH  18  20
ATOM     20  O   UNL d   1      -2.351  -0.121  -1.696  0.00  0.00    -0.326 OA
ATOM     21  C   UNL d   1      -1.229  -0.983  -1.506  0.00  0.00     0.213 C 
ENDBRANCH  18  20
ENDBRANCH   2  18
BRANCH   5  22
ATOM     22  C   UNL d   1      -5.547   1.691  -0.986  0.00  0.00     0.291 C 
ATOM     23  O   UNL d   1      -6.278   2.173  -0.137  0.00  0.00    -0.260 OA
BRANCH  22  24
ATOM     24  O   UNL d   1      -5.885   1.351  -2.247  0.00  0.00    -0.323 OA
ATOM     25  C   UNL d   1      -7.250   1.626  -2.584  0.00  0.00     0.213 C 
ENDBRANCH  22  24
ENDBRANCH   5  22
BRANCH   3  26
ATOM     26  C   UNL d   1      -4.163   0.348   1.516  0.00  0.00     0.295 C 
ATOM     27  O   UNL d   1      -4.882  -0.556   1.109  0.00  0.00    -0.259 OA
BRANCH  26  28
ATOM     28  O   UNL d   1      -3.598   0.398   2.751  0.00  0.00    -0.322 OA
ATOM     29  C   UNL d   1      -3.872  -0.755   3.555  0.00  0.00     0.213 C 
ENDBRANCH  26  28
ENDBRANCH   3  26
TORSDOF 8
