REMARK  3 active torsions:
REMARK  status: ('A' for Active; 'I' for Inactive)
REMARK    1  A    between atoms: C_8  and  C_2 
REMARK    2  A    between atoms: C_10  and  C_8 
REMARK    3  A    between atoms: C_9  and  C_10 
ROOT
ATOM      1  N   UNL d   1      -1.201   0.925   0.670  0.00  0.00    -0.365 N 
ATOM      2  C   UNL d   1      -1.528  -1.176  -0.010  0.00  0.00    -0.030 A 
ATOM      3  C   UNL d   1      -1.827  -0.254   0.975  0.00  0.00     0.096 A 
ATOM      4  C   UNL d   1      -0.678  -0.509  -0.955  0.00  0.00    -0.002 A 
ATOM      5  C   UNL d   1      -0.490   0.797  -0.499  0.00  0.00     0.042 A 
ATOM      6  C   UNL d   1      -0.049  -0.889  -2.159  0.00  0.00     0.014 A 
ATOM      7  C   UNL d   1       0.294   1.737  -1.181  0.00  0.00     0.030 A 
ATOM      8  C   UNL d   1       0.746   0.034  -2.850  0.00  0.00     0.001 A 
ATOM      9  C   UNL d   1       0.912   1.329  -2.366  0.00  0.00     0.002 A 
ATOM     10  H   UNL d   1      -1.255   1.771   1.218  0.00  0.00     0.165 HD
ENDROOT
BRANCH   2  11
ATOM     11  C   UNL d   1      -2.030  -2.593  -0.067  0.00  0.00     0.047 C 
BRANCH  11  12
ATOM     12  C   UNL d   1      -0.905  -3.627   0.042  0.00  0.00     0.061 C 
BRANCH  12  13
ATOM     13  C   UNL d   1      -1.360  -5.070   0.025  0.00  0.00     0.009 A 
ATOM     14  N   UNL d   1      -2.685  -5.344  -0.030  0.00  0.00    -0.369 N 
ATOM     15  C   UNL d   1      -3.053  -6.646  -0.048  0.00  0.00     0.088 A 
ATOM     16  HN  UNL d   1      -3.379  -4.597  -0.057  1.00  0.00     0.165 HD
ATOM     17  C   UNL d   1      -2.160  -7.702  -0.012  0.00  0.00     0.017 A 
ATOM     18  C   UNL d   1      -0.804  -7.409   0.046  0.00  0.00     0.003 A 
ATOM     19  C   UNL d   1      -0.397  -6.078   0.066  0.00  0.00     0.025 A 
ENDBRANCH  12  13
ENDBRANCH  11  12
ENDBRANCH   2  11
TORSDOF 3
