REMARK  4 active torsions:
REMARK  status: ('A' for Active; 'I' for Inactive)
REMARK    1  A    between atoms: C_7  and  N_2 
REMARK    2  A    between atoms: C_9  and  C_4 
REMARK    3  A    between atoms: O_8  and  C_9 
REMARK    4  A    between atoms: C_10  and  O_8 
ROOT
ATOM      1  C   UNL d   1      -0.636   0.011   0.011  0.00  0.00     0.363 C 
ATOM      2  N   UNL d   1       0.150  -1.109  -0.130  0.00  0.00    -0.322 N 
ATOM      3  O   UNL d   1       0.164   1.114   0.159  0.00  0.00    -0.295 OA
ATOM      4  C   UNL d   1       1.529   0.727  -0.068  0.00  0.00     0.176 C 
ATOM      5  C   UNL d   1       1.528  -0.782   0.085  0.00  0.00     0.163 C 
ATOM      6  O   UNL d   1      -1.852   0.056   0.005  0.00  0.00    -0.238 OA
ENDROOT
BRANCH   4   7
ATOM      7  C   UNL d   1       1.972   1.166  -1.464  0.00  0.00     0.210 C 
BRANCH   7   8
ATOM      8  O   UNL d   1       3.337   0.780  -1.653  0.00  0.00    -0.349 OA
BRANCH   8   9
ATOM      9  C   UNL d   1       3.903   1.141  -2.843  0.00  0.00     0.069 A 
ATOM     10  C   UNL d   1       5.293   1.275  -2.827  0.00  0.00     0.038 A 
ATOM     11  C   UNL d   1       5.985   1.645  -3.983  0.00  0.00     0.022 A 
ATOM     12  C   UNL d   1       5.279   1.862  -5.165  0.00  0.00     0.011 A 
ATOM     13  C   UNL d   1       3.897   1.701  -5.198  0.00  0.00     0.022 A 
ATOM     14 BR   UNL d   1       6.201   2.374  -6.732  0.00  0.00    -0.051 Br
ATOM     15  C   UNL d   1       3.206   1.337  -4.038  0.00  0.00     0.038 A 
ENDBRANCH   8   9
ENDBRANCH   7   8
ENDBRANCH   4   7
BRANCH   2  16
ATOM     16  C   UNL d   1      -0.359  -2.472  -0.263  0.00  0.00     0.081 C 
ATOM     17  C   UNL d   1       0.114  -3.098  -1.575  0.00  0.00     0.032 C 
ATOM     18  C   UNL d   1       0.023  -3.352   0.925  0.00  0.00     0.032 C 
ENDBRANCH   2  16
TORSDOF 4
