REMARK  5 active torsions:
REMARK  status: ('A' for Active; 'I' for Inactive)
REMARK    1  A    between atoms: S_12  and  C_1 
REMARK    2  A    between atoms: C_7  and  O_13 
REMARK    3  A    between atoms: C_20  and  S_12 
REMARK    4  A    between atoms: O_13  and  C_17 
REMARK    5  A    between atoms: C_21  and  C_20 
ROOT
ATOM      1  C   UNL d   1      -2.410  -0.078   0.089  0.00  0.00     0.145 A 
ATOM      2  N   UNL d   1      -1.688  -1.171   0.143  0.00  0.00    -0.335 N 
ATOM      3  HN  UNL d   1      -2.019  -2.136   0.162  1.00  0.00     0.168 HD
ATOM      4  N   UNL d   1      -1.632   1.049   0.083  0.00  0.00    -0.335 N 
ATOM      5  C   UNL d   1      -0.379  -0.729   0.170  0.00  0.00     0.062 A 
ATOM      6  C   UNL d   1      -0.323   0.662   0.134  0.00  0.00     0.062 A 
ATOM      7  C   UNL d   1       0.822  -1.452   0.230  0.00  0.00     0.057 A 
ATOM      8  C   UNL d   1       0.869   1.392   0.152  0.00  0.00     0.057 A 
ATOM      9  C   UNL d   1       2.036  -0.747   0.252  0.00  0.00     0.058 A 
ATOM     10  C   UNL d   1       2.060   0.658   0.214  0.00  0.00     0.058 A 
ATOM     11 CL   UNL d   1       3.536   1.561   0.241  0.00  0.00    -0.082 Cl
ATOM     12 CL   UNL d   1       3.495  -1.677   0.328  0.00  0.00    -0.082 Cl
ATOM     13  H   UNL d   1      -1.989   1.990   0.046  0.00  0.00     0.168 HD
ENDROOT
BRANCH   1  14
ATOM     14  S   UNL d   1      -4.116   0.126   0.031  0.00  0.00    -0.089 SA
BRANCH  14  15
ATOM     15  C   UNL d   1      -4.735  -1.581   0.054  0.00  0.00     0.121 C 
BRANCH  15  16
ATOM     16  C   UNL d   1      -6.249  -1.584  -0.025  0.00  0.00    -0.048 A 
ATOM     17  C   UNL d   1      -6.907  -1.583  -1.264  0.00  0.00     0.011 A 
ATOM     18  C   UNL d   1      -8.308  -1.524  -1.343  0.00  0.00     0.037 A 
ATOM     19  C   UNL d   1      -9.072  -1.493  -0.179  0.00  0.00     0.078 A 
ATOM     20  C   UNL d   1      -8.420  -1.463   1.057  0.00  0.00     0.037 A 
ATOM     21  C   UNL d   1      -7.025  -1.512   1.138  0.00  0.00     0.011 A 
BRANCH  19  22
ATOM     22  O   UNL d   1     -10.430  -1.443  -0.092  0.00  0.00    -0.255 OA
BRANCH  22  23
ATOM     23  C   UNL d   1     -11.237  -1.927  -1.153  0.00  0.00     0.530 C 
ATOM     24  F   UNL d   1     -10.585  -2.729  -2.021  0.00  0.00    -0.144 F 
ATOM     25  F   UNL d   1     -12.252  -2.645  -0.618  0.00  0.00    -0.144 F 
ATOM     26  F   UNL d   1     -11.772  -0.888  -1.829  0.00  0.00    -0.144 F 
ENDBRANCH  22  23
ENDBRANCH  19  22
ENDBRANCH  15  16
ENDBRANCH  14  15
ENDBRANCH   1  14
TORSDOF 5
