REMARK  7 active torsions:
REMARK  status: ('A' for Active; 'I' for Inactive)
REMARK    1  A    between atoms: C_3  and  C_8 
REMARK    2  A    between atoms: C_16  and  C_4 
REMARK    3  A    between atoms: O_7  and  C_5 
REMARK    4  A    between atoms: C_8  and  O_7 
REMARK    5  A    between atoms: C_9  and  C_14 
REMARK    6  A    between atoms: C_14  and  C_11 
REMARK    7  A    between atoms: O_19  and  C_15 
ROOT
ATOM      1  C   UNL d   1       0.429  -3.771   1.013  0.00  0.00     0.108 C 
ATOM      2  C   UNL d   1      -0.933  -3.441   0.775  0.00  0.00    -0.019 C 
ATOM      3  C   UNL d   1       0.790  -5.117   1.273  0.00  0.00     0.102 C 
ATOM      4  C   UNL d   1      -1.840  -4.496   0.599  0.00  0.00     0.010 C 
ATOM      5  C   UNL d   1      -1.462  -5.824   0.763  0.00  0.00     0.003 C 
ATOM      6  C   UNL d   1      -0.160  -6.132   1.120  0.00  0.00     0.039 C 
ENDROOT
BRANCH   2   7
ATOM      7  C   UNL d   1      -1.364  -1.985   0.647  0.00  0.00     0.076 C 
BRANCH   7   8
ATOM      8  C   UNL d   1      -2.768  -1.498   1.086  0.00  0.00     0.162 C 
ATOM      9  O   UNL d   1      -3.048  -1.817   2.454  0.00  0.00    -0.274 OA
ATOM     10  N   UNL d   1      -4.134  -2.721   2.503  0.00  0.00    -0.270 N 
ATOM     11  C   UNL d   1      -4.613  -2.837   1.306  0.00  0.00     0.045 C 
ATOM     12  HN  UNL d   1      -4.480  -3.199   3.335  1.00  0.00     0.194 HD
ATOM     13  C   UNL d   1      -3.964  -1.964   0.285  0.00  0.00     0.094 C 
BRANCH  11  14
ATOM     14  C   UNL d   1      -5.700  -3.789   0.961  0.00  0.00    -0.012 A 
ATOM     15  C   UNL d   1      -6.275  -4.558   1.983  0.00  0.00     0.013 A 
ATOM     16  C   UNL d   1      -7.241  -5.519   1.683  0.00  0.00     0.001 A 
ATOM     17  C   UNL d   1      -7.635  -5.725   0.363  0.00  0.00     0.000 A 
ATOM     18  C   UNL d   1      -7.072  -4.960  -0.658  0.00  0.00     0.001 A 
ATOM     19  C   UNL d   1      -6.110  -3.989  -0.362  0.00  0.00     0.013 A 
ENDBRANCH  11  14
ENDBRANCH   7   8
ENDBRANCH   2   7
BRANCH   1  20
ATOM     20  O   UNL d   1       1.304  -2.701   0.960  0.00  0.00    -0.343 OA
BRANCH  20  21
ATOM     21  C   UNL d   1       2.688  -2.999   0.756  0.00  0.00     0.218 C 
BRANCH  21  22
ATOM     22  C   UNL d   1       3.449  -1.800   0.226  0.00  0.00     0.009 A 
ATOM     23  C   UNL d   1       3.752  -0.709   1.063  0.00  0.00     0.044 A 
ATOM     24 CL   UNL d   1       3.190  -0.622   2.697  0.00  0.00    -0.084 Cl
ATOM     25  C   UNL d   1       4.552   0.350   0.613  0.00  0.00     0.024 A 
ATOM     26  C   UNL d   1       5.064   0.346  -0.680  0.00  0.00     0.003 A 
ATOM     27  C   UNL d   1       4.755  -0.708  -1.533  0.00  0.00     0.024 A 
ATOM     28  C   UNL d   1       3.950  -1.766  -1.091  0.00  0.00     0.044 A 
ATOM     29 CL   UNL d   1       3.635  -3.017  -2.246  0.00  0.00    -0.084 Cl
ENDBRANCH  21  22
ENDBRANCH  20  21
ENDBRANCH   1  20
BRANCH   3  30
ATOM     30  O   UNL d   1       2.079  -5.406   1.644  0.00  0.00    -0.353 OA
ATOM     31  C   UNL d   1       2.261  -6.543   2.480  0.00  0.00     0.210 C 
ENDBRANCH   3  30
TORSDOF 7
