REMARK  6 active torsions:
REMARK  status: ('A' for Active; 'I' for Inactive)
REMARK    1  A    between atoms: C_14  and  C_1 
REMARK    2  A    between atoms: C_10  and  C_5 
REMARK    3  A    between atoms: C_6  and  O_19 
REMARK    4  A    between atoms: C_15  and  C_12 
REMARK    5  A    between atoms: C_21  and  C_14 
REMARK    6  A    between atoms: O_19  and  C_21 
ROOT
ATOM      1  C   UNL d   1       4.424  -4.799  -0.722  0.00  0.00     0.110 A 
ATOM      2  C   UNL d   1       4.985  -5.936  -0.119  0.00  0.00     0.075 A 
ATOM      3  C   UNL d   1       4.889  -3.548  -0.308  0.00  0.00     0.165 A 
ATOM      4  N   UNL d   1       5.871  -3.382   0.608  0.00  0.00    -0.335 N 
ATOM      5  HN  UNL d   1       6.164  -2.448   0.896  1.00  0.00     0.168 HD
ATOM      6  C   UNL d   1       6.455  -4.482   1.133  0.00  0.00     0.052 A 
ATOM      7  C   UNL d   1       6.029  -5.761   0.812  0.00  0.00     0.048 A 
ATOM      8  C   UNL d   1       3.420  -4.882  -1.743  0.00  0.00     0.104 C 
ATOM      9  N   UNL d   1       2.625  -4.968  -2.581  0.00  0.00    -0.191 NA
ENDROOT
BRANCH   3  10
ATOM     10  O   UNL d   1       4.323  -2.408  -0.859  0.00  0.00    -0.327 OA
BRANCH  10  11
ATOM     11  C   UNL d   1       4.806  -1.198  -0.273  0.00  0.00     0.261 C 
BRANCH  11  12
ATOM     12  C   UNL d   1       4.171   0.101  -0.815  0.00  0.00     0.190 C 
ATOM     13  O   UNL d   1       4.919   0.951  -1.312  0.00  0.00    -0.289 OA
BRANCH  12  14
ATOM     14  C   UNL d   1       2.730   0.344  -0.637  0.00  0.00     0.060 A 
ATOM     15  S   UNL d   1       1.741  -0.861   0.063  0.00  0.00    -0.085 SA
ATOM     16  C   UNL d   1       0.328   0.093  -0.019  0.00  0.00     0.016 A 
ATOM     17  C   UNL d   1      -0.963  -0.288   0.397  0.00  0.00     0.021 A 
ATOM     18  C   UNL d   1       0.592   1.350  -0.558  0.00  0.00    -0.010 A 
ATOM     19  C   UNL d   1      -2.008   0.629   0.288  0.00  0.00     0.025 A 
ATOM     20  C   UNL d   1      -1.769   1.897  -0.218  0.00  0.00     0.035 A 
ATOM     21  C   UNL d   1      -0.490   2.269  -0.642  0.00  0.00     0.037 A 
ATOM     22 CL   UNL d   1      -3.063   3.026  -0.329  0.00  0.00    -0.084 Cl
ATOM     23  C   UNL d   1       1.986   1.482  -0.957  0.00  0.00    -0.029 A 
ATOM     24  C   UNL d   1       2.506   2.731  -1.613  0.00  0.00     0.050 C 
ENDBRANCH  12  14
ENDBRANCH  11  12
ENDBRANCH  10  11
ENDBRANCH   3  10
BRANCH   2  25
ATOM     25  C   UNL d   1       4.555  -7.355  -0.390  0.00  0.00     0.419 C 
ATOM     26  F   UNL d   1       3.467  -7.491  -1.185  0.00  0.00    -0.166 F 
ATOM     27  F   UNL d   1       5.546  -8.083  -0.973  0.00  0.00    -0.166 F 
ATOM     28  F   UNL d   1       4.249  -8.012   0.765  0.00  0.00    -0.166 F 
ENDBRANCH   2  25
BRANCH   6  29
ATOM     29  C   UNL d   1       7.548  -4.205   2.071  0.00  0.00     0.031 A 
ATOM     30  S   UNL d   1       8.897  -5.264   2.198  0.00  0.00    -0.100 SA
ATOM     31  C   UNL d   1       9.639  -4.297   3.395  0.00  0.00     0.050 A 
ATOM     32  C   UNL d   1       8.893  -3.179   3.689  0.00  0.00     0.008 A 
ATOM     33  C   UNL d   1       7.698  -3.119   2.915  0.00  0.00     0.021 A 
ENDBRANCH   6  29
TORSDOF 6
