REMARK  7 active torsions:
REMARK  status: ('A' for Active; 'I' for Inactive)
REMARK    1  A    between atoms: C_5  and  C_1 
REMARK       I    between atoms: C_2  and  N_4 
REMARK    2  A    between atoms: C_3  and  C_2 
REMARK    3  A    between atoms: N_4  and  C_21 
REMARK    4  A    between atoms: O_24  and  C_9 
REMARK    5  A    between atoms: C_10  and  O_14 
REMARK    6  A    between atoms: O_26  and  C_11 
REMARK    7  A    between atoms: O_14  and  C_15 
ROOT
ATOM      1  N   UNL d   1      -1.555  -2.532   4.819  0.00  0.00    -0.344 N 
ATOM      2  HN  UNL d   1      -2.370  -2.134   5.286  1.00  0.00     0.167 HD
ATOM      3  C   UNL d   1      -0.520  -1.759   4.423  0.00  0.00     0.148 A 
ATOM      4  C   UNL d   1      -0.393  -4.464   3.905  0.00  0.00     0.050 A 
ATOM      5  C   UNL d   1      -1.460  -3.857   4.568  0.00  0.00     0.119 A 
ATOM      6  C   UNL d   1       0.574  -2.258   3.733  0.00  0.00     0.059 A 
ATOM      7  C   UNL d   1       0.632  -3.630   3.472  0.00  0.00     0.035 A 
ENDROOT
BRANCH   4   8
ATOM      8  N   UNL d   1      -0.428  -5.865   3.716  0.00  0.00    -0.322 N 
ATOM      9  C   UNL d   1       0.530  -6.646   3.090  0.00  0.00     0.256 C 
ATOM     10  O   UNL d   1       1.581  -6.252   2.597  0.00  0.00    -0.267 OA
ATOM     11  H   UNL d   1      -1.273  -6.326   4.025  0.00  0.00     0.169 HD
BRANCH   9  12
ATOM     12  C   UNL d   1       0.191  -8.095   2.964  0.00  0.00     0.035 A 
ATOM     13  C   UNL d   1       0.655  -8.786   1.834  0.00  0.00     0.056 A 
ATOM     14  C   UNL d   1       0.281 -10.116   1.588  0.00  0.00     0.102 A 
ATOM     15  C   UNL d   1      -0.547 -10.769   2.519  0.00  0.00     0.101 A 
ATOM     16  C   UNL d   1      -0.947 -10.091   3.682  0.00  0.00     0.040 A 
ATOM     17  C   UNL d   1      -0.584  -8.765   3.911  0.00  0.00     0.020 A 
BRANCH  14  18
ATOM     18  O   UNL d   1       0.680 -10.809   0.477  0.00  0.00    -0.353 OA
ATOM     19  C   UNL d   1       1.445 -10.131  -0.512  0.00  0.00     0.210 C 
ENDBRANCH  14  18
BRANCH  15  20
ATOM     20  O   UNL d   1      -1.057 -12.040   2.472  0.00  0.00    -0.353 OA
ATOM     21  C   UNL d   1      -0.850 -12.824   1.306  0.00  0.00     0.210 C 
ENDBRANCH  15  20
ENDBRANCH   9  12
ENDBRANCH   4   8
BRANCH   3  22
ATOM     22  O   UNL d   1      -0.519  -0.391   4.673  0.00  0.00    -0.294 OA
BRANCH  22  23
ATOM     23  C   UNL d   1      -1.363   0.101   5.644  0.00  0.00     0.078 A 
ATOM     24  C   UNL d   1      -1.589  -0.540   6.862  0.00  0.00     0.053 A 
ATOM     25  C   UNL d   1      -2.504  -0.018   7.788  0.00  0.00     0.050 A 
ATOM     26  C   UNL d   1      -3.108   1.218   7.518  0.00  0.00     0.016 A 
ATOM     27  C   UNL d   1      -2.830   1.898   6.332  0.00  0.00     0.004 A 
ATOM     28  C   UNL d   1      -1.964   1.335   5.389  0.00  0.00     0.037 A 
BRANCH  25  29
ATOM     29  C   UNL d   1      -2.862  -0.797   9.027  0.00  0.00     0.417 C 
ATOM     30  F   UNL d   1      -2.256  -2.017   9.104  0.00  0.00    -0.166 F 
ATOM     31  F   UNL d   1      -4.199  -1.047   9.113  0.00  0.00    -0.166 F 
ATOM     32  F   UNL d   1      -2.529  -0.146  10.175  0.00  0.00    -0.166 F 
ENDBRANCH  25  29
ENDBRANCH  22  23
ENDBRANCH   3  22
TORSDOF 7
