REMARK  3 active torsions:
REMARK  status: ('A' for Active; 'I' for Inactive)
REMARK       I    between atoms: N_3  and  C_1 
REMARK       I    between atoms: N_9  and  C_1 
REMARK    1  A    between atoms: C_2  and  C_4 
REMARK    2  A    between atoms: C_6  and  N_5 
REMARK    3  A    between atoms: C_19  and  N_9 
ROOT
ATOM      1  C   UNL d   1       0.728   0.018   0.019  0.00  0.00     0.322 C 
ATOM      2  N   UNL d   1       0.329   1.353  -0.093  0.00  0.00    -0.332 N 
ATOM      3  N   UNL d   1      -1.423   3.668  -0.547  0.00  0.00    -0.366 N 
ATOM      4  N   UNL d   1       1.544  -0.428  -1.000  0.00  0.00    -0.309 N 
ATOM      5  O   UNL d   1       0.356  -0.679   0.959  0.00  0.00    -0.247 OA
ATOM      6  C   UNL d   1      -0.556   1.899   0.961  0.00  0.00     0.147 C 
ATOM      7  C   UNL d   1      -1.798   2.669   0.462  0.00  0.00     0.144 C 
ATOM      8  C   UNL d   1       0.111   2.672  -2.206  0.00  0.00     0.040 C 
ATOM      9  C   UNL d   1       0.952   2.346  -0.975  0.00  0.00     0.129 C 
ATOM     10  C   UNL d   1      -1.300   3.181  -1.915  0.00  0.00     0.126 C 
ATOM     11  H   UNL d   1       1.566   0.139  -1.829  0.00  0.00     0.170 HD
ENDROOT
BRANCH   4  12
ATOM     12  C   UNL d   1       2.187  -1.682  -1.103  0.00  0.00     0.036 A 
ATOM     13  C   UNL d   1       2.187  -2.647  -0.091  0.00  0.00     0.032 A 
ATOM     14  C   UNL d   1       2.817  -3.881  -0.284  0.00  0.00     0.044 A 
ATOM     15  C   UNL d   1       3.461  -4.144  -1.484  0.00  0.00     0.116 A 
ATOM     16  C   UNL d   1       3.500  -3.190  -2.492  0.00  0.00     0.044 A 
ATOM     17  F   UNL d   1       4.053  -5.331  -1.673  0.00  0.00    -0.206 F 
ATOM     18  C   UNL d   1       2.866  -1.959  -2.300  0.00  0.00     0.032 A 
ENDBRANCH   4  12
BRANCH   3  19
ATOM     19  C   UNL d   1      -1.641   5.010  -0.305  0.00  0.00     0.102 A 
ATOM     20  N   UNL d   1      -2.574   5.383   0.595  0.00  0.00    -0.352 N 
ATOM     21  C   UNL d   1      -2.779   6.707   0.814  0.00  0.00     0.106 A 
ATOM     22  HN  UNL d   1      -3.116   4.683   1.101  1.00  0.00     0.166 HD
ATOM     23  C   UNL d   1      -2.067   7.715   0.199  0.00  0.00     0.063 A 
ATOM     24  C   UNL d   1      -1.077   7.330  -0.702  0.00  0.00     0.021 A 
ATOM     25  C   UNL d   1      -0.874   5.975  -0.960  0.00  0.00     0.049 A 
BRANCH  23  26
ATOM     26  C   UNL d   1      -2.335   9.157   0.497  0.00  0.00     0.418 C 
ATOM     27  F   UNL d   1      -3.371   9.355   1.357  0.00  0.00    -0.166 F 
ATOM     28  F   UNL d   1      -1.262   9.783   1.054  0.00  0.00    -0.166 F 
ATOM     29  F   UNL d   1      -2.639   9.870  -0.623  0.00  0.00    -0.166 F 
ENDBRANCH  23  26
ENDBRANCH   3  19
TORSDOF 3
