REMARK  3 active torsions:
REMARK  status: ('A' for Active; 'I' for Inactive)
REMARK    1  A    between atoms: C_2  and  C_1 
REMARK       I    between atoms: N_5  and  C_2 
REMARK    2  A    between atoms: C_3  and  C_4 
REMARK    3  A    between atoms: C_12  and  N_5 
ROOT
ATOM      1  C   UNL d   1       0.717   1.226  -0.085  0.00  0.00     0.062 A 
ATOM      2  C   UNL d   1      -0.420   0.711   0.555  0.00  0.00     0.066 A 
ATOM      3  N   UNL d   1       1.082  -0.939  -1.166  0.00  0.00    -0.374 N 
ATOM      4  HN  UNL d   1       1.642  -1.531  -1.780  1.00  0.00     0.164 HD
ATOM      5  C   UNL d   1       1.431   0.346  -0.906  0.00  0.00     0.105 A 
ATOM      6  C   UNL d   1      -0.800  -0.621   0.274  0.00  0.00     0.034 A 
ATOM      7  C   UNL d   1      -0.034  -1.393  -0.578  0.00  0.00     0.088 A 
ENDROOT
BRANCH   1   8
ATOM      8  C   UNL d   1       1.288   2.606  -0.032  0.00  0.00     0.258 C 
ATOM      9  N   UNL d   1       0.413   3.669   0.082  0.00  0.00    -0.323 N 
ATOM     10  H   UNL d   1      -0.530   3.493   0.398  0.00  0.00     0.169 HD
ATOM     11  O   UNL d   1       2.507   2.709  -0.147  0.00  0.00    -0.267 OA
BRANCH   9  12
ATOM     12  C   UNL d   1       0.722   5.037  -0.093  0.00  0.00     0.035 A 
ATOM     13  C   UNL d   1       1.902   5.498  -0.690  0.00  0.00     0.032 A 
ATOM     14  C   UNL d   1       2.109   6.866  -0.891  0.00  0.00     0.044 A 
ATOM     15  C   UNL d   1       1.141   7.774  -0.484  0.00  0.00     0.116 A 
ATOM     16  C   UNL d   1      -0.030   7.341   0.120  0.00  0.00     0.044 A 
ATOM     17  F   UNL d   1       1.337   9.084  -0.686  0.00  0.00    -0.206 F 
ATOM     18  C   UNL d   1      -0.243   5.972   0.310  0.00  0.00     0.032 A 
ENDBRANCH   9  12
ENDBRANCH   1   8
BRANCH   2  19
ATOM     19  C   UNL d   1      -1.283   1.441   1.540  0.00  0.00     0.418 C 
ATOM     20  F   UNL d   1      -0.765   2.606   2.007  0.00  0.00    -0.166 F 
ATOM     21  F   UNL d   1      -2.486   1.775   0.997  0.00  0.00    -0.166 F 
ATOM     22  F   UNL d   1      -1.564   0.699   2.644  0.00  0.00    -0.166 F 
ENDBRANCH   2  19
TORSDOF 3
