REMARK  4 active torsions:
REMARK  status: ('A' for Active; 'I' for Inactive)
REMARK    1  A    between atoms: N_8  and  C_1 
REMARK    2  A    between atoms: C_11  and  C_6 
REMARK    3  A    between atoms: C_13  and  N_8 
REMARK    4  A    between atoms: O_20  and  C_16 
ROOT
ATOM      1  C   UNL d   1      -2.269  -0.120   0.017  0.00  0.00     0.688 A 
ATOM      2  N   UNL d   1      -1.736  -1.302  -0.051  0.00  0.00    -0.189 N 
ATOM      3  HN  UNL d   1      -2.331  -2.130  -0.095  1.00  0.00     0.184 HD
ATOM      4  N   UNL d   1      -1.452   0.986   0.041  0.00  0.00    -0.154 N 
ATOM      5  C   UNL d   1       0.505  -0.408  -0.069  0.00  0.00     0.141 A 
ATOM      6  C   UNL d   1      -0.365  -1.435  -0.064  0.00  0.00     0.085 A 
ATOM      7  C   UNL d   1      -0.091   0.937  -0.039  0.00  0.00     0.282 A 
ATOM      8  C   UNL d   1       1.916  -0.540  -0.075  0.00  0.00     0.107 C 
ATOM      9  N   UNL d   1       3.072  -0.667  -0.077  0.00  0.00    -0.191 NA
ATOM     10  O   UNL d   1       0.575   1.966  -0.075  0.00  0.00    -0.266 OA
ATOM     11  H   UNL d   1      -1.853   1.909   0.020  0.00  0.00     0.187 HD
ENDROOT
BRANCH   6  12
ATOM     12  C   UNL d   1       0.131  -2.825  -0.011  0.00  0.00    -0.007 A 
ATOM     13  C   UNL d   1       0.353  -3.431   1.234  0.00  0.00     0.016 A 
ATOM     14  C   UNL d   1       0.838  -4.741   1.311  0.00  0.00     0.037 A 
ATOM     15  C   UNL d   1       1.102  -5.457   0.144  0.00  0.00     0.068 A 
ATOM     16  C   UNL d   1       0.851  -4.866  -1.097  0.00  0.00     0.037 A 
ATOM     17  C   UNL d   1       0.376  -3.554  -1.179  0.00  0.00     0.016 A 
BRANCH  15  18
ATOM     18  O   UNL d   1       1.556  -6.747   0.100  0.00  0.00    -0.356 OA
ATOM     19  C   UNL d   1       2.377  -7.143   1.193  0.00  0.00     0.210 C 
ENDBRANCH  15  18
ENDBRANCH   6  12
BRANCH   1  20
ATOM     20  N   UNL d   1      -3.641   0.111   0.076  0.00  0.00    -0.187 N 
ATOM     21  C   UNL d   1      -4.189   1.113   0.992  0.00  0.00     0.175 C 
BRANCH  20  22
ATOM     22  C   UNL d   1      -4.597  -0.764  -0.521  0.00  0.00     0.051 A 
ATOM     23  C   UNL d   1      -5.906  -0.922  -0.023  0.00  0.00     0.030 A 
ATOM     24  C   UNL d   1      -6.833  -1.780  -0.629  0.00  0.00     0.002 A 
ATOM     25  C   UNL d   1      -6.482  -2.495  -1.766  0.00  0.00     0.000 A 
ATOM     26  C   UNL d   1      -5.205  -2.352  -2.294  0.00  0.00     0.002 A 
ATOM     27  C   UNL d   1      -4.278  -1.500  -1.678  0.00  0.00     0.030 A 
ENDBRANCH  20  22
ENDBRANCH   1  20
TORSDOF 4
