REMARK  3 active torsions:
REMARK  status: ('A' for Active; 'I' for Inactive)
REMARK    1  A    between atoms: C_3  and  C_6 
REMARK    2  A    between atoms: C_11  and  N_4 
REMARK    3  A    between atoms: C_7  and  C_12 
ROOT
ATOM      1  C   UNL d   1      -4.434   0.189  -1.716  0.00  0.00     0.039 A 
ATOM      2  N   UNL d   1      -5.404  -0.273  -0.822  0.00  0.00    -0.322 N 
ATOM      3  C   UNL d   1      -6.168  -1.204  -1.512  0.00  0.00     0.097 A 
ATOM      4  C   UNL d   1      -4.696  -0.351  -2.962  0.00  0.00     0.031 A 
ATOM      5  C   UNL d   1      -5.778  -1.240  -2.831  0.00  0.00     0.020 A 
ENDROOT
BRANCH   1   6
ATOM      6  C   UNL d   1      -3.329   0.990  -1.325  0.00  0.00     0.042 C 
ATOM      7  C   UNL d   1      -2.174   0.432  -0.917  0.00  0.00     0.005 C 
ATOM      8  C   UNL d   1      -1.037   1.362  -0.681  0.00  0.00     0.190 C 
ATOM      9  C   UNL d   1      -1.877  -1.010  -0.689  0.00  0.00     0.122 C 
ATOM     10  C   UNL d   1       0.309   0.934  -1.159  0.00  0.00     0.033 A 
ATOM     11  O   UNL d   1      -1.204   2.451  -0.144  0.00  0.00    -0.287 OA
ATOM     12  C   UNL d   1       1.364   1.853  -1.040  0.00  0.00     0.040 A 
ATOM     13  C   UNL d   1       0.532  -0.313  -1.769  0.00  0.00     0.015 A 
ATOM     14  C   UNL d   1       2.623   1.538  -1.546  0.00  0.00     0.035 A 
ATOM     15 CL   UNL d   1       3.910   2.671  -1.411  0.00  0.00    -0.084 Cl
ATOM     16  C   UNL d   1       2.846   0.316  -2.173  0.00  0.00     0.025 A 
ATOM     17  C   UNL d   1       1.804  -0.606  -2.283  0.00  0.00     0.021 A 
ATOM     18  S   UNL d   1      -0.714  -1.577  -1.953  0.00  0.00    -0.124 SA
ENDBRANCH   1   6
BRANCH   2  19
ATOM     19  C   UNL d   1      -5.617   0.086   0.547  0.00  0.00     0.039 A 
ATOM     20  C   UNL d   1      -5.263   1.354   1.023  0.00  0.00     0.031 A 
ATOM     21  C   UNL d   1      -5.473   1.695   2.362  0.00  0.00     0.018 A 
ATOM     22  C   UNL d   1      -6.042   0.777   3.254  0.00  0.00     0.048 A 
ATOM     23  C   UNL d   1      -6.418  -0.484   2.771  0.00  0.00     0.018 A 
ATOM     24  C   UNL d   1      -6.215  -0.826   1.429  0.00  0.00     0.031 A 
BRANCH  22  25
ATOM     25  C   UNL d   1      -6.248   1.128   4.707  0.00  0.00     0.417 C 
ATOM     26  F   UNL d   1      -5.825   2.381   5.033  0.00  0.00    -0.166 F 
ATOM     27  F   UNL d   1      -7.557   1.068   5.078  0.00  0.00    -0.166 F 
ATOM     28  F   UNL d   1      -5.584   0.281   5.543  0.00  0.00    -0.166 F 
ENDBRANCH  22  25
ENDBRANCH   2  19
TORSDOF 3
