REMARK  2 active torsions:
REMARK  status: ('A' for Active; 'I' for Inactive)
REMARK    1  A    between atoms: C_11  and  N_1 
REMARK    2  A    between atoms: C_13  and  C_6 
ROOT
ATOM      1  N   UNL d   1      -0.027  -0.921   0.044  0.00  0.00    -0.239 N 
ATOM      2  C   UNL d   1       1.299  -0.479   0.138  0.00  0.00     0.144 C 
ATOM      3  C   UNL d   1       1.235   0.896   0.149  0.00  0.00     0.114 C 
ATOM      4  N   UNL d   1      -0.886   0.121  -0.159  0.00  0.00    -0.294 N 
ATOM      5  HN  UNL d   1      -1.885   0.073  -0.362  1.00  0.00     0.187 HD
ATOM      6  C   UNL d   1      -0.128   1.223  -0.033  0.00  0.00     0.064 C 
ATOM      7  C   UNL d   1       2.337   1.788   0.254  0.00  0.00     0.105 C 
ATOM      8  N   UNL d   1       3.225   2.532   0.340  0.00  0.00    -0.191 NA
ATOM      9  N   UNL d   1       2.386  -1.302   0.140  0.00  0.00    -0.383 N 
ATOM     10  H   UNL d   1       2.304  -2.238  -0.264  0.00  0.00     0.157 HD
ATOM     11  H   UNL d   1       3.318  -0.918  -0.024  0.00  0.00     0.157 HD
ENDROOT
BRANCH   6  12
ATOM     12  C   UNL d   1      -0.729   2.591  -0.104  0.00  0.00     0.184 C 
ATOM     13  C   UNL d   1      -0.683   3.103  -1.478  0.00  0.00     0.065 C 
ATOM     14  N   UNL d   1      -0.631   3.534  -2.556  0.00  0.00    -0.197 NA
ENDBRANCH   6  12
BRANCH   1  15
ATOM     15  C   UNL d   1      -0.485  -2.267   0.080  0.00  0.00     0.058 A 
ATOM     16  C   UNL d   1       0.195  -3.221   0.851  0.00  0.00     0.031 A 
ATOM     17  C   UNL d   1      -0.157  -4.568   0.776  0.00  0.00     0.002 A 
ATOM     18  C   UNL d   1      -1.193  -4.966  -0.064  0.00  0.00     0.000 A 
ATOM     19  C   UNL d   1      -1.911  -4.013  -0.789  0.00  0.00     0.002 A 
ATOM     20  C   UNL d   1      -1.579  -2.657  -0.702  0.00  0.00     0.031 A 
ENDBRANCH   1  15
TORSDOF 2
