REMARK  5 active torsions:
REMARK  status: ('A' for Active; 'I' for Inactive)
REMARK       I    between atoms: N_2  and  C_1 
REMARK    1  A    between atoms: C_3  and  C_1 
REMARK    2  A    between atoms: C_5  and  N_2 
REMARK    3  A    between atoms: O_7  and  C_4 
REMARK    4  A    between atoms: C_12  and  O_7 
REMARK    5  A    between atoms: O_19  and  C_13 
ROOT
ATOM      1  C   UNL d   1       0.426   2.447   2.542  0.00  0.00     0.175 A 
ATOM      2  C   UNL d   1       1.056   1.970   1.382  0.00  0.00     0.087 A 
ATOM      3  N   UNL d   1       1.041   3.298   3.410  0.00  0.00    -0.345 N 
ATOM      4  HN  UNL d   1       0.577   3.604   4.265  1.00  0.00     0.167 HD
ATOM      5  C   UNL d   1       2.365   2.396   1.133  0.00  0.00     0.035 A 
ATOM      6  C   UNL d   1       2.282   3.724   3.104  0.00  0.00     0.090 A 
ATOM      7  C   UNL d   1       2.979   3.305   1.988  0.00  0.00     0.019 A 
ENDROOT
BRANCH   2   8
ATOM      8  N   UNL d   1       0.500   1.065   0.451  0.00  0.00    -0.319 N 
ATOM      9  C   UNL d   1      -0.764   1.213  -0.096  0.00  0.00     0.257 C 
ATOM     10  O   UNL d   1      -1.539   2.134   0.116  0.00  0.00    -0.267 OA
ATOM     11  H   UNL d   1       1.152   0.535  -0.115  0.00  0.00     0.169 HD
BRANCH   9  12
ATOM     12  C   UNL d   1      -1.097   0.156  -1.093  0.00  0.00     0.043 A 
ATOM     13  C   UNL d   1      -1.399   0.454  -2.449  0.00  0.00    -0.010 A 
ATOM     14  C   UNL d   1      -1.705  -0.632  -3.311  0.00  0.00    -0.025 A 
ATOM     15  C   UNL d   1      -1.400   1.754  -3.011  0.00  0.00     0.013 A 
ATOM     16  C   UNL d   1      -2.015  -0.397  -4.661  0.00  0.00     0.012 A 
ATOM     17  C   UNL d   1      -1.695  -1.946  -2.817  0.00  0.00     0.012 A 
ATOM     18  C   UNL d   1      -2.014   0.895  -5.183  0.00  0.00     0.001 A 
ATOM     19  C   UNL d   1      -1.702   1.969  -4.360  0.00  0.00     0.001 A 
ATOM     20  C   UNL d   1      -1.384  -2.215  -1.486  0.00  0.00     0.002 A 
ATOM     21  C   UNL d   1      -1.086  -1.167  -0.624  0.00  0.00     0.018 A 
ENDBRANCH   9  12
ENDBRANCH   2   8
BRANCH   1  22
ATOM     22  O   UNL d   1      -0.803   1.899   2.915  0.00  0.00    -0.292 OA
BRANCH  22  23
ATOM     23  C   UNL d   1      -1.452   2.486   3.983  0.00  0.00     0.078 A 
ATOM     24  C   UNL d   1      -1.786   3.841   3.986  0.00  0.00     0.040 A 
ATOM     25  C   UNL d   1      -2.416   4.411   5.096  0.00  0.00     0.039 A 
ATOM     26  C   UNL d   1      -2.750   3.620   6.196  0.00  0.00     0.068 A 
ATOM     27  C   UNL d   1      -2.474   2.249   6.160  0.00  0.00     0.039 A 
ATOM     28  C   UNL d   1      -1.828   1.677   5.055  0.00  0.00     0.040 A 
BRANCH  26  29
ATOM     29  O   UNL d   1      -3.351   4.061   7.344  0.00  0.00    -0.356 OA
ATOM     30  C   UNL d   1      -3.406   5.472   7.526  0.00  0.00     0.210 C 
ENDBRANCH  26  29
ENDBRANCH  22  23
ENDBRANCH   1  22
TORSDOF 5
