REMARK  4 active torsions:
REMARK  status: ('A' for Active; 'I' for Inactive)
REMARK    1  A    between atoms: C_8  and  N_1 
REMARK    2  A    between atoms: C_7  and  N_12 
REMARK    3  A    between atoms: N_12  and  N_9 
REMARK    4  A    between atoms: C_17  and  C_19 
ROOT
ATOM      1  C   UNL d   1       2.146  -1.489  -0.065  0.00  0.00     0.039 A 
ATOM      2  C   UNL d   1       2.402  -2.292  -1.188  0.00  0.00     0.031 A 
ATOM      3  C   UNL d   1       3.055  -1.490   1.000  0.00  0.00     0.031 A 
ATOM      4  C   UNL d   1       4.473  -3.048  -0.195  0.00  0.00    -0.019 A 
ATOM      5  C   UNL d   1       4.218  -2.260   0.930  0.00  0.00     0.015 A 
ATOM      6  C   UNL d   1       3.561  -3.077  -1.250  0.00  0.00     0.015 A 
ENDROOT
BRANCH   4   7
ATOM      7  C   UNL d   1       5.723  -3.828  -0.289  0.00  0.00     0.118 C 
ATOM      8  N   UNL d   1       6.606  -3.776   0.660  0.00  0.00    -0.311 N 
ATOM      9  HN  UNL d   1       6.450  -3.236   1.510  1.00  0.00     0.186 HD
BRANCH   8  10
ATOM     10  N   UNL d   1       7.742  -4.476   0.460  0.00  0.00    -0.298 N 
ATOM     11  H   UNL d   1       7.845  -5.184  -0.270  0.00  0.00     0.187 HD
BRANCH  10  12
ATOM     12  C   UNL d   1       8.699  -4.520   1.493  0.00  0.00     0.086 A 
ATOM     13  C   UNL d   1       9.889  -5.245   1.313  0.00  0.00     0.147 A 
ATOM     14  C   UNL d   1      10.892  -5.263   2.277  0.00  0.00     0.086 A 
ATOM     15  F   UNL d   1      10.070  -5.942   0.180  0.00  0.00    -0.204 F 
ATOM     16  C   UNL d   1      10.710  -4.539   3.446  0.00  0.00     0.119 A 
ATOM     17  C   UNL d   1       9.552  -3.800   3.659  0.00  0.00     0.045 A 
ATOM     18  F   UNL d   1      11.666  -4.547   4.384  0.00  0.00    -0.206 F 
ATOM     19  C   UNL d   1       8.555  -3.786   2.679  0.00  0.00     0.037 A 
ENDBRANCH  10  12
ENDBRANCH   8  10
ENDBRANCH   4   7
BRANCH   1  20
ATOM     20  N   UNL d   1       0.980  -0.663  -0.014  0.00  0.00    -0.320 N 
ATOM     21  C   UNL d   1      -0.301  -1.010  -0.454  0.00  0.00     0.013 A 
ATOM     22  C   UNL d   1      -1.137   0.074  -0.260  0.00  0.00     0.027 A 
ATOM     23  C   UNL d   1      -0.723  -2.350  -0.954  0.00  0.00     0.068 C 
ATOM     24  C   UNL d   1      -0.387   1.096   0.337  0.00  0.00     0.027 A 
ATOM     25  C   UNL d   1       0.912   0.645   0.479  0.00  0.00     0.013 A 
ATOM     26  C   UNL d   1       2.058   1.460   0.981  0.00  0.00     0.068 C 
ENDBRANCH   1  20
TORSDOF 4
