REMARK  3 active torsions:
REMARK  status: ('A' for Active; 'I' for Inactive)
REMARK       I    between atoms: N_2  and  C_1 
REMARK    1  A    between atoms: C_3  and  C_1 
REMARK    2  A    between atoms: C_5  and  N_2 
REMARK    3  A    between atoms: N_4  and  C_6 
ROOT
ATOM      1  C   UNL d   1       0.878  -1.515  -1.821  0.00  0.00     0.061 A 
ATOM      2  C   UNL d   1       2.021  -2.288  -1.501  0.00  0.00     0.057 A 
ATOM      3  C   UNL d   1       0.349  -1.493  -3.121  0.00  0.00     0.032 A 
ATOM      4  C   UNL d   1       2.627  -2.978  -2.568  0.00  0.00     0.031 A 
ATOM      5  C   UNL d   1       0.982  -2.187  -4.146  0.00  0.00     0.002 A 
ATOM      6  C   UNL d   1       2.124  -2.927  -3.873  0.00  0.00     0.002 A 
ENDROOT
BRANCH   1   7
ATOM      7  N   UNL d   1       0.241  -0.711  -0.855  0.00  0.00    -0.319 N 
ATOM      8  C   UNL d   1       0.727   0.562  -0.578  0.00  0.00     0.280 C 
ATOM      9  O   UNL d   1       1.739   1.045  -1.078  0.00  0.00    -0.265 OA
ATOM     10  H   UNL d   1      -0.768  -0.766  -0.796  0.00  0.00     0.169 HD
BRANCH   8  11
ATOM     11  C   UNL d   1      -0.118   1.310   0.338  0.00  0.00     0.142 A 
ATOM     12  O   UNL d   1      -1.196   0.699   0.927  0.00  0.00    -0.317 OA
ATOM     13  C   UNL d   1      -1.758   1.605   1.769  0.00  0.00     0.143 A 
ATOM     14  C   UNL d   1      -1.082   2.800   1.717  0.00  0.00     0.027 A 
ATOM     15  C   UNL d   1      -0.032   2.615   0.786  0.00  0.00     0.045 A 
ENDBRANCH   8  11
ENDBRANCH   1   7
BRANCH   2  16
ATOM     16  N   UNL d   1       2.513  -2.470  -0.214  0.00  0.00    -0.379 N 
ATOM     17  C   UNL d   1       1.641  -2.558   0.955  0.00  0.00     0.123 C 
ATOM     18  C   UNL d   1       2.014  -3.805   1.766  0.00  0.00     0.020 C 
ATOM     19  C   UNL d   1       3.506  -3.851   2.090  0.00  0.00     0.003 C 
ATOM     20  C   UNL d   1       4.351  -3.684   0.828  0.00  0.00     0.020 C 
ATOM     21  C   UNL d   1       3.949  -2.428   0.056  0.00  0.00     0.123 C 
ENDBRANCH   2  16
TORSDOF 3
