REMARK  4 active torsions:
REMARK  status: ('A' for Active; 'I' for Inactive)
REMARK    1  A    between atoms: C_7  and  N_1 
REMARK    2  A    between atoms: C_9  and  C_2 
REMARK    3  A    between atoms: C_8  and  C_7 
REMARK    4  A    between atoms: O_10  and  C_9 
ROOT
ATOM      1  N   UNL d   1      -0.324   1.038  -0.091  0.00  0.00    -0.339 N 
ATOM      2  C   UNL d   1      -0.138   0.289  -1.231  0.00  0.00     0.051 A 
ATOM      3  N   UNL d   1       0.407  -0.941   0.598  0.00  0.00    -0.360 N 
ATOM      4  HN  UNL d   1       0.705  -1.714   1.193  1.00  0.00     0.166 HD
ATOM      5  C   UNL d   1       0.038   0.260   0.977  0.00  0.00     0.183 A 
ATOM      6  C   UNL d   1       0.306  -0.934  -0.767  0.00  0.00     0.116 A 
ENDROOT
BRANCH   1   7
ATOM      7  C   UNL d   1      -0.772   2.421   0.011  0.00  0.00     0.168 C 
BRANCH   7   8
ATOM      8  C   UNL d   1      -2.275   2.574   0.067  0.00  0.00    -0.040 A 
ATOM      9  C   UNL d   1      -3.113   1.643   0.701  0.00  0.00     0.009 A 
ATOM     10  C   UNL d   1      -4.496   1.837   0.741  0.00  0.00     0.001 A 
ATOM     11  C   UNL d   1      -5.059   2.974   0.168  0.00  0.00     0.000 A 
ATOM     12  C   UNL d   1      -4.240   3.921  -0.442  0.00  0.00     0.001 A 
ATOM     13  C   UNL d   1      -2.859   3.726  -0.487  0.00  0.00     0.009 A 
ENDBRANCH   7   8
ENDBRANCH   1   7
BRANCH   2  14
ATOM     14  C   UNL d   1      -0.360   0.764  -2.613  0.00  0.00     0.222 C 
BRANCH  14  15
ATOM     15  O   UNL d   1      -1.726   1.115  -2.737  0.00  0.00    -0.395 OA
ATOM     16  H   UNL d   1      -2.248   0.360  -2.414  0.00  0.00     0.209 HD
ENDBRANCH  14  15
ENDBRANCH   2  14
TORSDOF 4
