REMARK  5 active torsions:
REMARK  status: ('A' for Active; 'I' for Inactive)
REMARK    1  A    between atoms: C_3  and  C_1 
REMARK    2  A    between atoms: C_9  and  C_2 
REMARK    3  A    between atoms: O_8  and  C_3 
REMARK    4  A    between atoms: N_4  and  C_10 
REMARK    5  A    between atoms: C_17  and  O_8 
ROOT
ATOM      1  C   UNL d   1      -2.808  -0.765  -0.171  0.00  0.00     0.302 C 
ATOM      2  O   UNL d   1      -3.710  -0.190   0.425  0.00  0.00    -0.259 OA
ENDROOT
BRANCH   1   3
ATOM      3  C   UNL d   1      -1.447  -0.286  -0.237  0.00  0.00     0.089 A 
ATOM      4  C   UNL d   1      -0.962   1.011  -0.153  0.00  0.00     0.101 A 
ATOM      5  O   UNL d   1       0.406   0.959  -0.210  0.00  0.00    -0.241 OA
ATOM      6  N   UNL d   1       0.830  -0.339  -0.391  0.00  0.00    -0.271 N 
ATOM      7  C   UNL d   1      -0.282  -1.068  -0.415  0.00  0.00     0.134 A 
ATOM      8  HN  UNL d   1       1.790  -0.670  -0.487  1.00  0.00     0.194 HD
BRANCH   4   9
ATOM      9  C   UNL d   1      -1.541   2.406  -0.039  0.00  0.00     0.001 C 
ATOM     10  C   UNL d   1      -1.832   2.734   1.434  0.00  0.00     0.021 C 
ATOM     11  C   UNL d   1      -0.537   3.451  -0.584  0.00  0.00     0.021 C 
ATOM     12  C   UNL d   1      -2.826   2.560  -0.871  0.00  0.00     0.021 C 
ENDBRANCH   4   9
ENDBRANCH   1   3
BRANCH   1  13
ATOM     13  O   UNL d   1      -2.953  -1.969  -0.871  0.00  0.00    -0.275 OA
BRANCH  13  14
ATOM     14  C   UNL d   1      -4.170  -2.681  -0.959  0.00  0.00     0.079 A 
ATOM     15  C   UNL d   1      -4.366  -3.395  -2.145  0.00  0.00     0.040 A 
ATOM     16  C   UNL d   1      -5.492  -4.207  -2.291  0.00  0.00     0.039 A 
ATOM     17  C   UNL d   1      -6.412  -4.304  -1.236  0.00  0.00     0.103 A 
ATOM     18  C   UNL d   1      -6.216  -3.581  -0.051  0.00  0.00     0.039 A 
ATOM     19  C   UNL d   1      -5.084  -2.770   0.090  0.00  0.00     0.040 A 
BRANCH  17  20
ATOM     20  N   UNL d   1      -7.576  -5.191  -1.368  0.00  0.00    -0.116 N 
ATOM     21  O   UNL d   1      -7.707  -5.817  -2.429  0.00  0.00    -0.532 OA
ATOM     22  O   UNL d   1      -8.355  -5.267  -0.407  0.00  0.00    -0.532 OA
ENDBRANCH  17  20
ENDBRANCH  13  14
ENDBRANCH   1  13
TORSDOF 5
