REMARK  2 active torsions:
REMARK  status: ('A' for Active; 'I' for Inactive)
REMARK    1  A    between atoms: C_3  and  C_1 
REMARK       I    between atoms: N_16  and  C_3 
REMARK    2  A    between atoms: C_19  and  N_16 
ROOT
ATOM      1  C   UNL d   1      -1.357  -2.738   0.042  0.00  0.00     0.258 C 
ATOM      2  N   UNL d   1      -0.248  -3.566   0.057  0.00  0.00    -0.323 N 
ATOM      3  O   UNL d   1      -1.358  -1.532   0.285  0.00  0.00    -0.267 OA
ATOM      4  H   UNL d   1      -0.398  -4.542  -0.192  0.00  0.00     0.169 HD
ENDROOT
BRANCH   1   5
ATOM      5  C   UNL d   1      -2.654  -3.328  -0.352  0.00  0.00     0.061 A 
ATOM      6  C   UNL d   1      -2.895  -4.714  -0.525  0.00  0.00     0.082 A 
ATOM      7  N   UNL d   1      -2.020  -5.727  -0.375  0.00  0.00    -0.310 N 
ATOM      8  C   UNL d   1      -4.273  -5.196  -0.934  0.00  0.00     0.068 A 
ATOM      9  S   UNL d   1      -2.855  -7.131  -0.685  0.00  0.00     0.068 SA
ATOM     10  HN  UNL d   1      -1.036  -5.649  -0.120  1.00  0.00     0.176 HD
ATOM     11  N   UNL d   1      -4.355  -6.529  -1.051  0.00  0.00    -0.310 N 
ATOM     12  HN  UNL d   1      -5.181  -7.067  -1.314  1.00  0.00     0.176 HD
ATOM     13  C   UNL d   1      -5.335  -4.286  -1.161  0.00  0.00     0.032 A 
ATOM     14  C   UNL d   1      -5.038  -2.928  -0.986  0.00  0.00     0.003 A 
ATOM     15  C   UNL d   1      -3.759  -2.472  -0.598  0.00  0.00     0.019 A 
ENDBRANCH   1   5
BRANCH   2  16
ATOM     16  C   UNL d   1       1.096  -3.151   0.220  0.00  0.00     0.036 A 
ATOM     17  C   UNL d   1       1.444  -1.854   0.609  0.00  0.00     0.050 A 
ATOM     18  C   UNL d   1       2.795  -1.470   0.571  0.00  0.00     0.035 A 
ATOM     19  S   UNL d   1       3.478   0.073   0.901  0.00  0.00    -0.075 SA
ATOM     20  C   UNL d   1       3.807  -2.354   0.208  0.00  0.00     0.050 A 
ATOM     21  C   UNL d   1       5.019  -0.516   0.434  0.00  0.00     0.048 A 
ATOM     22  C   UNL d   1       6.176   0.415   0.352  0.00  0.00     0.076 C 
ATOM     23  N   UNL d   1       5.077  -1.801   0.150  0.00  0.00    -0.353 N 
ATOM     24  HN  UNL d   1       5.930  -2.312  -0.078  1.00  0.00     0.166 HD
ATOM     25  C   UNL d   1       3.456  -3.687  -0.085  0.00  0.00     0.033 A 
ATOM     26  C   UNL d   1       2.104  -4.071  -0.079  0.00  0.00     0.032 A 
ENDBRANCH   2  16
TORSDOF 2
