REMARK  1 active torsions:
REMARK  status: ('A' for Active; 'I' for Inactive)
REMARK    1  A    between atoms: C_4  and  N_1 
ROOT
ATOM      1  N   UNL d   1      -7.016  -0.015  -4.191  0.00  0.00    -0.191 NA
ATOM      2  C   UNL d   1      -6.095   0.011  -3.482  0.00  0.00     0.099 C 
ATOM      3  C   UNL d   1      -2.639   0.051  -0.978  0.00  0.00     0.030 A 
ATOM      4  C   UNL d   1      -2.863   1.048  -1.939  0.00  0.00     0.031 A 
ATOM      5  C   UNL d   1      -3.626  -0.940  -0.853  0.00  0.00     0.031 A 
ATOM      6  C   UNL d   1      -4.950   0.036  -2.625  0.00  0.00     0.044 A 
ATOM      7  C   UNL d   1      -4.770  -0.951  -1.659  0.00  0.00     0.025 A 
ATOM      8  C   UNL d   1      -3.997   1.044  -2.759  0.00  0.00     0.025 A 
ENDROOT
BRANCH   3   9
ATOM      9  N   UNL d   1      -1.510   0.040  -0.189  0.00  0.00    -0.377 N 
ATOM     10  C   UNL d   1      -0.772   1.256   0.184  0.00  0.00     0.149 C 
ATOM     11  C   UNL d   1       0.685   1.161  -0.291  0.00  0.00     0.187 C 
ATOM     12  O   UNL d   1       1.321  -0.035   0.190  0.00  0.00    -0.388 OA
ATOM     13  C   UNL d   1       0.614  -1.197  -0.276  0.00  0.00     0.187 C 
ATOM     14  C   UNL d   1      -0.846  -1.211   0.212  0.00  0.00     0.149 C 
ENDBRANCH   3   9
TORSDOF 1
