REMARK  3 active torsions:
REMARK  status: ('A' for Active; 'I' for Inactive)
REMARK    1  A    between atoms: C_6  and  C_1 
REMARK    2  A    between atoms: C_9  and  C_4 
REMARK    3  A    between atoms: C_10  and  C_9 
ROOT
ATOM      1  C   UNL d   1      -1.959   2.805   0.061  0.00  0.00     0.099 C 
ATOM      2  C   UNL d   1      -0.610   2.768   0.055  0.00  0.00     0.059 C 
ATOM      3  C   UNL d   1      -2.697   4.025   0.088  0.00  0.00     0.103 C 
ATOM      4  N   UNL d   1      -3.326   5.000   0.170  0.00  0.00    -0.191 NA
ENDROOT
BRANCH   1   5
ATOM      5  C   UNL d   1      -2.721   1.517   0.152  0.00  0.00     0.226 C 
ATOM      6  O   UNL d   1      -2.198   0.540   0.690  0.00  0.00    -0.284 OA
BRANCH   5   7
ATOM      7  C   UNL d   1      -4.073   1.480  -0.378  0.00  0.00     0.126 A 
ATOM      8  O   UNL d   1      -4.436   2.373  -1.351  0.00  0.00    -0.319 OA
ATOM      9  C   UNL d   1      -5.741   2.153  -1.646  0.00  0.00     0.142 A 
ATOM     10  C   UNL d   1      -6.228   1.106  -0.901  0.00  0.00     0.027 A 
ATOM     11  C   UNL d   1      -5.149   0.656  -0.100  0.00  0.00     0.043 A 
ENDBRANCH   5   7
ENDBRANCH   1   5
BRANCH   2  12
ATOM     12  C   UNL d   1       0.234   3.922  -0.063  0.00  0.00     0.073 A 
ATOM     13  N   UNL d   1      -0.123   4.988  -0.792  0.00  0.00    -0.298 N 
ATOM     14  N   UNL d   1       0.856   5.881  -0.591  0.00  0.00    -0.306 N 
ATOM     15  HN  UNL d   1      -0.955   5.096  -1.371  1.00  0.00     0.187 HD
ATOM     16  C   UNL d   1       0.750   7.195  -1.178  0.00  0.00     0.177 C 
ATOM     17  C   UNL d   1       1.868   5.408   0.189  0.00  0.00     0.135 A 
ATOM     18  C   UNL d   1       1.507   4.125   0.531  0.00  0.00     0.079 A 
ATOM     19 CL   UNL d   1       2.383   3.049   1.505  0.00  0.00    -0.080 Cl
ENDBRANCH   2  12
TORSDOF 3
