REMARK  9 active torsions:
REMARK  status: ('A' for Active; 'I' for Inactive)
REMARK    1  A    between atoms: C_2  and  C_1 
REMARK    2  A    between atoms: C_3  and  C_1 
REMARK    3  A    between atoms: N_4  and  C_1 
REMARK    4  A    between atoms: C_5  and  C_1 
REMARK    5  A    between atoms: O_12  and  C_2 
REMARK    6  A    between atoms: O_11  and  C_3 
REMARK       I    between atoms: C_6  and  N_4 
REMARK    7  A    between atoms: C_10  and  C_5 
REMARK    8  A    between atoms: C_21  and  O_11 
REMARK    9  A    between atoms: C_20  and  O_12 
ROOT
ATOM      1  C   UNL d   1       0.784  -0.111  -0.234  0.00  0.00     0.213 C 
ENDROOT
BRANCH   1   2
ATOM      2  C   UNL d   1       0.356   0.380  -1.630  0.00  0.00     0.298 C 
ATOM      3  O   UNL d   1      -0.544  -0.087  -2.319  0.00  0.00    -0.262 OA
BRANCH   2   4
ATOM      4  O   UNL d   1       1.127   1.447  -2.021  0.00  0.00    -0.319 OA
BRANCH   4   5
ATOM      5  C   UNL d   1       0.929   1.890  -3.373  0.00  0.00     0.174 C 
ATOM      6  C   UNL d   1      -0.007   3.079  -3.385  0.00  0.00     0.034 C 
ENDBRANCH   4   5
ENDBRANCH   2   4
ENDBRANCH   1   2
BRANCH   1   7
ATOM      7  C   UNL d   1       0.207  -1.496   0.120  0.00  0.00     0.298 C 
ATOM      8  O   UNL d   1      -0.096  -2.382  -0.668  0.00  0.00    -0.262 OA
BRANCH   7   9
ATOM      9  O   UNL d   1       0.291  -1.702   1.479  0.00  0.00    -0.319 OA
BRANCH   9  10
ATOM     10  C   UNL d   1      -0.067  -3.016   1.932  0.00  0.00     0.174 C 
ATOM     11  C   UNL d   1      -1.541  -3.043   2.277  0.00  0.00     0.034 C 
ENDBRANCH   9  10
ENDBRANCH   7   9
ENDBRANCH   1   7
BRANCH   1  12
ATOM     12  N   UNL d   1       0.395   0.881   0.826  0.00  0.00    -0.335 N 
ATOM     13  C   UNL d   1      -0.934   1.179   1.029  0.00  0.00     0.215 C 
ATOM     14  O   UNL d   1      -1.832   0.767   0.303  0.00  0.00    -0.274 OA
ATOM     15  C   UNL d   1      -1.214   2.024   2.239  0.00  0.00     0.117 C 
ATOM     16  H   UNL d   1       0.974   0.901   1.655  0.00  0.00     0.164 HD
ENDBRANCH   1  12
BRANCH   1  17
ATOM     17  C   UNL d   1       2.345  -0.255  -0.183  0.00  0.00     0.091 C 
BRANCH  17  18
ATOM     18  C   UNL d   1       3.017  -0.997  -1.322  0.00  0.00    -0.055 A 
ATOM     19  C   UNL d   1       3.801  -0.295  -2.252  0.00  0.00     0.010 A 
ATOM     20  C   UNL d   1       4.362  -0.951  -3.349  0.00  0.00     0.043 A 
ATOM     21  C   UNL d   1       4.145  -2.313  -3.517  0.00  0.00     0.116 A 
ATOM     22  C   UNL d   1       3.407  -3.034  -2.591  0.00  0.00     0.043 A 
ATOM     23  F   UNL d   1       4.659  -2.937  -4.584  0.00  0.00    -0.206 F 
ATOM     24  C   UNL d   1       2.863  -2.382  -1.484  0.00  0.00     0.010 A 
ENDBRANCH  17  18
ENDBRANCH   1  17
TORSDOF 9
