REMARK  6 active torsions:
REMARK  status: ('A' for Active; 'I' for Inactive)
REMARK       I    between atoms: C_3  and  N_1 
REMARK    1  A    between atoms: C_5  and  C_2 
REMARK    2  A    between atoms: C_12  and  C_3 
REMARK    3  A    between atoms: C_6  and  C_5 
REMARK       I    between atoms: N_10  and  C_6 
REMARK    4  A    between atoms: C_7  and  C_9 
REMARK    5  A    between atoms: O_20  and  C_7 
REMARK    6  A    between atoms: C_15  and  N_10 
ROOT
ATOM      1  N   UNL d   1      -1.437  -1.736   0.090  0.00  0.00    -0.333 N 
ATOM      2  C   UNL d   1       0.031  -1.645   0.292  0.00  0.00     0.188 C 
ATOM      3  C   UNL d   1      -2.224  -2.487   0.977  0.00  0.00     0.254 C 
ATOM      4  C   UNL d   1       0.359  -0.436   1.203  0.00  0.00     0.241 C 
ATOM      5  N   UNL d   1      -0.422   0.692   1.027  0.00  0.00    -0.358 N 
ATOM      6  O   UNL d   1      -1.767  -3.168   1.891  0.00  0.00    -0.267 OA
ATOM      7  O   UNL d   1       1.365  -0.361   1.905  0.00  0.00    -0.271 OA
ATOM      8  C   UNL d   1      -1.957  -0.503  -0.521  0.00  0.00     0.147 C 
ATOM      9  C   UNL d   1      -1.760   0.651   0.466  0.00  0.00     0.142 C 
ATOM     10  H   UNL d   1      -0.169   1.459   1.638  0.00  0.00     0.162 HD
ENDROOT
BRANCH   2  11
ATOM     11  C   UNL d   1       0.810  -2.897   0.704  0.00  0.00     0.138 C 
BRANCH  11  12
ATOM     12  C   UNL d   1       0.829  -3.931  -0.402  0.00  0.00     0.224 C 
ATOM     13  N   UNL d   1       1.163  -5.193   0.066  0.00  0.00    -0.327 N 
ATOM     14  H   UNL d   1       1.240  -5.294   1.072  0.00  0.00     0.169 HD
ATOM     15  O   UNL d   1       0.621  -3.628  -1.572  0.00  0.00    -0.273 OA
BRANCH  13  16
ATOM     16  C   UNL d   1       1.252  -6.383  -0.687  0.00  0.00     0.035 A 
ATOM     17  C   UNL d   1       1.180  -6.428  -2.082  0.00  0.00     0.047 A 
ATOM     18  C   UNL d   1       1.190  -7.658  -2.758  0.00  0.00     0.041 A 
ATOM     19  C   UNL d   1       1.314  -8.848  -2.033  0.00  0.00     0.018 A 
ATOM     20  C   UNL d   1       1.422  -8.809  -0.644  0.00  0.00     0.003 A 
ATOM     21  C   UNL d   1       1.394  -7.582   0.024  0.00  0.00     0.029 A 
BRANCH  18  22
ATOM     22  C   UNL d   1       1.034  -7.748  -4.236  0.00  0.00     0.293 C 
ATOM     23  O   UNL d   1       1.209  -8.775  -4.870  0.00  0.00    -0.259 OA
BRANCH  22  24
ATOM     24  O   UNL d   1       0.615  -6.561  -4.738  0.00  0.00    -0.323 OA
ATOM     25  C   UNL d   1       0.289  -6.565  -6.128  0.00  0.00     0.213 C 
ENDBRANCH  22  24
ENDBRANCH  18  22
ENDBRANCH  13  16
ENDBRANCH  11  12
ENDBRANCH   2  11
BRANCH   3  26
ATOM     26  C   UNL d   1      -3.701  -2.430   0.845  0.00  0.00     0.032 A 
ATOM     27  C   UNL d   1      -4.327  -2.616  -0.391  0.00  0.00     0.017 A 
ATOM     28  C   UNL d   1      -5.707  -2.445  -0.503  0.00  0.00     0.001 A 
ATOM     29  C   UNL d   1      -6.466  -2.135   0.627  0.00  0.00     0.000 A 
ATOM     30  C   UNL d   1      -5.851  -2.020   1.875  0.00  0.00     0.001 A 
ATOM     31  C   UNL d   1      -4.468  -2.172   1.988  0.00  0.00     0.017 A 
ENDBRANCH   3  26
TORSDOF 6
