REMARK  8 active torsions:
REMARK  status: ('A' for Active; 'I' for Inactive)
REMARK    1  A    between atoms: N_2  and  C_1 
REMARK    2  A    between atoms: C_5  and  C_1 
REMARK       I    between atoms: C_3  and  N_2 
REMARK    3  A    between atoms: C_13  and  C_3 
REMARK    4  A    between atoms: C_10  and  C_4 
REMARK    5  A    between atoms: O_18  and  C_5 
REMARK    6  A    between atoms: O_7  and  C_6 
REMARK    7  A    between atoms: C_9  and  O_7 
REMARK    8  A    between atoms: O_19  and  C_8 
ROOT
ATOM      1  C   UNL d   1       1.057   0.199  -0.010  0.00  0.00     0.112 C 
ATOM      2  C   UNL d   1       0.328  -0.543  -0.867  0.00  0.00     0.047 C 
ENDROOT
BRANCH   1   3
ATOM      3  N   UNL d   1       2.454   0.219  -0.017  0.00  0.00    -0.318 N 
ATOM      4  C   UNL d   1       3.284  -0.232  -1.032  0.00  0.00     0.256 C 
ATOM      5  O   UNL d   1       2.888  -0.698  -2.098  0.00  0.00    -0.267 OA
ATOM      6  H   UNL d   1       2.855   0.776   0.732  0.00  0.00     0.169 HD
BRANCH   4   7
ATOM      7  C   UNL d   1       4.761  -0.104  -0.845  0.00  0.00     0.032 A 
ATOM      8  C   UNL d   1       5.374   0.190   0.379  0.00  0.00     0.017 A 
ATOM      9  C   UNL d   1       6.770   0.250   0.464  0.00  0.00     0.001 A 
ATOM     10  C   UNL d   1       7.560   0.011  -0.661  0.00  0.00     0.000 A 
ATOM     11  C   UNL d   1       6.961  -0.283  -1.881  0.00  0.00     0.001 A 
ATOM     12  C   UNL d   1       5.571  -0.337  -1.971  0.00  0.00     0.017 A 
ENDBRANCH   4   7
ENDBRANCH   1   3
BRANCH   1  13
ATOM     13  C   UNL d   1       0.372   1.072   1.027  0.00  0.00     0.309 C 
ATOM     14  O   UNL d   1      -0.815   1.337   1.090  0.00  0.00    -0.258 OA
BRANCH  13  15
ATOM     15  O   UNL d   1       1.315   1.527   1.907  0.00  0.00    -0.321 OA
ATOM     16  C   UNL d   1       0.780   2.353   2.948  0.00  0.00     0.213 C 
ENDBRANCH  13  15
ENDBRANCH   1  13
BRANCH   2  17
ATOM     17  C   UNL d   1      -1.125  -0.511  -1.051  0.00  0.00    -0.031 A 
ATOM     18  C   UNL d   1      -1.978  -1.349  -0.323  0.00  0.00     0.051 A 
ATOM     19  C   UNL d   1      -3.363  -1.256  -0.498  0.00  0.00     0.102 A 
ATOM     20  C   UNL d   1      -3.869  -0.335  -1.433  0.00  0.00     0.112 A 
ATOM     21  C   UNL d   1      -3.020   0.495  -2.163  0.00  0.00     0.041 A 
ATOM     22  C   UNL d   1      -1.646   0.398  -1.978  0.00  0.00     0.014 A 
BRANCH  19  23
ATOM     23  O   UNL d   1      -4.292  -2.008   0.175  0.00  0.00    -0.353 OA
ATOM     24  C   UNL d   1      -3.836  -2.708   1.326  0.00  0.00     0.210 C 
ENDBRANCH  19  23
BRANCH  20  25
ATOM     25  O   UNL d   1      -5.275  -0.198  -1.504  0.00  0.00    -0.276 OA
BRANCH  25  26
ATOM     26  C   UNL d   1      -5.922   0.132  -2.689  0.00  0.00     0.260 C 
ATOM     27  O   UNL d   1      -5.420   0.241  -3.800  0.00  0.00    -0.265 OA
ATOM     28  C   UNL d   1      -7.381   0.344  -2.412  0.00  0.00     0.126 C 
ENDBRANCH  25  26
ENDBRANCH  20  25
ENDBRANCH   2  17
TORSDOF 8
