REMARK  1 active torsions:
REMARK  status: ('A' for Active; 'I' for Inactive)
REMARK       I    between atoms: C_3  and  N_1 
REMARK    1  A    between atoms: C_8  and  N_2 
ROOT
ATOM      1  N   UNL d   1      -1.392   0.010   0.188  0.00  0.00    -0.349 N 
ATOM      2  N   UNL d   1       1.459  -0.075  -0.090  0.00  0.00    -0.378 N 
ATOM      3  C   UNL d   1      -2.529   0.143   0.958  0.00  0.00     0.215 C 
ATOM      4  C   UNL d   1      -0.738  -1.231  -0.258  0.00  0.00     0.145 C 
ATOM      5  C   UNL d   1      -0.658   1.221  -0.206  0.00  0.00     0.145 C 
ATOM      6  C   UNL d   1       0.726  -1.312   0.237  0.00  0.00     0.143 C 
ATOM      7  C   UNL d   1       0.792   1.182   0.302  0.00  0.00     0.143 C 
ATOM      8  O   UNL d   1      -2.959   1.251   1.294  0.00  0.00    -0.274 OA
ATOM      9  C   UNL d   1      -3.283  -1.079   1.417  0.00  0.00     0.117 C 
ENDROOT
BRANCH   2  10
ATOM     10  C   UNL d   1       2.529  -0.087  -0.964  0.00  0.00     0.030 A 
ATOM     11  C   UNL d   1       3.513  -1.087  -0.908  0.00  0.00     0.029 A 
ATOM     12  C   UNL d   1       4.625  -1.078  -1.760  0.00  0.00     0.002 A 
ATOM     13  C   UNL d   1       4.774  -0.062  -2.698  0.00  0.00     0.000 A 
ATOM     14  C   UNL d   1       3.812   0.935  -2.782  0.00  0.00     0.002 A 
ATOM     15  C   UNL d   1       2.707   0.920  -1.922  0.00  0.00     0.029 A 
ENDBRANCH   2  10
TORSDOF 1
