REMARK  3 active torsions:
REMARK  status: ('A' for Active; 'I' for Inactive)
REMARK    1  A    between atoms: C_10  and  C_6 
REMARK    2  A    between atoms: C_16  and  C_7 
REMARK    3  A    between atoms: C_9  and  C_15 
ROOT
ATOM      1  N   UNL d   1       1.397  -0.629  -0.048  0.00  0.00    -0.348 N 
ATOM      2  HN  UNL d   1       2.287  -1.128  -0.039  1.00  0.00     0.166 HD
ATOM      3  C   UNL d   1       0.211  -1.208  -0.046  0.00  0.00     0.091 A 
ATOM      4  S   UNL d   1      -1.443  -3.452  -0.094  0.00  0.00    -0.086 SA
ATOM      5  C   UNL d   1       0.070  -2.648  -0.030  0.00  0.00     0.039 A 
ATOM      6  C   UNL d   1      -0.740  -5.010   0.037  0.00  0.00     0.022 A 
ATOM      7  C   UNL d   1       1.266   0.752  -0.065  0.00  0.00     0.050 A 
ATOM      8  S   UNL d   1      -1.122  -0.117  -0.037  0.00  0.00    -0.081 SA
ATOM      9  C   UNL d   1      -0.038   1.205  -0.036  0.00  0.00     0.082 A 
ATOM     10  C   UNL d   1       1.101  -3.567   0.038  0.00  0.00     0.023 A 
ATOM     11  C   UNL d   1       0.639  -4.918   0.083  0.00  0.00     0.021 A 
ENDROOT
BRANCH   7  12
ATOM     12  C   UNL d   1       2.432   1.630  -0.092  0.00  0.00    -0.009 A 
ATOM     13  C   UNL d   1       2.367   2.923  -0.631  0.00  0.00     0.014 A 
ATOM     14  C   UNL d   1       3.498   3.746  -0.657  0.00  0.00     0.017 A 
ATOM     15  C   UNL d   1       4.722   3.293  -0.147  0.00  0.00     0.048 A 
ATOM     16  C   UNL d   1       4.790   1.999   0.390  0.00  0.00     0.017 A 
ATOM     17  C   UNL d   1       3.658   1.176   0.413  0.00  0.00     0.014 A 
BRANCH  15  18
ATOM     18  C   UNL d   1       5.951   4.168  -0.179  0.00  0.00     0.417 C 
ATOM     19  F   UNL d   1       5.733   5.390  -0.742  0.00  0.00    -0.166 F 
ATOM     20  F   UNL d   1       6.449   4.415   1.064  0.00  0.00    -0.166 F 
ATOM     21  F   UNL d   1       6.971   3.610  -0.888  0.00  0.00    -0.166 F 
ENDBRANCH  15  18
ENDBRANCH   7  12
BRANCH   6  22
ATOM     22  C   UNL d   1      -1.562  -6.198   0.103  0.00  0.00     0.021 A 
ATOM     23  S   UNL d   1      -1.028  -7.616   0.918  0.00  0.00    -0.101 SA
ATOM     24  C   UNL d   1      -2.492  -8.439   0.607  0.00  0.00     0.050 A 
ATOM     25  C   UNL d   1      -3.370  -7.672  -0.121  0.00  0.00     0.008 A 
ATOM     26  C   UNL d   1      -2.834  -6.383  -0.413  0.00  0.00     0.021 A 
ENDBRANCH   6  22
TORSDOF 3
