REMARK  2 active torsions:
REMARK  status: ('A' for Active; 'I' for Inactive)
REMARK    1  A    between atoms: C_12  and  C_1 
REMARK    2  A    between atoms: C_2  and  C_11 
ROOT
ATOM      1  N   UNL d   1      -4.424   0.571  -0.997  0.00  0.00    -0.350 N 
ATOM      2  HN  UNL d   1      -3.918   1.047  -1.744  1.00  0.00     0.166 HD
ATOM      3  C   UNL d   1      -5.783   0.512  -0.974  0.00  0.00     0.077 A 
ATOM      4  C   UNL d   1      -3.776  -0.039   0.033  0.00  0.00     0.077 A 
ATOM      5  C   UNL d   1      -4.427  -0.696   1.070  0.00  0.00     0.033 A 
ATOM      6  C   UNL d   1      -6.509  -0.132   0.023  0.00  0.00     0.033 A 
ATOM      7  C   UNL d   1      -5.817  -0.744   1.062  0.00  0.00     0.005 A 
ENDROOT
BRANCH   3   8
ATOM      8  C   UNL d   1      -6.457   1.187  -2.081  0.00  0.00     0.133 A 
ATOM      9  N   UNL d   1      -7.757   1.271  -2.308  0.00  0.00    -0.339 N 
ATOM     10  C   UNL d   1      -7.890   2.010  -3.459  0.00  0.00     0.060 A 
ATOM     11  HN  UNL d   1      -8.506   0.869  -1.745  1.00  0.00     0.167 HD
ATOM     12  C   UNL d   1      -9.048   2.399  -4.148  0.00  0.00     0.032 A 
ATOM     13  C   UNL d   1      -6.649   2.393  -3.951  0.00  0.00     0.060 A 
ATOM     14  C   UNL d   1      -8.910   3.162  -5.315  0.00  0.00     0.002 A 
ATOM     15  C   UNL d   1      -7.646   3.533  -5.783  0.00  0.00     0.002 A 
ATOM     16  C   UNL d   1      -6.480   3.156  -5.107  0.00  0.00     0.032 A 
ATOM     17  N   UNL d   1      -5.760   1.856  -3.060  0.00  0.00    -0.339 N 
ATOM     18  H   UNL d   1      -4.754   1.923  -3.087  0.00  0.00     0.167 HD
ENDBRANCH   3   8
BRANCH   4  19
ATOM     19  C   UNL d   1      -2.317   0.026  -0.018  0.00  0.00     0.133 A 
ATOM     20  N   UNL d   1      -1.457  -0.455   0.863  0.00  0.00    -0.339 N 
ATOM     21  C   UNL d   1      -0.208  -0.171   0.364  0.00  0.00     0.060 A 
ATOM     22  HN  UNL d   1      -1.675  -0.939   1.734  1.00  0.00     0.167 HD
ATOM     23  C   UNL d   1       1.057  -0.462   0.893  0.00  0.00     0.032 A 
ATOM     24  C   UNL d   1      -0.298   0.502  -0.848  0.00  0.00     0.060 A 
ATOM     25  C   UNL d   1       2.192  -0.068   0.174  0.00  0.00     0.002 A 
ATOM     26  C   UNL d   1       2.070   0.603  -1.046  0.00  0.00     0.002 A 
ATOM     27  C   UNL d   1       0.815   0.907  -1.587  0.00  0.00     0.032 A 
ATOM     28  N   UNL d   1      -1.645   0.624  -1.060  0.00  0.00    -0.339 N 
ATOM     29  H   UNL d   1      -2.100   1.061  -1.846  0.00  0.00     0.167 HD
ENDBRANCH   4  19
TORSDOF 2
