REMARK  3 active torsions:
REMARK  status: ('A' for Active; 'I' for Inactive)
REMARK    1  A    between atoms: N_10  and  N_2 
REMARK    2  A    between atoms: N_6  and  C_11 
REMARK    3  A    between atoms: C_15  and  N_10 
ROOT
ATOM      1  N   UNL d   1      -2.490   2.596   0.234  0.00  0.00    -0.300 N 
ATOM      2  H   UNL d   1      -1.603   2.407  -0.243  0.00  0.00     0.187 HD
ENDROOT
BRANCH   1   3
ATOM      3  N   UNL d   1      -3.406   1.615   0.416  0.00  0.00    -0.296 N 
ATOM      4  C   UNL d   1      -3.035   0.375   0.266  0.00  0.00     0.109 A 
ATOM      5  C   UNL d   1      -4.047  -0.706   0.416  0.00  0.00     0.006 A 
ATOM      6  C   UNL d   1      -1.603  -0.052  -0.063  0.00  0.00     0.200 A 
ATOM      7  C   UNL d   1      -3.650  -2.046   0.323  0.00  0.00    -0.023 A 
ATOM      8  C   UNL d   1      -5.395  -0.381   0.632  0.00  0.00     0.015 A 
ATOM      9  C   UNL d   1      -4.618  -3.053   0.441  0.00  0.00     0.012 A 
ATOM     10  C   UNL d   1      -2.250  -2.413   0.112  0.00  0.00     0.016 A 
ATOM     11  C   UNL d   1      -5.962  -2.728   0.650  0.00  0.00     0.001 A 
ATOM     12  C   UNL d   1      -6.347  -1.393   0.748  0.00  0.00     0.001 A 
ATOM     13  C   UNL d   1      -1.293  -1.497  -0.063  0.00  0.00     0.058 A 
ATOM     14  O   UNL d   1      -0.730   0.762  -0.333  0.00  0.00    -0.286 OA
ATOM     15  HN  UNL d   1      -4.368   1.843   0.667  1.00  0.00     0.187 HD
ENDBRANCH   1   3
BRANCH   1  16
ATOM     16  C   UNL d   1      -2.901   3.933   0.335  0.00  0.00     0.048 A 
ATOM     17  C   UNL d   1      -4.017   4.298   1.094  0.00  0.00     0.033 A 
ATOM     18  C   UNL d   1      -4.442   5.628   1.171  0.00  0.00     0.026 A 
ATOM     19  C   UNL d   1      -3.779   6.644   0.476  0.00  0.00     0.010 A 
ATOM     20  C   UNL d   1      -2.656   6.275  -0.281  0.00  0.00     0.026 A 
ATOM     21  C   UNL d   1      -2.222   4.942  -0.350  0.00  0.00     0.033 A 
BRANCH  19  22
ATOM     22  N   UNL d   1      -4.206   7.983   0.469  0.00  0.00    -0.283 NA
ATOM     23  C   UNL d   1      -5.625   8.223   0.770  0.00  0.00     0.095 C 
ATOM     24  C   UNL d   1      -5.996   9.645   0.359  0.00  0.00     0.015 C 
ATOM     25  C   UNL d   1      -5.095  10.665   1.049  0.00  0.00     0.002 C 
ATOM     26  C   UNL d   1      -3.622  10.343   0.803  0.00  0.00     0.015 C 
ATOM     27  C   UNL d   1      -3.285   8.896   1.169  0.00  0.00     0.095 C 
ENDBRANCH  19  22
ENDBRANCH   1  16
TORSDOF 3
