REMARK  4 active torsions:
REMARK  status: ('A' for Active; 'I' for Inactive)
REMARK    1  A    between atoms: C_5  and  N_1 
REMARK    2  A    between atoms: S_7  and  C_4 
REMARK    3  A    between atoms: C_10  and  S_7 
REMARK    4  A    between atoms: N_19  and  C_17 
ROOT
ATOM      1  N   UNL d   1       0.028   0.869  -0.017  0.00  0.00    -0.251 N 
ATOM      2  C   UNL d   1      -1.115   0.120   0.148  0.00  0.00     0.232 C 
ATOM      3  C   UNL d   1       1.147   0.063  -0.084  0.00  0.00     0.245 C 
ATOM      4  C   UNL d   1       0.718  -1.394  -0.134  0.00  0.00     0.154 C 
ATOM      5  C   UNL d   1      -0.759  -1.335   0.189  0.00  0.00     0.129 C 
ATOM      6  O   UNL d   1      -2.274   0.495   0.251  0.00  0.00    -0.273 OA
ATOM      7  O   UNL d   1       2.322   0.406  -0.069  0.00  0.00    -0.271 OA
ENDROOT
BRANCH   1   8
ATOM      8  C   UNL d   1       0.050   2.297  -0.094  0.00  0.00     0.048 A 
ATOM      9  C   UNL d   1      -0.997   3.076   0.427  0.00  0.00     0.069 A 
ATOM     10  C   UNL d   1      -0.991   4.472   0.315  0.00  0.00     0.104 A 
ATOM     11  O   UNL d   1      -2.059   5.135   0.865  0.00  0.00    -0.346 OA
ATOM     12  C   UNL d   1       0.068   5.121  -0.316  0.00  0.00     0.102 A 
ATOM     13  C   UNL d   1      -2.127   6.492   0.414  0.00  0.00     0.202 C 
ATOM     14  C   UNL d   1      -0.755   7.144   0.445  0.00  0.00     0.202 C 
ATOM     15  O   UNL d   1       0.144   6.482  -0.452  0.00  0.00    -0.346 OA
ATOM     16  C   UNL d   1       1.109   4.373  -0.853  0.00  0.00     0.042 A 
ATOM     17  C   UNL d   1       1.105   2.975  -0.729  0.00  0.00     0.033 A 
ENDBRANCH   1   8
BRANCH   4  18
ATOM     18  S   UNL d   1       1.147  -2.044  -1.803  0.00  0.00    -0.113 SA
BRANCH  18  19
ATOM     19  C   UNL d   1       0.660  -3.768  -1.667  0.00  0.00     0.022 C 
ATOM     20  C   UNL d   1      -0.605  -4.192  -2.136  0.00  0.00     0.022 C 
ATOM     21  C   UNL d   1      -0.967  -5.537  -2.002  0.00  0.00     0.024 C 
ATOM     22  C   UNL d   1      -0.044  -6.482  -1.556  0.00  0.00     0.002 C 
ATOM     23  C   UNL d   1       1.236  -6.079  -1.183  0.00  0.00     0.001 C 
ATOM     24  C   UNL d   1       1.582  -4.724  -1.222  0.00  0.00     0.020 C 
BRANCH  20  25
ATOM     25  N   UNL d   1      -1.576  -3.264  -2.560  0.00  0.00    -0.302 NA
ATOM     26  H   UNL d   1      -1.139  -2.460  -3.009  0.00  0.00     0.124 HD
ATOM     27  H   UNL d   1      -2.313  -3.668  -3.130  0.00  0.00     0.124 HD
ENDBRANCH  20  25
ENDBRANCH  18  19
ENDBRANCH   4  18
TORSDOF 4
