REMARK  4 active torsions:
REMARK  status: ('A' for Active; 'I' for Inactive)
REMARK    1  A    between atoms: C_2  and  C_1 
REMARK       I    between atoms: N_7  and  C_1 
REMARK    2  A    between atoms: N_6  and  C_3 
REMARK    3  A    between atoms: C_15  and  N_7 
REMARK    4  A    between atoms: N_12  and  C_9 
ROOT
ATOM      1  C   UNL d   1       0.309  -0.811   1.052  0.00  0.00     0.047 A 
ATOM      2  C   UNL d   1      -1.176  -1.932   3.120  0.00  0.00     0.103 A 
ATOM      3  N   UNL d   1      -1.516  -2.185   1.833  0.00  0.00    -0.351 N 
ATOM      4  HN  UNL d   1      -2.323  -2.770   1.617  1.00  0.00     0.166 HD
ATOM      5  C   UNL d   1      -0.768  -1.647   0.835  0.00  0.00     0.106 A 
ATOM      6  C   UNL d   1       0.689  -0.587   2.369  0.00  0.00     0.022 A 
ATOM      7  C   UNL d   1      -0.055  -1.154   3.405  0.00  0.00     0.049 A 
ENDROOT
BRANCH   1   8
ATOM      8  C   UNL d   1       1.074  -0.178  -0.043  0.00  0.00     0.257 C 
ATOM      9  N   UNL d   1       0.341   0.235  -1.142  0.00  0.00    -0.323 N 
ATOM     10  H   UNL d   1      -0.670   0.216  -1.077  0.00  0.00     0.169 HD
ATOM     11  O   UNL d   1       2.278  -0.015   0.139  0.00  0.00    -0.267 OA
BRANCH   9  12
ATOM     12  C   UNL d   1       0.869   0.804  -2.324  0.00  0.00     0.035 A 
ATOM     13  C   UNL d   1       2.227   0.816  -2.622  0.00  0.00     0.032 A 
ATOM     14  C   UNL d   1       2.691   1.343  -3.836  0.00  0.00     0.031 A 
ATOM     15  C   UNL d   1       1.831   1.871  -4.805  0.00  0.00     0.029 A 
ATOM     16  C   UNL d   1       0.468   1.883  -4.468  0.00  0.00     0.031 A 
ATOM     17  C   UNL d   1      -0.010   1.355  -3.253  0.00  0.00     0.032 A 
BRANCH  15  18
ATOM     18  N   UNL d   1       2.293   2.308  -6.035  0.00  0.00    -0.390 N 
ATOM     19  C   UNL d   1       1.638   3.380  -6.775  0.00  0.00     0.149 C 
ATOM     20  C   UNL d   1       3.588   1.890  -6.566  0.00  0.00     0.149 C 
ENDBRANCH  15  18
ENDBRANCH   9  12
ENDBRANCH   1   8
BRANCH   2  21
ATOM     21  N   UNL d   1      -1.979  -2.430   4.114  0.00  0.00    -0.363 N 
ATOM     22  C   UNL d   1      -1.533  -2.731   5.476  0.00  0.00     0.150 C 
ATOM     23  C   UNL d   1      -1.905  -4.182   5.832  0.00  0.00     0.187 C 
ATOM     24  O   UNL d   1      -3.304  -4.442   5.630  0.00  0.00    -0.388 OA
ATOM     25  C   UNL d   1      -3.655  -4.222   4.252  0.00  0.00     0.187 C 
ATOM     26  C   UNL d   1      -3.376  -2.775   3.830  0.00  0.00     0.150 C 
ENDBRANCH   2  21
TORSDOF 4
