REMARK  1 active torsions:
REMARK  status: ('A' for Active; 'I' for Inactive)
REMARK    1  A    between atoms: C_9  and  N_1 
ROOT
ATOM      1  N   UNL d   1       2.431  -0.512  -0.099  0.00  0.00    -0.290 N 
ATOM      2  C   UNL d   1       2.357   0.878  -0.025  0.00  0.00     0.181 A 
ATOM      3  C   UNL d   1       1.303  -1.347  -0.013  0.00  0.00     0.262 A 
ATOM      4  C   UNL d   1      -0.018  -0.694   0.022  0.00  0.00     0.059 A 
ATOM      5  N   UNL d   1       1.105   1.430   0.045  0.00  0.00    -0.332 N 
ATOM      6  C   UNL d   1      -0.075   0.691   0.042  0.00  0.00     0.050 A 
ATOM      7  S   UNL d   1       3.638   1.963  -0.026  0.00  0.00    -0.040 SA
ATOM      8  O   UNL d   1       1.357  -2.575   0.029  0.00  0.00    -0.267 OA
ATOM      9  C   UNL d   1      -1.199  -1.446   0.019  0.00  0.00     0.019 A 
ATOM     10  C   UNL d   1      -1.307   1.346   0.054  0.00  0.00     0.030 A 
ATOM     11  C   UNL d   1      -2.433  -0.796   0.025  0.00  0.00     0.001 A 
ATOM     12  C   UNL d   1      -2.487   0.598   0.039  0.00  0.00     0.002 A 
ATOM     13  H   UNL d   1       1.062   2.441   0.077  0.00  0.00     0.168 HD
ENDROOT
BRANCH   1  14
ATOM     14  C   UNL d   1       3.714  -1.213  -0.242  0.00  0.00     0.130 C 
ATOM     15  C   UNL d   1       4.335  -1.575   1.100  0.00  0.00     0.027 C 
ENDBRANCH   1  14
TORSDOF 1
