REMARK  3 active torsions:
REMARK  status: ('A' for Active; 'I' for Inactive)
REMARK    1  A    between atoms: N_2  and  C_1 
REMARK       I    between atoms: C_3  and  N_2 
REMARK    2  A    between atoms: C_7  and  C_3 
REMARK    3  A    between atoms: C_8  and  C_7 
ROOT
ATOM      1  N   UNL d   1       1.585  -2.396  -0.336  0.00  0.00    -0.322 N 
ATOM      2  C   UNL d   1       2.883  -2.514   0.106  0.00  0.00     0.245 C 
ATOM      3  O   UNL d   1       3.463  -3.561   0.368  0.00  0.00    -0.268 OA
ATOM      4  H   UNL d   1       1.283  -1.509  -0.726  0.00  0.00     0.169 HD
ENDROOT
BRANCH   1   5
ATOM      5  C   UNL d   1       0.577  -3.394  -0.266  0.00  0.00     0.058 A 
ATOM      6  C   UNL d   1       0.750  -4.591   0.440  0.00  0.00     0.055 A 
ATOM      7  C   UNL d   1      -0.309  -5.492   0.574  0.00  0.00     0.036 A 
ATOM      8 CL   UNL d   1      -0.091  -6.937   1.484  0.00  0.00    -0.084 Cl
ATOM      9  C   UNL d   1      -1.549  -5.224  -0.000  0.00  0.00     0.026 A 
ATOM     10  C   UNL d   1      -1.730  -4.048  -0.728  0.00  0.00     0.028 A 
ATOM     11  C   UNL d   1      -0.674  -3.139  -0.858  0.00  0.00     0.060 A 
ATOM     12 CL   UNL d   1      -0.954  -1.690  -1.762  0.00  0.00    -0.082 Cl
ENDBRANCH   1   5
BRANCH   2  13
ATOM     13  C   UNL d   1       3.551  -1.196   0.288  0.00  0.00     0.075 C 
BRANCH  13  14
ATOM     14  C   UNL d   1       4.811  -1.188   0.753  0.00  0.00     0.024 C 
ATOM     15  C   UNL d   1       5.491   0.003   1.141  0.00  0.00     0.004 A 
ATOM     16  S   UNL d   1       7.165  -0.112   1.559  0.00  0.00    -0.102 SA
ATOM     17  C   UNL d   1       5.048   1.306   1.306  0.00  0.00     0.019 A 
ATOM     18  C   UNL d   1       7.257   1.535   1.987  0.00  0.00     0.050 A 
ATOM     19  C   UNL d   1       6.059   2.183   1.803  0.00  0.00     0.008 A 
ENDBRANCH  13  14
ENDBRANCH   2  13
TORSDOF 3
