REMARK  5 active torsions:
REMARK  status: ('A' for Active; 'I' for Inactive)
REMARK    1  A    between atoms: N_2  and  S_1 
REMARK    2  A    between atoms: C_6  and  S_1 
REMARK    3  A    between atoms: N_5  and  N_2 
REMARK    4  A    between atoms: C_3  and  N_5 
REMARK    5  A    between atoms: N_4  and  C_7 
ROOT
ATOM      1  N   UNL d   1       0.762   2.121   1.518  0.00  0.00    -0.178 NA
ATOM      2  H   UNL d   1       0.291   1.459   2.144  0.00  0.00     0.155 HD
ENDROOT
BRANCH   1   3
ATOM      3  C   UNL d   1       0.428   3.442   1.897  0.00  0.00     0.126 A 
ATOM      4  C   UNL d   1      -0.898   3.907   1.902  0.00  0.00     0.078 A 
ATOM      5  C   UNL d   1      -1.158   5.146   2.515  0.00  0.00     0.035 A 
ATOM      6  C   UNL d   1      -0.120   5.878   3.080  0.00  0.00     0.019 A 
ATOM      7  C   UNL d   1       1.156   5.369   2.988  0.00  0.00     0.089 A 
ATOM      8  N   UNL d   1       1.449   4.189   2.398  0.00  0.00    -0.354 N 
ATOM      9  HN  UNL d   1       2.414   3.866   2.330  1.00  0.00     0.166 HD
BRANCH   4  10
ATOM     10  N   UNL d   1      -1.979   3.204   1.286  0.00  0.00    -0.330 N 
ATOM     11  C   UNL d   1      -3.327   3.401   1.543  0.00  0.00     0.097 A 
ATOM     12  C   UNL d   1      -4.077   2.564   0.746  0.00  0.00     0.019 A 
ATOM     13  C   UNL d   1      -3.175   1.830  -0.045  0.00  0.00     0.019 A 
ATOM     14  C   UNL d   1      -1.905   2.243   0.294  0.00  0.00     0.097 A 
ENDBRANCH   4  10
ENDBRANCH   1   3
BRANCH   1  15
ATOM     15  N   UNL d   1       2.191   1.744   1.293  0.00  0.00    -0.239 N 
ATOM     16  H   UNL d   1       2.789   2.436   0.834  0.00  0.00     0.194 HD
BRANCH  15  17
ATOM     17  S   UNL d   1       2.995   0.825   2.476  0.00  0.00     0.272 S 
ATOM     18  O   UNL d   1       4.281   0.436   1.941  0.00  0.00    -0.199 OA
ATOM     19  O   UNL d   1       2.050  -0.142   2.998  0.00  0.00    -0.199 OA
BRANCH  17  20
ATOM     20  C   UNL d   1       3.298   2.024   3.759  0.00  0.00     0.082 A 
ATOM     21  C   UNL d   1       4.392   2.889   3.642  0.00  0.00     0.050 A 
ATOM     22  C   UNL d   1       4.627   3.841   4.640  0.00  0.00     0.057 A 
ATOM     23 CL   UNL d   1       5.970   4.908   4.433  0.00  0.00    -0.083 Cl
ATOM     24  C   UNL d   1       3.778   3.917   5.754  0.00  0.00     0.055 A 
ATOM     25  C   UNL d   1       2.712   3.029   5.876  0.00  0.00     0.027 A 
ATOM     26 CL   UNL d   1       3.995   5.088   7.007  0.00  0.00    -0.083 Cl
ATOM     27  C   UNL d   1       2.468   2.073   4.882  0.00  0.00     0.027 A 
ENDBRANCH  17  20
ENDBRANCH  15  17
ENDBRANCH   1  15
TORSDOF 5
