REMARK  3 active torsions:
REMARK  status: ('A' for Active; 'I' for Inactive)
REMARK    1  A    between atoms: C_17  and  C_6 
REMARK    2  A    between atoms: C_16  and  C_13 
REMARK    3  A    between atoms: C_14  and  C_15 
ROOT
ATOM      1  C   UNL d   1      -0.161  -1.149  -0.018  0.00  0.00     0.082 A 
ATOM      2  C   UNL d   1      -0.306  -2.573  -0.051  0.00  0.00     0.183 A 
ATOM      3  S   UNL d   1       1.376  -0.388  -0.015  0.00  0.00    -0.065 SA
ATOM      4  N   UNL d   1      -0.692   1.125   0.022  0.00  0.00    -0.352 N 
ATOM      5  HN  UNL d   1      -1.291   1.949   0.068  1.00  0.00     0.166 HD
ATOM      6  C   UNL d   1       0.626   1.161  -0.025  0.00  0.00     0.085 A 
ATOM      7  O   UNL d   1       0.742  -3.466  -0.035  0.00  0.00    -0.272 OA
ATOM      8  N   UNL d   1      -1.470  -3.196  -0.125  0.00  0.00    -0.277 N 
ATOM      9  HN  UNL d   1      -2.390  -2.757  -0.144  1.00  0.00     0.189 HD
ATOM     10  C   UNL d   1      -1.153  -0.183  -0.001  0.00  0.00     0.027 A 
ATOM     11  N   UNL d   1      -1.209  -4.547  -0.173  0.00  0.00    -0.277 N 
ATOM     12  HN  UNL d   1      -1.894  -5.300  -0.237  1.00  0.00     0.189 HD
ATOM     13  C   UNL d   1       0.100  -4.674  -0.119  0.00  0.00     0.174 A 
ATOM     14  C   UNL d   1      -2.626  -0.398  -0.011  0.00  0.00     0.070 C 
ENDROOT
BRANCH  13  15
ATOM     15  C   UNL d   1       0.927  -5.872  -0.193  0.00  0.00     0.017 A 
ATOM     16  C   UNL d   1       2.320  -5.818  -0.048  0.00  0.00     0.017 A 
ATOM     17  C   UNL d   1       3.099  -6.971  -0.189  0.00  0.00     0.017 A 
ATOM     18  C   UNL d   1       2.501  -8.206  -0.476  0.00  0.00     0.048 A 
ATOM     19  C   UNL d   1       1.105  -8.269  -0.588  0.00  0.00     0.017 A 
ATOM     20  C   UNL d   1       0.328  -7.115  -0.445  0.00  0.00     0.017 A 
BRANCH  18  21
ATOM     21  C   UNL d   1       3.333  -9.448  -0.686  0.00  0.00     0.417 C 
ATOM     22  F   UNL d   1       4.673  -9.230  -0.574  0.00  0.00    -0.166 F 
ATOM     23  F   UNL d   1       3.039 -10.432   0.207  0.00  0.00    -0.166 F 
ATOM     24  F   UNL d   1       3.148  -9.993  -1.920  0.00  0.00    -0.166 F 
ENDBRANCH  18  21
ENDBRANCH  13  15
BRANCH   6  25
ATOM     25  C   UNL d   1       1.405   2.411  -0.061  0.00  0.00    -0.002 A 
ATOM     26  C   UNL d   1       2.674   2.505  -0.655  0.00  0.00     0.014 A 
ATOM     27  C   UNL d   1       3.349   3.729  -0.717  0.00  0.00     0.001 A 
ATOM     28  C   UNL d   1       2.768   4.877  -0.182  0.00  0.00     0.000 A 
ATOM     29  C   UNL d   1       1.513   4.803   0.417  0.00  0.00     0.001 A 
ATOM     30  C   UNL d   1       0.838   3.580   0.473  0.00  0.00     0.014 A 
ENDBRANCH   6  25
TORSDOF 3
