REMARK  2 active torsions:
REMARK  status: ('A' for Active; 'I' for Inactive)
REMARK    1  A    between atoms: C_5  and  C_1 
REMARK    2  A    between atoms: C_6  and  C_2 
ROOT
ATOM      1  C   UNL d   1      -1.346  -0.827   0.137  0.00  0.00     0.085 A 
ATOM      2  C   UNL d   1      -0.008  -1.319  -0.045  0.00  0.00     0.075 A 
ATOM      3  N   UNL d   1      -1.321   0.492   0.389  0.00  0.00    -0.259 N 
ATOM      4  HN  UNL d   1      -2.125   1.091   0.580  1.00  0.00     0.195 HD
ATOM      5  O   UNL d   1      -0.003   0.880   0.338  0.00  0.00    -0.241 OA
ATOM      6  C   UNL d   1       0.784  -0.197   0.098  0.00  0.00     0.089 A 
ATOM      7  C   UNL d   1       2.233   0.078   0.037  0.00  0.00     0.080 C 
ENDROOT
BRANCH   1   8
ATOM      8  C   UNL d   1      -2.626  -1.555   0.123  0.00  0.00     0.037 A 
ATOM      9  C   UNL d   1      -2.817  -2.731   0.880  0.00  0.00     0.048 A 
ATOM     10 CL   UNL d   1      -1.675  -3.308   2.052  0.00  0.00    -0.083 Cl
ATOM     11  C   UNL d   1      -3.999  -3.478   0.775  0.00  0.00     0.025 A 
ATOM     12  C   UNL d   1      -5.049  -3.030  -0.017  0.00  0.00     0.003 A 
ATOM     13  C   UNL d   1      -4.918  -1.829  -0.705  0.00  0.00     0.025 A 
ATOM     14  C   UNL d   1      -3.716  -1.105  -0.654  0.00  0.00     0.048 A 
ATOM     15 CL   UNL d   1      -3.675   0.336  -1.619  0.00  0.00    -0.083 Cl
ENDBRANCH   1   8
BRANCH   2  16
ATOM     16  C   UNL d   1       0.460  -2.658  -0.264  0.00  0.00     0.153 A 
ATOM     17  N   UNL d   1       1.585  -3.085   0.198  0.00  0.00    -0.368 N 
ATOM     18  C   UNL d   1       1.588  -4.510  -0.141  0.00  0.00     0.148 A 
ATOM     19  HN  UNL d   1       2.305  -2.554   0.686  1.00  0.00     0.161 HD
ATOM     20  C   UNL d   1       0.273  -4.768  -0.846  0.00  0.00     0.197 A 
ATOM     21  O   UNL d   1      -0.355  -3.500  -0.947  0.00  0.00    -0.334 OA
ENDBRANCH   2  16
TORSDOF 2
