REMARK  3 active torsions:
REMARK  status: ('A' for Active; 'I' for Inactive)
REMARK    1  A    between atoms: N_9  and  C_3 
REMARK    2  A    between atoms: C_16  and  C_4 
REMARK       I    between atoms: C_7  and  N_10 
REMARK       I    between atoms: N_11  and  C_7 
REMARK    3  A    between atoms: C_12  and  N_11 
ROOT
ATOM      1  C   UNL d   1       1.326  -6.320   1.069  0.00  0.00     0.323 C 
ATOM      2  N   UNL d   1       0.576  -2.655   0.188  0.00  0.00    -0.359 N 
ATOM      3  N   UNL d   1       0.208  -5.499   0.918  0.00  0.00    -0.332 N 
ATOM      4  N   UNL d   1       1.384  -6.948   2.293  0.00  0.00    -0.307 N 
ATOM      5  O   UNL d   1       2.138  -6.478   0.162  0.00  0.00    -0.247 OA
ATOM      6  C   UNL d   1       0.670  -3.706  -0.837  0.00  0.00     0.145 C 
ATOM      7  C   UNL d   1      -0.088  -4.984  -0.425  0.00  0.00     0.147 C 
ATOM      8  C   UNL d   1       0.486  -3.549   2.486  0.00  0.00     0.040 C 
ATOM      9  C   UNL d   1       1.351  -2.908   1.405  0.00  0.00     0.126 C 
ATOM     10  C   UNL d   1      -0.368  -4.735   2.028  0.00  0.00     0.129 C 
ATOM     11  H   UNL d   1       0.479  -7.172   2.687  0.00  0.00     0.170 HD
ENDROOT
BRANCH   2  12
ATOM     12  C   UNL d   1       0.244  -1.361  -0.100  0.00  0.00     0.164 A 
ATOM     13  N   UNL d   1       0.501  -0.344   0.693  0.00  0.00    -0.321 N 
ATOM     14  C   UNL d   1       0.048   0.852   0.139  0.00  0.00     0.123 A 
ATOM     15  HN  UNL d   1       0.970  -0.421   1.596  1.00  0.00     0.169 HD
ATOM     16  N   UNL d   1      -0.592   0.797  -1.036  0.00  0.00    -0.309 N 
ATOM     17  S   UNL d   1      -0.612  -0.801  -1.503  0.00  0.00     0.024 SA
ATOM     18  HN  UNL d   1      -0.991   1.584  -1.548  1.00  0.00     0.176 HD
BRANCH  14  19
ATOM     19  C   UNL d   1       0.286   2.109   0.855  0.00  0.00     0.009 A 
ATOM     20  C   UNL d   1       1.155   2.130   1.958  0.00  0.00     0.015 A 
ATOM     21  C   UNL d   1       1.393   3.312   2.663  0.00  0.00     0.001 A 
ATOM     22  C   UNL d   1       0.760   4.490   2.274  0.00  0.00     0.000 A 
ATOM     23  C   UNL d   1      -0.104   4.488   1.179  0.00  0.00     0.001 A 
ATOM     24  C   UNL d   1      -0.338   3.304   0.472  0.00  0.00     0.015 A 
ENDBRANCH  14  19
ENDBRANCH   2  12
BRANCH   4  25
ATOM     25  C   UNL d   1       2.454  -7.738   2.778  0.00  0.00     0.058 A 
ATOM     26  C   UNL d   1       2.187  -8.748   3.721  0.00  0.00     0.060 A 
ATOM     27 CL   UNL d   1       0.569  -9.072   4.245  0.00  0.00    -0.082 Cl
ATOM     28  C   UNL d   1       3.218  -9.535   4.240  0.00  0.00     0.026 A 
ATOM     29  C   UNL d   1       4.534  -9.306   3.840  0.00  0.00     0.002 A 
ATOM     30  C   UNL d   1       4.811  -8.296   2.919  0.00  0.00     0.002 A 
ATOM     31  C   UNL d   1       3.777  -7.519   2.387  0.00  0.00     0.031 A 
ENDBRANCH   4  25
TORSDOF 3
