REMARK  6 active torsions:
REMARK  status: ('A' for Active; 'I' for Inactive)
REMARK    1  A    between atoms: C_16  and  N_6 
REMARK    2  A    between atoms: C_19  and  C_10 
REMARK    3  A    between atoms: C_20  and  C_14 
REMARK    4  A    between atoms: C_17  and  C_16 
REMARK    5  A    between atoms: O_22  and  C_17 
REMARK    6  A    between atoms: C_27  and  O_22 
ROOT
ATOM      1  C   UNL d   1       1.071   0.756  -0.159  0.00  0.00     0.173 A 
ATOM      2  C   UNL d   1       0.727  -0.562  -0.210  0.00  0.00     0.088 A 
ATOM      3  C   UNL d   1      -0.675  -0.654  -0.082  0.00  0.00     0.056 A 
ATOM      4  C   UNL d   1      -1.113   0.678  -0.061  0.00  0.00     0.162 A 
ATOM      5  C   UNL d   1       2.425   1.214  -0.112  0.00  0.00     0.285 A 
ATOM      6  N   UNL d   1       3.321   0.138  -0.076  0.00  0.00    -0.299 N 
ATOM      7  O   UNL d   1      -0.037   1.538  -0.094  0.00  0.00    -0.285 OA
ATOM      8  N   UNL d   1       1.669  -1.587  -0.300  0.00  0.00    -0.349 N 
ATOM      9  HN  UNL d   1       1.417  -2.569  -0.415  1.00  0.00     0.166 HD
ATOM     10  C   UNL d   1      -1.647  -1.668   0.028  0.00  0.00    -0.007 A 
ATOM     11  N   UNL d   1      -2.386   1.113   0.006  0.00  0.00    -0.335 N 
ATOM     12  HN  UNL d   1      -2.633   2.103   0.013  1.00  0.00     0.168 HD
ATOM     13  C   UNL d   1       2.893  -1.172  -0.222  0.00  0.00     0.187 A 
ATOM     14  C   UNL d   1      -3.310   0.124   0.062  0.00  0.00     0.045 A 
ATOM     15  C   UNL d   1      -2.978  -1.234   0.105  0.00  0.00     0.043 A 
ATOM     16  O   UNL d   1       2.785   2.389  -0.080  0.00  0.00    -0.265 OA
ENDROOT
BRANCH   6  17
ATOM     17  C   UNL d   1       4.743   0.402   0.097  0.00  0.00     0.244 C 
BRANCH  17  18
ATOM     18  C   UNL d   1       5.504   0.622  -1.199  0.00  0.00     0.277 C 
ATOM     19  O   UNL d   1       6.713   0.825  -1.229  0.00  0.00    -0.263 OA
BRANCH  18  20
ATOM     20  O   UNL d   1       4.693   0.581  -2.290  0.00  0.00    -0.321 OA
BRANCH  20  21
ATOM     21  C   UNL d   1       5.284   1.035  -3.517  0.00  0.00     0.174 C 
ATOM     22  C   UNL d   1       5.142   2.544  -3.595  0.00  0.00     0.034 C 
ENDBRANCH  20  21
ENDBRANCH  18  20
ENDBRANCH  17  18
ENDBRANCH   6  17
BRANCH  10  23
ATOM     23  C   UNL d   1      -1.290  -3.095   0.069  0.00  0.00    -0.025 A 
ATOM     24  C   UNL d   1      -0.263  -3.576   0.898  0.00  0.00     0.012 A 
ATOM     25  C   UNL d   1       0.106  -4.924   0.895  0.00  0.00     0.001 A 
ATOM     26  C   UNL d   1      -0.581  -5.830   0.095  0.00  0.00     0.000 A 
ATOM     27  C   UNL d   1      -1.636  -5.388  -0.698  0.00  0.00     0.001 A 
ATOM     28  C   UNL d   1      -1.982  -4.034  -0.715  0.00  0.00     0.012 A 
ENDBRANCH  10  23
BRANCH  14  29
ATOM     29  C   UNL d   1      -4.731   0.546   0.101  0.00  0.00    -0.009 A 
ATOM     30  C   UNL d   1      -5.738  -0.213  -0.530  0.00  0.00     0.013 A 
ATOM     31  C   UNL d   1      -7.089   0.134  -0.435  0.00  0.00     0.001 A 
ATOM     32  C   UNL d   1      -7.464   1.264   0.283  0.00  0.00     0.000 A 
ATOM     33  C   UNL d   1      -6.488   2.053   0.887  0.00  0.00     0.001 A 
ATOM     34  C   UNL d   1      -5.136   1.701   0.792  0.00  0.00     0.013 A 
ENDBRANCH  14  29
TORSDOF 6
