REMARK  4 active torsions:
REMARK  status: ('A' for Active; 'I' for Inactive)
REMARK    1  A    between atoms: S_2  and  C_1 
REMARK    2  A    between atoms: N_7  and  S_2 
REMARK    3  A    between atoms: C_15  and  N_7 
REMARK    4  A    between atoms: C_16  and  C_15 
ROOT
ATOM      1  N   UNL d   1      -1.422  -3.841  -1.341  0.00  0.00    -0.211 NA
ATOM      2  H   UNL d   1      -1.857  -4.757  -1.261  0.00  0.00     0.140 HD
ENDROOT
BRANCH   1   3
ATOM      3  S   UNL d   1      -1.588  -2.940   0.067  0.00  0.00     0.242 S 
ATOM      4  O   UNL d   1      -0.683  -1.811  -0.004  0.00  0.00    -0.206 OA
ATOM      5  O   UNL d   1      -1.594  -3.862   1.178  0.00  0.00    -0.206 OA
BRANCH   3   6
ATOM      6  C   UNL d   1      -3.183  -2.239   0.078  0.00  0.00     0.088 A 
ATOM      7  C   UNL d   1      -4.378  -2.938   0.015  0.00  0.00     0.002 A 
ATOM      8  S   UNL d   1      -5.720  -1.862  -0.002  0.00  0.00    -0.099 SA
ATOM      9  C   UNL d   1      -4.665  -4.402  -0.045  0.00  0.00     0.058 C 
ATOM     10  C   UNL d   1      -4.721  -0.482   0.060  0.00  0.00    -0.019 A 
ATOM     11  C   UNL d   1      -3.388  -0.823   0.094  0.00  0.00     0.039 A 
ATOM     12  C   UNL d   1      -5.327   0.879   0.075  0.00  0.00     0.056 C 
ENDBRANCH   3   6
ENDBRANCH   1   3
BRANCH   1  13
ATOM     13  C   UNL d   1      -1.698  -3.118  -2.585  0.00  0.00     0.143 C 
BRANCH  13  14
ATOM     14  C   UNL d   1      -1.440  -3.957  -3.814  0.00  0.00    -0.044 A 
ATOM     15  C   UNL d   1      -0.145  -4.427  -4.095  0.00  0.00     0.018 A 
ATOM     16  C   UNL d   1       0.072  -5.092  -5.290  0.00  0.00    -0.022 A 
ATOM     17  C   UNL d   1       1.314  -5.686  -5.833  0.00  0.00     0.068 C 
ATOM     18  C   UNL d   1      -0.967  -5.326  -6.175  0.00  0.00     0.075 A 
ATOM     19  C   UNL d   1       0.859  -5.909  -7.277  0.00  0.00     0.180 C 
ATOM     20  O   UNL d   1      -0.586  -5.992  -7.311  0.00  0.00    -0.350 OA
ATOM     21  C   UNL d   1      -2.255  -4.915  -5.913  0.00  0.00     0.038 A 
ATOM     22  C   UNL d   1      -2.489  -4.217  -4.726  0.00  0.00     0.011 A 
ENDBRANCH  13  14
ENDBRANCH   1  13
TORSDOF 4
