REMARK  4 active torsions:
REMARK  status: ('A' for Active; 'I' for Inactive)
REMARK    1  A    between atoms: C_2  and  C_1 
REMARK       I    between atoms: N_3  and  C_2 
REMARK       I    between atoms: C_8  and  N_3 
REMARK    2  A    between atoms: S_16  and  C_6 
REMARK    3  A    between atoms: S_18  and  C_7 
REMARK       I    between atoms: N_10  and  C_8 
REMARK    4  A    between atoms: C_11  and  N_10 
ROOT
ATOM      1  C   UNL d   1      -2.571  -1.224  -0.369  0.00  0.00     0.243 C 
ATOM      2  N   UNL d   1      -3.462  -0.720  -1.297  0.00  0.00    -0.175 NA
ATOM      3  C   UNL d   1      -3.972   0.552  -1.212  0.00  0.00     0.305 C 
ATOM      4  N   UNL d   1      -3.082   1.553  -1.518  0.00  0.00    -0.310 N 
ATOM      5  O   UNL d   1      -2.954  -2.143   0.350  0.00  0.00    -0.273 OA
ATOM      6  O   UNL d   1      -5.171   0.690  -0.995  0.00  0.00    -0.253 OA
ATOM      7  H   UNL d   1      -4.280  -1.314  -1.192  0.00  0.00     0.141 HD
ATOM      8  H   UNL d   1      -2.338   1.261  -2.140  0.00  0.00     0.170 HD
ENDROOT
BRANCH   1   9
ATOM      9  C   UNL d   1      -1.195  -0.730  -0.339  0.00  0.00     0.085 A 
ATOM     10  C   UNL d   1      -0.453  -0.616   0.841  0.00  0.00     0.075 A 
ATOM     11  S   UNL d   1       1.137  -0.122   0.437  0.00  0.00    -0.006 SA
ATOM     12  N   UNL d   1       0.896  -0.007  -1.184  0.00  0.00    -0.319 N 
ATOM     13  C   UNL d   1      -0.354  -0.366  -1.457  0.00  0.00     0.092 A 
ATOM     14  HN  UNL d   1       1.591   0.290  -1.868  1.00  0.00     0.175 HD
BRANCH  10  15
ATOM     15  S   UNL d   1      -1.023  -0.858   2.494  0.00  0.00    -0.125 SA
ATOM     16  C   UNL d   1       0.471  -0.883   3.506  0.00  0.00     0.096 C 
ENDBRANCH  10  15
BRANCH  13  17
ATOM     17  S   UNL d   1      -0.880  -0.353  -3.145  0.00  0.00    -0.115 SA
ATOM     18  C   UNL d   1       0.559   0.328  -4.003  0.00  0.00     0.097 C 
ENDBRANCH  13  17
ENDBRANCH   1   9
BRANCH   4  19
ATOM     19  C   UNL d   1      -3.373   2.934  -1.494  0.00  0.00     0.074 A 
ATOM     20  C   UNL d   1      -4.307   3.527  -0.628  0.00  0.00     0.146 A 
ATOM     21  C   UNL d   1      -4.571   4.894  -0.679  0.00  0.00     0.086 A 
ATOM     22  F   UNL d   1      -4.918   2.816   0.328  0.00  0.00    -0.204 F 
ATOM     23  C   UNL d   1      -3.883   5.680  -1.589  0.00  0.00     0.119 A 
ATOM     24  C   UNL d   1      -2.925   5.128  -2.434  0.00  0.00     0.044 A 
ATOM     25  F   UNL d   1      -4.129   6.995  -1.645  0.00  0.00    -0.206 F 
ATOM     26  C   UNL d   1      -2.662   3.757  -2.380  0.00  0.00     0.036 A 
ENDBRANCH   4  19
TORSDOF 4
