REMARK  4 active torsions:
REMARK  status: ('A' for Active; 'I' for Inactive)
REMARK       I    between atoms: C_4  and  N_1 
REMARK    1  A    between atoms: C_13  and  C_3 
REMARK    2  A    between atoms: C_10  and  C_4 
REMARK    3  A    between atoms: C_5  and  C_12 
REMARK    4  A    between atoms: O_28  and  C_25 
ROOT
ATOM      1  N   UNL d   1      -2.542   0.314  -0.372  0.00  0.00    -0.335 N 
ATOM      2  C   UNL d   1      -0.205   0.816   0.054  0.00  0.00    -0.017 A 
ATOM      3  C   UNL d   1      -1.626   1.318   0.205  0.00  0.00     0.155 C 
ATOM      4  C   UNL d   1      -3.525   0.525  -1.345  0.00  0.00     0.254 C 
ATOM      5  C   UNL d   1       0.089  -0.524  -0.139  0.00  0.00    -0.007 A 
ATOM      6  C   UNL d   1      -2.332  -1.071   0.095  0.00  0.00     0.132 C 
ATOM      7  S   UNL d   1       1.757  -0.833  -0.237  0.00  0.00    -0.106 SA
ATOM      8  C   UNL d   1      -0.937  -1.608  -0.271  0.00  0.00     0.067 C 
ATOM      9  C   UNL d   1       0.993   1.602   0.072  0.00  0.00     0.018 A 
ATOM     10  C   UNL d   1       2.126   0.829  -0.059  0.00  0.00     0.051 A 
ATOM     11  O   UNL d   1      -4.238  -0.393  -1.754  0.00  0.00    -0.267 OA
ENDROOT
BRANCH   3  12
ATOM     12  C   UNL d   1      -1.867   1.628   1.679  0.00  0.00    -0.031 A 
ATOM     13  C   UNL d   1      -2.731   2.692   2.001  0.00  0.00     0.012 A 
ATOM     14  C   UNL d   1      -2.931   3.089   3.329  0.00  0.00     0.037 A 
ATOM     15  C   UNL d   1      -2.288   2.422   4.368  0.00  0.00     0.068 A 
ATOM     16  C   UNL d   1      -1.460   1.340   4.066  0.00  0.00     0.037 A 
ATOM     17  C   UNL d   1      -1.259   0.943   2.747  0.00  0.00     0.012 A 
BRANCH  15  18
ATOM     18  O   UNL d   1      -2.370   2.723   5.699  0.00  0.00    -0.356 OA
ATOM     19  C   UNL d   1      -3.200   3.820   6.056  0.00  0.00     0.210 C 
ENDBRANCH  15  18
ENDBRANCH   3  12
BRANCH   4  20
ATOM     20  C   UNL d   1      -3.811   1.869  -1.925  0.00  0.00     0.032 A 
ATOM     21  C   UNL d   1      -2.822   2.761  -2.349  0.00  0.00     0.018 A 
ATOM     22  C   UNL d   1      -3.169   4.027  -2.837  0.00  0.00     0.017 A 
ATOM     23  C   UNL d   1      -4.514   4.387  -3.005  0.00  0.00     0.048 A 
ATOM     24  C   UNL d   1      -5.504   3.446  -2.692  0.00  0.00     0.017 A 
ATOM     25  C   UNL d   1      -5.155   2.204  -2.148  0.00  0.00     0.018 A 
BRANCH  23  26
ATOM     26  C   UNL d   1      -4.898   5.743  -3.550  0.00  0.00     0.417 C 
ATOM     27  F   UNL d   1      -3.853   6.616  -3.608  0.00  0.00    -0.166 F 
ATOM     28  F   UNL d   1      -5.400   5.675  -4.812  0.00  0.00    -0.166 F 
ATOM     29  F   UNL d   1      -5.852   6.357  -2.797  0.00  0.00    -0.166 F 
ENDBRANCH  23  26
ENDBRANCH   4  20
TORSDOF 4
