REMARK  3 active torsions:
REMARK  status: ('A' for Active; 'I' for Inactive)
REMARK    1  A    between atoms: S_2  and  C_3 
REMARK    2  A    between atoms: C_7  and  S_2 
REMARK    3  A    between atoms: C_6  and  C_7 
ROOT
ATOM      1  C   UNL d   1       1.402   6.069  -0.423  0.00  0.00    -0.019 A 
ATOM      2  C   UNL d   1       0.170   5.394  -0.150  0.00  0.00    -0.037 A 
ATOM      3  C   UNL d   1       1.426   7.491  -0.429  0.00  0.00    -0.025 A 
ATOM      4  C   UNL d   1      -0.942   7.560   0.068  0.00  0.00     0.001 A 
ATOM      5  C   UNL d   1      -0.985   6.168   0.079  0.00  0.00     0.009 A 
ATOM      6  C   UNL d   1       2.625   5.409  -0.695  0.00  0.00     0.013 A 
ATOM      7  C   UNL d   1       0.256   8.215  -0.180  0.00  0.00     0.012 A 
ATOM      8  C   UNL d   1       2.620   8.185  -0.686  0.00  0.00     0.012 A 
ATOM      9  C   UNL d   1       3.807   6.114  -0.953  0.00  0.00     0.001 A 
ATOM     10  C   UNL d   1       3.804   7.502  -0.946  0.00  0.00     0.001 A 
ENDROOT
BRANCH   2  11
ATOM     11  C   UNL d   1       0.125   3.864  -0.130  0.00  0.00     0.119 C 
BRANCH  11  12
ATOM     12  S   UNL d   1      -1.438   3.098   0.446  0.00  0.00    -0.123 SA
BRANCH  12  13
ATOM     13  C   UNL d   1      -1.130   1.357   0.145  0.00  0.00     0.024 A 
ATOM     14  C   UNL d   1      -0.297   0.540   0.937  0.00  0.00     0.072 A 
ATOM     15  C   UNL d   1      -0.228  -0.839   0.673  0.00  0.00     0.057 A 
ATOM     16 CL   UNL d   1       0.608   1.214   2.259  0.00  0.00    -0.081 Cl
ATOM     17 CL   UNL d   1       0.760  -1.918   1.600  0.00  0.00    -0.083 Cl
ATOM     18  C   UNL d   1      -0.986  -1.405  -0.357  0.00  0.00     0.026 A 
ATOM     19  C   UNL d   1      -1.811  -0.602  -1.137  0.00  0.00     0.003 A 
ATOM     20  C   UNL d   1      -1.883   0.768  -0.886  0.00  0.00     0.020 A 
ENDBRANCH  12  13
ENDBRANCH  11  12
ENDBRANCH   2  11
TORSDOF 3
