REMARK  4 active torsions:
REMARK  status: ('A' for Active; 'I' for Inactive)
REMARK    1  A    between atoms: N_6  and  C_1 
REMARK    2  A    between atoms: C_9  and  N_7 
REMARK    3  A    between atoms: C_8  and  C_9 
REMARK    4  A    between atoms: C_13  and  C_8 
ROOT
ATOM      1  N   UNL d   1      -0.069   2.575   0.906  0.00  0.00     0.105 N 
ATOM      2  N   UNL d   1      -2.353   2.165   2.865  0.00  0.00     0.099 N 
ATOM      3  C   UNL d   1       0.087   1.899   2.205  0.00  0.00     0.304 C 
ATOM      4  C   UNL d   1      -1.190   3.517   0.978  0.00  0.00     0.304 C 
ATOM      5  C   UNL d   1      -2.487   3.021   1.668  0.00  0.00     0.303 C 
ATOM      6  C   UNL d   1      -1.197   1.262   2.770  0.00  0.00     0.303 C 
ENDROOT
BRANCH   1   7
ATOM      7  C   UNL d   1      -0.013   1.726  -0.306  0.00  0.00     0.290 C 
ATOM      8  C   UNL d   1      -1.063   0.628  -0.446  0.00  0.00    -0.009 C 
ATOM      9  C   UNL d   1      -0.471  -0.643  -0.269  0.00  0.00    -0.017 C 
ATOM     10  C   UNL d   1      -2.422   0.737  -0.709  0.00  0.00     0.010 C 
ATOM     11  C   UNL d   1      -1.258  -1.777  -0.153  0.00  0.00     0.013 C 
ATOM     12  C   UNL d   1       0.966  -0.483  -0.239  0.00  0.00    -0.017 A 
ATOM     13  C   UNL d   1      -2.645  -1.641  -0.263  0.00  0.00     0.001 C 
ATOM     14  C   UNL d   1      -3.219  -0.400  -0.573  0.00  0.00     0.001 C 
ATOM     15  C   UNL d   1       1.275   0.893  -0.317  0.00  0.00    -0.009 A 
ATOM     16  C   UNL d   1       1.978  -1.427  -0.173  0.00  0.00     0.013 A 
ATOM     17  C   UNL d   1       2.588   1.342  -0.324  0.00  0.00     0.010 A 
ATOM     18  C   UNL d   1       3.606   0.389  -0.252  0.00  0.00     0.001 A 
ATOM     19  C   UNL d   1       3.303  -0.982  -0.178  0.00  0.00     0.001 A 
ENDBRANCH   1   7
BRANCH   2  20
ATOM     20  C   UNL d   1      -2.351   2.941   4.109  0.00  0.00     0.356 C 
BRANCH  20  21
ATOM     21  C   UNL d   1      -3.723   3.578   4.321  0.00  0.00     0.187 C 
ATOM     22  O   UNL d   1      -3.847   4.797   4.475  0.00  0.00    -0.290 OA
BRANCH  21  23
ATOM     23  C   UNL d   1      -4.944   2.720   4.303  0.00  0.00     0.011 A 
ATOM     24  C   UNL d   1      -4.921   1.387   4.729  0.00  0.00     0.015 A 
ATOM     25  C   UNL d   1      -6.093   0.626   4.700  0.00  0.00     0.001 A 
ATOM     26  C   UNL d   1      -7.283   1.190   4.242  0.00  0.00     0.000 A 
ATOM     27  C   UNL d   1      -7.308   2.514   3.807  0.00  0.00     0.001 A 
ATOM     28  C   UNL d   1      -6.142   3.280   3.841  0.00  0.00     0.015 A 
ENDBRANCH  21  23
ENDBRANCH  20  21
ENDBRANCH   2  20
TORSDOF 4
