REMARK  7 active torsions:
REMARK  status: ('A' for Active; 'I' for Inactive)
REMARK    1  A    between atoms: N_3  and  C_1 
REMARK    2  A    between atoms: N_6  and  C_1 
REMARK    3  A    between atoms: N_2  and  C_4 
REMARK    4  A    between atoms: C_10  and  N_3 
REMARK    5  A    between atoms: C_18  and  N_6 
REMARK    6  A    between atoms: O_15  and  C_19 
REMARK    7  A    between atoms: C_19  and  C_18 
ROOT
ATOM      1  C   UNL d   1       2.350  -4.355   2.512  0.00  0.00     0.030 A 
ATOM      2  C   UNL d   1       2.477  -3.034   2.974  0.00  0.00     0.031 A 
ATOM      3  C   UNL d   1       1.538  -4.547   1.388  0.00  0.00     0.031 A 
ATOM      4  C   UNL d   1       1.107  -2.160   1.185  0.00  0.00     0.034 A 
ATOM      5  C   UNL d   1       0.951  -3.463   0.711  0.00  0.00     0.032 A 
ATOM      6  C   UNL d   1       1.858  -1.953   2.333  0.00  0.00     0.032 A 
ENDROOT
BRANCH   4   7
ATOM      7  N   UNL d   1       0.595  -1.091   0.419  0.00  0.00    -0.333 N 
ATOM      8  H   UNL d   1       0.433  -1.274  -0.572  0.00  0.00     0.168 HD
BRANCH   7   9
ATOM      9  C   UNL d   1       0.064   0.098   0.850  0.00  0.00     0.172 C 
ATOM     10  S   UNL d   1      -0.633   0.430   2.332  0.00  0.00    -0.041 SA
BRANCH   9  11
ATOM     11  N   UNL d   1       0.072   1.106  -0.081  0.00  0.00    -0.365 N 
ATOM     12  H   UNL d   1      -0.356   1.958   0.264  0.00  0.00     0.161 HD
BRANCH  11  13
ATOM     13  C   UNL d   1       1.072   1.259  -1.133  0.00  0.00     0.148 C 
BRANCH  13  14
ATOM     14  C   UNL d   1       0.661   0.648  -2.472  0.00  0.00     0.183 C 
BRANCH  14  15
ATOM     15  O   UNL d   1       0.612  -0.777  -2.392  0.00  0.00    -0.399 OA
ATOM     16  H   UNL d   1       0.458  -1.095  -3.301  0.00  0.00     0.209 HD
ENDBRANCH  14  15
ENDBRANCH  13  14
ENDBRANCH  11  13
ENDBRANCH   9  11
ENDBRANCH   7   9
ENDBRANCH   4   7
BRANCH   1  17
ATOM     17  N   UNL d   1       3.009  -5.380   3.170  0.00  0.00    -0.377 N 
ATOM     18  C   UNL d   1       2.539  -6.773   3.159  0.00  0.00     0.149 C 
ATOM     19  C   UNL d   1       3.420  -7.657   2.265  0.00  0.00     0.187 C 
ATOM     20  O   UNL d   1       4.810  -7.551   2.617  0.00  0.00    -0.388 OA
ATOM     21  C   UNL d   1       5.249  -6.190   2.480  0.00  0.00     0.187 C 
ATOM     22  C   UNL d   1       4.462  -5.243   3.403  0.00  0.00     0.149 C 
ENDBRANCH   1  17
TORSDOF 7
