REMARK  6 active torsions:
REMARK  status: ('A' for Active; 'I' for Inactive)
REMARK    1  A    between atoms: C_8  and  N_1 
REMARK    2  A    between atoms: S_13  and  C_2 
REMARK    3  A    between atoms: C_12  and  C_7 
REMARK    4  A    between atoms: C_18  and  C_12 
REMARK    5  A    between atoms: C_16  and  C_18 
REMARK    6  A    between atoms: O_23  and  C_17 
ROOT
ATOM      1  N   UNL d   1      -0.160  -1.247  -0.086  0.00  0.00    -0.279 N 
ATOM      2  C   UNL d   1       1.022  -0.540  -0.287  0.00  0.00     0.164 C 
ATOM      3  N   UNL d   1       0.817   0.749  -0.150  0.00  0.00    -0.278 N 
ATOM      4  HN  UNL d   1       1.533   1.475  -0.158  1.00  0.00     0.189 HD
ATOM      5  N   UNL d   1      -0.515   0.943   0.004  0.00  0.00    -0.286 N 
ATOM      6  HN  UNL d   1      -0.971   1.847   0.132  1.00  0.00     0.188 HD
ATOM      7  C   UNL d   1      -1.129  -0.224  -0.037  0.00  0.00     0.105 C 
ENDROOT
BRANCH   7   8
ATOM      8  C   UNL d   1      -2.624  -0.368   0.038  0.00  0.00     0.083 C 
BRANCH   8   9
ATOM      9  C   UNL d   1      -3.337   0.997   0.136  0.00  0.00     0.046 C 
BRANCH   9  10
ATOM     10  C   UNL d   1      -4.855   0.999   0.192  0.00  0.00    -0.058 A 
ATOM     11  C   UNL d   1      -5.641  -0.164   0.174  0.00  0.00     0.010 A 
ATOM     12  C   UNL d   1      -7.034  -0.080   0.247  0.00  0.00     0.037 A 
ATOM     13  C   UNL d   1      -7.657   1.160   0.342  0.00  0.00     0.065 A 
ATOM     14  C   UNL d   1      -6.904   2.325   0.345  0.00  0.00     0.037 A 
ATOM     15  C   UNL d   1      -5.510   2.242   0.270  0.00  0.00     0.010 A 
BRANCH  13  16
ATOM     16  O   UNL d   1      -9.015   1.185   0.429  0.00  0.00    -0.361 OA
ATOM     17  H   UNL d   1      -9.302   2.111   0.506  0.00  0.00     0.217 HD
ENDBRANCH  13  16
ENDBRANCH   9  10
ENDBRANCH   8   9
ENDBRANCH   7   8
BRANCH   1  18
ATOM     18  C   UNL d   1      -0.360  -2.669  -0.022  0.00  0.00     0.049 A 
ATOM     19  C   UNL d   1       0.505  -3.554   0.666  0.00  0.00    -0.034 A 
ATOM     20  C   UNL d   1       0.256  -4.946   0.593  0.00  0.00     0.015 A 
ATOM     21  C   UNL d   1       1.666  -3.176   1.551  0.00  0.00     0.050 C 
ATOM     22  C   UNL d   1      -0.857  -5.469  -0.070  0.00  0.00    -0.061 A 
ATOM     23  C   UNL d   1      -1.726  -4.588  -0.701  0.00  0.00     0.009 A 
ATOM     24  C   UNL d   1      -1.092  -6.951  -0.101  0.00  0.00     0.048 C 
ATOM     25  C   UNL d   1      -1.470  -3.212  -0.692  0.00  0.00     0.031 A 
ENDBRANCH   1  18
BRANCH   2  26
ATOM     26  S   UNL d   1       2.525  -1.159  -0.898  0.00  0.00    -0.105 SA
ATOM     27  H   UNL d   1       2.213  -2.454  -1.015  0.00  0.00     0.110 HD
ENDBRANCH   2  26
TORSDOF 6
