REMARK  8 active torsions:
REMARK  status: ('A' for Active; 'I' for Inactive)
REMARK       I    between atoms: N_3  and  C_1 
REMARK    1  A    between atoms: C_5  and  C_1 
REMARK    2  A    between atoms: N_2  and  C_5 
REMARK    3  A    between atoms: C_9  and  N_2 
REMARK    4  A    between atoms: C_11  and  N_2 
REMARK    5  A    between atoms: C_12  and  N_3 
REMARK    6  A    between atoms: C_4  and  C_9 
REMARK    7  A    between atoms: O_13  and  C_4 
REMARK    8  A    between atoms: C_14  and  C_11 
ROOT
ATOM      1  N   UNL d   1      -1.221  -0.524  -0.622  0.00  0.00     0.111 N 
ENDROOT
BRANCH   1   2
ATOM      2  C   UNL d   1       0.181  -1.023  -0.597  0.00  0.00     0.376 C 
BRANCH   2   3
ATOM      3  C   UNL d   1       1.214   0.012  -0.155  0.00  0.00     0.250 C 
ATOM      4  N   UNL d   1       1.049   0.452   1.146  0.00  0.00    -0.324 N 
ATOM      5  H   UNL d   1       0.159   0.234   1.581  0.00  0.00     0.169 HD
ATOM      6  O   UNL d   1       2.099   0.376  -0.923  0.00  0.00    -0.271 OA
BRANCH   4   7
ATOM      7  C   UNL d   1       1.951   1.278   1.853  0.00  0.00     0.050 A 
ATOM      8  C   UNL d   1       3.241   1.592   1.426  0.00  0.00     0.117 A 
ATOM      9  N   UNL d   1       4.109   2.378   2.116  0.00  0.00    -0.373 N 
ATOM     10  C   UNL d   1       3.673   2.879   3.288  0.00  0.00     0.088 A 
ATOM     11  HN  UNL d   1       5.045   2.578   1.764  1.00  0.00     0.164 HD
ATOM     12  C   UNL d   1       2.416   2.623   3.807  0.00  0.00     0.019 A 
ATOM     13  C   UNL d   1       1.548   1.804   3.081  0.00  0.00     0.032 A 
ENDBRANCH   4   7
ENDBRANCH   2   3
ENDBRANCH   1   2
BRANCH   1  14
ATOM     14  C   UNL d   1      -1.367   0.765  -1.359  0.00  0.00     0.382 C 
BRANCH  14  15
ATOM     15  C   UNL d   1      -0.986   0.752  -2.835  0.00  0.00     0.169 C 
ATOM     16  O   UNL d   1      -0.558  -0.175  -3.503  0.00  0.00    -0.649 OA
BRANCH  15  17
ATOM     17  O   UNL d   1      -1.185   1.959  -3.409  0.00  0.00    -0.775 OA
ATOM     18  H   UNL d   1      -0.884   1.835  -4.334  0.00  0.00     0.167 HD
ENDBRANCH  15  17
ENDBRANCH  14  15
ENDBRANCH   1  14
BRANCH   1  19
ATOM     19  C   UNL d   1      -2.047  -1.608  -1.209  0.00  0.00     0.312 C 
BRANCH  19  20
ATOM     20  C   UNL d   1      -3.533  -1.350  -1.324  0.00  0.00    -0.030 A 
ATOM     21  C   UNL d   1      -4.149  -1.355  -2.587  0.00  0.00     0.009 A 
ATOM     22  C   UNL d   1      -5.536  -1.250  -2.704  0.00  0.00     0.001 A 
ATOM     23  C   UNL d   1      -6.323  -1.133  -1.562  0.00  0.00     0.000 A 
ATOM     24  C   UNL d   1      -5.723  -1.102  -0.303  0.00  0.00     0.001 A 
ATOM     25  C   UNL d   1      -4.334  -1.206  -0.183  0.00  0.00     0.009 A 
ENDBRANCH  19  20
ENDBRANCH   1  19
TORSDOF 8
