REMARK  5 active torsions:
REMARK  status: ('A' for Active; 'I' for Inactive)
REMARK    1  A    between atoms: C_4  and  N_1 
REMARK    2  A    between atoms: C_2  and  C_3 
REMARK    3  A    between atoms: C_3  and  C_7 
REMARK    4  A    between atoms: O_18  and  C_6 
REMARK    5  A    between atoms: O_19  and  C_16 
ROOT
ATOM      1  C   UNL d   1      -2.246  -1.647   4.317  0.00  0.00     0.195 C 
ATOM      2  O   UNL d   1      -1.476  -1.392   3.397  0.00  0.00    -0.287 OA
ENDROOT
BRANCH   1   3
ATOM      3  C   UNL d   1      -3.329  -2.658   4.139  0.00  0.00     0.051 A 
ATOM      4  C   UNL d   1      -3.190  -3.823   3.373  0.00  0.00     0.082 A 
ATOM      5  C   UNL d   1      -4.296  -4.671   3.213  0.00  0.00     0.040 A 
ATOM      6  C   UNL d   1      -5.524  -4.394   3.827  0.00  0.00     0.039 A 
ATOM      7  C   UNL d   1      -5.671  -3.238   4.578  0.00  0.00     0.069 A 
ATOM      8  C   UNL d   1      -4.586  -2.368   4.707  0.00  0.00     0.055 A 
BRANCH   4   9
ATOM      9  O   UNL d   1      -2.099  -4.227   2.654  0.00  0.00    -0.355 OA
ATOM     10  C   UNL d   1      -0.852  -4.232   3.337  0.00  0.00     0.210 C 
ENDBRANCH   4   9
BRANCH   7  11
ATOM     11  O   UNL d   1      -6.799  -2.827   5.229  0.00  0.00    -0.356 OA
ATOM     12  C   UNL d   1      -7.920  -3.701   5.193  0.00  0.00     0.210 C 
ENDBRANCH   7  11
ENDBRANCH   1   3
BRANCH   1  13
ATOM     13  C   UNL d   1      -2.119  -0.864   5.584  0.00  0.00     0.015 A 
ATOM     14  C   UNL d   1      -2.510  -1.376   6.830  0.00  0.00     0.018 A 
ATOM     15  C   UNL d   1      -2.493  -0.554   7.965  0.00  0.00     0.037 A 
ATOM     16  C   UNL d   1      -2.050   0.771   7.855  0.00  0.00     0.102 A 
ATOM     17  C   UNL d   1      -1.589   1.268   6.629  0.00  0.00     0.037 A 
ATOM     18  C   UNL d   1      -1.623   0.445   5.498  0.00  0.00     0.018 A 
BRANCH  16  19
ATOM     19  N   UNL d   1      -2.092   1.655   9.029  0.00  0.00    -0.116 N 
ATOM     20  O   UNL d   1      -1.626   2.796   8.908  0.00  0.00    -0.532 OA
ATOM     21  O   UNL d   1      -2.602   1.207  10.065  0.00  0.00    -0.532 OA
ENDBRANCH  16  19
ENDBRANCH   1  13
TORSDOF 5
