REMARK  3 active torsions:
REMARK  status: ('A' for Active; 'I' for Inactive)
REMARK    1  A    between atoms: C_7  and  N_1 
REMARK    2  A    between atoms: N_11  and  N_4 
REMARK    3  A    between atoms: O_14  and  C_12 
ROOT
ATOM      1  N   UNL d   1       0.707   1.048  -0.444  0.00  0.00    -0.308 N 
ATOM      2  C   UNL d   1       1.442  -0.060   0.007  0.00  0.00     0.244 C 
ATOM      3  C   UNL d   1      -1.458   0.025   0.367  0.00  0.00     0.252 C 
ATOM      4  N   UNL d   1      -0.737  -1.120   0.700  0.00  0.00    -0.275 N 
ATOM      5  C   UNL d   1       0.603  -1.321   0.174  0.00  0.00     0.249 C 
ATOM      6  C   UNL d   1      -0.612   1.271   0.142  0.00  0.00     0.236 C 
ATOM      7  O   UNL d   1      -2.687   0.079   0.462  0.00  0.00    -0.270 OA
ATOM      8  O   UNL d   1       2.671  -0.129   0.046  0.00  0.00    -0.271 OA
ENDROOT
BRANCH   1   9
ATOM      9  C   UNL d   1       1.339   2.110  -1.179  0.00  0.00     0.040 A 
ATOM     10  C   UNL d   1       2.430   1.829  -2.022  0.00  0.00     0.066 A 
ATOM     11  C   UNL d   1       3.020   2.820  -2.812  0.00  0.00     0.070 A 
ATOM     12  C   UNL d   1       2.521   4.119  -2.760  0.00  0.00     0.037 A 
ATOM     13  C   UNL d   1       1.445   4.425  -1.932  0.00  0.00     0.005 A 
ATOM     14  C   UNL d   1       0.855   3.426  -1.151  0.00  0.00     0.030 A 
BRANCH  11  15
ATOM     15  O   UNL d   1       4.064   2.636  -3.679  0.00  0.00    -0.356 OA
ATOM     16  C   UNL d   1       4.602   1.322  -3.767  0.00  0.00     0.210 C 
ENDBRANCH  11  15
ENDBRANCH   1   9
BRANCH   4  17
ATOM     17  N   UNL d   1      -1.492  -2.312   0.941  0.00  0.00    -0.244 NA
ATOM     18  H   UNL d   1      -2.456  -2.121   0.631  0.00  0.00     0.143 HD
ATOM     19  H   UNL d   1      -1.580  -2.417   1.955  0.00  0.00     0.143 HD
ENDBRANCH   4  17
TORSDOF 3
