REMARK  3 active torsions:
REMARK  status: ('A' for Active; 'I' for Inactive)
REMARK    1  A    between atoms: C_6  and  C_2 
REMARK    2  A    between atoms: O_12  and  C_6 
REMARK    3  A    between atoms: O_13  and  C_11 
ROOT
ATOM      1  C   UNL d   1      -1.455   0.780   0.280  0.00  0.00     0.077 C 
ATOM      2  C   UNL d   1      -2.372   1.529   0.904  0.00  0.00     0.110 C 
ATOM      3  C   UNL d   1      -0.274   1.407  -0.423  0.00  0.00     0.242 C 
ATOM      4  N   UNL d   1      -1.521  -0.625   0.221  0.00  0.00    -0.286 NA
ATOM      5  N   UNL d   1       0.869   1.218   0.338  0.00  0.00    -0.255 NA
ATOM      6  O   UNL d   1      -0.298   1.620  -1.626  0.00  0.00    -0.273 OA
ATOM      7  C   UNL d   1      -0.319  -1.449   0.490  0.00  0.00     0.125 C 
ATOM      8  C   UNL d   1       1.685   0.094  -0.076  0.00  0.00     0.128 C 
ATOM      9  C   UNL d   1       0.879  -1.177  -0.454  0.00  0.00     0.144 C 
ATOM     10  H   UNL d   1      -1.839  -0.859  -0.727  0.00  0.00     0.128 HD
ATOM     11  H   UNL d   1       0.683   1.229   1.332  0.00  0.00     0.130 HD
ENDROOT
BRANCH   2  12
ATOM     12  C   UNL d   1      -2.261   2.985   1.084  0.00  0.00     0.284 C 
ATOM     13  O   UNL d   1      -1.228   3.627   1.024  0.00  0.00    -0.260 OA
BRANCH  12  14
ATOM     14  O   UNL d   1      -3.489   3.458   1.415  0.00  0.00    -0.323 OA
ATOM     15  C   UNL d   1      -3.504   4.855   1.708  0.00  0.00     0.213 C 
ENDBRANCH  12  14
ENDBRANCH   2  12
BRANCH   9  16
ATOM     16  O   UNL d   1       1.754  -2.313  -0.458  0.00  0.00    -0.393 OA
ATOM     17  H   UNL d   1       2.079  -2.459   0.448  0.00  0.00     0.210 HD
ENDBRANCH   9  16
TORSDOF 3
