REMARK  5 active torsions:
REMARK  status: ('A' for Active; 'I' for Inactive)
REMARK    1  A    between atoms: N_2  and  C_1 
REMARK    2  A    between atoms: N_9  and  C_3 
REMARK    3  A    between atoms: N_8  and  C_5 
REMARK    4  A    between atoms: O_16  and  C_7 
REMARK    5  A    between atoms: C_11  and  N_9 
ROOT
ATOM      1  C   UNL d   1       1.378  -0.076   0.069  0.00  0.00     0.132 A 
ATOM      2  C   UNL d   1       0.549  -1.203   0.059  0.00  0.00     0.069 A 
ATOM      3  C   UNL d   1       0.831   1.222  -0.020  0.00  0.00     0.077 A 
ATOM      4  C   UNL d   1      -1.422   0.305  -0.205  0.00  0.00     0.066 A 
ATOM      5  C   UNL d   1      -0.830  -0.968  -0.103  0.00  0.00     0.064 A 
ATOM      6  C   UNL d   1      -0.552   1.414  -0.164  0.00  0.00     0.097 A 
ENDROOT
BRANCH   2   7
ATOM      7  N   UNL d   1       0.995  -2.546   0.104  0.00  0.00    -0.340 N 
ATOM      8  H   UNL d   1       2.001  -2.651   0.241  0.00  0.00     0.167 HD
BRANCH   7   9
ATOM      9  C   UNL d   1       0.300  -3.619   0.711  0.00  0.00     0.105 A 
ATOM     10  N   UNL d   1      -0.604  -3.373   1.687  0.00  0.00    -0.352 N 
ATOM     11  C   UNL d   1      -1.300  -4.414   2.190  0.00  0.00     0.089 A 
ATOM     12  HN  UNL d   1      -0.755  -2.426   2.033  1.00  0.00     0.166 HD
ATOM     13  C   UNL d   1      -1.156  -5.716   1.751  0.00  0.00     0.017 A 
ATOM     14  C   UNL d   1      -0.223  -5.965   0.754  0.00  0.00     0.005 A 
ATOM     15  C   UNL d   1       0.528  -4.909   0.239  0.00  0.00     0.048 A 
ENDBRANCH   7   9
ENDBRANCH   2   7
BRANCH   1  16
ATOM     16  N   UNL d   1       2.840  -0.199   0.175  0.00  0.00    -0.113 N 
ATOM     17  O   UNL d   1       3.331  -1.339   0.237  0.00  0.00    -0.532 OA
ATOM     18  O   UNL d   1       3.511   0.842   0.184  0.00  0.00    -0.532 OA
ENDBRANCH   1  16
BRANCH   4  19
ATOM     19  N   UNL d   1      -2.790   0.366  -0.403  0.00  0.00    -0.374 N 
ATOM     20  C   UNL d   1      -3.455   1.428  -1.164  0.00  0.00     0.149 C 
ATOM     21  C   UNL d   1      -4.574   0.796  -2.016  0.00  0.00     0.187 C 
ATOM     22  O   UNL d   1      -5.493   0.018  -1.228  0.00  0.00    -0.388 OA
ATOM     23  C   UNL d   1      -4.793  -1.032  -0.536  0.00  0.00     0.187 C 
ATOM     24  C   UNL d   1      -3.714  -0.458   0.395  0.00  0.00     0.149 C 
ENDBRANCH   4  19
BRANCH   6  25
ATOM     25  O   UNL d   1      -1.125   2.664  -0.201  0.00  0.00    -0.354 OA
ATOM     26  C   UNL d   1      -0.297   3.748  -0.602  0.00  0.00     0.210 C 
ENDBRANCH   6  25
TORSDOF 5
