REMARK  4 active torsions:
REMARK  status: ('A' for Active; 'I' for Inactive)
REMARK    1  A    between atoms: C_4  and  C_1 
REMARK    2  A    between atoms: O_12  and  C_4 
REMARK    3  A    between atoms: C_5  and  C_6 
REMARK    4  A    between atoms: O_13  and  C_5 
ROOT
ATOM      1  C   UNL d   1       0.725   1.232   0.013  0.00  0.00     0.054 A 
ATOM      2  N   UNL d   1      -1.342  -0.034   0.018  0.00  0.00    -0.360 N 
ATOM      3  HN  UNL d   1      -2.362  -0.055   0.021  1.00  0.00     0.165 HD
ATOM      4  C   UNL d   1      -0.608  -1.179   0.017  0.00  0.00     0.108 A 
ATOM      5  C   UNL d   1      -0.661   1.137   0.015  0.00  0.00     0.106 A 
ATOM      6  C   UNL d   1       1.460   0.043   0.008  0.00  0.00     0.021 A 
ATOM      7  C   UNL d   1       0.785  -1.183   0.011  0.00  0.00     0.037 A 
ENDROOT
BRANCH   1   8
ATOM      8  C   UNL d   1       1.323   2.586   0.017  0.00  0.00     0.294 C 
ATOM      9  O   UNL d   1       0.655   3.608   0.018  0.00  0.00    -0.259 OA
BRANCH   8  10
ATOM     10  O   UNL d   1       2.676   2.520   0.026  0.00  0.00    -0.322 OA
ATOM     11  C   UNL d   1       3.309   3.803   0.040  0.00  0.00     0.213 C 
ENDBRANCH   8  10
ENDBRANCH   1   8
BRANCH   4  12
ATOM     12  C   UNL d   1      -1.349  -2.481   0.026  0.00  0.00     0.309 C 
ATOM     13  O   UNL d   1      -0.805  -3.575   0.027  0.00  0.00    -0.258 OA
BRANCH  12  14
ATOM     14  O   UNL d   1      -2.688  -2.253   0.034  0.00  0.00    -0.321 OA
ATOM     15  C   UNL d   1      -3.503  -3.423   0.046  0.00  0.00     0.213 C 
ENDBRANCH  12  14
ENDBRANCH   4  12
TORSDOF 4
