REMARK  4 active torsions:
REMARK  status: ('A' for Active; 'I' for Inactive)
REMARK    1  A    between atoms: C_3  and  C_1 
REMARK    2  A    between atoms: S_6  and  C_2 
REMARK    3  A    between atoms: C_13  and  S_6 
REMARK    4  A    between atoms: N_14  and  C_12 
ROOT
ATOM      1  C   UNL d   1      -0.980   1.375   0.039  0.00  0.00     0.083 A 
ATOM      2  C   UNL d   1      -1.792   0.248  -0.017  0.00  0.00     0.089 A 
ATOM      3  N   UNL d   1      -1.274  -1.008  -0.061  0.00  0.00    -0.358 N 
ATOM      4  HN  UNL d   1      -1.885  -1.823  -0.103  1.00  0.00     0.166 HD
ATOM      5  C   UNL d   1       0.420   1.174   0.040  0.00  0.00     0.043 A 
ATOM      6  C   UNL d   1       0.072  -1.150  -0.048  0.00  0.00     0.112 A 
ATOM      7  C   UNL d   1       0.975  -0.098  -0.046  0.00  0.00     0.022 A 
ENDROOT
BRANCH   2   8
ATOM      8  S   UNL d   1      -3.569   0.266   0.080  0.00  0.00    -0.072 SA
BRANCH   8   9
ATOM      9  C   UNL d   1      -4.041   0.373  -1.636  0.00  0.00     0.007 A 
ATOM     10  C   UNL d   1      -3.611  -0.563  -2.582  0.00  0.00     0.019 A 
ATOM     11  C   UNL d   1      -4.037  -0.472  -3.910  0.00  0.00     0.001 A 
ATOM     12  C   UNL d   1      -4.903   0.548  -4.299  0.00  0.00     0.000 A 
ATOM     13  C   UNL d   1      -5.348   1.477  -3.360  0.00  0.00     0.001 A 
ATOM     14  C   UNL d   1      -4.920   1.388  -2.033  0.00  0.00     0.019 A 
ENDBRANCH   8   9
ENDBRANCH   2   8
BRANCH   1  15
ATOM     15  C   UNL d   1      -1.469   2.788   0.125  0.00  0.00     0.420 C 
ATOM     16  F   UNL d   1      -2.812   2.981   0.152  0.00  0.00    -0.166 F 
ATOM     17  F   UNL d   1      -0.993   3.420   1.239  0.00  0.00    -0.166 F 
ATOM     18  F   UNL d   1      -1.019   3.538  -0.925  0.00  0.00    -0.166 F 
ENDBRANCH   1  15
BRANCH   7  19
ATOM     19  N   UNL d   1       2.345  -0.290   0.125  0.00  0.00    -0.302 NA
ATOM     20  H   UNL d   1       2.697  -1.179  -0.220  0.00  0.00     0.124 HD
ATOM     21  H   UNL d   1       2.926   0.491  -0.167  0.00  0.00     0.124 HD
ENDBRANCH   7  19
TORSDOF 4
