REMARK  7 active torsions:
REMARK  status: ('A' for Active; 'I' for Inactive)
REMARK       I    between atoms: C_2  and  N_1 
REMARK    1  A    between atoms: C_3  and  N_1 
REMARK    2  A    between atoms: C_7  and  C_2 
REMARK    3  A    between atoms: O_11  and  C_8 
REMARK    4  A    between atoms: C_18  and  O_11 
REMARK    5  A    between atoms: C_16  and  C_18 
REMARK    6  A    between atoms: C_26  and  C_23 
REMARK    7  A    between atoms: C_27  and  C_26 
ROOT
ATOM      1  C   UNL d   1       2.490   0.040   0.122  0.00  0.00     0.142 A 
ATOM      2  N   UNL d   1       3.080   0.640   1.177  0.00  0.00    -0.350 N 
ATOM      3  HN  UNL d   1       2.556   1.249   1.805  1.00  0.00     0.166 HD
ATOM      4  C   UNL d   1       3.182  -0.779  -0.787  0.00  0.00     0.113 A 
ATOM      5  C   UNL d   1       4.394   0.399   1.364  0.00  0.00     0.090 A 
ATOM      6  C   UNL d   1       4.546  -0.968  -0.591  0.00  0.00     0.042 A 
ATOM      7  C   UNL d   1       5.161  -0.381   0.514  0.00  0.00     0.020 A 
ENDROOT
BRANCH   1   8
ATOM      8  N   UNL d   1       1.125   0.254  -0.107  0.00  0.00    -0.307 N 
ATOM      9  C   UNL d   1       0.386   1.384   0.146  0.00  0.00     0.257 C 
ATOM     10  O   UNL d   1      -0.835   1.299   0.283  0.00  0.00    -0.267 OA
ATOM     11  H   UNL d   1       0.615  -0.504  -0.538  0.00  0.00     0.170 HD
BRANCH   9  12
ATOM     12  C   UNL d   1       1.019   2.737   0.059  0.00  0.00     0.032 A 
ATOM     13  C   UNL d   1       2.179   2.958  -0.692  0.00  0.00     0.017 A 
ATOM     14  C   UNL d   1       2.747   4.227  -0.773  0.00  0.00     0.008 A 
ATOM     15  C   UNL d   1       2.140   5.328  -0.158  0.00  0.00    -0.058 A 
ATOM     16  C   UNL d   1       0.911   5.133   0.484  0.00  0.00     0.008 A 
ATOM     17  C   UNL d   1       0.363   3.845   0.607  0.00  0.00     0.017 A 
BRANCH  15  18
ATOM     18  C   UNL d   1       2.840   6.661  -0.292  0.00  0.00     0.038 C 
BRANCH  18  19
ATOM     19  C   UNL d   1       2.533   7.765   0.719  0.00  0.00     0.000 C 
ATOM     20  C   UNL d   1       2.812   7.386   2.167  0.00  0.00     0.005 C 
ENDBRANCH  18  19
ENDBRANCH  15  18
ENDBRANCH   9  12
ENDBRANCH   1   8
BRANCH   4  21
ATOM     21  O   UNL d   1       2.451  -1.248  -1.839  0.00  0.00    -0.343 OA
BRANCH  21  22
ATOM     22  C   UNL d   1       3.086  -2.031  -2.845  0.00  0.00     0.214 C 
BRANCH  22  23
ATOM     23  C   UNL d   1       1.969  -2.620  -3.671  0.00  0.00    -0.032 A 
ATOM     24  C   UNL d   1       1.929  -2.488  -5.066  0.00  0.00     0.035 A 
ATOM     25  C   UNL d   1       0.851  -3.014  -5.796  0.00  0.00     0.056 A 
ATOM     26 CL   UNL d   1       0.865  -2.803  -7.511  0.00  0.00    -0.083 Cl
ATOM     27  C   UNL d   1      -0.190  -3.675  -5.135  0.00  0.00     0.055 A 
ATOM     28  C   UNL d   1      -0.145  -3.822  -3.752  0.00  0.00     0.026 A 
ATOM     29 CL   UNL d   1      -1.560  -4.324  -5.964  0.00  0.00    -0.083 Cl
ATOM     30  C   UNL d   1       0.925  -3.307  -3.026  0.00  0.00     0.011 A 
ENDBRANCH  22  23
ENDBRANCH  21  22
ENDBRANCH   4  21
TORSDOF 7
