REMARK  3 active torsions:
REMARK  status: ('A' for Active; 'I' for Inactive)
REMARK    1  A    between atoms: C_2  and  S_1 
REMARK    2  A    between atoms: N_3  and  S_1 
REMARK    3  A    between atoms: C_4  and  N_13 
ROOT
ATOM      1  N   UNL d   1       0.791  -0.626   0.952  0.00  0.00    -0.203 NA
ATOM      2  N   UNL d   1       1.127  -3.598   1.000  0.00  0.00    -0.398 N 
ATOM      3  C   UNL d   1       1.758  -1.268   1.890  0.00  0.00     0.127 C 
ATOM      4  C   UNL d   1      -0.368  -1.526   0.713  0.00  0.00     0.127 C 
ATOM      5  C   UNL d   1       0.073  -2.926   0.220  0.00  0.00     0.133 C 
ATOM      6  C   UNL d   1       2.201  -2.659   1.383  0.00  0.00     0.133 C 
ENDROOT
BRANCH   2   7
ATOM      7  C   UNL d   1       0.659  -4.565   2.011  0.00  0.00     0.147 C 
ATOM      8  C   UNL d   1      -0.134  -3.974   3.170  0.00  0.00    -0.020 C 
ATOM      9  C   UNL d   1       0.611  -4.056   4.363  0.00  0.00    -0.017 C 
ATOM     10  C   UNL d   1      -1.414  -3.440   3.164  0.00  0.00     0.010 C 
ATOM     11  C   UNL d   1       0.160  -3.427   5.514  0.00  0.00     0.013 C 
ATOM     12  C   UNL d   1       1.782  -4.872   4.129  0.00  0.00    -0.017 A 
ATOM     13  C   UNL d   1      -1.068  -2.759   5.468  0.00  0.00     0.001 C 
ATOM     14  C   UNL d   1      -1.865  -2.797   4.315  0.00  0.00     0.001 C 
ATOM     15  C   UNL d   1       1.816  -5.237   2.761  0.00  0.00    -0.020 A 
ATOM     16  C   UNL d   1       2.750  -5.339   5.001  0.00  0.00     0.013 A 
ATOM     17  C   UNL d   1       2.815  -6.058   2.255  0.00  0.00     0.010 A 
ATOM     18  C   UNL d   1       3.794  -6.519   3.137  0.00  0.00     0.001 A 
ATOM     19  C   UNL d   1       3.763  -6.165   4.497  0.00  0.00     0.001 A 
ENDBRANCH   2   7
BRANCH   1  20
ATOM     20  S   UNL d   1       1.429   0.125  -0.426  0.00  0.00     0.248 S 
ATOM     21  O   UNL d   1       2.769  -0.359  -0.661  0.00  0.00    -0.206 OA
ATOM     22  O   UNL d   1       0.420   0.105  -1.464  0.00  0.00    -0.206 OA
BRANCH  20  23
ATOM     23  C   UNL d   1       1.660   1.794  -0.165  0.00  0.00     0.130 A 
ATOM     24  C   UNL d   1       1.507   2.576   0.954  0.00  0.00     0.097 A 
ATOM     25  O   UNL d   1       1.838   3.860   0.630  0.00  0.00    -0.241 OA
ATOM     26  C   UNL d   1       1.088   2.395   2.355  0.00  0.00     0.081 C 
ATOM     27  N   UNL d   1       2.182   3.937  -0.705  0.00  0.00    -0.264 N 
ATOM     28  C   UNL d   1       2.060   2.694  -1.183  0.00  0.00     0.054 A 
ATOM     29  HN  UNL d   1       2.470   4.770  -1.219  1.00  0.00     0.194 HD
ATOM     30  C   UNL d   1       2.321   2.415  -2.616  0.00  0.00     0.072 C 
ENDBRANCH  20  23
ENDBRANCH   1  20
TORSDOF 3
