REMARK  2 active torsions:
REMARK  status: ('A' for Active; 'I' for Inactive)
REMARK    1  A    between atoms: O_11  and  C_3 
REMARK    2  A    between atoms: C_13  and  O_11 
ROOT
ATOM      1  C   UNL d   1       0.644  -0.550   0.109  0.00  0.00     0.057 A 
ATOM      2  C   UNL d   1       1.207   0.719   0.143  0.00  0.00     0.090 A 
ATOM      3  C   UNL d   1       1.572  -1.601   0.038  0.00  0.00     0.162 A 
ATOM      4  S   UNL d   1       0.046   1.965   0.137  0.00  0.00    -0.075 SA
ATOM      5  C   UNL d   1      -0.798  -0.468   0.153  0.00  0.00    -0.028 A 
ATOM      6  C   UNL d   1      -1.232   0.847   0.145  0.00  0.00    -0.008 A 
ATOM      7  N   UNL d   1       2.518   1.020   0.169  0.00  0.00    -0.346 N 
ATOM      8  HN  UNL d   1       2.879   1.973   0.185  1.00  0.00     0.167 HD
ATOM      9  N   UNL d   1       2.899  -1.341   0.110  0.00  0.00    -0.332 N 
ATOM     10  HN  UNL d   1       3.581  -2.100   0.118  1.00  0.00     0.168 HD
ATOM     11  C   UNL d   1       3.292  -0.064   0.171  0.00  0.00     0.183 A 
ATOM     12  C   UNL d   1      -1.769  -1.611   0.251  0.00  0.00     0.041 C 
ATOM     13  C   UNL d   1      -2.662   1.290   0.124  0.00  0.00     0.047 C 
ATOM     14  C   UNL d   1      -3.208  -1.181  -0.080  0.00  0.00     0.005 C 
ATOM     15  C   UNL d   1      -3.582   0.152   0.583  0.00  0.00     0.005 C 
ENDROOT
BRANCH   3  16
ATOM     16  O   UNL d   1       1.147  -2.919  -0.089  0.00  0.00    -0.293 OA
BRANCH  16  17
ATOM     17  C   UNL d   1       2.009  -3.786  -0.727  0.00  0.00     0.077 A 
ATOM     18  C   UNL d   1       2.223  -5.030  -0.133  0.00  0.00     0.037 A 
ATOM     19  C   UNL d   1       3.092  -5.946  -0.729  0.00  0.00     0.003 A 
ATOM     20  C   UNL d   1       3.734  -5.625  -1.926  0.00  0.00     0.000 A 
ATOM     21  C   UNL d   1       3.491  -4.397  -2.541  0.00  0.00     0.003 A 
ATOM     22  C   UNL d   1       2.615  -3.485  -1.952  0.00  0.00     0.037 A 
ENDBRANCH  16  17
ENDBRANCH   3  16
TORSDOF 2
