REMARK  5 active torsions:
REMARK  status: ('A' for Active; 'I' for Inactive)
REMARK    1  A    between atoms: N_2  and  S_1 
REMARK    2  A    between atoms: C_5  and  S_1 
REMARK    3  A    between atoms: N_4  and  C_3 
REMARK    4  A    between atoms: C_6  and  C_12 
REMARK    5  A    between atoms: C_13  and  C_11 
ROOT
ATOM      1  N   UNL d   1       0.509  -1.430  -0.554  0.00  0.00    -0.247 N 
ATOM      2  C   UNL d   1      -0.498  -1.582  -1.506  0.00  0.00     0.050 A 
ATOM      3  C   UNL d   1       1.013  -2.670  -0.210  0.00  0.00     0.110 A 
ATOM      4  C   UNL d   1       0.288  -3.632  -0.868  0.00  0.00     0.021 A 
ATOM      5  C   UNL d   1      -0.657  -2.956  -1.668  0.00  0.00     0.032 A 
ENDROOT
BRANCH   2   6
ATOM      6  C   UNL d   1      -1.286  -0.568  -2.122  0.00  0.00     0.033 C 
ATOM      7  C   UNL d   1      -0.813   0.565  -2.659  0.00  0.00     0.044 C 
BRANCH   7   8
ATOM      8  C   UNL d   1      -1.666   1.462  -3.376  0.00  0.00     0.134 A 
ATOM      9  C   UNL d   1      -1.449   2.733  -3.912  0.00  0.00     0.162 A 
ATOM     10  C   UNL d   1      -2.655   3.083  -4.582  0.00  0.00     0.064 A 
ATOM     11  C   UNL d   1      -3.039   4.272  -5.382  0.00  0.00     0.073 C 
ATOM     12  N   UNL d   1      -3.562   2.113  -4.443  0.00  0.00    -0.263 N 
ATOM     13  O   UNL d   1      -2.964   1.131  -3.699  0.00  0.00    -0.235 OA
ATOM     14  HN  UNL d   1      -4.511   2.105  -4.816  1.00  0.00     0.194 HD
BRANCH   9  15
ATOM     15  N   UNL d   1      -0.242   3.504  -3.818  0.00  0.00    -0.111 N 
ATOM     16  O   UNL d   1       0.732   2.997  -3.250  0.00  0.00    -0.532 OA
ATOM     17  O   UNL d   1      -0.247   4.628  -4.331  0.00  0.00    -0.532 OA
ENDBRANCH   9  15
ENDBRANCH   7   8
ENDBRANCH   2   6
BRANCH   1  18
ATOM     18  S   UNL d   1       1.237  -0.000   0.062  0.00  0.00     0.270 S 
ATOM     19  O   UNL d   1       1.888  -0.429   1.290  0.00  0.00    -0.200 OA
ATOM     20  O   UNL d   1       0.199   1.008   0.052  0.00  0.00    -0.200 OA
BRANCH  18  21
ATOM     21  C   UNL d   1       2.507   0.466  -1.085  0.00  0.00     0.102 A 
ATOM     22  C   UNL d   1       3.310   1.575  -0.799  0.00  0.00     0.057 A 
ATOM     23 CL   UNL d   1       3.233   2.459   0.682  0.00  0.00    -0.083 Cl
ATOM     24  C   UNL d   1       4.241   2.019  -1.747  0.00  0.00     0.025 A 
ATOM     25  C   UNL d   1       4.369   1.370  -2.975  0.00  0.00     0.002 A 
ATOM     26  C   UNL d   1       3.593   0.248  -3.248  0.00  0.00     0.002 A 
ATOM     27  C   UNL d   1       2.677  -0.217  -2.302  0.00  0.00     0.027 A 
ENDBRANCH  18  21
ENDBRANCH   1  18
TORSDOF 5
