REMARK  7 active torsions:
REMARK  status: ('A' for Active; 'I' for Inactive)
REMARK    1  A    between atoms: C_22  and  N_1 
REMARK    2  A    between atoms: S_5  and  C_10 
REMARK    3  A    between atoms: N_17  and  S_5 
REMARK    4  A    between atoms: S_11  and  C_6 
REMARK    5  A    between atoms: C_25  and  S_11 
REMARK    6  A    between atoms: C_14  and  C_25 
REMARK       I    between atoms: N_16  and  C_14 
REMARK    7  A    between atoms: C_26  and  N_16 
ROOT
ATOM      1  C   UNL d   1      -5.021  -1.852   0.011  0.00  0.00     0.231 C 
ATOM      2  N   UNL d   1      -5.707  -0.867   0.692  0.00  0.00    -0.327 N 
ATOM      3  O   UNL d   1      -5.557  -2.725  -0.675  0.00  0.00    -0.272 OA
ATOM      4  H   UNL d   1      -5.150  -0.118   1.092  0.00  0.00     0.169 HD
ENDROOT
BRANCH   1   5
ATOM      5  C   UNL d   1      -3.502  -1.844   0.088  0.00  0.00     0.185 C 
BRANCH   5   6
ATOM      6  S   UNL d   1      -2.755  -0.619   1.197  0.00  0.00    -0.083 SA
BRANCH   6   7
ATOM      7  C   UNL d   1      -1.081  -0.836   0.775  0.00  0.00     0.163 A 
ATOM      8  N   UNL d   1      -0.029  -0.225   1.406  0.00  0.00    -0.309 N 
ATOM      9  C   UNL d   1       1.077  -0.525   0.645  0.00  0.00     0.158 A 
ATOM     10  N   UNL d   1       0.725  -1.379  -0.299  0.00  0.00    -0.281 N 
ATOM     11  C   UNL d   1       2.400   0.005   0.789  0.00  0.00     0.120 A 
ATOM     12  N   UNL d   1      -0.634  -1.569  -0.219  0.00  0.00    -0.278 N 
ATOM     13  HN  UNL d   1       1.352  -1.820  -0.971  1.00  0.00     0.188 HD
ATOM     14  HN  UNL d   1      -1.194  -2.171  -0.822  1.00  0.00     0.189 HD
ATOM     15  O   UNL d   1       2.730   1.008   1.668  0.00  0.00    -0.319 OA
ATOM     16  C   UNL d   1       3.541  -0.335   0.076  0.00  0.00     0.043 A 
ATOM     17  C   UNL d   1       4.045   1.294   1.503  0.00  0.00     0.142 A 
ATOM     18  C   UNL d   1       4.593   0.491   0.536  0.00  0.00     0.027 A 
BRANCH   8  19
ATOM     19  C   UNL d   1      -0.059   0.485   2.667  0.00  0.00     0.128 C 
ATOM     20  C   UNL d   1      -0.328   1.972   2.518  0.00  0.00     0.027 C 
ENDBRANCH   8  19
ENDBRANCH   6   7
ENDBRANCH   5   6
ENDBRANCH   1   5
BRANCH   2  21
ATOM     21  C   UNL d   1      -7.111  -0.788   0.869  0.00  0.00     0.034 A 
ATOM     22  C   UNL d   1      -7.980  -1.833   0.532  0.00  0.00     0.031 A 
ATOM     23  C   UNL d   1      -9.346  -1.752   0.809  0.00  0.00     0.027 A 
ATOM     24  C   UNL d   1      -9.849  -0.617   1.439  0.00  0.00     0.074 A 
ATOM     25  C   UNL d   1      -9.014   0.462   1.733  0.00  0.00     0.027 A 
ATOM     26  C   UNL d   1      -7.644   0.368   1.457  0.00  0.00     0.031 A 
BRANCH  24  27
ATOM     27  S   UNL d   1     -11.528  -0.608   1.973  0.00  0.00     0.239 S 
ATOM     28  O   UNL d   1     -11.974   0.753   2.151  0.00  0.00    -0.206 OA
ATOM     29  O   UNL d   1     -12.287  -1.586   1.224  0.00  0.00    -0.206 OA
BRANCH  27  30
ATOM     30  N   UNL d   1     -11.345  -1.248   3.516  0.00  0.00    -0.225 NA
ATOM     31  H   UNL d   1     -11.642  -0.576   4.222  0.00  0.00     0.136 HD
ATOM     32  H   UNL d   1     -11.779  -2.168   3.582  0.00  0.00     0.136 HD
ENDBRANCH  27  30
ENDBRANCH  24  27
ENDBRANCH   2  21
TORSDOF 7
