REMARK  5 active torsions:
REMARK  status: ('A' for Active; 'I' for Inactive)
REMARK    1  A    between atoms: C_3  and  N_1 
REMARK    2  A    between atoms: C_12  and  N_4 
REMARK    3  A    between atoms: O_11  and  C_8 
REMARK    4  A    between atoms: C_17  and  C_12 
REMARK    5  A    between atoms: C_14  and  C_17 
ROOT
ATOM      1  N   UNL d   1       5.222  -1.067  -2.530  0.00  0.00    -0.197 NA
ATOM      2  C   UNL d   1       4.636  -0.120  -2.196  0.00  0.00     0.059 C 
ATOM      3  C   UNL d   1       3.897   1.085  -1.802  0.00  0.00     0.125 C 
ENDROOT
BRANCH   3   4
ATOM      4  C   UNL d   1       2.502   1.135  -2.432  0.00  0.00     0.044 C 
BRANCH   4   5
ATOM      5  C   UNL d   1       1.544   0.038  -1.937  0.00  0.00     0.273 C 
BRANCH   5   6
ATOM      6  N   UNL d   1       1.429  -0.024  -0.476  0.00  0.00     0.091 N 
ATOM      7  C   UNL d   1       0.779   1.168   0.133  0.00  0.00     0.292 C 
ATOM      8  C   UNL d   1      -0.760   1.254  -0.021  0.00  0.00     0.153 C 
ATOM      9  N   UNL d   1      -1.358   0.015   0.498  0.00  0.00    -0.375 N 
ATOM     10  C   UNL d   1      -0.857  -1.185  -0.185  0.00  0.00     0.153 C 
ATOM     11  C   UNL d   1       0.688  -1.241  -0.044  0.00  0.00     0.292 C 
BRANCH   9  12
ATOM     12  C   UNL d   1      -2.641   0.072   1.043  0.00  0.00     0.064 A 
ATOM     13  C   UNL d   1      -2.964   0.929   2.131  0.00  0.00     0.094 A 
ATOM     14  C   UNL d   1      -4.266   0.963   2.656  0.00  0.00     0.039 A 
ATOM     15  C   UNL d   1      -5.251   0.112   2.163  0.00  0.00     0.003 A 
ATOM     16  C   UNL d   1      -4.946  -0.765   1.133  0.00  0.00     0.002 A 
ATOM     17  C   UNL d   1      -3.663  -0.777   0.580  0.00  0.00     0.032 A 
BRANCH  13  18
ATOM     18  O   UNL d   1      -1.948   1.704   2.654  0.00  0.00    -0.354 OA
ATOM     19  C   UNL d   1      -2.096   2.099   4.014  0.00  0.00     0.210 C 
ENDBRANCH  13  18
ENDBRANCH   9  12
ENDBRANCH   5   6
ENDBRANCH   4   5
ENDBRANCH   3   4
TORSDOF 5
