REMARK  5 active torsions:
REMARK  status: ('A' for Active; 'I' for Inactive)
REMARK    1  A    between atoms: N_11  and  N_1 
REMARK    2  A    between atoms: C_17  and  C_2 
REMARK    3  A    between atoms: C_6  and  C_15 
REMARK    4  A    between atoms: C_18  and  N_7 
REMARK    5  A    between atoms: C_19  and  C_10 
ROOT
ATOM      1  N   UNL d   1       4.591  -5.214  -0.556  0.00  0.00    -0.292 N 
ATOM      2  HN  UNL d   1       5.022  -6.014  -1.020  1.00  0.00     0.187 HD
ATOM      3  C   UNL d   1       3.155  -3.530  -0.004  0.00  0.00     0.027 A 
ATOM      4  N   UNL d   1       5.125  -4.457   0.432  0.00  0.00    -0.266 N 
ATOM      5  C   UNL d   1       3.376  -4.695  -0.800  0.00  0.00     0.072 A 
ATOM      6  C   UNL d   1       4.277  -3.434   0.791  0.00  0.00     0.132 A 
ENDROOT
BRANCH   3   7
ATOM      7  C   UNL d   1       2.060  -2.589   0.035  0.00  0.00     0.123 C 
ATOM      8  N   UNL d   1       1.278  -2.515  -0.988  0.00  0.00    -0.300 N 
ATOM      9  HN  UNL d   1       1.473  -3.069  -1.822  1.00  0.00     0.186 HD
BRANCH   8  10
ATOM     10  N   UNL d   1       0.194  -1.697  -0.952  0.00  0.00    -0.211 N 
ATOM     11  C   UNL d   1      -0.362  -1.108  -2.063  0.00  0.00     0.154 A 
ATOM     12  N   UNL d   1      -1.468  -0.455  -1.810  0.00  0.00    -0.281 N 
ATOM     13  N   UNL d   1      -1.694  -0.656  -0.477  0.00  0.00    -0.273 N 
ATOM     14  HN  UNL d   1      -2.036   0.085  -2.464  1.00  0.00     0.188 HD
ATOM     15  C   UNL d   1      -0.716  -1.485   0.070  0.00  0.00     0.214 A 
ATOM     16  H   UNL d   1      -2.555  -0.364  -0.030  0.00  0.00     0.189 HD
ATOM     17  S   UNL d   1      -0.807  -2.073   1.620  0.00  0.00    -0.037 SA
BRANCH  11  18
ATOM     18  C   UNL d   1       0.229  -1.171  -3.417  0.00  0.00     0.014 A 
ATOM     19  C   UNL d   1       0.938  -2.274  -3.887  0.00  0.00     0.032 A 
ATOM     20  C   UNL d   1       1.428  -2.245  -5.180  0.00  0.00     0.088 A 
ATOM     21  N   UNL d   1       1.251  -1.208  -6.024  0.00  0.00    -0.375 N 
ATOM     22  C   UNL d   1       0.542  -0.159  -5.556  0.00  0.00     0.088 A 
ATOM     23  HN  UNL d   1       1.634  -1.216  -6.969  1.00  0.00     0.164 HD
ATOM     24  C   UNL d   1       0.013  -0.094  -4.279  0.00  0.00     0.032 A 
ENDBRANCH  11  18
ENDBRANCH   8  10
ENDBRANCH   3   7
BRANCH   5  25
ATOM     25  C   UNL d   1       2.482  -5.321  -1.782  0.00  0.00    -0.007 A 
ATOM     26  C   UNL d   1       1.105  -5.439  -1.533  0.00  0.00     0.014 A 
ATOM     27  C   UNL d   1       0.239  -5.924  -2.516  0.00  0.00     0.001 A 
ATOM     28  C   UNL d   1       0.745  -6.341  -3.744  0.00  0.00     0.000 A 
ATOM     29  C   UNL d   1       2.118  -6.291  -3.983  0.00  0.00     0.001 A 
ATOM     30  C   UNL d   1       2.983  -5.785  -3.007  0.00  0.00     0.014 A 
ENDBRANCH   5  25
BRANCH   4  31
ATOM     31  C   UNL d   1       6.407  -4.754   0.981  0.00  0.00     0.056 A 
ATOM     32  C   UNL d   1       6.933  -4.005   2.044  0.00  0.00     0.031 A 
ATOM     33  C   UNL d   1       8.180  -4.332   2.585  0.00  0.00     0.002 A 
ATOM     34  C   UNL d   1       8.910  -5.399   2.068  0.00  0.00     0.000 A 
ATOM     35  C   UNL d   1       8.400  -6.141   1.004  0.00  0.00     0.002 A 
ATOM     36  C   UNL d   1       7.153  -5.822   0.460  0.00  0.00     0.031 A 
ENDBRANCH   4  31
TORSDOF 5
