REMARK  4 active torsions:
REMARK  status: ('A' for Active; 'I' for Inactive)
REMARK    1  A    between atoms: N_4  and  S_1 
REMARK    2  A    between atoms: C_15  and  S_1 
REMARK    3  A    between atoms: C_2  and  N_4 
REMARK    4  A    between atoms: C_10  and  C_5 
ROOT
ATOM      1  N   UNL d   1       0.608  -1.065  -1.401  0.00  0.00    -0.159 NA
ATOM      2  H   UNL d   1      -0.410  -1.161  -1.414  0.00  0.00     0.148 HD
ENDROOT
BRANCH   1   3
ATOM      3  C   UNL d   1       0.920  -0.356  -2.595  0.00  0.00     0.153 A 
ATOM      4  S   UNL d   1       2.469  -0.260  -3.308  0.00  0.00    -0.043 SA
ATOM      5  C   UNL d   1       1.733   0.642  -4.568  0.00  0.00     0.073 A 
ATOM      6  N   UNL d   1       0.429   0.785  -4.447  0.00  0.00    -0.296 N 
ATOM      7  N   UNL d   1      -0.051   0.161  -3.310  0.00  0.00    -0.283 N 
ATOM      8  HN  UNL d   1      -0.155   1.294  -5.111  1.00  0.00     0.187 HD
ATOM      9  HN  UNL d   1      -1.038   0.109  -3.058  1.00  0.00     0.188 HD
BRANCH   5  10
ATOM     10  C   UNL d   1       2.532   1.220  -5.737  0.00  0.00     0.044 A 
ATOM     11  C   UNL d   1       2.113   2.564  -6.302  0.00  0.00     0.012 A 
ATOM     12  C   UNL d   1       1.865   1.327  -7.094  0.00  0.00     0.012 A 
ENDBRANCH   5  10
ENDBRANCH   1   3
BRANCH   1  13
ATOM     13  S   UNL d   1       0.950  -0.106  -0.043  0.00  0.00     0.247 S 
ATOM     14  O   UNL d   1      -0.264   0.615   0.269  0.00  0.00    -0.205 OA
ATOM     15  O   UNL d   1       2.220   0.570  -0.201  0.00  0.00    -0.205 OA
BRANCH  13  16
ATOM     16  C   UNL d   1       1.166  -1.350   1.211  0.00  0.00     0.074 A 
ATOM     17  C   UNL d   1       2.446  -1.849   1.475  0.00  0.00     0.025 A 
ATOM     18  C   UNL d   1       2.622  -2.782   2.497  0.00  0.00     0.002 A 
ATOM     19  C   UNL d   1       1.527  -3.206   3.254  0.00  0.00     0.000 A 
ATOM     20  C   UNL d   1       0.254  -2.694   2.997  0.00  0.00     0.002 A 
ATOM     21  C   UNL d   1       0.070  -1.758   1.977  0.00  0.00     0.025 A 
ENDBRANCH  13  16
ENDBRANCH   1  13
TORSDOF 4
