REMARK  3 active torsions:
REMARK  status: ('A' for Active; 'I' for Inactive)
REMARK    1  A    between atoms: N_10  and  C_3 
REMARK       I    between atoms: C_4  and  N_9 
REMARK    2  A    between atoms: C_15  and  C_4 
REMARK    3  A    between atoms: N_9  and  N_10 
ROOT
ATOM      1  C   UNL d   1      -0.021   1.558  -0.448  0.00  0.00     0.038 A 
ATOM      2  C   UNL d   1      -0.522   0.488  -1.173  0.00  0.00     0.088 A 
ATOM      3  C   UNL d   1       1.384   1.658  -0.373  0.00  0.00     0.112 A 
ATOM      4  N   UNL d   1       0.196  -0.454  -1.804  0.00  0.00    -0.346 N 
ATOM      5  HN  UNL d   1      -0.216  -1.230  -2.323  1.00  0.00     0.167 HD
ATOM      6  N   UNL d   1       2.137   0.727  -1.015  0.00  0.00    -0.341 N 
ATOM      7  HN  UNL d   1       3.156   0.777  -0.994  1.00  0.00     0.167 HD
ATOM      8  S   UNL d   1      -2.227   0.449  -1.201  0.00  0.00    -0.083 SA
ATOM      9  C   UNL d   1       1.512  -0.260  -1.676  0.00  0.00     0.182 A 
ATOM     10  C   UNL d   1      -2.337   1.866  -0.253  0.00  0.00     0.053 A 
ATOM     11  C   UNL d   1      -1.094   2.355   0.085  0.00  0.00     0.025 A 
ENDROOT
BRANCH   3  12
ATOM     12  N   UNL d   1       2.013   2.664   0.384  0.00  0.00    -0.187 NA
ATOM     13  H   UNL d   1       1.391   3.449   0.596  0.00  0.00     0.154 HD
BRANCH  12  14
ATOM     14  N   UNL d   1       3.222   3.111  -0.172  0.00  0.00    -0.285 N 
ATOM     15  C   UNL d   1       3.484   4.462  -0.053  0.00  0.00     0.239 C 
ATOM     16  O   UNL d   1       2.623   5.237   0.375  0.00  0.00    -0.271 OA
ATOM     17  H   UNL d   1       3.887   2.393  -0.445  0.00  0.00     0.184 HD
BRANCH  15  18
ATOM     18  C   UNL d   1       4.882   4.923  -0.492  0.00  0.00     0.031 C 
ATOM     19  C   UNL d   1       5.087   4.630  -1.984  0.00  0.00     0.025 C 
ATOM     20  C   UNL d   1       5.006   6.440  -0.260  0.00  0.00     0.025 C 
ATOM     21  C   UNL d   1       5.960   4.211   0.337  0.00  0.00     0.025 C 
ENDBRANCH  15  18
ENDBRANCH  12  14
ENDBRANCH   3  12
TORSDOF 3
