REMARK  9 active torsions:
REMARK  status: ('A' for Active; 'I' for Inactive)
REMARK    1  A    between atoms: C_15  and  N_9 
REMARK    2  A    between atoms: C_11  and  O_16 
REMARK    3  A    between atoms: C_12  and  C_11 
REMARK    4  A    between atoms: C_13  and  O_22 
REMARK    5  A    between atoms: C_14  and  C_13 
REMARK    6  A    between atoms: C_21  and  C_15 
REMARK    7  A    between atoms: O_16  and  C_21 
REMARK    8  A    between atoms: C_33  and  C_21 
REMARK    9  A    between atoms: O_22  and  C_33 
ROOT
ATOM      1  C   UNL d   1       3.661   2.355  -0.179  0.00  0.00     0.175 C 
ENDROOT
BRANCH   1   2
ATOM      2  O   UNL d   1       3.899   1.712  -1.459  0.00  0.00    -0.307 OA
BRANCH   2   3
ATOM      3  C   UNL d   1       3.489   0.424  -1.624  0.00  0.00     0.317 C 
ATOM      4  O   UNL d   1       2.702  -0.145  -0.881  0.00  0.00    -0.257 OA
BRANCH   3   5
ATOM      5  C   UNL d   1       4.122  -0.174  -2.778  0.00  0.00     0.149 A 
ATOM      6  O   UNL d   1       5.171   0.457  -3.398  0.00  0.00    -0.317 OA
ATOM      7  C   UNL d   1       5.604  -0.357  -4.394  0.00  0.00     0.143 A 
ATOM      8  C   UNL d   1       4.847  -1.503  -4.444  0.00  0.00     0.027 A 
ATOM      9  C   UNL d   1       3.894  -1.388  -3.404  0.00  0.00     0.045 A 
ENDBRANCH   3   5
ENDBRANCH   2   3
ENDBRANCH   1   2
BRANCH   1  10
ATOM     10  C   UNL d   1       2.166   2.640   0.080  0.00  0.00     0.165 C 
BRANCH  10  11
ATOM     11  N   UNL d   1       1.912   3.416   1.284  0.00  0.00    -0.333 N 
ATOM     12  C   UNL d   1       1.811   2.970   2.574  0.00  0.00     0.149 A 
ATOM     13  C   UNL d   1       1.651   4.095   3.329  0.00  0.00     0.145 A 
ATOM     14  C   UNL d   1       1.838   1.666   3.139  0.00  0.00     0.282 C 
ATOM     15  N   UNL d   1       1.538   4.040   4.698  0.00  0.00    -0.287 N 
ATOM     16  N   UNL d   1       1.617   5.218   2.561  0.00  0.00    -0.336 N 
ATOM     17  C   UNL d   1       1.468   2.798   5.332  0.00  0.00     0.332 C 
ATOM     18  C   UNL d   1       1.409   5.237   5.505  0.00  0.00     0.163 C 
ATOM     19  N   UNL d   1       1.576   1.657   4.514  0.00  0.00    -0.269 N 
ATOM     20  O   UNL d   1       1.316   2.712   6.553  0.00  0.00    -0.246 OA
ATOM     21  C   UNL d   1       1.424   0.352   5.126  0.00  0.00     0.164 C 
ATOM     22  C   UNL d   1       1.731   4.777   1.325  0.00  0.00     0.185 A 
ATOM     23  HN  UNL d   1       1.524   6.185   2.873  1.00  0.00     0.168 HD
ATOM     24  O   UNL d   1       2.063   0.657   2.478  0.00  0.00    -0.265 OA
ENDBRANCH  10  11
ENDBRANCH   1  10
BRANCH   1  25
ATOM     25  C   UNL d   1       4.456   3.674  -0.219  0.00  0.00     0.213 C 
BRANCH  25  26
ATOM     26  O   UNL d   1       5.865   3.446  -0.365  0.00  0.00    -0.313 OA
BRANCH  26  27
ATOM     27  C   UNL d   1       6.391   3.664  -1.604  0.00  0.00     0.317 C 
ATOM     28  O   UNL d   1       5.732   3.867  -2.619  0.00  0.00    -0.257 OA
BRANCH  27  29
ATOM     29  C   UNL d   1       7.831   3.694  -1.530  0.00  0.00     0.149 A 
ATOM     30  O   UNL d   1       8.452   3.781  -0.310  0.00  0.00    -0.317 OA
ATOM     31  C   UNL d   1       9.786   3.875  -0.539  0.00  0.00     0.143 A 
ATOM     32  C   UNL d   1      10.047   3.829  -1.887  0.00  0.00     0.027 A 
ATOM     33  C   UNL d   1       8.789   3.716  -2.528  0.00  0.00     0.045 A 
ENDBRANCH  27  29
ENDBRANCH  26  27
ENDBRANCH  25  26
ENDBRANCH   1  25
TORSDOF 9
