REMARK  2 active torsions:
REMARK  status: ('A' for Active; 'I' for Inactive)
REMARK       I    between atoms: C_6  and  N_1 
REMARK    1  A    between atoms: C_9  and  C_6 
REMARK    2  A    between atoms: C_11  and  C_7 
ROOT
ATOM      1  N   UNL d   1      -3.025   1.096  -0.183  0.00  0.00    -0.245 N 
ATOM      2  N   UNL d   1      -1.714   1.522  -0.298  0.00  0.00    -0.298 N 
ATOM      3  HN  UNL d   1      -1.389   2.441  -0.598  1.00  0.00     0.187 HD
ATOM      4  C   UNL d   1      -0.983   0.509   0.056  0.00  0.00     0.043 C 
ATOM      5  C   UNL d   1      -1.728  -0.663   0.639  0.00  0.00     0.068 C 
ATOM      6  C   UNL d   1      -4.137   1.944  -0.139  0.00  0.00     0.296 C 
ATOM      7  C   UNL d   1      -3.131  -0.338   0.118  0.00  0.00     0.154 C 
ATOM      8  C   UNL d   1       0.476   0.446   0.003  0.00  0.00    -0.005 A 
ATOM      9  C   UNL d   1      -1.087  -2.029   0.407  0.00  0.00     0.018 C 
ATOM     10  O   UNL d   1      -5.250   1.480   0.135  0.00  0.00    -0.263 OA
ATOM     11  C   UNL d   1       1.051  -0.819  -0.189  0.00  0.00    -0.046 A 
ATOM     12  C   UNL d   1       0.165  -2.005  -0.474  0.00  0.00     0.040 C 
ATOM     13  C   UNL d   1       1.258   1.590   0.154  0.00  0.00     0.014 A 
ATOM     14  C   UNL d   1       2.445  -0.925  -0.213  0.00  0.00     0.008 A 
ATOM     15  C   UNL d   1       2.647   1.466   0.145  0.00  0.00     0.001 A 
ATOM     16  C   UNL d   1       3.237   0.212  -0.033  0.00  0.00     0.001 A 
ENDROOT
BRANCH   6  17
ATOM     17  C   UNL d   1      -3.932   3.364  -0.367  0.00  0.00     0.144 A 
ATOM     18  O   UNL d   1      -4.837   4.229   0.199  0.00  0.00    -0.317 OA
ATOM     19  C   UNL d   1      -4.459   5.492  -0.119  0.00  0.00     0.143 A 
ATOM     20  C   UNL d   1      -3.334   5.471  -0.906  0.00  0.00     0.027 A 
ATOM     21  C   UNL d   1      -2.995   4.104  -1.069  0.00  0.00     0.045 A 
ENDBRANCH   6  17
BRANCH   7  22
ATOM     22  C   UNL d   1      -3.611  -1.137  -1.083  0.00  0.00    -0.033 A 
ATOM     23  C   UNL d   1      -4.786  -1.903  -0.972  0.00  0.00     0.012 A 
ATOM     24  C   UNL d   1      -5.221  -2.699  -2.032  0.00  0.00     0.043 A 
ATOM     25  C   UNL d   1      -4.486  -2.730  -3.210  0.00  0.00     0.116 A 
ATOM     26  C   UNL d   1      -3.340  -1.959  -3.357  0.00  0.00     0.043 A 
ATOM     27  F   UNL d   1      -4.889  -3.514  -4.219  0.00  0.00    -0.206 F 
ATOM     28  C   UNL d   1      -2.910  -1.153  -2.301  0.00  0.00     0.012 A 
ENDBRANCH   7  22
TORSDOF 2
