REMARK  5 active torsions:
REMARK  status: ('A' for Active; 'I' for Inactive)
REMARK    1  A    between atoms: C_2  and  S_1 
REMARK    2  A    between atoms: N_5  and  S_1 
REMARK    3  A    between atoms: C_4  and  C_6 
REMARK    4  A    between atoms: C_8  and  N_5 
REMARK    5  A    between atoms: C_13  and  C_7 
ROOT
ATOM      1  S   UNL d   1       0.800   0.132  -0.090  0.00  0.00     0.252 S 
ATOM      2  O   UNL d   1      -0.081   0.833  -0.999  0.00  0.00    -0.205 OA
ATOM      3  O   UNL d   1       2.241   0.189  -0.217  0.00  0.00    -0.205 OA
ENDROOT
BRANCH   1   4
ATOM      4  C   UNL d   1       0.409  -1.599  -0.284  0.00  0.00     0.116 A 
ATOM      5  S   UNL d   1      -1.237  -2.004  -0.503  0.00  0.00    -0.075 SA
ATOM      6  C   UNL d   1      -0.892  -3.681  -0.671  0.00  0.00     0.033 A 
ATOM      7  C   UNL d   1       0.462  -3.916  -0.495  0.00  0.00     0.023 A 
ATOM      8  C   UNL d   1       1.209  -2.723  -0.280  0.00  0.00     0.034 A 
BRANCH   6   9
ATOM      9  C   UNL d   1      -1.954  -4.668  -0.922  0.00  0.00     0.049 A 
ATOM     10  N   UNL d   1      -1.685  -5.901  -0.423  0.00  0.00    -0.365 N 
ATOM     11  C   UNL d   1      -2.614  -6.865  -0.611  0.00  0.00     0.088 A 
ATOM     12  HN  UNL d   1      -0.816  -6.093   0.074  1.00  0.00     0.165 HD
ATOM     13  C   UNL d   1      -3.807  -6.666  -1.284  0.00  0.00     0.017 A 
ATOM     14  C   UNL d   1      -4.061  -5.404  -1.804  0.00  0.00     0.004 A 
ATOM     15  C   UNL d   1      -3.123  -4.388  -1.625  0.00  0.00     0.031 A 
ENDBRANCH   6   9
ENDBRANCH   1   4
BRANCH   1  16
ATOM     16  N   UNL d   1       0.361   0.600   1.484  0.00  0.00    -0.180 NA
ATOM     17  H   UNL d   1      -0.655   0.599   1.577  0.00  0.00     0.146 HD
BRANCH  16  18
ATOM     18  C   UNL d   1       1.089   0.022   2.567  0.00  0.00     0.037 A 
ATOM     19  C   UNL d   1       2.326   0.522   2.998  0.00  0.00     0.070 A 
ATOM     20  C   UNL d   1       2.989  -0.147   4.051  0.00  0.00     0.018 A 
ATOM     21  C   UNL d   1       2.433  -1.272   4.658  0.00  0.00     0.001 A 
ATOM     22  C   UNL d   1       1.206  -1.755   4.221  0.00  0.00     0.002 A 
ATOM     23  C   UNL d   1       0.539  -1.114   3.177  0.00  0.00     0.025 A 
BRANCH  19  24
ATOM     24  C   UNL d   1       2.988   1.766   2.452  0.00  0.00     0.419 C 
ATOM     25  F   UNL d   1       2.289   2.456   1.513  0.00  0.00    -0.166 F 
ATOM     26  F   UNL d   1       3.231   2.672   3.449  0.00  0.00    -0.166 F 
ATOM     27  F   UNL d   1       4.211   1.506   1.908  0.00  0.00    -0.166 F 
ENDBRANCH  19  24
ENDBRANCH  16  18
ENDBRANCH   1  16
TORSDOF 5
