REMARK  7 active torsions:
REMARK  status: ('A' for Active; 'I' for Inactive)
REMARK    1  A    between atoms: C_8  and  N_1 
REMARK    2  A    between atoms: C_7  and  C_2 
REMARK    3  A    between atoms: C_10  and  C_5 
REMARK    4  A    between atoms: C_11  and  C_6 
REMARK    5  A    between atoms: C_9  and  C_8 
REMARK    6  A    between atoms: O_16  and  C_9 
REMARK    7  A    between atoms: C_23  and  O_16 
ROOT
ATOM      1  N   UNL d   1      -0.192  -1.131   0.033  0.00  0.00    -0.320 N 
ATOM      2  C   UNL d   1       1.066  -0.546  -0.030  0.00  0.00     0.120 A 
ATOM      3  N   UNL d   1       0.940   0.760  -0.122  0.00  0.00    -0.339 N 
ATOM      4  HN  UNL d   1       1.701   1.434  -0.199  1.00  0.00     0.167 HD
ATOM      5  C   UNL d   1      -0.402   1.053  -0.096  0.00  0.00     0.072 A 
ATOM      6  C   UNL d   1      -1.163  -0.115   0.005  0.00  0.00     0.074 A 
ENDROOT
BRANCH   2   7
ATOM      7  C   UNL d   1       2.386  -1.192  -0.067  0.00  0.00     0.024 A 
ATOM      8  C   UNL d   1       3.398  -0.614  -0.838  0.00  0.00     0.102 A 
ATOM      9  N   UNL d   1       4.662  -1.097  -0.955  0.00  0.00    -0.374 N 
ATOM     10  C   UNL d   1       4.947  -2.211  -0.253  0.00  0.00     0.087 A 
ATOM     11  HN  UNL d   1       5.358  -0.641  -1.543  1.00  0.00     0.164 HD
ATOM     12  C   UNL d   1       4.032  -2.853   0.562  0.00  0.00     0.018 A 
ATOM     13  C   UNL d   1       2.744  -2.323   0.670  0.00  0.00     0.018 A 
ENDBRANCH   2   7
BRANCH   1  14
ATOM     14  C   UNL d   1      -0.448  -2.566   0.015  0.00  0.00     0.241 C 
BRANCH  14  15
ATOM     15  C   UNL d   1      -1.125  -3.114   1.244  0.00  0.00     0.277 C 
ATOM     16  O   UNL d   1      -1.929  -4.042   1.194  0.00  0.00    -0.263 OA
BRANCH  15  17
ATOM     17  O   UNL d   1      -0.664  -2.553   2.390  0.00  0.00    -0.321 OA
BRANCH  17  18
ATOM     18  C   UNL d   1      -1.287  -3.006   3.605  0.00  0.00     0.174 C 
ATOM     19  C   UNL d   1      -0.574  -4.230   4.149  0.00  0.00     0.034 C 
ENDBRANCH  17  18
ENDBRANCH  15  17
ENDBRANCH  14  15
ENDBRANCH   1  14
BRANCH   6  20
ATOM     20  C   UNL d   1      -2.624  -0.309   0.147  0.00  0.00    -0.007 A 
ATOM     21  C   UNL d   1      -3.328  -1.292  -0.564  0.00  0.00     0.014 A 
ATOM     22  C   UNL d   1      -4.708  -1.458  -0.407  0.00  0.00     0.001 A 
ATOM     23  C   UNL d   1      -5.429  -0.593   0.407  0.00  0.00     0.000 A 
ATOM     24  C   UNL d   1      -4.761   0.418   1.090  0.00  0.00     0.001 A 
ATOM     25  C   UNL d   1      -3.370   0.533   0.987  0.00  0.00     0.014 A 
ENDBRANCH   6  20
BRANCH   5  26
ATOM     26  C   UNL d   1      -0.829   2.451  -0.118  0.00  0.00    -0.007 A 
ATOM     27  C   UNL d   1       0.002   3.416   0.477  0.00  0.00     0.014 A 
ATOM     28  C   UNL d   1      -0.372   4.760   0.532  0.00  0.00     0.001 A 
ATOM     29  C   UNL d   1      -1.590   5.162  -0.007  0.00  0.00     0.000 A 
ATOM     30  C   UNL d   1      -2.411   4.225  -0.633  0.00  0.00     0.001 A 
ATOM     31  C   UNL d   1      -2.020   2.883  -0.711  0.00  0.00     0.014 A 
ENDBRANCH   5  26
TORSDOF 7
