REMARK  3 active torsions:
REMARK  status: ('A' for Active; 'I' for Inactive)
REMARK    1  A    between atoms: C_5  and  C_1 
REMARK       I    between atoms: C_9  and  N_2 
REMARK    2  A    between atoms: C_14  and  C_9 
REMARK    3  A    between atoms: O_23  and  C_18 
ROOT
ATOM      1  N   UNL d   1      -1.070  -4.678  -0.512  0.00  0.00    -0.231 N 
ATOM      2  N   UNL d   1      -1.269  -3.372  -0.839  0.00  0.00    -0.289 N 
ATOM      3  HN  UNL d   1      -1.900  -2.995  -1.545  1.00  0.00     0.188 HD
ATOM      4  C   UNL d   1      -0.449  -2.692  -0.024  0.00  0.00     0.086 A 
ATOM      5  C   UNL d   1      -1.667  -5.717  -1.258  0.00  0.00     0.276 C 
ATOM      6  C   UNL d   1       0.181  -3.538   0.911  0.00  0.00     0.053 A 
ATOM      7  C   UNL d   1      -0.214  -4.805   0.562  0.00  0.00     0.122 A 
ATOM      8  O   UNL d   1      -1.200  -6.847  -1.121  0.00  0.00    -0.265 OA
ENDROOT
BRANCH   5   9
ATOM      9  C   UNL d   1      -2.831  -5.535  -2.161  0.00  0.00     0.034 A 
ATOM     10  C   UNL d   1      -2.929  -6.297  -3.333  0.00  0.00     0.020 A 
ATOM     11  C   UNL d   1      -4.070  -6.208  -4.140  0.00  0.00     0.038 A 
ATOM     12  C   UNL d   1      -5.124  -5.372  -3.767  0.00  0.00     0.068 A 
ATOM     13  C   UNL d   1      -5.034  -4.635  -2.583  0.00  0.00     0.038 A 
ATOM     14  C   UNL d   1      -3.892  -4.705  -1.787  0.00  0.00     0.020 A 
BRANCH  12  15
ATOM     15  O   UNL d   1      -6.308  -5.242  -4.437  0.00  0.00    -0.356 OA
ATOM     16  C   UNL d   1      -6.241  -5.417  -5.848  0.00  0.00     0.210 C 
ENDBRANCH  12  15
ENDBRANCH   5   9
BRANCH   4  17
ATOM     17  C   UNL d   1      -0.217  -1.222  -0.134  0.00  0.00     0.127 A 
ATOM     18  C   UNL d   1      -0.765  -0.332  -1.042  0.00  0.00     0.043 A 
ATOM     19  N   UNL d   1      -0.240   0.928  -0.839  0.00  0.00    -0.342 N 
ATOM     20  C   UNL d   1      -1.744  -0.565  -2.126  0.00  0.00     0.071 C 
ATOM     21  C   UNL d   1       0.597   0.765   0.162  0.00  0.00     0.120 A 
ATOM     22  HN  UNL d   1      -0.452   1.786  -1.347  1.00  0.00     0.167 HD
ATOM     23  O   UNL d   1       0.657  -0.509   0.652  0.00  0.00    -0.294 OA
ATOM     24  C   UNL d   1       1.479   1.768   0.791  0.00  0.00     0.098 C 
ENDBRANCH   4  17
TORSDOF 3
