REMARK  3 active torsions:
REMARK  status: ('A' for Active; 'I' for Inactive)
REMARK    1  A    between atoms: N_2  and  N_6 
REMARK    2  A    between atoms: C_17  and  N_5 
REMARK    3  A    between atoms: C_18  and  C_10 
ROOT
ATOM      1  N   UNL d   1       1.938  -2.901  -0.054  0.00  0.00    -0.222 N 
ATOM      2  C   UNL d   1       0.790  -4.964  -0.752  0.00  0.00     0.120 C 
ATOM      3  C   UNL d   1       0.925  -3.480  -0.856  0.00  0.00     0.288 C 
ATOM      4  C   UNL d   1       2.994  -3.662   0.440  0.00  0.00     0.034 C 
ATOM      5  C   UNL d   1       1.775  -5.683  -0.177  0.00  0.00    -0.034 C 
ATOM      6  C   UNL d   1       2.935  -5.004   0.366  0.00  0.00     0.035 C 
ATOM      7  C   UNL d   1      -0.395  -5.561  -1.271  0.00  0.00     0.105 C 
ATOM      8  N   UNL d   1      -1.344  -6.102  -1.657  0.00  0.00    -0.191 NA
ATOM      9  O   UNL d   1       0.176  -2.852  -1.607  0.00  0.00    -0.265 OA
ATOM     10  C   UNL d   1       1.748  -7.186  -0.070  0.00  0.00     0.050 C 
ATOM     11  C   UNL d   1       4.210  -3.002   1.031  0.00  0.00     0.070 C 
ENDROOT
BRANCH   1  12
ATOM     12  N   UNL d   1       2.075  -1.525  -0.026  0.00  0.00    -0.270 N 
ATOM     13  C   UNL d   1       1.052  -0.791   0.302  0.00  0.00     0.167 C 
ATOM     14  N   UNL d   1       0.908   0.599   0.165  0.00  0.00    -0.330 N 
ATOM     15  S   UNL d   1      -0.475  -1.424   1.032  0.00  0.00    -0.050 SA
ATOM     16  C   UNL d   1      -0.434   0.997   0.258  0.00  0.00     0.113 C 
ATOM     17  C   UNL d   1      -1.308   0.044   0.613  0.00  0.00     0.034 C 
ATOM     18  HN  UNL d   1       2.968  -1.091  -0.260  1.00  0.00     0.190 HD
BRANCH  14  19
ATOM     19  C   UNL d   1       1.860   1.447  -0.566  0.00  0.00     0.091 C 
ATOM     20  C   UNL d   1       3.317   1.339  -0.101  0.00  0.00     0.026 C 
ATOM     21  C   UNL d   1       4.192   2.344  -0.862  0.00  0.00     0.002 C 
ATOM     22  C   UNL d   1       4.047   2.209  -2.380  0.00  0.00     0.000 C 
ATOM     23  C   UNL d   1       2.590   2.229  -2.833  0.00  0.00     0.002 C 
ATOM     24  C   UNL d   1       1.755   1.203  -2.075  0.00  0.00     0.026 C 
ENDBRANCH  14  19
BRANCH  17  25
ATOM     25  C   UNL d   1      -2.768   0.089   0.517  0.00  0.00    -0.018 A 
ATOM     26  C   UNL d   1      -3.473  -0.950  -0.118  0.00  0.00     0.013 A 
ATOM     27  C   UNL d   1      -4.866  -0.927  -0.207  0.00  0.00     0.001 A 
ATOM     28  C   UNL d   1      -5.577   0.143   0.327  0.00  0.00     0.000 A 
ATOM     29  C   UNL d   1      -4.893   1.198   0.930  0.00  0.00     0.001 A 
ATOM     30  C   UNL d   1      -3.497   1.174   1.020  0.00  0.00     0.013 A 
ENDBRANCH  17  25
ENDBRANCH   1  12
TORSDOF 3
