REMARK  4 active torsions:
REMARK  status: ('A' for Active; 'I' for Inactive)
REMARK    1  A    between atoms: C_7  and  C_1 
REMARK    2  A    between atoms: C_10  and  N_5 
REMARK    3  A    between atoms: O_14  and  C_7 
REMARK    4  A    between atoms: C_18  and  O_14 
ROOT
ATOM      1  C   UNL d   1       0.936  -0.679  -0.106  0.00  0.00     0.146 A 
ATOM      2  N   UNL d   1       0.920   0.664  -0.191  0.00  0.00    -0.287 N 
ATOM      3  HN  UNL d   1       1.719   1.282  -0.333  1.00  0.00     0.188 HD
ATOM      4  C   UNL d   1      -0.377  -1.183   0.025  0.00  0.00     0.096 A 
ATOM      5  N   UNL d   1      -0.378   1.026  -0.048  0.00  0.00    -0.266 N 
ATOM      6  C   UNL d   1      -1.193  -0.076   0.069  0.00  0.00     0.142 A 
ATOM      7  C   UNL d   1      -0.812  -2.535   0.128  0.00  0.00     0.103 C 
ATOM      8  N   UNL d   1      -1.219  -3.619   0.209  0.00  0.00    -0.191 NA
ENDROOT
BRANCH   1   9
ATOM      9  C   UNL d   1       2.182  -1.455  -0.076  0.00  0.00     0.313 C 
ATOM     10  O   UNL d   1       2.208  -2.662   0.127  0.00  0.00    -0.258 OA
BRANCH   9  11
ATOM     11  O   UNL d   1       3.291  -0.669  -0.200  0.00  0.00    -0.317 OA
BRANCH  11  12
ATOM     12  C   UNL d   1       4.501  -1.224   0.325  0.00  0.00     0.175 C 
ATOM     13  C   UNL d   1       4.566  -0.885   1.804  0.00  0.00     0.034 C 
ENDBRANCH  11  12
ENDBRANCH   9  11
ENDBRANCH   1   9
BRANCH   5  14
ATOM     14  C   UNL d   1      -0.759   2.396  -0.032  0.00  0.00     0.056 A 
ATOM     15  C   UNL d   1       0.208   3.389  -0.248  0.00  0.00     0.032 A 
ATOM     16  C   UNL d   1      -0.162   4.738  -0.266  0.00  0.00     0.009 A 
ATOM     17  C   UNL d   1      -1.494   5.112  -0.057  0.00  0.00    -0.062 A 
ATOM     18  C   UNL d   1      -2.451   4.121   0.178  0.00  0.00     0.009 A 
ATOM     19  C   UNL d   1      -1.887   6.559  -0.111  0.00  0.00     0.048 C 
ATOM     20  C   UNL d   1      -2.090   2.771   0.193  0.00  0.00     0.032 A 
ENDBRANCH   5  14
TORSDOF 4
