REMARK  3 active torsions:
REMARK  status: ('A' for Active; 'I' for Inactive)
REMARK    1  A    between atoms: S_8  and  C_1 
REMARK    2  A    between atoms: C_12  and  S_8 
REMARK    3  A    between atoms: C_9  and  C_12 
ROOT
ATOM      1  C   UNL d   1      -0.062   1.409   0.313  0.00  0.00     0.091 A 
ATOM      2  C   UNL d   1       0.780   0.298   0.184  0.00  0.00     0.084 A 
ATOM      3  N   UNL d   1      -1.415   1.309   0.240  0.00  0.00    -0.353 N 
ATOM      4  HN  UNL d   1      -2.005   2.138   0.321  1.00  0.00     0.166 HD
ATOM      5  C   UNL d   1       0.200  -0.974   0.008  0.00  0.00    -0.037 A 
ATOM      6  C   UNL d   1       2.205   0.447   0.225  0.00  0.00     0.103 C 
ATOM      7  N   UNL d   1       3.363   0.525   0.241  0.00  0.00    -0.191 NA
ATOM      8  C   UNL d   1      -1.962   0.085   0.058  0.00  0.00     0.006 A 
ATOM      9  C   UNL d   1      -1.195  -1.068  -0.050  0.00  0.00     0.033 A 
ATOM     10  C   UNL d   1       0.995  -2.251  -0.072  0.00  0.00     0.050 C 
ATOM     11  C   UNL d   1      -3.459  -0.012   0.010  0.00  0.00     0.068 C 
ENDROOT
BRANCH   1  12
ATOM     12  S   UNL d   1       0.605   3.050   0.622  0.00  0.00    -0.106 SA
BRANCH  12  13
ATOM     13  C   UNL d   1      -0.914   4.044   0.786  0.00  0.00     0.121 C 
BRANCH  13  14
ATOM     14  C   UNL d   1      -0.602   5.473   1.181  0.00  0.00    -0.027 A 
ATOM     15  C   UNL d   1      -0.685   5.938   2.504  0.00  0.00     0.041 A 
ATOM     16 CL   UNL d   1      -1.126   4.905   3.817  0.00  0.00    -0.084 Cl
ATOM     17  C   UNL d   1      -0.408   7.277   2.809  0.00  0.00     0.024 A 
ATOM     18  C   UNL d   1      -0.028   8.165   1.805  0.00  0.00     0.002 A 
ATOM     19  C   UNL d   1       0.086   7.715   0.493  0.00  0.00     0.001 A 
ATOM     20  C   UNL d   1      -0.196   6.382   0.184  0.00  0.00     0.009 A 
ENDBRANCH  13  14
ENDBRANCH  12  13
ENDBRANCH   1  12
TORSDOF 3
