REMARK  2 active torsions:
REMARK  status: ('A' for Active; 'I' for Inactive)
REMARK    1  A    between atoms: C_14  and  N_3 
REMARK    2  A    between atoms: C_13  and  C_4 
ROOT
ATOM      1  C   UNL d   1       0.272  -0.631   0.000  0.00  0.00     0.046 A 
ATOM      2  C   UNL d   1       0.247   0.737   0.046  0.00  0.00     0.143 A 
ATOM      3  N   UNL d   1       1.558   1.182   0.007  0.00  0.00    -0.239 N 
ATOM      4  C   UNL d   1      -0.952  -1.389   0.009  0.00  0.00     0.016 A 
ATOM      5  N   UNL d   1      -0.945   1.432   0.033  0.00  0.00    -0.306 N 
ATOM      6  C   UNL d   1      -2.148  -0.745   0.016  0.00  0.00     0.124 A 
ATOM      7  N   UNL d   1       2.410   0.141  -0.168  0.00  0.00    -0.296 N 
ATOM      8  HN  UNL d   1       3.417   0.187  -0.320  1.00  0.00     0.187 HD
ATOM      9  C   UNL d   1      -2.195   0.742   0.017  0.00  0.00     0.268 A 
ATOM     10  C   UNL d   1       1.647  -0.962  -0.097  0.00  0.00     0.037 A 
ATOM     11  C   UNL d   1      -3.412  -1.406   0.012  0.00  0.00     0.106 C 
ATOM     12  N   UNL d   1      -4.436  -1.955   0.007  0.00  0.00    -0.191 NA
ATOM     13  O   UNL d   1      -3.195   1.433   0.003  0.00  0.00    -0.266 OA
ATOM     14  C   UNL d   1       2.307  -2.295  -0.159  0.00  0.00     0.070 C 
ATOM     15  H   UNL d   1      -0.971   2.443  -0.028  0.00  0.00     0.170 HD
ENDROOT
BRANCH   4  16
ATOM     16  C   UNL d   1      -0.959  -2.869   0.005  0.00  0.00    -0.023 A 
ATOM     17  C   UNL d   1      -0.999  -3.577  -1.205  0.00  0.00     0.014 A 
ATOM     18  C   UNL d   1      -1.016  -4.974  -1.197  0.00  0.00     0.024 A 
ATOM     19  C   UNL d   1      -0.995  -5.662   0.015  0.00  0.00     0.034 A 
ATOM     20  C   UNL d   1      -0.955  -4.965   1.221  0.00  0.00     0.024 A 
ATOM     21 CL   UNL d   1      -1.010  -7.380   0.023  0.00  0.00    -0.084 Cl
ATOM     22  C   UNL d   1      -0.936  -3.569   1.219  0.00  0.00     0.014 A 
ENDBRANCH   4  16
BRANCH   3  23
ATOM     23  C   UNL d   1       2.012   2.523   0.040  0.00  0.00     0.058 A 
ATOM     24  C   UNL d   1       1.284   3.506   0.726  0.00  0.00     0.031 A 
ATOM     25  C   UNL d   1       1.671   4.843   0.647  0.00  0.00     0.002 A 
ATOM     26  C   UNL d   1       2.788   5.201  -0.106  0.00  0.00     0.000 A 
ATOM     27  C   UNL d   1       3.547   4.219  -0.743  0.00  0.00     0.002 A 
ATOM     28  C   UNL d   1       3.176   2.876  -0.656  0.00  0.00     0.031 A 
ENDBRANCH   3  23
TORSDOF 2
