REMARK  2 active torsions:
REMARK  status: ('A' for Active; 'I' for Inactive)
REMARK    1  A    between atoms: C_2  and  N_1 
REMARK    2  A    between atoms: N_3  and  C_4 
ROOT
ATOM      1  C   UNL d   1       0.067   2.264   0.099  0.00  0.00     0.079 A 
ATOM      2  C   UNL d   1      -0.694   3.021   1.011  0.00  0.00     0.130 A 
ATOM      3  C   UNL d   1      -0.673   4.428   0.990  0.00  0.00     0.038 A 
ATOM      4  C   UNL d   1       0.882   2.967  -0.807  0.00  0.00     0.033 A 
ATOM      5  C   UNL d   1       0.114   5.096   0.055  0.00  0.00     0.003 A 
ATOM      6  C   UNL d   1       0.895   4.366  -0.837  0.00  0.00     0.002 A 
ENDROOT
BRANCH   1   7
ATOM      7  N   UNL d   1       0.026   0.853   0.013  0.00  0.00    -0.243 N 
ATOM      8  C   UNL d   1      -1.122   0.111   0.036  0.00  0.00     0.255 A 
ATOM      9  C   UNL d   1      -0.736  -1.298  -0.097  0.00  0.00     0.080 A 
ATOM     10  O   UNL d   1      -2.282   0.486   0.058  0.00  0.00    -0.268 OA
ATOM     11  C   UNL d   1       0.586  -1.343  -0.255  0.00  0.00     0.080 A 
ATOM     12  C   UNL d   1       1.091   0.037  -0.234  0.00  0.00     0.255 A 
ATOM     13  O   UNL d   1       2.268   0.306  -0.399  0.00  0.00    -0.268 OA
ENDBRANCH   1   7
BRANCH   2  14
ATOM     14  N   UNL d   1      -1.387   2.395   2.138  0.00  0.00    -0.113 N 
ATOM     15  O   UNL d   1      -0.846   1.414   2.671  0.00  0.00    -0.532 OA
ATOM     16  O   UNL d   1      -2.430   2.933   2.538  0.00  0.00    -0.532 OA
ENDBRANCH   2  14
TORSDOF 2
