REMARK  2 active torsions:
REMARK  status: ('A' for Active; 'I' for Inactive)
REMARK    1  A    between atoms: C_2  and  C_1 
REMARK    2  A    between atoms: O_19  and  C_7 
ROOT
ATOM      1  C   UNL d   1      -3.067   0.583   0.202  0.00  0.00     0.092 A 
ATOM      2  N   UNL d   1      -3.498   1.858   0.103  0.00  0.00    -0.326 N 
ATOM      3  HN  UNL d   1      -2.861   2.642  -0.038  1.00  0.00     0.169 HD
ATOM      4  N   UNL d   1      -3.892  -0.472   0.386  0.00  0.00    -0.349 N 
ATOM      5  HN  UNL d   1      -3.521  -1.420   0.454  1.00  0.00     0.167 HD
ATOM      6  C   UNL d   1      -4.822   2.019   0.203  0.00  0.00     0.142 A 
ATOM      7  C   UNL d   1      -5.744   1.026   0.389  0.00  0.00     0.080 A 
ATOM      8  C   UNL d   1      -5.218  -0.239   0.478  0.00  0.00     0.010 A 
ATOM      9  C   UNL d   1      -6.100  -1.432   0.683  0.00  0.00     0.068 C 
ENDROOT
BRANCH   1  10
ATOM     10  C   UNL d   1      -1.566   0.303   0.102  0.00  0.00     0.019 C 
ATOM     11  C   UNL d   1      -0.794   1.045   1.225  0.00  0.00     0.022 C 
ATOM     12  C   UNL d   1       0.720   0.767   1.125  0.00  0.00    -0.013 C 
ATOM     13  C   UNL d   1       0.975  -0.742   1.263  0.00  0.00     0.009 C 
ATOM     14  C   UNL d   1       1.235   1.240  -0.244  0.00  0.00     0.009 C 
ATOM     15  C   UNL d   1       0.247  -1.499   0.143  0.00  0.00    -0.013 C 
ATOM     16  C   UNL d   1      -1.260  -1.219   0.243  0.00  0.00     0.022 C 
ATOM     17  C   UNL d   1       0.759  -1.015  -1.222  0.00  0.00     0.009 C 
ATOM     18  C   UNL d   1       0.503   0.493  -1.371  0.00  0.00    -0.013 C 
ATOM     19  C   UNL d   1      -1.011   0.770  -1.269  0.00  0.00     0.022 C 
ENDBRANCH   1  10
BRANCH   6  20
ATOM     20  O   UNL d   1      -5.253   3.305   0.102  0.00  0.00    -0.346 OA
ATOM     21  H   UNL d   1      -4.411   3.774  -0.023  0.00  0.00     0.219 HD
ENDBRANCH   6  20
TORSDOF 2
