REMARK  3 active torsions:
REMARK  status: ('A' for Active; 'I' for Inactive)
REMARK    1  A    between atoms: C_8  and  C_2 
REMARK    2  A    between atoms: C_12  and  C_3 
REMARK    3  A    between atoms: N_15  and  C_9 
ROOT
ATOM      1  C   UNL d   1       0.437   2.329   0.076  0.00  0.00     0.105 C 
ATOM      2  C   UNL d   1      -0.511   3.120  -0.472  0.00  0.00     0.111 C 
ATOM      3  C   UNL d   1       0.073   1.196   0.861  0.00  0.00     0.104 C 
ATOM      4  N   UNL d   1      -0.186   0.249   1.482  0.00  0.00    -0.191 NA
ENDROOT
BRANCH   1   5
ATOM      5  C   UNL d   1       1.797   2.766  -0.009  0.00  0.00     0.146 A 
ATOM      6  N   UNL d   1       2.879   1.920  -0.190  0.00  0.00    -0.318 N 
ATOM      7  C   UNL d   1       4.010   2.725  -0.188  0.00  0.00     0.150 A 
ATOM      8  C   UNL d   1       2.904   0.486  -0.356  0.00  0.00     0.159 C 
ATOM      9  N   UNL d   1       3.618   3.977  -0.040  0.00  0.00    -0.282 N 
ATOM     10  N   UNL d   1       2.254   4.004   0.038  0.00  0.00    -0.282 N 
ATOM     11  HN  UNL d   1       4.232   4.790   0.008  1.00  0.00     0.188 HD
ATOM     12  HN  UNL d   1       1.682   4.845   0.119  1.00  0.00     0.188 HD
BRANCH   7  13
ATOM     13  C   UNL d   1       5.407   2.288  -0.303  0.00  0.00     0.078 A 
ATOM     14  N   UNL d   1       5.622   1.087  -0.893  0.00  0.00    -0.363 N 
ATOM     15  C   UNL d   1       6.903   0.679  -1.023  0.00  0.00     0.088 A 
ATOM     16  HN  UNL d   1       4.847   0.513  -1.226  1.00  0.00     0.165 HD
ATOM     17  C   UNL d   1       7.992   1.403  -0.575  0.00  0.00     0.017 A 
ATOM     18  C   UNL d   1       7.756   2.631   0.034  0.00  0.00     0.004 A 
ATOM     19  C   UNL d   1       6.445   3.085   0.166  0.00  0.00     0.033 A 
ENDBRANCH   7  13
ENDBRANCH   1   5
BRANCH   2  20
ATOM     20  N   UNL d   1      -1.899   3.007  -0.570  0.00  0.00    -0.397 N 
ATOM     21  C   UNL d   1      -2.629   1.742  -0.633  0.00  0.00     0.148 C 
ATOM     22  C   UNL d   1      -2.755   4.194  -0.648  0.00  0.00     0.148 C 
ENDBRANCH   2  20
TORSDOF 3
