REMARK  3 active torsions:
REMARK  status: ('A' for Active; 'I' for Inactive)
REMARK    1  A    between atoms: C_13  and  C_7 
REMARK    2  A    between atoms: N_9  and  C_8 
REMARK    3  A    between atoms: N_14  and  C_11 
ROOT
ATOM      1  N   UNL d   1      -0.729   1.083  -0.000  0.00  0.00    -0.292 N 
ATOM      2  C   UNL d   1      -1.346  -0.153   0.011  0.00  0.00     0.341 A 
ATOM      3  N   UNL d   1      -0.572  -1.267   0.016  0.00  0.00    -0.141 N 
ATOM      4  HN  UNL d   1      -1.004  -2.190   0.038  1.00  0.00     0.189 HD
ATOM      5  N   UNL d   1       1.340   0.051  -0.034  0.00  0.00    -0.179 N 
ATOM      6  HN  UNL d   1       2.359   0.100  -0.050  1.00  0.00     0.185 HD
ATOM      7  C   UNL d   1       0.634   1.125  -0.041  0.00  0.00     0.106 A 
ATOM      8  C   UNL d   1       0.706  -1.155  -0.006  0.00  0.00     0.688 A 
ATOM      9  O   UNL d   1      -2.570  -0.259   0.015  0.00  0.00    -0.246 OA
ATOM     10  C   UNL d   1      -1.576   2.268  -0.015  0.00  0.00     0.162 C 
ENDROOT
BRANCH   8  11
ATOM     11  N   UNL d   1       1.485  -2.283   0.004  0.00  0.00    -0.188 N 
ATOM     12  C   UNL d   1       0.922  -3.443   0.019  0.00  0.00     0.195 C 
ATOM     13  HN  UNL d   1       2.502  -2.205   0.001  1.00  0.00     0.185 HD
BRANCH  12  14
ATOM     14  N   UNL d   1       1.577  -4.656   0.033  0.00  0.00    -0.385 N 
ATOM     15  C   UNL d   1       3.029  -4.742   0.028  0.00  0.00     0.149 C 
ATOM     16  C   UNL d   1       0.865  -5.922   0.028  0.00  0.00     0.149 C 
ENDBRANCH  12  14
ENDBRANCH   8  11
BRANCH   7  17
ATOM     17  C   UNL d   1       1.359   2.483  -0.013  0.00  0.00     0.046 C 
ATOM     18  C   UNL d   1       1.630   2.890   1.436  0.00  0.00     0.017 C 
ATOM     19  C   UNL d   1       2.677   2.464  -0.789  0.00  0.00     0.017 C 
ENDBRANCH   7  17
TORSDOF 3
