REMARK  8 active torsions:
REMARK  status: ('A' for Active; 'I' for Inactive)
REMARK    1  A    between atoms: C_16  and  C_1 
REMARK    2  A    between atoms: C_2  and  C_20 
REMARK       I    between atoms: N_9  and  C_2 
REMARK    3  A    between atoms: N_3  and  N_9 
REMARK    4  A    between atoms: O_21  and  C_5 
REMARK    5  A    between atoms: O_22  and  C_8 
REMARK    6  A    between atoms: S_13  and  C_16 
REMARK    7  A    between atoms: C_20  and  S_13 
REMARK    8  A    between atoms: C_15  and  C_14 
ROOT
ATOM      1  C   UNL d   1      -3.081   4.880   0.199  0.00  0.00     0.245 C 
ATOM      2  N   UNL d   1      -4.214   4.081   0.112  0.00  0.00    -0.270 N 
ATOM      3  O   UNL d   1      -1.932   4.467   0.370  0.00  0.00    -0.271 OA
ATOM      4  H   UNL d   1      -5.142   4.488   0.065  0.00  0.00     0.190 HD
ENDROOT
BRANCH   2   5
ATOM      5  N   UNL d   1      -4.072   2.740   0.284  0.00  0.00    -0.308 N 
ATOM      6  C   UNL d   1      -5.137   2.007   0.228  0.00  0.00     0.118 C 
ATOM      7  HN  UNL d   1      -3.156   2.325   0.453  1.00  0.00     0.186 HD
BRANCH   6   8
ATOM      8  C   UNL d   1      -5.047   0.550   0.485  0.00  0.00    -0.017 A 
ATOM      9  C   UNL d   1      -6.201  -0.243   0.435  0.00  0.00     0.052 A 
ATOM     10  C   UNL d   1      -6.114  -1.606   0.742  0.00  0.00     0.102 A 
ATOM     11  C   UNL d   1      -4.867  -2.162   1.069  0.00  0.00     0.099 A 
ATOM     12  C   UNL d   1      -3.717  -1.377   1.099  0.00  0.00     0.040 A 
ATOM     13  C   UNL d   1      -3.809  -0.018   0.808  0.00  0.00     0.016 A 
BRANCH  10  14
ATOM     14  O   UNL d   1      -7.177  -2.472   0.712  0.00  0.00    -0.353 OA
ATOM     15  C   UNL d   1      -8.450  -1.913   1.005  0.00  0.00     0.210 C 
ENDBRANCH  10  14
BRANCH  11  16
ATOM     16  O   UNL d   1      -4.789  -3.491   1.385  0.00  0.00    -0.358 OA
ATOM     17  H   UNL d   1      -3.882  -3.698   1.661  0.00  0.00     0.217 HD
ENDBRANCH  11  16
ENDBRANCH   6   8
ENDBRANCH   2   5
BRANCH   1  18
ATOM     18  C   UNL d   1      -3.360   6.365   0.066  0.00  0.00     0.178 C 
BRANCH  18  19
ATOM     19  S   UNL d   1      -3.575   7.160   1.686  0.00  0.00    -0.155 SA
BRANCH  19  20
ATOM     20  C   UNL d   1      -1.910   6.869   2.407  0.00  0.00     0.116 C 
BRANCH  20  21
ATOM     21  C   UNL d   1      -1.780   7.585   3.736  0.00  0.00    -0.005 A 
ATOM     22  C   UNL d   1      -2.301   7.019   4.918  0.00  0.00     0.042 A 
ATOM     23 CL   UNL d   1      -3.020   5.443   4.947  0.00  0.00    -0.084 Cl
ATOM     24  C   UNL d   1      -2.265   7.711   6.135  0.00  0.00     0.024 A 
ATOM     25  C   UNL d   1      -1.698   8.978   6.206  0.00  0.00     0.003 A 
ATOM     26  C   UNL d   1      -1.151   9.548   5.060  0.00  0.00     0.024 A 
ATOM     27  C   UNL d   1      -1.192   8.861   3.838  0.00  0.00     0.042 A 
ATOM     28 CL   UNL d   1      -0.484   9.666   2.478  0.00  0.00    -0.084 Cl
ENDBRANCH  20  21
ENDBRANCH  19  20
ENDBRANCH  18  19
ENDBRANCH   1  18
TORSDOF 8
