REMARK  0 active torsions:
REMARK  status: ('A' for Active; 'I' for Inactive)
ROOT
ATOM      1  N   UNL d   1       2.467  -0.797  -0.185  0.00  0.00    -0.293 N 
ATOM      2  C   UNL d   1       2.439   0.473   0.327  0.00  0.00     0.149 A 
ATOM      3  C   UNL d   1       1.318  -1.535  -0.360  0.00  0.00     0.262 A 
ATOM      4  N   UNL d   1       1.382   1.145   0.617  0.00  0.00    -0.336 N 
ATOM      5  HN  UNL d   1       1.433   2.088   1.002  1.00  0.00     0.168 HD
ATOM      6  C   UNL d   1       0.060  -0.805  -0.096  0.00  0.00     0.059 A 
ATOM      7  C   UNL d   1       0.151   0.510   0.375  0.00  0.00     0.049 A 
ATOM      8  S   UNL d   1       4.053   1.098   0.525  0.00  0.00    -0.092 SA
ATOM      9  O   UNL d   1       1.307  -2.712  -0.704  0.00  0.00    -0.267 OA
ATOM     10  C   UNL d   1       3.786  -1.360  -0.364  0.00  0.00     0.145 C 
ATOM     11  C   UNL d   1       4.763  -0.208  -0.515  0.00  0.00     0.103 C 
ATOM     12  C   UNL d   1      -1.181  -1.409  -0.327  0.00  0.00     0.019 A 
ATOM     13  C   UNL d   1      -1.029   1.222   0.604  0.00  0.00     0.030 A 
ATOM     14  C   UNL d   1      -2.349  -0.683  -0.098  0.00  0.00     0.001 A 
ATOM     15  C   UNL d   1      -2.273   0.631   0.365  0.00  0.00     0.002 A 
ENDROOT
TORSDOF 0
