REMARK  2 active torsions:
REMARK  status: ('A' for Active; 'I' for Inactive)
REMARK    1  A    between atoms: C_6  and  C_1 
REMARK    2  A    between atoms: C_10  and  N_2 
ROOT
ATOM      1  C   UNL d   1       0.950  -0.686   0.220  0.00  0.00     0.136 A 
ATOM      2  N   UNL d   1       1.025   0.678   0.084  0.00  0.00    -0.307 N 
ATOM      3  N   UNL d   1      -0.251  -1.135   0.459  0.00  0.00    -0.282 N 
ATOM      4  HN  UNL d   1      -0.537  -2.103   0.608  1.00  0.00     0.188 HD
ATOM      5  C   UNL d   1      -0.278   1.108   0.215  0.00  0.00     0.194 A 
ATOM      6  N   UNL d   1      -1.037  -0.024   0.465  0.00  0.00    -0.274 N 
ATOM      7  S   UNL d   1      -0.928   2.629   0.112  0.00  0.00    -0.039 SA
ATOM      8  H   UNL d   1      -2.038  -0.073   0.584  0.00  0.00     0.189 HD
ENDROOT
BRANCH   1   9
ATOM      9  C   UNL d   1       2.112  -1.583   0.099  0.00  0.00     0.031 A 
ATOM     10  C   UNL d   1       2.091  -2.681  -0.775  0.00  0.00     0.048 A 
ATOM     11 CL   UNL d   1       0.771  -3.020  -1.838  0.00  0.00    -0.083 Cl
ATOM     12  C   UNL d   1       3.195  -3.540  -0.843  0.00  0.00     0.025 A 
ATOM     13  C   UNL d   1       4.321  -3.303  -0.054  0.00  0.00     0.002 A 
ATOM     14  C   UNL d   1       4.341  -2.220   0.821  0.00  0.00     0.001 A 
ATOM     15  C   UNL d   1       3.234  -1.375   0.914  0.00  0.00     0.017 A 
ENDBRANCH   1   9
BRANCH   2  16
ATOM     16  C   UNL d   1       2.186   1.530  -0.180  0.00  0.00     0.128 C 
ATOM     17  C   UNL d   1       2.749   1.357  -1.580  0.00  0.00     0.027 C 
ENDBRANCH   2  16
TORSDOF 2
