REMARK  4 active torsions:
REMARK  status: ('A' for Active; 'I' for Inactive)
REMARK    1  A    between atoms: N_9  and  C_1 
REMARK    2  A    between atoms: C_12  and  N_3 
REMARK    3  A    between atoms: N_13  and  C_8 
REMARK    4  A    between atoms: C_14  and  N_9 
ROOT
ATOM      1  C   UNL d   1      -0.693   1.091   0.022  0.00  0.00     0.706 C 
ATOM      2  C   UNL d   1      -0.580  -1.283   0.151  0.00  0.00     0.700 C 
ATOM      3  N   UNL d   1      -1.364  -0.136   0.010  0.00  0.00     0.022 N 
ATOM      4  N   UNL d   1       0.612   1.142   0.074  0.00  0.00    -0.164 N 
ATOM      5  HN  UNL d   1       1.096   2.039   0.087  1.00  0.00     0.187 HD
ATOM      6  N   UNL d   1       0.780  -1.195   0.105  0.00  0.00    -0.165 N 
ATOM      7  HN  UNL d   1       1.361  -2.034   0.068  1.00  0.00     0.187 HD
ATOM      8  C   UNL d   1       1.310  -0.021   0.111  0.00  0.00     0.184 C 
ATOM      9  N   UNL d   1      -0.963  -2.494   0.386  0.00  0.00    -0.233 N 
ATOM     10  HN  UNL d   1      -0.338  -3.298   0.439  1.00  0.00     0.174 HD
ATOM     11  H   UNL d   1      -1.971  -2.537   0.510  0.00  0.00     0.174 HD
ENDROOT
BRANCH   1  12
ATOM     12  N   UNL d   1      -1.430   2.256  -0.048  0.00  0.00    -0.191 N 
ATOM     13  H   UNL d   1      -2.293   2.225  -0.574  0.00  0.00     0.184 HD
BRANCH  12  14
ATOM     14  C   UNL d   1      -1.137   3.507   0.537  0.00  0.00     0.049 A 
ATOM     15  C   UNL d   1      -0.015   3.745   1.344  0.00  0.00     0.030 A 
ATOM     16  C   UNL d   1       0.203   4.989   1.947  0.00  0.00     0.002 A 
ATOM     17  C   UNL d   1      -0.708   6.021   1.766  0.00  0.00     0.000 A 
ATOM     18  C   UNL d   1      -1.832   5.815   0.974  0.00  0.00     0.002 A 
ATOM     19  C   UNL d   1      -2.040   4.567   0.363  0.00  0.00     0.030 A 
ENDBRANCH  12  14
ENDBRANCH   1  12
BRANCH   3  20
ATOM     20  C   UNL d   1      -2.794  -0.264  -0.058  0.00  0.00     0.075 A 
ATOM     21  C   UNL d   1      -3.652   0.507   0.746  0.00  0.00     0.031 A 
ATOM     22  C   UNL d   1      -5.040   0.327   0.705  0.00  0.00     0.002 A 
ATOM     23  C   UNL d   1      -5.596  -0.653  -0.112  0.00  0.00     0.000 A 
ATOM     24  C   UNL d   1      -4.769  -1.431  -0.917  0.00  0.00     0.002 A 
ATOM     25  C   UNL d   1      -3.387  -1.220  -0.907  0.00  0.00     0.031 A 
ENDBRANCH   3  20
BRANCH   8  26
ATOM     26  N   UNL d   1       2.659   0.093   0.130  0.00  0.00    -0.273 NA
ATOM     27  H   UNL d   1       3.126  -0.747  -0.183  0.00  0.00     0.127 HD
ATOM     28  H   UNL d   1       2.990   0.953  -0.285  0.00  0.00     0.127 HD
ENDBRANCH   8  26
TORSDOF 4
