REMARK  4 active torsions:
REMARK  status: ('A' for Active; 'I' for Inactive)
REMARK    1  A    between atoms: C_10  and  N_1 
REMARK    2  A    between atoms: C_3  and  S_9 
REMARK    3  A    between atoms: S_9  and  C_17 
REMARK    4  A    between atoms: C_17  and  C_18 
ROOT
ATOM      1  C   UNL d   1      -2.144  -3.255   7.694  0.00  0.00     0.084 A 
ATOM      2  C   UNL d   1      -2.208  -1.884   7.414  0.00  0.00     0.091 A 
ATOM      3  N   UNL d   1      -2.895  -1.008   8.188  0.00  0.00    -0.353 N 
ATOM      4  HN  UNL d   1      -2.923  -0.015   7.955  1.00  0.00     0.166 HD
ATOM      5  C   UNL d   1      -2.827  -3.740   8.825  0.00  0.00    -0.037 A 
ATOM      6  C   UNL d   1      -1.396  -4.143   6.852  0.00  0.00     0.103 C 
ATOM      7  N   UNL d   1      -0.797  -4.890   6.193  0.00  0.00    -0.191 NA
ATOM      8  C   UNL d   1      -3.543  -1.482   9.275  0.00  0.00     0.006 A 
ATOM      9  C   UNL d   1      -3.535  -2.828   9.619  0.00  0.00     0.033 A 
ATOM     10  C   UNL d   1      -2.833  -5.189   9.233  0.00  0.00     0.050 C 
ATOM     11  C   UNL d   1      -4.279  -0.489  10.124  0.00  0.00     0.068 C 
ENDROOT
BRANCH   2  12
ATOM     12  S   UNL d   1      -1.369  -1.192   5.995  0.00  0.00    -0.106 SA
BRANCH  12  13
ATOM     13  C   UNL d   1      -1.739   0.588   6.152  0.00  0.00     0.119 C 
BRANCH  13  14
ATOM     14  C   UNL d   1      -1.029   1.487   5.147  0.00  0.00    -0.048 A 
ATOM     15  C   UNL d   1      -0.040   1.037   4.255  0.00  0.00     0.010 A 
ATOM     16  C   UNL d   1       0.585   1.908   3.359  0.00  0.00     0.036 A 
ATOM     17  C   UNL d   1       0.231   3.259   3.352  0.00  0.00     0.102 A 
ATOM     18  C   UNL d   1      -0.740   3.740   4.237  0.00  0.00     0.036 A 
ATOM     19  C   UNL d   1      -1.362   2.856   5.127  0.00  0.00     0.010 A 
BRANCH  17  20
ATOM     20  N   UNL d   1       0.886   4.173   2.410  0.00  0.00    -0.116 N 
ATOM     21  O   UNL d   1       0.543   5.363   2.427  0.00  0.00    -0.532 OA
ATOM     22  O   UNL d   1       1.745   3.702   1.649  0.00  0.00    -0.532 OA
ENDBRANCH  17  20
ENDBRANCH  13  14
ENDBRANCH  12  13
ENDBRANCH   2  12
TORSDOF 4
