REMARK  2 active torsions:
REMARK  status: ('A' for Active; 'I' for Inactive)
REMARK    1  A    between atoms: C_8  and  N_1 
REMARK    2  A    between atoms: C_6  and  C_2 
ROOT
ATOM      1  N   UNL d   1      -0.155  -1.346  -0.067  0.00  0.00    -0.238 N 
ATOM      2  C   UNL d   1       1.030  -0.688  -0.062  0.00  0.00     0.153 A 
ATOM      3  N   UNL d   1       0.907   0.597  -0.155  0.00  0.00    -0.238 N 
ATOM      4  HN  UNL d   1       1.654   1.291  -0.152  1.00  0.00     0.196 HD
ATOM      5  C   UNL d   1      -1.105  -0.393  -0.243  0.00  0.00     0.395 A 
ATOM      6  O   UNL d   1      -0.491   0.838  -0.264  0.00  0.00    -0.179 OA
ATOM      7  O   UNL d   1      -2.316  -0.539  -0.348  0.00  0.00    -0.235 OA
ENDROOT
BRANCH   2   8
ATOM      8  C   UNL d   1       2.348  -1.336  -0.052  0.00  0.00     0.087 A 
ATOM      9  C   UNL d   1       2.642  -2.411  -0.889  0.00  0.00     0.133 A 
ATOM     10  F   UNL d   1       1.734  -2.881  -1.755  0.00  0.00    -0.205 F 
ATOM     11  C   UNL d   1       3.901  -3.011  -0.875  0.00  0.00     0.043 A 
ATOM     12  C   UNL d   1       4.899  -2.510  -0.041  0.00  0.00     0.006 A 
ATOM     13  C   UNL d   1       4.630  -1.407   0.770  0.00  0.00     0.043 A 
ATOM     14  C   UNL d   1       3.361  -0.827   0.759  0.00  0.00     0.133 A 
ATOM     15  F   UNL d   1       3.138   0.217   1.571  0.00  0.00    -0.205 F 
ENDBRANCH   2   8
BRANCH   1  16
ATOM     16  C   UNL d   1      -0.435  -2.724   0.060  0.00  0.00     0.068 A 
ATOM     17  C   UNL d   1       0.078  -3.526   1.094  0.00  0.00     0.061 A 
ATOM     18 CL   UNL d   1       0.910  -2.866   2.459  0.00  0.00    -0.082 Cl
ATOM     19  C   UNL d   1      -0.167  -4.904   1.109  0.00  0.00     0.026 A 
ATOM     20  C   UNL d   1      -0.930  -5.495   0.103  0.00  0.00     0.002 A 
ATOM     21  C   UNL d   1      -1.480  -4.706  -0.902  0.00  0.00     0.002 A 
ATOM     22  C   UNL d   1      -1.249  -3.329  -0.914  0.00  0.00     0.032 A 
ENDBRANCH   1  16
TORSDOF 2
