REMARK  2 active torsions:
REMARK  status: ('A' for Active; 'I' for Inactive)
REMARK       I    between atoms: C_7  and  N_11 
REMARK       I    between atoms: N_10  and  C_7 
REMARK    1  A    between atoms: N_11  and  N_8 
REMARK    2  A    between atoms: C_13  and  N_10 
ROOT
ATOM      1  C   UNL d   1      -3.162   0.129   0.659  0.00  0.00     0.164 A 
ATOM      2  N   UNL d   1      -2.622   1.281   0.984  0.00  0.00    -0.334 N 
ATOM      3  HN  UNL d   1      -3.074   2.188   0.868  1.00  0.00     0.168 HD
ATOM      4  S   UNL d   1      -2.171  -1.248   0.973  0.00  0.00    -0.051 SA
ATOM      5  C   UNL d   1      -0.908  -0.227   1.540  0.00  0.00     0.036 A 
ATOM      6  C   UNL d   1      -1.354   1.095   1.507  0.00  0.00     0.051 A 
ATOM      7  N   UNL d   1      -4.384   0.042   0.079  0.00  0.00    -0.276 N 
ATOM      8  C   UNL d   1       0.380  -0.569   1.988  0.00  0.00     0.045 A 
ATOM      9  C   UNL d   1      -0.498   2.111   1.981  0.00  0.00     0.032 A 
ATOM     10  C   UNL d   1       1.214   0.464   2.429  0.00  0.00     0.035 A 
ATOM     11  C   UNL d   1       0.784   1.786   2.439  0.00  0.00     0.026 A 
ATOM     12 CL   UNL d   1       2.806   0.088   2.968  0.00  0.00    -0.084 Cl
ATOM     13  H   UNL d   1      -4.825   0.916  -0.198  0.00  0.00     0.189 HD
ENDROOT
BRANCH   7  14
ATOM     14  N   UNL d   1      -5.243  -1.052   0.231  0.00  0.00    -0.250 N 
ATOM     15  C   UNL d   1      -6.610  -0.942   0.113  0.00  0.00     0.335 C 
ATOM     16  N   UNL d   1      -7.082   0.348   0.134  0.00  0.00    -0.334 N 
ATOM     17  O   UNL d   1      -7.305  -1.947  -0.006  0.00  0.00    -0.246 OA
ATOM     18  H   UNL d   1      -6.516   0.927   0.736  0.00  0.00     0.165 HD
ATOM     19  H   UNL d   1      -4.844  -1.978   0.107  0.00  0.00     0.192 HD
BRANCH  16  20
ATOM     20  C   UNL d   1      -8.514   0.700   0.132  0.00  0.00     0.023 C 
ATOM     21  C   UNL d   1      -9.155   0.282   1.464  0.00  0.00     0.037 C 
ATOM     22  C   UNL d   1      -8.620   2.230  -0.018  0.00  0.00     0.037 C 
ATOM     23  C   UNL d   1      -9.284   0.064  -1.040  0.00  0.00     0.037 C 
ENDBRANCH  16  20
ENDBRANCH   7  14
TORSDOF 2
