REMARK  5 active torsions:
REMARK  status: ('A' for Active; 'I' for Inactive)
REMARK    1  A    between atoms: N_3  and  S_1 
REMARK    2  A    between atoms: C_4  and  S_1 
REMARK    3  A    between atoms: N_2  and  C_8 
REMARK    4  A    between atoms: C_17  and  N_3 
REMARK    5  A    between atoms: C_19  and  C_17 
ROOT
ATOM      1  C   UNL d   1      -0.571   6.353   1.114  0.00  0.00     0.030 A 
ATOM      2  C   UNL d   1       0.774   6.043   1.342  0.00  0.00     0.030 A 
ATOM      3  C   UNL d   1      -1.437   5.284   0.832  0.00  0.00     0.030 A 
ATOM      4  C   UNL d   1       0.351   3.661   1.070  0.00  0.00    -0.040 A 
ATOM      5  C   UNL d   1      -0.991   3.958   0.811  0.00  0.00     0.011 A 
ATOM      6  C   UNL d   1       1.230   4.720   1.323  0.00  0.00     0.011 A 
ENDROOT
BRANCH   4   7
ATOM      7  C   UNL d   1       0.835   2.237   1.168  0.00  0.00     0.170 C 
BRANCH   7   8
ATOM      8  N   UNL d   1       0.652   1.474  -0.069  0.00  0.00    -0.311 N 
ATOM      9  H   UNL d   1      -0.237   1.584  -0.552  0.00  0.00     0.172 HD
BRANCH   8  10
ATOM     10  S   UNL d   1       1.215  -0.111  -0.069  0.00  0.00     0.259 S 
ATOM     11  O   UNL d   1       2.502  -0.151   0.589  0.00  0.00    -0.201 OA
ATOM     12  O   UNL d   1       1.020  -0.628  -1.407  0.00  0.00    -0.201 OA
BRANCH  10  13
ATOM     13  C   UNL d   1       0.035  -0.928   0.988  0.00  0.00     0.079 A 
ATOM     14  C   UNL d   1      -1.103  -1.512   0.421  0.00  0.00     0.027 A 
ATOM     15  C   UNL d   1      -2.026  -2.159   1.244  0.00  0.00     0.025 A 
ATOM     16  C   UNL d   1      -1.804  -2.224   2.620  0.00  0.00     0.034 A 
ATOM     17  C   UNL d   1      -0.659  -1.658   3.183  0.00  0.00     0.025 A 
ATOM     18 CL   UNL d   1      -2.950  -3.014   3.632  0.00  0.00    -0.084 Cl
ATOM     19  C   UNL d   1       0.274  -1.018   2.364  0.00  0.00     0.027 A 
ENDBRANCH  10  13
ENDBRANCH   8  10
ENDBRANCH   7   8
ENDBRANCH   4   7
BRANCH   1  20
ATOM     20  N   UNL d   1      -1.075   7.657   1.121  0.00  0.00    -0.378 N 
ATOM     21  C   UNL d   1      -0.128   8.777   0.960  0.00  0.00     0.153 C 
ATOM     22  C   UNL d   1      -0.909  10.073   0.646  0.00  0.00     0.291 C 
ATOM     23  N   UNL d   1      -1.896  10.407   1.699  0.00  0.00     0.087 N 
ATOM     24  C   UNL d   1      -2.810   9.257   1.893  0.00  0.00     0.291 C 
ATOM     25  C   UNL d   1      -2.647  11.604   1.328  0.00  0.00     0.310 C 
ATOM     26  C   UNL d   1      -2.068   7.929   2.187  0.00  0.00     0.153 C 
ENDBRANCH   1  20
TORSDOF 5
