REMARK  3 active torsions:
REMARK  status: ('A' for Active; 'I' for Inactive)
REMARK    1  A    between atoms: C_2  and  S_1 
REMARK    2  A    between atoms: N_3  and  S_1 
REMARK    3  A    between atoms: C_15  and  C_4 
ROOT
ATOM      1  N   UNL d   1       0.572  -1.445  -0.694  0.00  0.00    -0.202 NA
ATOM      2  C   UNL d   1       0.769  -4.128  -1.667  0.00  0.00    -0.049 C 
ATOM      3  C   UNL d   1       1.004  -3.103  -2.502  0.00  0.00    -0.004 C 
ATOM      4  C   UNL d   1       1.008  -1.660  -2.099  0.00  0.00     0.135 C 
ATOM      5  C   UNL d   1       1.011  -2.531   0.238  0.00  0.00     0.112 C 
ATOM      6  C   UNL d   1       0.491  -3.897  -0.212  0.00  0.00     0.054 C 
ENDROOT
BRANCH   1   7
ATOM      7  S   UNL d   1       1.001   0.098  -0.088  0.00  0.00     0.250 S 
ATOM      8  O   UNL d   1       0.287   0.323   1.151  0.00  0.00    -0.205 OA
ATOM      9  O   UNL d   1       2.448   0.190  -0.135  0.00  0.00    -0.205 OA
BRANCH   7  10
ATOM     10  C   UNL d   1       0.450   1.367  -1.209  0.00  0.00     0.115 A 
ATOM     11  S   UNL d   1      -1.231   1.462  -1.499  0.00  0.00    -0.089 SA
ATOM     12  C   UNL d   1      -1.038   2.819  -2.527  0.00  0.00     0.051 A 
ATOM     13  C   UNL d   1       0.284   3.180  -2.665  0.00  0.00     0.009 A 
ATOM     14  C   UNL d   1       1.145   2.331  -1.914  0.00  0.00     0.033 A 
ENDBRANCH   7  10
ENDBRANCH   1   7
BRANCH   2  15
ATOM     15  C   UNL d   1       0.798  -5.509  -2.155  0.00  0.00    -0.030 A 
ATOM     16  C   UNL d   1       2.005  -6.215  -2.221  0.00  0.00     0.012 A 
ATOM     17  C   UNL d   1       2.025  -7.531  -2.688  0.00  0.00     0.001 A 
ATOM     18  C   UNL d   1       0.841  -8.144  -3.096  0.00  0.00     0.000 A 
ATOM     19  C   UNL d   1      -0.362  -7.441  -3.045  0.00  0.00     0.001 A 
ATOM     20  C   UNL d   1      -0.384  -6.126  -2.578  0.00  0.00     0.012 A 
ENDBRANCH   2  15
TORSDOF 3
