REMARK  8 active torsions:
REMARK  status: ('A' for Active; 'I' for Inactive)
REMARK    1  A    between atoms: N_7  and  C_1 
REMARK    2  A    between atoms: C_9  and  C_2 
REMARK       I    between atoms: C_8  and  N_6 
REMARK       I    between atoms: C_11  and  N_7 
REMARK    3  A    between atoms: O_19  and  C_8 
REMARK    4  A    between atoms: O_20  and  C_9 
REMARK    5  A    between atoms: C_16  and  C_11 
REMARK    6  A    between atoms: N_13  and  C_16 
REMARK    7  A    between atoms: C_23  and  O_19 
REMARK    8  A    between atoms: C_24  and  O_20 
ROOT
ATOM      1  C   UNL d   1       2.038   0.937  -0.930  0.00  0.00     0.094 C 
ATOM      2  C   UNL d   1       0.920   1.749  -1.013  0.00  0.00     0.080 C 
ATOM      3  C   UNL d   1       0.035  -0.389  -0.568  0.00  0.00     0.010 C 
ATOM      4  C   UNL d   1      -0.253   0.963  -0.678  0.00  0.00    -0.023 C 
ATOM      5  S   UNL d   1       1.671  -0.724  -0.871  0.00  0.00    -0.074 SA
ATOM      6  N   UNL d   1      -2.292  -0.931  -0.325  0.00  0.00    -0.323 N 
ATOM      7  C   UNL d   1      -3.119  -1.463  -1.294  0.00  0.00     0.363 C 
ATOM      8  C   UNL d   1      -0.940  -1.469  -0.195  0.00  0.00     0.174 C 
ATOM      9  C   UNL d   1      -1.663   1.463  -0.470  0.00  0.00     0.061 C 
ATOM     10  C   UNL d   1      -2.513   0.401   0.257  0.00  0.00     0.133 C 
ATOM     11  O   UNL d   1      -2.834  -2.435  -1.984  0.00  0.00    -0.238 OA
ENDROOT
BRANCH   1  12
ATOM     12  N   UNL d   1       3.398   1.171  -0.862  0.00  0.00    -0.319 N 
ATOM     13  C   UNL d   1       3.871   2.097   0.065  0.00  0.00     0.251 C 
ATOM     14  O   UNL d   1       3.154   2.780   0.795  0.00  0.00    -0.271 OA
ATOM     15  H   UNL d   1       3.989   0.366  -1.025  0.00  0.00     0.169 HD
BRANCH  13  16
ATOM     16  C   UNL d   1       5.407   2.171   0.112  0.00  0.00     0.374 C 
BRANCH  16  17
ATOM     17  N   UNL d   1       6.022   1.648   1.341  0.00  0.00     0.097 N 
ATOM     18  C   UNL d   1       5.815   0.230   1.626  0.00  0.00     0.273 C 
ATOM     19  C   UNL d   1       5.190   0.176   3.008  0.00  0.00     0.032 C 
ATOM     20  C   UNL d   1       5.749   1.413   3.681  0.00  0.00     0.032 C 
ATOM     21  C   UNL d   1       5.762   2.432   2.553  0.00  0.00     0.273 C 
ENDBRANCH  16  17
ENDBRANCH  13  16
ENDBRANCH   1  12
BRANCH   2  22
ATOM     22  C   UNL d   1       0.887   3.172  -1.378  0.00  0.00     0.296 C 
ATOM     23  O   UNL d   1      -0.149   3.819  -1.418  0.00  0.00    -0.259 OA
BRANCH  22  24
ATOM     24  O   UNL d   1       2.101   3.672  -1.770  0.00  0.00    -0.318 OA
BRANCH  24  25
ATOM     25  C   UNL d   1       2.108   5.047  -2.180  0.00  0.00     0.174 C 
ATOM     26  C   UNL d   1       2.020   5.982  -0.987  0.00  0.00     0.034 C 
ENDBRANCH  24  25
ENDBRANCH  22  24
ENDBRANCH   2  22
BRANCH   7  27
ATOM     27  O   UNL d   1      -4.269  -0.752  -1.426  0.00  0.00    -0.304 OA
BRANCH  27  28
ATOM     28  C   UNL d   1      -4.995  -0.960  -2.642  0.00  0.00     0.176 C 
ATOM     29  C   UNL d   1      -4.492   0.054  -3.652  0.00  0.00     0.034 C 
ENDBRANCH  27  28
ENDBRANCH   7  27
TORSDOF 8
