REMARK  2 active torsions:
REMARK  status: ('A' for Active; 'I' for Inactive)
REMARK    1  A    between atoms: C_17  and  C_8 
REMARK    2  A    between atoms: N_12  and  C_15 
ROOT
ATOM      1  C   UNL d   1      -1.262   0.656  -0.060  0.00  0.00     0.120 A 
ATOM      2  C   UNL d   1      -1.311  -0.691  -0.043  0.00  0.00     0.067 A 
ATOM      3  C   UNL d   1      -2.627  -1.368  -0.096  0.00  0.00     0.258 A 
ATOM      4  C   UNL d   1       1.215  -0.713  -0.083  0.00  0.00     0.024 A 
ATOM      5  N   UNL d   1      -2.427   1.371  -0.074  0.00  0.00    -0.319 N 
ATOM      6  N   UNL d   1      -3.720  -0.550  -0.012  0.00  0.00    -0.299 N 
ATOM      7  C   UNL d   1       1.178   0.637  -0.090  0.00  0.00     0.022 A 
ATOM      8  C   UNL d   1      -0.056  -1.547   0.031  0.00  0.00     0.099 A 
ATOM      9  N   UNL d   1      -0.040   1.294  -0.050  0.00  0.00    -0.345 N 
ATOM     10  C   UNL d   1      -3.667   0.809  -0.028  0.00  0.00     0.180 A 
ATOM     11  C   UNL d   1       2.522  -1.424  -0.202  0.00  0.00     0.159 C 
ATOM     12  C   UNL d   1       2.428   1.487  -0.097  0.00  0.00     0.067 C 
ATOM     13  C   UNL d   1       3.659   0.742   0.464  0.00  0.00    -0.036 C 
ATOM     14  C   UNL d   1       3.790  -0.601  -0.270  0.00  0.00     0.092 C 
ATOM     15  S   UNL d   1      -5.042   1.742   0.006  0.00  0.00    -0.040 SA
ATOM     16  O   UNL d   1      -2.742  -2.581  -0.221  0.00  0.00    -0.267 OA
ATOM     17  O   UNL d   1       2.563  -2.647  -0.318  0.00  0.00    -0.293 OA
ATOM     18  C   UNL d   1       3.525   0.521   1.987  0.00  0.00     0.015 C 
ATOM     19  C   UNL d   1       4.928   1.578   0.220  0.00  0.00     0.015 C 
ATOM     20  H   UNL d   1      -2.387   2.382  -0.084  0.00  0.00     0.170 HD
ATOM     21  H   UNL d   1      -4.624  -1.003  -0.019  0.00  0.00     0.171 HD
ATOM     22  H   UNL d   1      -0.038   2.305  -0.114  0.00  0.00     0.167 HD
ENDROOT
BRANCH   8  23
ATOM     23  C   UNL d   1      -0.043  -2.380   1.319  0.00  0.00    -0.045 A 
ATOM     24  C   UNL d   1      -0.004  -3.781   1.234  0.00  0.00     0.011 A 
ATOM     25  C   UNL d   1       0.012  -4.568   2.385  0.00  0.00     0.036 A 
ATOM     26  C   UNL d   1      -0.012  -3.950   3.639  0.00  0.00     0.102 A 
ATOM     27  C   UNL d   1      -0.051  -2.554   3.747  0.00  0.00     0.036 A 
ATOM     28  C   UNL d   1      -0.065  -1.774   2.589  0.00  0.00     0.011 A 
BRANCH  26  29
ATOM     29  N   UNL d   1       0.006  -4.773   4.853  0.00  0.00    -0.116 N 
ATOM     30  O   UNL d   1      -0.014  -4.187   5.947  0.00  0.00    -0.532 OA
ATOM     31  O   UNL d   1       0.041  -6.006   4.720  0.00  0.00    -0.532 OA
ENDBRANCH  26  29
ENDBRANCH   8  23
TORSDOF 2
