REMARK  2 active torsions:
REMARK  status: ('A' for Active; 'I' for Inactive)
REMARK       I    between atoms: N_2  and  C_1 
REMARK       I    between atoms: N_3  and  C_1 
REMARK    1  A    between atoms: C_7  and  N_2 
REMARK    2  A    between atoms: C_8  and  N_3 
ROOT
ATOM      1  C   UNL d   1       1.024   0.003   0.121  0.00  0.00     0.325 C 
ATOM      2  N   UNL d   1       0.417  -0.713  -0.901  0.00  0.00    -0.309 N 
ATOM      3  N   UNL d   1       0.141   0.870   0.743  0.00  0.00    -0.307 N 
ATOM      4  O   UNL d   1       2.207  -0.094   0.427  0.00  0.00    -0.247 OA
ATOM      5  H   UNL d   1      -0.484  -0.389  -1.213  0.00  0.00     0.170 HD
ATOM      6  H   UNL d   1      -0.841   0.757   0.545  0.00  0.00     0.170 HD
ENDROOT
BRANCH   2   7
ATOM      7  C   UNL d   1       1.068  -1.662  -1.728  0.00  0.00     0.036 A 
ATOM      8  C   UNL d   1       2.320  -2.216  -1.427  0.00  0.00     0.032 A 
ATOM      9  C   UNL d   1       2.946  -3.096  -2.312  0.00  0.00     0.044 A 
ATOM     10  C   UNL d   1       2.312  -3.441  -3.494  0.00  0.00     0.116 A 
ATOM     11  C   UNL d   1       1.054  -2.935  -3.799  0.00  0.00     0.044 A 
ATOM     12  F   UNL d   1       2.920  -4.271  -4.351  0.00  0.00    -0.206 F 
ATOM     13  C   UNL d   1       0.428  -2.051  -2.913  0.00  0.00     0.032 A 
ENDBRANCH   2   7
BRANCH   3  14
ATOM     14  C   UNL d   1       0.492   1.836   1.718  0.00  0.00     0.051 A 
ATOM     15  C   UNL d   1       1.794   2.113   2.137  0.00  0.00     0.117 A 
ATOM     16  N   UNL d   1       2.123   3.062   3.051  0.00  0.00    -0.373 N 
ATOM     17  C   UNL d   1       1.111   3.774   3.578  0.00  0.00     0.088 A 
ATOM     18  HN  UNL d   1       3.092   3.227   3.324  1.00  0.00     0.164 HD
ATOM     19  C   UNL d   1      -0.216   3.579   3.238  0.00  0.00     0.019 A 
ATOM     20  C   UNL d   1      -0.527   2.596   2.297  0.00  0.00     0.032 A 
ENDBRANCH   3  14
TORSDOF 2
