REMARK  8 active torsions:
REMARK  status: ('A' for Active; 'I' for Inactive)
REMARK    1  A    between atoms: N_7  and  C_1 
REMARK    2  A    between atoms: N_8  and  C_2 
REMARK       I    between atoms: C_9  and  N_7 
REMARK       I    between atoms: C_10  and  N_8 
REMARK    3  A    between atoms: C_11  and  C_9 
REMARK    4  A    between atoms: C_12  and  C_10 
REMARK    5  A    between atoms: C_13  and  C_16 
REMARK    6  A    between atoms: O_22  and  C_13 
REMARK    7  A    between atoms: C_14  and  C_15 
REMARK    8  A    between atoms: O_21  and  C_14 
ROOT
ATOM      1  C   UNL d   1      -0.271   1.443  -0.066  0.00  0.00     0.048 C 
ATOM      2  C   UNL d   1       0.247  -1.331   0.120  0.00  0.00     0.048 C 
ATOM      3  C   UNL d   1      -1.270   0.547   0.334  0.00  0.00    -0.026 C 
ATOM      4  C   UNL d   1       1.288  -0.399   0.244  0.00  0.00    -0.026 C 
ATOM      5  C   UNL d   1      -1.072  -0.840   0.159  0.00  0.00    -0.026 C 
ATOM      6  C   UNL d   1       1.051   0.963  -0.088  0.00  0.00    -0.026 C 
ATOM      7  C   UNL d   1       2.569  -0.733   0.973  0.00  0.00     0.051 C 
ATOM      8  C   UNL d   1      -2.278  -1.744   0.103  0.00  0.00     0.051 C 
ATOM      9  C   UNL d   1       2.233   1.868  -0.336  0.00  0.00     0.051 C 
ATOM     10  C   UNL d   1      -2.386   0.997   1.252  0.00  0.00     0.051 C 
ENDROOT
BRANCH   1  11
ATOM     11  N   UNL d   1      -0.522   2.811  -0.350  0.00  0.00    -0.323 N 
ATOM     12  C   UNL d   1      -1.727   3.384  -0.711  0.00  0.00     0.245 C 
ATOM     13  O   UNL d   1      -2.805   2.833  -0.885  0.00  0.00    -0.268 OA
ATOM     14  H   UNL d   1       0.295   3.396  -0.450  0.00  0.00     0.169 HD
BRANCH  12  15
ATOM     15  C   UNL d   1      -1.598   4.850  -0.920  0.00  0.00     0.081 C 
ATOM     16  C   UNL d   1      -2.691   5.619  -0.862  0.00  0.00     0.086 C 
BRANCH  16  17
ATOM     17  C   UNL d   1      -2.537   7.070  -1.027  0.00  0.00     0.165 C 
ATOM     18  O   UNL d   1      -1.521   7.667  -1.316  0.00  0.00    -0.647 OA
BRANCH  17  19
ATOM     19  O   UNL d   1      -3.693   7.695  -0.776  0.00  0.00    -0.773 OA
ATOM     20  H   UNL d   1      -3.481   8.648  -0.883  0.00  0.00     0.167 HD
ENDBRANCH  17  19
ENDBRANCH  16  17
ENDBRANCH  12  15
ENDBRANCH   1  11
BRANCH   2  21
ATOM     21  N   UNL d   1       0.432  -2.735   0.038  0.00  0.00    -0.323 N 
ATOM     22  C   UNL d   1       1.571  -3.430  -0.317  0.00  0.00     0.245 C 
ATOM     23  O   UNL d   1       2.664  -2.982  -0.633  0.00  0.00    -0.268 OA
ATOM     24  H   UNL d   1      -0.410  -3.285   0.116  0.00  0.00     0.169 HD
BRANCH  22  25
ATOM     25  C   UNL d   1       1.335  -4.898  -0.309  0.00  0.00     0.081 C 
ATOM     26  C   UNL d   1       2.372  -5.746  -0.321  0.00  0.00     0.086 C 
BRANCH  26  27
ATOM     27  C   UNL d   1       2.102  -7.182  -0.307  0.00  0.00     0.165 C 
ATOM     28  O   UNL d   1       1.010  -7.725  -0.383  0.00  0.00    -0.647 OA
BRANCH  27  29
ATOM     29  O   UNL d   1       3.245  -7.880  -0.174  0.00  0.00    -0.773 OA
ATOM     30  H   UNL d   1       2.951  -8.816  -0.162  0.00  0.00     0.167 HD
ENDBRANCH  27  29
ENDBRANCH  26  27
ENDBRANCH  22  25
ENDBRANCH   2  21
TORSDOF 8
