REMARK  4 active torsions:
REMARK  status: ('A' for Active; 'I' for Inactive)
REMARK       I    between atoms: N_2  and  C_1 
REMARK    1  A    between atoms: C_6  and  N_2 
REMARK    2  A    between atoms: C_4  and  C_13 
REMARK    3  A    between atoms: O_12  and  C_7 
REMARK    4  A    between atoms: C_13  and  O_12 
ROOT
ATOM      1  C   UNL d   1       0.894   1.483   1.948  0.00  0.00     0.034 A 
ATOM      2  C   UNL d   1       2.068   2.981   4.024  0.00  0.00     0.069 A 
ATOM      3  C   UNL d   1       1.975   2.325   1.688  0.00  0.00     0.032 A 
ATOM      4  C   UNL d   1       0.374   1.439   3.247  0.00  0.00     0.032 A 
ATOM      5  C   UNL d   1       0.949   2.190   4.276  0.00  0.00     0.039 A 
ATOM      6  C   UNL d   1       2.554   3.074   2.720  0.00  0.00     0.039 A 
ENDROOT
BRANCH   1   7
ATOM      7  N   UNL d   1       0.279   0.655   0.987  0.00  0.00    -0.328 N 
ATOM      8  C   UNL d   1       0.635   0.494  -0.337  0.00  0.00     0.218 C 
ATOM      9  O   UNL d   1       1.557   1.051  -0.925  0.00  0.00    -0.274 OA
ATOM     10  C   UNL d   1      -0.241  -0.497  -1.065  0.00  0.00     0.117 C 
ATOM     11  H   UNL d   1      -0.491   0.092   1.325  0.00  0.00     0.169 HD
ENDBRANCH   1   7
BRANCH   2  12
ATOM     12  O   UNL d   1       2.754   3.697   4.968  0.00  0.00    -0.348 OA
BRANCH  12  13
ATOM     13  C   UNL d   1       2.636   3.204   6.304  0.00  0.00     0.202 C 
BRANCH  13  14
ATOM     14  C   UNL d   1       3.822   3.677   7.088  0.00  0.00    -0.011 C 
ATOM     15  C   UNL d   1       4.709   2.858   7.671  0.00  0.00     0.009 C 
ENDBRANCH  13  14
ENDBRANCH  12  13
ENDBRANCH   2  12
TORSDOF 4
