REMARK  4 active torsions:
REMARK  status: ('A' for Active; 'I' for Inactive)
REMARK    1  A    between atoms: C_7  and  C_1 
REMARK    2  A    between atoms: C_15  and  C_3 
REMARK       I    between atoms: N_12  and  C_7 
REMARK    3  A    between atoms: C_8  and  N_12 
REMARK    4  A    between atoms: C_18  and  C_13 
ROOT
ATOM      1  C   UNL d   1      -0.363  -2.501  -0.299  0.00  0.00     0.266 C 
ATOM      2  N   UNL d   1       0.854  -3.260  -0.157  0.00  0.00    -0.307 N 
ATOM      3  O   UNL d   1      -1.429  -3.079  -0.450  0.00  0.00    -0.267 OA
ATOM      4  H   UNL d   1       1.728  -2.749  -0.145  0.00  0.00     0.170 HD
ENDROOT
BRANCH   1   5
ATOM      5  C   UNL d   1      -0.216  -1.066  -0.248  0.00  0.00     0.097 A 
ATOM      6  S   UNL d   1       1.272  -0.287   0.085  0.00  0.00    -0.063 SA
ATOM      7  C   UNL d   1       0.490   1.251   0.044  0.00  0.00     0.103 A 
ATOM      8  N   UNL d   1      -0.796   1.190  -0.239  0.00  0.00    -0.351 N 
ATOM      9  C   UNL d   1      -1.210  -0.117  -0.414  0.00  0.00     0.029 A 
ATOM     10  HN  UNL d   1      -1.407   2.003  -0.320  1.00  0.00     0.166 HD
ATOM     11  C   UNL d   1      -2.647  -0.358  -0.729  0.00  0.00     0.070 C 
BRANCH   7  12
ATOM     12  C   UNL d   1       1.212   2.499   0.329  0.00  0.00     0.081 A 
ATOM     13  N   UNL d   1       2.567   2.449   0.438  0.00  0.00    -0.361 N 
ATOM     14  C   UNL d   1       3.174   3.632   0.703  0.00  0.00     0.105 A 
ATOM     15  HN  UNL d   1       3.090   1.581   0.326  1.00  0.00     0.165 HD
ATOM     16  C   UNL d   1       2.474   4.816   0.868  0.00  0.00     0.104 A 
ATOM     17  N   UNL d   1       1.129   4.875   0.765  0.00  0.00    -0.372 N 
ATOM     18  C   UNL d   1       0.517   3.696   0.490  0.00  0.00     0.120 A 
ATOM     19  HN  UNL d   1       0.610   5.745   0.886  1.00  0.00     0.164 HD
ENDBRANCH   7  12
ENDBRANCH   1   5
BRANCH   2  20
ATOM     20  C   UNL d   1       0.878  -4.640   0.018  0.00  0.00     0.124 A 
ATOM     21  C   UNL d   1      -0.171  -5.513   0.181  0.00  0.00     0.081 A 
ATOM     22  C   UNL d   1       0.407  -6.788   0.435  0.00  0.00     0.062 A 
ATOM     23  N   UNL d   1       1.746  -6.708   0.388  0.00  0.00    -0.298 N 
ATOM     24  N   UNL d   1       2.000  -5.420   0.114  0.00  0.00    -0.285 N 
ATOM     25  HN  UNL d   1       2.420  -7.460   0.530  1.00  0.00     0.187 HD
ATOM     26  H   UNL d   1       2.971  -5.143   0.026  0.00  0.00     0.188 HD
BRANCH  22  27
ATOM     27  C   UNL d   1      -0.297  -8.030   0.766  0.00  0.00    -0.008 A 
ATOM     28  C   UNL d   1      -1.620  -8.243   0.347  0.00  0.00     0.015 A 
ATOM     29  C   UNL d   1      -2.308  -9.402   0.722  0.00  0.00     0.024 A 
ATOM     30  C   UNL d   1      -1.678 -10.355   1.518  0.00  0.00     0.034 A 
ATOM     31  C   UNL d   1      -0.362 -10.167   1.931  0.00  0.00     0.024 A 
ATOM     32 CL   UNL d   1      -2.534 -11.768   1.998  0.00  0.00    -0.084 Cl
ATOM     33  C   UNL d   1       0.328  -9.010   1.552  0.00  0.00     0.015 A 
ENDBRANCH  22  27
ENDBRANCH   2  20
TORSDOF 4
