REMARK  1 active torsions:
REMARK  status: ('A' for Active; 'I' for Inactive)
REMARK    1  A    between atoms: C_8  and  C_1 
ROOT
ATOM      1  C   UNL d   1      -0.267   1.659  -0.013  0.00  0.00     0.135 A 
ATOM      2  N   UNL d   1       0.989   1.108  -0.097  0.00  0.00    -0.308 N 
ATOM      3  N   UNL d   1      -1.347   0.942   0.045  0.00  0.00    -0.344 N 
ATOM      4  HN  UNL d   1      -2.267   1.377   0.115  1.00  0.00     0.167 HD
ATOM      5  C   UNL d   1       1.201  -0.235  -0.105  0.00  0.00     0.248 A 
ATOM      6  C   UNL d   1      -0.021  -1.052  -0.054  0.00  0.00     0.099 A 
ATOM      7  C   UNL d   1      -1.205  -0.425   0.010  0.00  0.00     0.012 A 
ATOM      8  O   UNL d   1       2.312  -0.748  -0.152  0.00  0.00    -0.268 OA
ATOM      9  C   UNL d   1      -2.493  -1.197   0.037  0.00  0.00     0.068 C 
ATOM     10  H   UNL d   1       1.789   1.727  -0.141  0.00  0.00     0.170 HD
ENDROOT
BRANCH   1  11
ATOM     11  C   UNL d   1      -0.299   3.149   0.004  0.00  0.00     0.076 A 
ATOM     12  N   UNL d   1       0.903   3.768  -0.153  0.00  0.00    -0.363 N 
ATOM     13  C   UNL d   1       0.881   5.119  -0.158  0.00  0.00     0.088 A 
ATOM     14  HN  UNL d   1       1.771   3.242  -0.261  1.00  0.00     0.165 HD
ATOM     15  C   UNL d   1      -0.273   5.875  -0.007  0.00  0.00     0.017 A 
ATOM     16  C   UNL d   1      -1.484   5.212   0.162  0.00  0.00     0.004 A 
ATOM     17  C   UNL d   1      -1.504   3.821   0.167  0.00  0.00     0.033 A 
ENDBRANCH   1  11
TORSDOF 1
