REMARK  4 active torsions:
REMARK  status: ('A' for Active; 'I' for Inactive)
REMARK    1  A    between atoms: C_14  and  N_1 
REMARK    2  A    between atoms: N_7  and  C_16 
REMARK    3  A    between atoms: C_15  and  C_14 
REMARK    4  A    between atoms: C_16  and  C_15 
ROOT
ATOM      1  C   UNL d   1       0.203  -2.266   0.025  0.00  0.00     0.136 C 
ENDROOT
BRANCH   1   2
ATOM      2  N   UNL d   1       0.350  -0.815  -0.038  0.00  0.00    -0.293 N 
ATOM      3  C   UNL d   1       0.450  -0.035  -1.157  0.00  0.00     0.176 A 
ATOM      4  N   UNL d   1       0.618   1.276  -0.768  0.00  0.00    -0.358 N 
ATOM      5  S   UNL d   1       0.395  -0.474  -2.753  0.00  0.00    -0.041 SA
ATOM      6  C   UNL d   1       0.674   1.411   0.662  0.00  0.00     0.225 A 
ATOM      7  H   UNL d   1       0.722   2.032  -1.435  0.00  0.00     0.162 HD
ATOM      8  C   UNL d   1       0.487  -0.037   1.089  0.00  0.00     0.243 A 
ATOM      9  O   UNL d   1       0.474  -0.428   2.248  0.00  0.00    -0.271 OA
ENDBRANCH   1   2
BRANCH   1  10
ATOM     10  C   UNL d   1       1.565  -2.962   0.013  0.00  0.00     0.041 C 
BRANCH  10  11
ATOM     11  C   UNL d   1       1.425  -4.481   0.013  0.00  0.00     0.131 C 
BRANCH  11  12
ATOM     12  N   UNL d   1       2.721  -5.131   0.002  0.00  0.00    -0.352 N 
ATOM     13  C   UNL d   1       3.453  -5.475   1.103  0.00  0.00     0.182 A 
ATOM     14  N   UNL d   1       4.599  -6.021   0.765  0.00  0.00    -0.361 N 
ATOM     15  C   UNL d   1       4.603  -6.031  -0.608  0.00  0.00     0.106 A 
ATOM     16  HN  UNL d   1       5.329  -6.364   1.389  1.00  0.00     0.166 HD
ATOM     17  C   UNL d   1       3.442  -5.489  -1.103  0.00  0.00     0.108 A 
ENDBRANCH  11  12
ENDBRANCH  10  11
ENDBRANCH   1  10
TORSDOF 4
