REMARK  7 active torsions:
REMARK  status: ('A' for Active; 'I' for Inactive)
REMARK    1  A    between atoms: C_7  and  N_1 
REMARK    2  A    between atoms: C_6  and  C_3 
REMARK    3  A    between atoms: C_8  and  C_6 
REMARK    4  A    between atoms: C_18  and  C_7 
REMARK    5  A    between atoms: O_20  and  C_10 
REMARK    6  A    between atoms: O_21  and  C_13 
REMARK    7  A    between atoms: C_17  and  C_18 
ROOT
ATOM      1  N   UNL d   1       0.189  -1.002   0.017  0.00  0.00    -0.298 N 
ATOM      2  C   UNL d   1       0.949   0.155  -0.008  0.00  0.00     0.148 C 
ATOM      3  C   UNL d   1      -1.529   0.629  -0.016  0.00  0.00     0.076 C 
ATOM      4  C   UNL d   1      -1.181  -0.810  -0.104  0.00  0.00     0.266 C 
ATOM      5  S   UNL d   1      -0.100   1.571   0.011  0.00  0.00    -0.055 SA
ATOM      6  S   UNL d   1       2.600   0.368  -0.051  0.00  0.00    -0.052 SA
ATOM      7  O   UNL d   1      -2.003  -1.702  -0.301  0.00  0.00    -0.266 OA
ENDROOT
BRANCH   1   8
ATOM      8  C   UNL d   1       0.654  -2.400  -0.097  0.00  0.00     0.138 C 
BRANCH   8   9
ATOM      9  C   UNL d   1       1.911  -2.804   0.669  0.00  0.00     0.059 C 
BRANCH   9  10
ATOM     10  C   UNL d   1       2.216  -4.279   0.549  0.00  0.00    -0.054 A 
ATOM     11  C   UNL d   1       1.747  -5.190   1.505  0.00  0.00     0.046 A 
ATOM     12  C   UNL d   1       2.069  -6.557   1.430  0.00  0.00     0.102 A 
ATOM     13  C   UNL d   1       2.845  -7.012   0.349  0.00  0.00     0.101 A 
ATOM     14  C   UNL d   1       3.318  -6.097  -0.599  0.00  0.00     0.040 A 
ATOM     15  C   UNL d   1       3.004  -4.744  -0.507  0.00  0.00     0.010 A 
BRANCH  12  16
ATOM     16  O   UNL d   1       1.702  -7.467   2.386  0.00  0.00    -0.353 OA
ATOM     17  C   UNL d   1       0.943  -7.001   3.495  0.00  0.00     0.210 C 
ENDBRANCH  12  16
BRANCH  13  18
ATOM     18  O   UNL d   1       3.276  -8.294   0.114  0.00  0.00    -0.353 OA
ATOM     19  C   UNL d   1       2.400  -9.342   0.510  0.00  0.00     0.210 C 
ENDBRANCH  13  18
ENDBRANCH   9  10
ENDBRANCH   8   9
ENDBRANCH   1   8
BRANCH   3  20
ATOM     20  C   UNL d   1      -2.756   1.176   0.052  0.00  0.00     0.036 C 
BRANCH  20  21
ATOM     21  C   UNL d   1      -4.015   0.429   0.072  0.00  0.00    -0.024 A 
ATOM     22  C   UNL d   1      -4.581  -0.072   1.277  0.00  0.00    -0.016 A 
ATOM     23  C   UNL d   1      -5.830  -0.737   1.207  0.00  0.00    -0.025 A 
ATOM     24  C   UNL d   1      -3.969   0.052   2.548  0.00  0.00     0.013 A 
ATOM     25  C   UNL d   1      -6.419  -1.243   2.379  0.00  0.00     0.012 A 
ATOM     26  C   UNL d   1      -6.477  -0.881  -0.031  0.00  0.00     0.012 A 
ATOM     27  C   UNL d   1      -5.789  -1.111   3.616  0.00  0.00     0.001 A 
ATOM     28  C   UNL d   1      -4.564  -0.465   3.701  0.00  0.00     0.001 A 
ATOM     29  C   UNL d   1      -5.895  -0.404  -1.204  0.00  0.00     0.002 A 
ATOM     30  C   UNL d   1      -4.669   0.246  -1.153  0.00  0.00     0.012 A 
ENDBRANCH  20  21
ENDBRANCH   3  20
TORSDOF 7
