REMARK  7 active torsions:
REMARK  status: ('A' for Active; 'I' for Inactive)
REMARK    1  A    between atoms: C_11  and  C_2 
REMARK    2  A    between atoms: C_5  and  N_10 
REMARK    3  A    between atoms: N_16  and  C_5 
REMARK    4  A    between atoms: N_10  and  N_8 
REMARK    5  A    between atoms: C_13  and  C_18 
REMARK    6  A    between atoms: O_17  and  C_19 
REMARK    7  A    between atoms: C_18  and  O_17 
ROOT
ATOM      1  O   UNL d   1       8.878  -7.650  -1.317  0.00  0.00    -0.346 OA
ENDROOT
BRANCH   1   2
ATOM      2  C   UNL d   1       9.372  -8.620  -2.148  0.00  0.00     0.069 A 
ATOM      3  C   UNL d   1      10.093  -9.637  -1.522  0.00  0.00     0.037 A 
ATOM      4  C   UNL d   1      10.650 -10.681  -2.271  0.00  0.00     0.016 A 
ATOM      5  C   UNL d   1      10.504 -10.717  -3.664  0.00  0.00    -0.008 A 
ATOM      6  C   UNL d   1       9.811  -9.672  -4.289  0.00  0.00     0.016 A 
ATOM      7  C   UNL d   1       9.249  -8.631  -3.537  0.00  0.00     0.037 A 
BRANCH   5   8
ATOM      8  C   UNL d   1      11.078 -11.821  -4.425  0.00  0.00     0.063 A 
ATOM      9  N   UNL d   1      12.190 -12.517  -3.961  0.00  0.00    -0.292 N 
ATOM     10  N   UNL d   1      12.549 -13.487  -4.786  0.00  0.00    -0.061 NA
ATOM     11  HN  UNL d   1      12.672 -12.305  -3.087  1.00  0.00     0.183 HD
ATOM     12  S   UNL d   1      11.556 -13.601  -6.125  0.00  0.00    -0.010 SA
ATOM     13  C   UNL d   1      10.568 -12.290  -5.625  0.00  0.00     0.096 A 
ENDBRANCH   5   8
ENDBRANCH   1   2
BRANCH   1  14
ATOM     14  C   UNL d   1       7.717  -6.973  -1.780  0.00  0.00     0.229 C 
BRANCH  14  15
ATOM     15  C   UNL d   1       7.262  -5.956  -0.735  0.00  0.00     0.024 C 
ATOM     16  N   UNL d   1       7.156  -4.719  -1.130  0.00  0.00    -0.305 N 
ATOM     17  HN  UNL d   1       7.392  -4.471  -2.090  1.00  0.00     0.186 HD
ATOM     18  C   UNL d   1       6.935  -6.500   0.638  0.00  0.00     0.067 C 
BRANCH  16  19
ATOM     19  N   UNL d   1       6.731  -3.756  -0.266  0.00  0.00    -0.277 N 
ATOM     20  H   UNL d   1       6.503  -3.958   0.699  0.00  0.00     0.189 HD
BRANCH  19  21
ATOM     21  C   UNL d   1       6.620  -2.452  -0.673  0.00  0.00     0.184 C 
ATOM     22  S   UNL d   1       6.115  -1.246   0.348  0.00  0.00    -0.040 SA
BRANCH  21  23
ATOM     23  N   UNL d   1       6.940  -2.212  -1.965  0.00  0.00    -0.375 N 
ATOM     24  H   UNL d   1       7.281  -2.994  -2.507  0.00  0.00     0.158 HD
ATOM     25  H   UNL d   1       6.925  -1.279  -2.350  0.00  0.00     0.158 HD
ENDBRANCH  21  23
ENDBRANCH  19  21
ENDBRANCH  16  19
ENDBRANCH  14  15
ENDBRANCH   1  14
TORSDOF 7
