REMARK  2 active torsions:
REMARK  status: ('A' for Active; 'I' for Inactive)
REMARK    1  A    between atoms: N_5  and  C_2 
REMARK    2  A    between atoms: C_8  and  N_5 
ROOT
ATOM      1  C   UNL d   1       0.755   1.184  -0.318  0.00  0.00     0.071 C 
ATOM      2  C   UNL d   1       1.388   2.244  -0.853  0.00  0.00     0.107 C 
ATOM      3  C   UNL d   1       1.470  -0.109  -0.142  0.00  0.00     0.164 C 
ATOM      4  C   UNL d   1      -0.712   1.276  -0.096  0.00  0.00     0.164 C 
ATOM      5  O   UNL d   1       2.695  -0.162  -0.027  0.00  0.00    -0.292 OA
ATOM      6  O   UNL d   1      -1.276   2.352   0.083  0.00  0.00    -0.292 OA
ATOM      7  C   UNL d   1       0.640  -1.367  -0.241  0.00  0.00     0.084 C 
ATOM      8  C   UNL d   1      -1.494  -0.011  -0.216  0.00  0.00     0.084 C 
ATOM      9  C   UNL d   1      -0.741  -1.194   0.375  0.00  0.00     0.015 C 
ENDROOT
BRANCH   2  10
ATOM     10  N   UNL d   1       2.712   2.333  -1.211  0.00  0.00    -0.365 N 
ATOM     11  H   UNL d   1       3.288   1.532  -0.934  0.00  0.00     0.165 HD
BRANCH  10  12
ATOM     12  C   UNL d   1       3.338   3.266  -2.051  0.00  0.00     0.032 A 
ATOM     13  C   UNL d   1       4.739   3.327  -2.051  0.00  0.00     0.031 A 
ATOM     14  C   UNL d   1       5.425   4.274  -2.817  0.00  0.00     0.026 A 
ATOM     15  C   UNL d   1       4.708   5.179  -3.594  0.00  0.00     0.034 A 
ATOM     16  C   UNL d   1       3.317   5.140  -3.610  0.00  0.00     0.026 A 
ATOM     17 CL   UNL d   1       5.544   6.356  -4.530  0.00  0.00    -0.084 Cl
ATOM     18  C   UNL d   1       2.637   4.193  -2.835  0.00  0.00     0.031 A 
ENDBRANCH  10  12
ENDBRANCH   2  10
TORSDOF 2
