REMARK  2 active torsions:
REMARK  status: ('A' for Active; 'I' for Inactive)
REMARK    1  A    between atoms: N_8  and  C_3 
REMARK    2  A    between atoms: C_9  and  C_4 
ROOT
ATOM      1  N   UNL d   1       0.914  -0.322   0.649  0.00  0.00    -0.321 N 
ATOM      2  HN  UNL d   1       1.589  -0.474   1.399  1.00  0.00     0.169 HD
ATOM      3  C   UNL d   1       0.277  -1.280   0.013  0.00  0.00     0.164 A 
ATOM      4  C   UNL d   1       0.542   0.928   0.162  0.00  0.00     0.123 A 
ATOM      5  N   UNL d   1      -0.345   0.975  -0.838  0.00  0.00    -0.309 N 
ATOM      6  HN  UNL d   1      -0.697   1.816  -1.295  1.00  0.00     0.176 HD
ATOM      7  S   UNL d   1      -0.764  -0.596  -1.193  0.00  0.00     0.024 SA
ENDROOT
BRANCH   3   8
ATOM      8  N   UNL d   1       0.372  -2.611   0.323  0.00  0.00    -0.359 N 
ATOM      9  C   UNL d   1       1.156  -2.949   1.515  0.00  0.00     0.127 C 
ATOM     10  C   UNL d   1       0.300  -3.700   2.526  0.00  0.00     0.050 C 
ATOM     11  C   UNL d   1      -0.334  -5.005   2.044  0.00  0.00     0.271 C 
ATOM     12  N   UNL d   1       0.226  -5.613   0.840  0.00  0.00     0.085 N 
ATOM     13  C   UNL d   1      -0.252  -4.944  -0.380  0.00  0.00     0.289 C 
ATOM     14  H   UNL d   1       1.244  -5.610   0.873  0.00  0.00     0.315 HD
ATOM     15  C   UNL d   1       0.421  -3.605  -0.760  0.00  0.00     0.155 C 
ENDBRANCH   3   8
BRANCH   4  16
ATOM     16  C   UNL d   1       1.119   2.134   0.764  0.00  0.00     0.009 A 
ATOM     17  C   UNL d   1       2.126   2.031   1.740  0.00  0.00     0.015 A 
ATOM     18  C   UNL d   1       2.681   3.176   2.316  0.00  0.00     0.001 A 
ATOM     19  C   UNL d   1       2.233   4.438   1.927  0.00  0.00     0.000 A 
ATOM     20  C   UNL d   1       1.231   4.554   0.967  0.00  0.00     0.001 A 
ATOM     21  C   UNL d   1       0.678   3.411   0.389  0.00  0.00     0.015 A 
ENDBRANCH   4  16
TORSDOF 2
