REMARK  2 active torsions:
REMARK  status: ('A' for Active; 'I' for Inactive)
REMARK    1  A    between atoms: C_7  and  C_1 
REMARK    2  A    between atoms: C_8  and  C_5 
ROOT
ATOM      1  C   UNL d   1      -0.150  -1.066   0.012  0.00  0.00     0.074 A 
ATOM      2  S   UNL d   1       1.391  -0.326  -0.044  0.00  0.00    -0.066 SA
ATOM      3  N   UNL d   1      -0.647   1.221  -0.041  0.00  0.00    -0.352 N 
ATOM      4  HN  UNL d   1      -1.233   2.055  -0.070  1.00  0.00     0.166 HD
ATOM      5  C   UNL d   1       0.672   1.233  -0.019  0.00  0.00     0.085 A 
ATOM      6  C   UNL d   1      -1.127  -0.079  -0.021  0.00  0.00     0.027 A 
ATOM      7  C   UNL d   1      -2.604  -0.277  -0.011  0.00  0.00     0.070 C 
ENDROOT
BRANCH   5   8
ATOM      8  C   UNL d   1       1.494   2.454  -0.026  0.00  0.00    -0.002 A 
ATOM      9  C   UNL d   1       0.964   3.635  -0.571  0.00  0.00     0.016 A 
ATOM     10  C   UNL d   1       1.718   4.812  -0.613  0.00  0.00     0.024 A 
ATOM     11  C   UNL d   1       3.011   4.823  -0.096  0.00  0.00     0.034 A 
ATOM     12  C   UNL d   1       3.551   3.672   0.468  0.00  0.00     0.024 A 
ATOM     13 CL   UNL d   1       3.946   6.265  -0.156  0.00  0.00    -0.084 Cl
ATOM     14  C   UNL d   1       2.795   2.495   0.507  0.00  0.00     0.016 A 
ENDBRANCH   5   8
BRANCH   1  15
ATOM     15  C   UNL d   1      -0.329  -2.509   0.057  0.00  0.00     0.164 C 
ATOM     16  O   UNL d   1      -1.418  -3.041  -0.172  0.00  0.00    -0.292 OA
ATOM     17  C   UNL d   1       0.843  -3.404   0.398  0.00  0.00     0.097 C 
ENDBRANCH   1  15
TORSDOF 2
