REMARK  3 active torsions:
REMARK  status: ('A' for Active; 'I' for Inactive)
REMARK    1  A    between atoms: C_2  and  N_1 
REMARK    2  A    between atoms: O_15  and  C_6 
REMARK    3  A    between atoms: O_16  and  C_10 
ROOT
ATOM      1  C   UNL d   1      -0.016   2.406   0.010  0.00  0.00     0.082 A 
ATOM      2  C   UNL d   1       0.589   3.135  -1.020  0.00  0.00     0.071 A 
ATOM      3  C   UNL d   1      -0.661   3.070   1.060  0.00  0.00     0.097 A 
ATOM      4  C   UNL d   1      -0.695   4.466   1.041  0.00  0.00     0.065 A 
ATOM      5  C   UNL d   1       0.568   4.539  -1.039  0.00  0.00     0.092 A 
ATOM      6  C   UNL d   1      -0.089   5.203   0.004  0.00  0.00     0.070 A 
ATOM      7 CL   UNL d   1      -0.246   6.919   0.160  0.00  0.00    -0.081 Cl
ENDROOT
BRANCH   1   8
ATOM      8  N   UNL d   1       0.018   1.007  -0.043  0.00  0.00    -0.242 N 
ATOM      9  C   UNL d   1      -0.896   0.245  -0.702  0.00  0.00     0.255 A 
ATOM     10  C   UNL d   1      -0.502  -1.156  -0.491  0.00  0.00     0.080 A 
ATOM     11  O   UNL d   1      -1.866   0.570  -1.365  0.00  0.00    -0.268 OA
ATOM     12  C   UNL d   1       0.590  -1.165   0.273  0.00  0.00     0.080 A 
ATOM     13  C   UNL d   1       0.936   0.229   0.589  0.00  0.00     0.255 A 
ATOM     14  O   UNL d   1       1.900   0.537   1.268  0.00  0.00    -0.268 OA
ENDBRANCH   1   8
BRANCH   3  15
ATOM     15  O   UNL d   1      -1.228   2.285   2.030  0.00  0.00    -0.354 OA
ATOM     16  C   UNL d   1      -1.873   2.954   3.109  0.00  0.00     0.210 C 
ENDBRANCH   3  15
BRANCH   5  17
ATOM     17  O   UNL d   1       1.230   5.024  -2.131  0.00  0.00    -0.354 OA
ATOM     18  C   UNL d   1       1.311   6.418  -2.371  0.00  0.00     0.210 C 
ENDBRANCH   5  17
TORSDOF 3
