REMARK  6 active torsions:
REMARK  status: ('A' for Active; 'I' for Inactive)
REMARK    1  A    between atoms: C_3  and  C_1 
REMARK    2  A    between atoms: C_9  and  C_2 
REMARK    3  A    between atoms: C_15  and  C_6 
REMARK    4  A    between atoms: C_7  and  O_11 
REMARK       I    between atoms: N_8  and  C_7 
REMARK    5  A    between atoms: C_16  and  N_8 
REMARK    6  A    between atoms: O_11  and  C_15 
ROOT
ATOM      1  C   UNL d   1       0.242   1.278   0.128  0.00  0.00     0.100 A 
ATOM      2  C   UNL d   1       1.543   0.786   0.048  0.00  0.00    -0.003 A 
ATOM      3  S   UNL d   1      -0.902  -0.013   0.246  0.00  0.00    -0.087 SA
ATOM      4  C   UNL d   1       1.552  -0.656   0.109  0.00  0.00     0.030 A 
ATOM      5  C   UNL d   1       0.299  -1.220   0.209  0.00  0.00     0.008 A 
ENDROOT
BRANCH   5   6
ATOM      6  C   UNL d   1      -0.103  -2.665   0.226  0.00  0.00     0.226 C 
BRANCH   6   7
ATOM      7  O   UNL d   1       0.906  -3.414   0.920  0.00  0.00    -0.299 OA
BRANCH   7   8
ATOM      8  C   UNL d   1       0.481  -4.155   1.968  0.00  0.00     0.365 C 
ATOM      9  N   UNL d   1       1.394  -5.031   2.494  0.00  0.00    -0.303 N 
ATOM     10  H   UNL d   1       0.985  -5.556   3.255  0.00  0.00     0.171 HD
ATOM     11  O   UNL d   1      -0.649  -4.106   2.443  0.00  0.00    -0.238 OA
BRANCH   9  12
ATOM     12  C   UNL d   1       2.690  -5.406   2.096  0.00  0.00     0.036 A 
ATOM     13  C   UNL d   1       3.414  -4.805   1.066  0.00  0.00     0.029 A 
ATOM     14  C   UNL d   1       4.676  -5.299   0.704  0.00  0.00     0.002 A 
ATOM     15  C   UNL d   1       5.224  -6.388   1.374  0.00  0.00     0.000 A 
ATOM     16  C   UNL d   1       4.524  -6.977   2.421  0.00  0.00     0.002 A 
ATOM     17  C   UNL d   1       3.268  -6.482   2.783  0.00  0.00     0.029 A 
ENDBRANCH   9  12
ENDBRANCH   7   8
ENDBRANCH   6   7
ENDBRANCH   5   6
BRANCH   1  18
ATOM     18  C   UNL d   1      -0.333   2.662   0.116  0.00  0.00     0.424 C 
ATOM     19  F   UNL d   1       0.580   3.654   0.251  0.00  0.00    -0.166 F 
ATOM     20  F   UNL d   1      -0.992   2.909  -1.052  0.00  0.00    -0.166 F 
ATOM     21  F   UNL d   1      -1.238   2.854   1.114  0.00  0.00    -0.166 F 
ENDBRANCH   1  18
BRANCH   2  22
ATOM     22  C   UNL d   1       2.760   1.601  -0.070  0.00  0.00    -0.025 A 
ATOM     23  C   UNL d   1       3.908   1.224   0.648  0.00  0.00     0.012 A 
ATOM     24  C   UNL d   1       5.104   1.936   0.522  0.00  0.00     0.001 A 
ATOM     25  C   UNL d   1       5.164   3.050  -0.309  0.00  0.00     0.000 A 
ATOM     26  C   UNL d   1       4.037   3.436  -1.030  0.00  0.00     0.001 A 
ATOM     27  C   UNL d   1       2.849   2.701  -0.930  0.00  0.00     0.012 A 
ENDBRANCH   2  22
TORSDOF 6
