REMARK  6 active torsions:
REMARK  status: ('A' for Active; 'I' for Inactive)
REMARK    1  A    between atoms: C_10  and  N_1 
REMARK    2  A    between atoms: S_8  and  C_2 
REMARK    3  A    between atoms: O_14  and  C_3 
REMARK    4  A    between atoms: C_13  and  S_8 
REMARK    5  A    between atoms: C_9  and  C_13 
REMARK       I    between atoms: N_11  and  C_9 
REMARK    6  A    between atoms: C_15  and  N_11 
ROOT
ATOM      1  N   UNL d   1       0.472   0.291  -0.851  0.00  0.00    -0.255 N 
ATOM      2  C   UNL d   1       1.055  -0.875  -0.374  0.00  0.00     0.169 A 
ATOM      3  C   UNL d   1      -0.140   0.824   0.277  0.00  0.00     0.245 A 
ATOM      4  N   UNL d   1       0.778  -1.038   0.900  0.00  0.00    -0.276 N 
ATOM      5  HN  UNL d   1       1.064  -1.826   1.481  1.00  0.00     0.189 HD
ATOM      6  N   UNL d   1       0.037   0.038   1.312  0.00  0.00    -0.263 N 
ATOM      7  HN  UNL d   1      -0.315   0.200   2.256  1.00  0.00     0.190 HD
ENDROOT
BRANCH   2   8
ATOM      8  S   UNL d   1       2.195  -1.856  -1.251  0.00  0.00    -0.083 SA
BRANCH   8   9
ATOM      9  C   UNL d   1       2.378  -3.237  -0.091  0.00  0.00     0.185 C 
BRANCH   9  10
ATOM     10  C   UNL d   1       3.370  -4.307  -0.526  0.00  0.00     0.231 C 
ATOM     11  N   UNL d   1       4.248  -3.959  -1.535  0.00  0.00    -0.327 N 
ATOM     12  H   UNL d   1       4.147  -3.021  -1.907  0.00  0.00     0.169 HD
ATOM     13  O   UNL d   1       3.371  -5.382   0.076  0.00  0.00    -0.272 OA
BRANCH  11  14
ATOM     14  C   UNL d   1       5.310  -4.733  -2.050  0.00  0.00     0.034 A 
ATOM     15  C   UNL d   1       5.555  -6.058  -1.681  0.00  0.00     0.029 A 
ATOM     16  C   UNL d   1       6.663  -6.747  -2.185  0.00  0.00     0.002 A 
ATOM     17  C   UNL d   1       7.535  -6.120  -3.069  0.00  0.00     0.000 A 
ATOM     18  C   UNL d   1       7.287  -4.809  -3.468  0.00  0.00     0.002 A 
ATOM     19  C   UNL d   1       6.176  -4.121  -2.967  0.00  0.00     0.029 A 
ENDBRANCH  11  14
ENDBRANCH   9  10
ENDBRANCH   8   9
ENDBRANCH   2   8
BRANCH   1  20
ATOM     20  C   UNL d   1       0.498   0.838  -2.159  0.00  0.00     0.045 A 
ATOM     21  C   UNL d   1       0.417  -0.002  -3.279  0.00  0.00     0.030 A 
ATOM     22  C   UNL d   1       0.487   0.536  -4.563  0.00  0.00     0.002 A 
ATOM     23  C   UNL d   1       0.631   1.910  -4.739  0.00  0.00     0.000 A 
ATOM     24  C   UNL d   1       0.691   2.752  -3.630  0.00  0.00     0.002 A 
ATOM     25  C   UNL d   1       0.621   2.223  -2.339  0.00  0.00     0.030 A 
ENDBRANCH   1  20
BRANCH   3  26
ATOM     26  O   UNL d   1      -0.897   1.914   0.335  0.00  0.00    -0.331 OA
ATOM     27  H   UNL d   1      -1.203   2.131  -0.559  0.00  0.00     0.221 HD
ENDBRANCH   3  26
TORSDOF 6
