REMARK  6 active torsions:
REMARK  status: ('A' for Active; 'I' for Inactive)
REMARK    1  A    between atoms: C_2  and  C_1 
REMARK       I    between atoms: N_3  and  C_1 
REMARK    2  A    between atoms: N_4  and  C_2 
REMARK    3  A    between atoms: C_8  and  N_3 
REMARK    4  A    between atoms: C_12  and  N_4 
REMARK    5  A    between atoms: C_11  and  C_7 
REMARK    6  A    between atoms: C_15  and  C_12 
ROOT
ATOM      1  C   UNL d   1       1.224  -1.035  -1.679  0.00  0.00     0.283 C 
ATOM      2  N   UNL d   1       0.038  -1.120  -0.974  0.00  0.00    -0.321 N 
ATOM      3  O   UNL d   1       2.278  -0.880  -1.067  0.00  0.00    -0.265 OA
ATOM      4  H   UNL d   1       0.186  -0.689  -0.067  0.00  0.00     0.169 HD
ENDROOT
BRANCH   2   5
ATOM      5  C   UNL d   1      -1.276  -1.003  -1.453  0.00  0.00     0.035 A 
ATOM      6  C   UNL d   1      -2.052  -2.152  -1.534  0.00  0.00     0.030 A 
ATOM      7  C   UNL d   1      -3.443  -2.052  -1.679  0.00  0.00     0.010 A 
ATOM      8  C   UNL d   1      -4.095  -0.807  -1.769  0.00  0.00    -0.054 A 
ATOM      9  C   UNL d   1      -3.289   0.339  -1.681  0.00  0.00     0.010 A 
ATOM     10  C   UNL d   1      -1.899   0.243  -1.506  0.00  0.00     0.030 A 
BRANCH   8  11
ATOM     11  C   UNL d   1      -5.626  -0.765  -1.853  0.00  0.00     0.018 C 
ATOM     12  C   UNL d   1      -6.199  -1.634  -2.993  0.00  0.00     0.009 C 
ATOM     13  C   UNL d   1      -5.978  -1.002  -4.366  0.00  0.00     0.001 C 
ATOM     14  C   UNL d   1      -6.593   0.390  -4.450  0.00  0.00     0.000 C 
ATOM     15  C   UNL d   1      -6.153   1.296  -3.304  0.00  0.00     0.001 C 
ATOM     16  C   UNL d   1      -6.291   0.628  -1.933  0.00  0.00     0.009 C 
ENDBRANCH   8  11
ENDBRANCH   2   5
BRANCH   1  17
ATOM     17  C   UNL d   1       1.306  -1.139  -3.189  0.00  0.00     0.165 C 
ATOM     18  S   UNL d   1       0.702   0.112  -4.112  0.00  0.00    -0.055 SA
BRANCH  17  19
ATOM     19  N   UNL d   1       2.078  -2.121  -3.775  0.00  0.00    -0.372 N 
ATOM     20  H   UNL d   1       2.372  -1.875  -4.712  0.00  0.00     0.161 HD
BRANCH  19  21
ATOM     21  C   UNL d   1       2.888  -3.106  -3.071  0.00  0.00     0.159 C 
BRANCH  21  22
ATOM     22  C   UNL d   1       3.507  -4.165  -3.965  0.00  0.00    -0.041 A 
ATOM     23  C   UNL d   1       4.414  -5.079  -3.397  0.00  0.00     0.009 A 
ATOM     24  C   UNL d   1       5.018  -6.075  -4.172  0.00  0.00     0.001 A 
ATOM     25  C   UNL d   1       4.729  -6.171  -5.532  0.00  0.00     0.000 A 
ATOM     26  C   UNL d   1       3.832  -5.283  -6.110  0.00  0.00     0.001 A 
ATOM     27  C   UNL d   1       3.218  -4.295  -5.333  0.00  0.00     0.009 A 
ENDBRANCH  21  22
ENDBRANCH  19  21
ENDBRANCH  17  19
ENDBRANCH   1  17
TORSDOF 6
