REMARK  4 active torsions:
REMARK  status: ('A' for Active; 'I' for Inactive)
REMARK    1  A    between atoms: N_2  and  C_1 
REMARK    2  A    between atoms: N_3  and  C_1 
REMARK    3  A    between atoms: C_4  and  N_2 
REMARK    4  A    between atoms: C_8  and  N_3 
ROOT
ATOM      1  C   UNL d   1       1.123  -0.012   0.084  0.00  0.00     0.177 C 
ATOM      2  S   UNL d   1       2.678  -0.096   0.700  0.00  0.00    -0.040 SA
ENDROOT
BRANCH   1   3
ATOM      3  N   UNL d   1       0.632  -0.669  -1.014  0.00  0.00    -0.319 N 
ATOM      4  H   UNL d   1       0.044  -0.109  -1.617  0.00  0.00     0.169 HD
BRANCH   3   5
ATOM      5  C   UNL d   1       1.079  -1.830  -1.646  0.00  0.00     0.106 A 
ATOM      6  N   UNL d   1       0.832  -1.873  -2.972  0.00  0.00    -0.352 N 
ATOM      7  C   UNL d   1       1.214  -2.987  -3.634  0.00  0.00     0.089 A 
ATOM      8  HN  UNL d   1       0.377  -1.098  -3.454  1.00  0.00     0.166 HD
ATOM      9  C   UNL d   1       1.776  -4.093  -3.022  0.00  0.00     0.017 A 
ATOM     10  C   UNL d   1       1.968  -4.050  -1.647  0.00  0.00     0.005 A 
ATOM     11  C   UNL d   1       1.621  -2.898  -0.947  0.00  0.00     0.048 A 
ENDBRANCH   3   5
ENDBRANCH   1   3
BRANCH   1  12
ATOM     12  N   UNL d   1       0.271   0.917   0.632  0.00  0.00    -0.333 N 
ATOM     13  H   UNL d   1       0.728   1.639   1.179  0.00  0.00     0.168 HD
BRANCH  12  14
ATOM     14  C   UNL d   1      -1.136   0.870   0.716  0.00  0.00     0.034 A 
ATOM     15  C   UNL d   1      -1.862  -0.319   0.575  0.00  0.00     0.036 A 
ATOM     16  C   UNL d   1      -3.253  -0.336   0.747  0.00  0.00    -0.060 A 
ATOM     17  C   UNL d   1      -4.022  -1.620   0.642  0.00  0.00     0.048 C 
ATOM     18  C   UNL d   1      -3.920   0.863   1.024  0.00  0.00     0.007 A 
ATOM     19  C   UNL d   1      -3.201   2.048   1.172  0.00  0.00     0.003 A 
ATOM     20  C   UNL d   1      -1.811   2.048   1.042  0.00  0.00     0.029 A 
ENDBRANCH  12  14
ENDBRANCH   1  12
TORSDOF 4
