REMARK  7 active torsions:
REMARK  status: ('A' for Active; 'I' for Inactive)
REMARK    1  A    between atoms: O_11  and  C_2 
REMARK    2  A    between atoms: C_8  and  C_3 
REMARK    3  A    between atoms: C_13  and  C_6 
REMARK    4  A    between atoms: C_21  and  O_11 
REMARK    5  A    between atoms: C_14  and  C_21 
REMARK    6  A    between atoms: O_25  and  C_14 
REMARK    7  A    between atoms: C_27  and  O_25 
ROOT
ATOM      1  C   UNL d   1       0.581   0.045   0.065  0.00  0.00     0.108 A 
ATOM      2  C   UNL d   1      -0.214  -1.094   0.114  0.00  0.00     0.165 A 
ATOM      3  C   UNL d   1      -0.064   1.286  -0.012  0.00  0.00     0.025 A 
ATOM      4  N   UNL d   1      -1.565  -1.084   0.057  0.00  0.00    -0.335 N 
ATOM      5  HN  UNL d   1      -2.097  -1.954   0.074  1.00  0.00     0.168 HD
ATOM      6  C   UNL d   1      -2.191   0.110  -0.023  0.00  0.00     0.045 A 
ATOM      7  C   UNL d   1      -1.470   1.299  -0.060  0.00  0.00     0.046 A 
ATOM      8  C   UNL d   1       2.009  -0.089   0.078  0.00  0.00     0.105 C 
ATOM      9  N   UNL d   1       3.166  -0.176   0.087  0.00  0.00    -0.191 NA
ENDROOT
BRANCH   2  10
ATOM     10  O   UNL d   1       0.407  -2.325   0.168  0.00  0.00    -0.325 OA
BRANCH  10  11
ATOM     11  C   UNL d   1      -0.404  -3.343   0.748  0.00  0.00     0.288 C 
BRANCH  11  12
ATOM     12  C   UNL d   1      -0.610  -3.198   2.252  0.00  0.00     0.283 C 
ATOM     13  O   UNL d   1      -0.177  -2.285   2.944  0.00  0.00    -0.263 OA
BRANCH  12  14
ATOM     14  O   UNL d   1      -1.246  -4.311   2.725  0.00  0.00    -0.320 OA
BRANCH  14  15
ATOM     15  C   UNL d   1      -1.115  -4.538   4.136  0.00  0.00     0.174 C 
ATOM     16  C   UNL d   1       0.161  -5.330   4.367  0.00  0.00     0.034 C 
ENDBRANCH  14  15
ENDBRANCH  12  14
ENDBRANCH  11  12
ENDBRANCH  10  11
ENDBRANCH   2  10
BRANCH   3  17
ATOM     17  C   UNL d   1       0.644   2.569  -0.043  0.00  0.00     0.086 A 
ATOM     18  O   UNL d   1      -0.000   3.575  -0.712  0.00  0.00    -0.322 OA
ATOM     19  C   UNL d   1       0.781   4.681  -0.638  0.00  0.00     0.142 A 
ATOM     20  C   UNL d   1       1.924   4.412   0.073  0.00  0.00     0.027 A 
ATOM     21  C   UNL d   1       1.837   3.053   0.460  0.00  0.00     0.040 A 
ENDBRANCH   3  17
BRANCH   6  22
ATOM     22  C   UNL d   1      -3.666   0.057  -0.075  0.00  0.00    -0.009 A 
ATOM     23  C   UNL d   1      -4.325  -1.030  -0.683  0.00  0.00     0.015 A 
ATOM     24  C   UNL d   1      -5.721  -1.104  -0.734  0.00  0.00     0.024 A 
ATOM     25  C   UNL d   1      -6.485  -0.088  -0.171  0.00  0.00     0.034 A 
ATOM     26  C   UNL d   1      -5.866   0.999   0.436  0.00  0.00     0.024 A 
ATOM     27 CL   UNL d   1      -8.202  -0.179  -0.217  0.00  0.00    -0.084 Cl
ATOM     28  C   UNL d   1      -4.469   1.069   0.484  0.00  0.00     0.015 A 
ENDBRANCH   6  22
TORSDOF 7
