REMARK  6 active torsions:
REMARK  status: ('A' for Active; 'I' for Inactive)
REMARK    1  A    between atoms: C2_2  and  C1_1 
REMARK       I    between atoms: N_11  and  C2_2 
REMARK    2  A    between atoms: CA_12  and  N_11 
REMARK    3  A    between atoms: CA_12  and  CB_15 
REMARK    4  A    between atoms: CA_12  and  C_13 
REMARK    5  A    between atoms: OXT_16  and  C_13 
REMARK    6  A    between atoms: CG_17  and  CB_15 
ROOT
ATOM      1  C2  <1> d   1      -0.549  -3.794   2.660  0.00  0.00     0.254 C 
ATOM      2  O1  <1> d   1      -0.504  -2.584   2.444  0.00  0.00    -0.268 OA
ATOM      3  N   LEU d   1      -0.869  -4.650   1.637  0.00  0.00    -0.342 N 
ATOM      4  H   LEU d   1      -1.083  -5.613   1.879  0.00  0.00     0.163 HD
ENDROOT
BRANCH   3   5
ATOM      5  CA  LEU d   1      -1.112  -4.276   0.230  0.00  0.00     0.183 C 
BRANCH   5   6
ATOM      6  CB  LEU d   1      -0.888  -5.538  -0.623  0.00  0.00     0.040 C 
BRANCH   6   7
ATOM      7  CG  LEU d   1      -1.000  -5.410  -2.155  0.00  0.00    -0.020 C 
ATOM      8  CD1 LEU d   1      -0.013  -4.407  -2.748  0.00  0.00     0.009 C 
ATOM      9  CD2 LEU d   1      -0.781  -6.787  -2.796  0.00  0.00     0.009 C 
ENDBRANCH   6   7
ENDBRANCH   5   6
BRANCH   5  10
ATOM     10  C   LEU d   1      -2.540  -3.693   0.100  0.00  0.00     0.163 C 
ATOM     11  O   LEU d   1      -3.377  -4.057  -0.713  0.00  0.00    -0.648 OA
BRANCH  10  12
ATOM     12  OXT LEU d   1      -2.777  -2.660   0.941  0.00  0.00    -0.775 OA
ATOM     13  HXT LEU d   1      -1.984  -2.420   1.481  0.00  0.00     0.167 HD
ENDBRANCH  10  12
ENDBRANCH   5  10
ENDBRANCH   3   5
BRANCH   1  14
ATOM     14  C1  <1> d   1      -0.388  -4.354   4.046  0.00  0.00     0.053 A 
ATOM     15  C3  <1> d   1      -0.521  -5.709   4.414  0.00  0.00     0.051 A 
ATOM     16  C7  <1> d   1      -0.473  -6.091   5.764  0.00  0.00     0.048 A 
ATOM     17 Cl1  <1> d   1      -0.747  -7.012   3.297  0.00  0.00    -0.083 Cl
ATOM     18  C9  <1> d   1      -0.271  -5.140   6.757  0.00  0.00     0.035 A 
ATOM     19  C10 <1> d   1      -0.079  -3.807   6.415  0.00  0.00     0.025 A 
ATOM     20 Cl2  <1> d   1      -0.270  -5.617   8.408  0.00  0.00    -0.084 Cl
ATOM     21  C6  <1> d   1      -0.137  -3.418   5.070  0.00  0.00     0.020 A 
ENDBRANCH   1  14
TORSDOF 6
