REMARK  2 active torsions:
REMARK  status: ('A' for Active; 'I' for Inactive)
REMARK    1  A    between atoms: C_11  and  C_3 
REMARK    2  A    between atoms: C_15  and  N_4 
ROOT
ATOM      1  C   UNL d   1       0.272  -0.621   0.023  0.00  0.00     0.047 A 
ATOM      2  C   UNL d   1       0.242   0.748   0.057  0.00  0.00     0.143 A 
ATOM      3  C   UNL d   1      -0.945  -1.381   0.036  0.00  0.00     0.023 A 
ATOM      4  N   UNL d   1       1.550   1.195   0.015  0.00  0.00    -0.239 N 
ATOM      5  N   UNL d   1      -0.952   1.440   0.033  0.00  0.00    -0.306 N 
ATOM      6  C   UNL d   1      -2.142  -0.738   0.026  0.00  0.00     0.125 A 
ATOM      7  N   UNL d   1       2.405   0.154  -0.159  0.00  0.00    -0.296 N 
ATOM      8  HN  UNL d   1       3.411   0.202  -0.319  1.00  0.00     0.187 HD
ATOM      9  C   UNL d   1      -2.197   0.744   0.011  0.00  0.00     0.268 A 
ATOM     10  C   UNL d   1       1.646  -0.950  -0.074  0.00  0.00     0.037 A 
ATOM     11  C   UNL d   1      -3.402  -1.398   0.012  0.00  0.00     0.106 C 
ATOM     12  N   UNL d   1      -4.423  -1.943  -0.009  0.00  0.00    -0.191 NA
ATOM     13  O   UNL d   1      -3.201   1.427  -0.030  0.00  0.00    -0.266 OA
ATOM     14  C   UNL d   1       2.304  -2.284  -0.132  0.00  0.00     0.070 C 
ATOM     15  H   UNL d   1      -0.985   2.450  -0.037  0.00  0.00     0.170 HD
ENDROOT
BRANCH   3  16
ATOM     16  C   UNL d   1      -0.955  -2.814   0.044  0.00  0.00     0.017 A 
ATOM     17  S   UNL d   1      -0.895  -3.663   1.540  0.00  0.00    -0.101 SA
ATOM     18  C   UNL d   1      -0.946  -5.180   0.759  0.00  0.00     0.050 A 
ATOM     19  C   UNL d   1      -1.007  -5.057  -0.610  0.00  0.00     0.008 A 
ATOM     20  C   UNL d   1      -1.012  -3.693  -1.024  0.00  0.00     0.020 A 
ENDBRANCH   3  16
BRANCH   4  21
ATOM     21  C   UNL d   1       2.003   2.536   0.041  0.00  0.00     0.058 A 
ATOM     22  C   UNL d   1       1.276   3.522   0.723  0.00  0.00     0.031 A 
ATOM     23  C   UNL d   1       1.672   4.858   0.645  0.00  0.00     0.002 A 
ATOM     24  C   UNL d   1       2.791   5.210  -0.107  0.00  0.00     0.000 A 
ATOM     25  C   UNL d   1       3.545   4.225  -0.745  0.00  0.00     0.002 A 
ATOM     26  C   UNL d   1       3.167   2.883  -0.656  0.00  0.00     0.031 A 
ENDBRANCH   4  21
TORSDOF 2
