REMARK  3 active torsions:
REMARK  status: ('A' for Active; 'I' for Inactive)
REMARK    1  A    between atoms: C_9  and  N_1 
REMARK    2  A    between atoms: C_7  and  C_4 
REMARK    3  A    between atoms: C_8  and  C_10 
ROOT
ATOM      1  N   UNL d   1      -0.154  -1.237   0.059  0.00  0.00    -0.180 N 
ATOM      2  N   UNL d   1       1.121  -0.777   0.239  0.00  0.00    -0.266 N 
ATOM      3  HN  UNL d   1       1.962  -1.305   0.471  1.00  0.00     0.190 HD
ATOM      4  C   UNL d   1       0.996   0.494   0.042  0.00  0.00     0.184 A 
ATOM      5  C   UNL d   1      -1.019  -0.206  -0.241  0.00  0.00     0.394 A 
ATOM      6  O   UNL d   1      -0.250   0.933  -0.236  0.00  0.00    -0.240 OA
ATOM      7  O   UNL d   1      -2.214  -0.196  -0.477  0.00  0.00    -0.236 OA
ENDROOT
BRANCH   1   8
ATOM      8  C   UNL d   1      -0.403  -2.621   0.048  0.00  0.00     0.132 A 
ATOM      9  N   UNL d   1      -1.605  -3.091  -0.349  0.00  0.00    -0.350 N 
ATOM     10  C   UNL d   1      -1.774  -4.434  -0.430  0.00  0.00     0.106 A 
ATOM     11  HN  UNL d   1      -2.365  -2.453  -0.583  1.00  0.00     0.166 HD
ATOM     12  C   UNL d   1      -0.795  -5.363  -0.116  0.00  0.00     0.063 A 
ATOM     13  C   UNL d   1       0.431  -4.870   0.327  0.00  0.00     0.021 A 
ATOM     14  C   UNL d   1       0.628  -3.493   0.405  0.00  0.00     0.051 A 
BRANCH  12  15
ATOM     15  C   UNL d   1      -1.038  -6.832  -0.256  0.00  0.00     0.418 C 
ATOM     16  F   UNL d   1      -2.276  -7.142  -0.727  0.00  0.00    -0.166 F 
ATOM     17  F   UNL d   1      -0.156  -7.423  -1.110  0.00  0.00    -0.166 F 
ATOM     18  F   UNL d   1      -0.909  -7.496   0.926  0.00  0.00    -0.166 F 
ENDBRANCH  12  15
ENDBRANCH   1   8
BRANCH   4  19
ATOM     19  C   UNL d   1       2.077   1.467   0.036  0.00  0.00     0.094 A 
ATOM     20  C   UNL d   1       3.343   1.067  -0.393  0.00  0.00     0.134 A 
ATOM     21  F   UNL d   1       3.556  -0.172  -0.859  0.00  0.00    -0.205 F 
ATOM     22  C   UNL d   1       4.421   1.950  -0.367  0.00  0.00     0.043 A 
ATOM     23  C   UNL d   1       4.236   3.252   0.094  0.00  0.00     0.006 A 
ATOM     24  C   UNL d   1       2.971   3.663   0.518  0.00  0.00     0.043 A 
ATOM     25  C   UNL d   1       1.898   2.771   0.485  0.00  0.00     0.134 A 
ATOM     26  F   UNL d   1       0.705   3.189   0.928  0.00  0.00    -0.205 F 
ENDBRANCH   4  19
TORSDOF 3
