REMARK  4 active torsions:
REMARK  status: ('A' for Active; 'I' for Inactive)
REMARK    1  A    between atoms: C_10  and  C_2 
REMARK    2  A    between atoms: C_5  and  C_11 
REMARK       I    between atoms: N_6  and  C_5 
REMARK    3  A    between atoms: C_9  and  N_6 
REMARK    4  A    between atoms: O_18  and  C_13 
ROOT
ATOM      1  C   UNL d   1       2.507  -1.409  -0.258  0.00  0.00    -0.008 A 
ATOM      2  C   UNL d   1       4.986  -2.717  -0.422  0.00  0.00     0.032 A 
ATOM      3  C   UNL d   1       2.727  -2.402  -1.227  0.00  0.00     0.015 A 
ATOM      4  C   UNL d   1       3.552  -1.080   0.626  0.00  0.00     0.015 A 
ATOM      5  C   UNL d   1       3.963  -3.049  -1.315  0.00  0.00     0.018 A 
ATOM      6  C   UNL d   1       4.786  -1.730   0.544  0.00  0.00     0.018 A 
ENDROOT
BRANCH   2   7
ATOM      7  C   UNL d   1       6.291  -3.415  -0.516  0.00  0.00     0.256 C 
ATOM      8  N   UNL d   1       6.768  -3.869   0.697  0.00  0.00    -0.321 N 
ATOM      9  H   UNL d   1       6.121  -3.915   1.472  0.00  0.00     0.169 HD
ATOM     10  O   UNL d   1       6.789  -3.603  -1.618  0.00  0.00    -0.267 OA
BRANCH   8  11
ATOM     11  C   UNL d   1       7.990  -4.546   0.878  0.00  0.00     0.068 A 
ATOM     12  C   UNL d   1       8.102  -5.541   1.861  0.00  0.00     0.095 A 
ATOM     13  C   UNL d   1       9.348  -6.110   2.137  0.00  0.00     0.039 A 
ATOM     14  C   UNL d   1      10.482  -5.704   1.433  0.00  0.00     0.003 A 
ATOM     15  C   UNL d   1      10.371  -4.729   0.445  0.00  0.00     0.002 A 
ATOM     16  C   UNL d   1       9.129  -4.162   0.157  0.00  0.00     0.032 A 
BRANCH  12  17
ATOM     17  O   UNL d   1       7.056  -6.000   2.627  0.00  0.00    -0.354 OA
ATOM     18  C   UNL d   1       5.912  -6.426   1.884  0.00  0.00     0.210 C 
ENDBRANCH  12  17
ENDBRANCH   8  11
ENDBRANCH   2   7
BRANCH   1  19
ATOM     19  C   UNL d   1       1.230  -0.722  -0.128  0.00  0.00     0.063 A 
ATOM     20  N   UNL d   1       0.819  -0.205   1.098  0.00  0.00    -0.292 N 
ATOM     21  N   UNL d   1      -0.360   0.388   1.018  0.00  0.00    -0.061 NA
ATOM     22  HN  UNL d   1       1.363  -0.276   1.958  1.00  0.00     0.183 HD
ATOM     23  S   UNL d   1      -0.997   0.356  -0.527  0.00  0.00    -0.010 SA
ATOM     24  C   UNL d   1       0.346  -0.498  -1.169  0.00  0.00     0.096 A 
ENDBRANCH   1  19
TORSDOF 4
