REMARK  5 active torsions:
REMARK  status: ('A' for Active; 'I' for Inactive)
REMARK    1  A    between atoms: C_2  and  C_1 
REMARK    2  A    between atoms: C_4  and  C_2 
REMARK    3  A    between atoms: O_9  and  C_3 
REMARK    4  A    between atoms: C_10  and  O_9 
REMARK    5  A    between atoms: O_19  and  C_11 
ROOT
ATOM      1  C   UNL d   1       1.227  -0.001   0.058  0.00  0.00     0.080 C 
ATOM      2  C   UNL d   1       0.650   0.165  -1.135  0.00  0.00     0.146 C 
ENDROOT
BRANCH   1   3
ATOM      3  C   UNL d   1       0.384  -0.032   1.284  0.00  0.00     0.183 C 
ATOM      4  O   UNL d   1      -0.828  -0.223   1.237  0.00  0.00    -0.288 OA
BRANCH   3   5
ATOM      5  C   UNL d   1       1.075   0.144   2.591  0.00  0.00     0.014 A 
ATOM      6  C   UNL d   1       2.230   0.926   2.718  0.00  0.00     0.018 A 
ATOM      7  C   UNL d   1       2.873   1.040   3.956  0.00  0.00     0.037 A 
ATOM      8  C   UNL d   1       2.361   0.383   5.074  0.00  0.00     0.068 A 
ATOM      9  C   UNL d   1       1.175  -0.346   4.961  0.00  0.00     0.037 A 
ATOM     10  C   UNL d   1       0.534  -0.470   3.725  0.00  0.00     0.018 A 
BRANCH   8  11
ATOM     11  O   UNL d   1       2.905   0.432   6.328  0.00  0.00    -0.356 OA
ATOM     12  C   UNL d   1       4.324   0.555   6.375  0.00  0.00     0.210 C 
ENDBRANCH   8  11
ENDBRANCH   3   5
ENDBRANCH   1   3
BRANCH   2  13
ATOM     13  O   UNL d   1       1.393   0.224  -2.288  0.00  0.00    -0.323 OA
BRANCH  13  14
ATOM     14  C   UNL d   1       0.953   0.968  -3.359  0.00  0.00     0.074 A 
ATOM     15  C   UNL d   1       1.961   1.438  -4.210  0.00  0.00     0.039 A 
ATOM     16  C   UNL d   1       1.646   2.243  -5.309  0.00  0.00     0.026 A 
ATOM     17  C   UNL d   1       0.316   2.566  -5.565  0.00  0.00     0.034 A 
ATOM     18  C   UNL d   1      -0.697   2.076  -4.745  0.00  0.00     0.026 A 
ATOM     19 CL   UNL d   1      -0.080   3.577  -6.899  0.00  0.00    -0.084 Cl
ATOM     20  C   UNL d   1      -0.380   1.270  -3.646  0.00  0.00     0.039 A 
ENDBRANCH  13  14
ENDBRANCH   2  13
TORSDOF 5
