REMARK  8 active torsions:
REMARK  status: ('A' for Active; 'I' for Inactive)
REMARK    1  A    between atoms: N_2  and  C_1 
REMARK    2  A    between atoms: S_5  and  C_1 
REMARK    3  A    between atoms: C_8  and  N_2 
REMARK    4  A    between atoms: C_4  and  C_7 
REMARK    5  A    between atoms: O_10  and  C_4 
REMARK    6  A    between atoms: C_7  and  S_5 
REMARK    7  A    between atoms: O_15  and  C_9 
REMARK    8  A    between atoms: C_16  and  O_10 
ROOT
ATOM      1  N   UNL d   1       0.512   0.528  -1.048  0.00  0.00    -0.342 N 
ATOM      2  H   UNL d   1      -0.459   0.749  -0.839  0.00  0.00     0.167 HD
ENDROOT
BRANCH   1   3
ATOM      3  C   UNL d   1       1.074  -0.402  -0.204  0.00  0.00     0.139 C 
ATOM      4  S   UNL d   1       2.679  -0.584   0.235  0.00  0.00    -0.053 SA
BRANCH   3   5
ATOM      5  S   UNL d   1      -0.179  -1.456   0.439  0.00  0.00    -0.091 SA
BRANCH   5   6
ATOM      6  C   UNL d   1      -0.356  -0.767   2.106  0.00  0.00     0.192 C 
BRANCH   6   7
ATOM      7  C   UNL d   1      -1.149   0.519   2.095  0.00  0.00     0.268 C 
ATOM      8  O   UNL d   1      -1.365   1.225   1.115  0.00  0.00    -0.264 OA
BRANCH   7   9
ATOM      9  O   UNL d   1      -1.563   0.795   3.366  0.00  0.00    -0.321 OA
BRANCH   9  10
ATOM     10  C   UNL d   1      -2.308   2.008   3.540  0.00  0.00     0.174 C 
ATOM     11  C   UNL d   1      -1.353   3.164   3.769  0.00  0.00     0.034 C 
ENDBRANCH   9  10
ENDBRANCH   7   9
ENDBRANCH   6   7
ENDBRANCH   5   6
ENDBRANCH   3   5
ENDBRANCH   1   3
BRANCH   1  12
ATOM     12  C   UNL d   1       1.113   1.244  -2.104  0.00  0.00     0.033 A 
ATOM     13  C   UNL d   1       2.220   0.764  -2.804  0.00  0.00     0.032 A 
ATOM     14  C   UNL d   1       2.784   1.498  -3.852  0.00  0.00     0.039 A 
ATOM     15  C   UNL d   1       2.245   2.730  -4.208  0.00  0.00     0.068 A 
ATOM     16  C   UNL d   1       1.094   3.184  -3.562  0.00  0.00     0.039 A 
ATOM     17  C   UNL d   1       0.522   2.442  -2.520  0.00  0.00     0.032 A 
BRANCH  15  18
ATOM     18  O   UNL d   1       2.744   3.545  -5.187  0.00  0.00    -0.356 OA
ATOM     19  C   UNL d   1       4.140   3.399  -5.440  0.00  0.00     0.210 C 
ENDBRANCH  15  18
ENDBRANCH   1  12
TORSDOF 8
