REMARK  5 active torsions:
REMARK  status: ('A' for Active; 'I' for Inactive)
REMARK    1  A    between atoms: O_6  and  C_1 
REMARK       I    between atoms: N_7  and  C_1 
REMARK    2  A    between atoms: N_2  and  O_6 
REMARK    3  A    between atoms: C_10  and  C_4 
REMARK    4  A    between atoms: N_17  and  C_4 
REMARK    5  A    between atoms: C_5  and  C_11 
ROOT
ATOM      1  N   UNL d   1      -1.038  -1.081  -0.633  0.00  0.00    -0.244 N 
ATOM      2  HN  UNL d   1      -0.055  -1.301  -0.475  1.00  0.00     0.196 HD
ATOM      3  C   UNL d   1      -1.742  -1.605  -1.591  0.00  0.00     0.109 C 
ENDROOT
BRANCH   3   4
ATOM      4  C   UNL d   1      -1.038  -2.542  -2.527  0.00  0.00     0.004 A 
ATOM      5  C   UNL d   1       0.076  -3.267  -2.091  0.00  0.00     0.015 A 
ATOM      6  C   UNL d   1       0.759  -4.114  -2.972  0.00  0.00     0.010 A 
ATOM      7  C   UNL d   1       0.354  -4.243  -4.312  0.00  0.00    -0.035 A 
ATOM      8  C   UNL d   1      -0.773  -3.514  -4.736  0.00  0.00     0.010 A 
ATOM      9  C   UNL d   1      -1.462  -2.672  -3.853  0.00  0.00     0.015 A 
BRANCH   7  10
ATOM     10  C   UNL d   1       1.147  -5.125  -5.260  0.00  0.00     0.141 C 
ATOM     11  S   UNL d   1       1.894  -4.170  -6.625  0.00  0.00    -0.148 SA
ATOM     12  C   UNL d   1       1.624  -5.405  -7.917  0.00  0.00     0.085 C 
ATOM     13  C   UNL d   1       0.265  -6.029  -7.677  0.00  0.00     0.085 C 
ATOM     14  S   UNL d   1       0.158  -6.504  -5.932  0.00  0.00    -0.148 SA
ENDBRANCH   7  10
ENDBRANCH   3   4
BRANCH   3  15
ATOM     15  N   UNL d   1      -3.082  -1.359  -1.783  0.00  0.00    -0.286 NA
ATOM     16  H   UNL d   1      -3.513  -0.946  -0.964  0.00  0.00     0.125 HD
ATOM     17  H   UNL d   1      -3.613  -2.145  -2.142  0.00  0.00     0.125 HD
ENDBRANCH   3  15
BRANCH   1  18
ATOM     18  O   UNL d   1      -1.771  -0.173   0.170  0.00  0.00    -0.180 OA
BRANCH  18  19
ATOM     19  C   UNL d   1      -0.929   0.347   1.141  0.00  0.00     0.384 C 
ATOM     20  N   UNL d   1      -1.522   1.322   1.946  0.00  0.00    -0.335 N 
ATOM     21  C   UNL d   1      -0.728   1.946   2.990  0.00  0.00     0.154 C 
ATOM     22  C   UNL d   1      -2.885   1.795   1.797  0.00  0.00     0.154 C 
ATOM     23  O   UNL d   1       0.237  -0.006   1.304  0.00  0.00    -0.236 OA
ENDBRANCH  18  19
ENDBRANCH   1  18
TORSDOF 5
