REMARK  5 active torsions:
REMARK  status: ('A' for Active; 'I' for Inactive)
REMARK    1  A    between atoms: C_5  and  C_1 
REMARK    2  A    between atoms: C_8  and  C_2 
REMARK    3  A    between atoms: O_12  and  C_5 
REMARK    4  A    between atoms: C_17  and  O_12 
REMARK    5  A    between atoms: O_16  and  C_13 
ROOT
ATOM      1  C   UNL d   1      -0.830  -1.067   0.128  0.00  0.00     0.144 A 
ATOM      2  C   UNL d   1       0.555  -1.116   0.095  0.00  0.00     0.119 A 
ATOM      3  N   UNL d   1      -1.244   0.257   0.103  0.00  0.00    -0.340 N 
ATOM      4  HN  UNL d   1      -2.197   0.621   0.088  1.00  0.00     0.167 HD
ATOM      5  C   UNL d   1      -0.116   0.930   0.104  0.00  0.00     0.234 A 
ATOM      6  O   UNL d   1       1.015   0.175   0.107  0.00  0.00    -0.303 OA
ENDROOT
BRANCH   2   7
ATOM      7  C   UNL d   1       1.552  -2.173  -0.006  0.00  0.00     0.000 A 
ATOM      8  C   UNL d   1       1.279  -3.330  -0.749  0.00  0.00     0.017 A 
ATOM      9  C   UNL d   1       2.167  -4.408  -0.772  0.00  0.00     0.037 A 
ATOM     10  C   UNL d   1       3.361  -4.335  -0.065  0.00  0.00     0.068 A 
ATOM     11  C   UNL d   1       3.683  -3.157   0.613  0.00  0.00     0.037 A 
ATOM     12  C   UNL d   1       2.783  -2.084   0.649  0.00  0.00     0.017 A 
BRANCH  10  13
ATOM     13  O   UNL d   1       4.290  -5.337  -0.003  0.00  0.00    -0.356 OA
ATOM     14  C   UNL d   1       3.756  -6.657  -0.085  0.00  0.00     0.210 C 
ENDBRANCH  10  13
ENDBRANCH   2   7
BRANCH   1  15
ATOM     15  C   UNL d   1      -1.713  -2.220   0.122  0.00  0.00     0.312 C 
ATOM     16  O   UNL d   1      -1.416  -3.305   0.619  0.00  0.00    -0.258 OA
BRANCH  15  17
ATOM     17  O   UNL d   1      -2.827  -2.011  -0.636  0.00  0.00    -0.317 OA
BRANCH  17  18
ATOM     18  C   UNL d   1      -3.422  -3.203  -1.167  0.00  0.00     0.175 C 
ATOM     19  C   UNL d   1      -2.767  -3.503  -2.506  0.00  0.00     0.034 C 
ENDBRANCH  17  18
ENDBRANCH  15  17
ENDBRANCH   1  15
TORSDOF 5
