REMARK  4 active torsions:
REMARK  status: ('A' for Active; 'I' for Inactive)
REMARK    1  A    between atoms: C_20  and  N_2 
REMARK    2  A    between atoms: N_7  and  C_6 
REMARK    3  A    between atoms: C_19  and  N_10 
REMARK    4  A    between atoms: C_21  and  C_20 
ROOT
ATOM      1  C   UNL d   1      -0.789  -0.729   1.079  0.00  0.00     0.090 A 
ATOM      2  N   UNL d   1      -0.666   1.370   2.104  0.00  0.00    -0.314 N 
ATOM      3  C   UNL d   1      -0.733   0.587   3.251  0.00  0.00     0.147 A 
ATOM      4  C   UNL d   1      -0.694   0.639   0.890  0.00  0.00     0.131 A 
ATOM      5  S   UNL d   1      -0.863  -1.125   2.797  0.00  0.00    -0.053 SA
ATOM      6  C   UNL d   1      -0.880  -1.526  -0.050  0.00  0.00     0.104 A 
ATOM      7  N   UNL d   1      -0.652   1.230  -0.311  0.00  0.00    -0.337 N 
ATOM      8  HN  UNL d   1      -0.561   2.239  -0.428  1.00  0.00     0.168 HD
ATOM      9  N   UNL d   1      -0.857  -0.955  -1.274  0.00  0.00    -0.342 N 
ATOM     10  HN  UNL d   1      -0.926  -1.521  -2.120  1.00  0.00     0.167 HD
ATOM     11  S   UNL d   1      -0.693   1.078   4.844  0.00  0.00    -0.052 SA
ATOM     12  C   UNL d   1      -0.739   0.384  -1.343  0.00  0.00     0.183 A 
ENDROOT
BRANCH   6  13
ATOM     13  N   UNL d   1      -1.098  -2.911   0.052  0.00  0.00    -0.265 NA
ATOM     14  C   UNL d   1      -1.729  -3.507  -1.151  0.00  0.00     0.116 C 
ATOM     15  C   UNL d   1      -2.166  -4.957  -0.845  0.00  0.00     0.138 C 
ATOM     16  N   UNL d   1      -1.022  -5.767  -0.379  0.00  0.00    -0.379 N 
ATOM     17  C   UNL d   1      -0.302  -5.166   0.767  0.00  0.00     0.138 C 
ATOM     18  C   UNL d   1       0.094  -3.692   0.468  0.00  0.00     0.116 C 
BRANCH  16  19
ATOM     19  C   UNL d   1      -0.520  -6.847  -1.080  0.00  0.00     0.030 A 
ATOM     20  C   UNL d   1       0.246  -7.843  -0.449  0.00  0.00     0.029 A 
ATOM     21  C   UNL d   1       0.754  -8.950  -1.143  0.00  0.00     0.002 A 
ATOM     22  C   UNL d   1       0.498  -9.100  -2.499  0.00  0.00     0.000 A 
ATOM     23  C   UNL d   1      -0.264  -8.142  -3.154  0.00  0.00     0.002 A 
ATOM     24  C   UNL d   1      -0.763  -7.036  -2.450  0.00  0.00     0.029 A 
ENDBRANCH  16  19
ENDBRANCH   6  13
BRANCH   2  25
ATOM     25  C   UNL d   1      -0.535   2.821   2.075  0.00  0.00     0.158 C 
BRANCH  25  26
ATOM     26  C   UNL d   1      -1.847   3.553   2.193  0.00  0.00    -0.017 C 
ATOM     27  C   UNL d   1      -3.095   3.061   2.202  0.00  0.00     0.008 C 
ENDBRANCH  25  26
ENDBRANCH   2  25
TORSDOF 4
