REMARK  8 active torsions:
REMARK  status: ('A' for Active; 'I' for Inactive)
REMARK    1  A    between atoms: O_5  and  C_1 
REMARK       I    between atoms: C_2  and  N_3 
REMARK    2  A    between atoms: C_18  and  C_2 
REMARK    3  A    between atoms: N_3  and  C_8 
REMARK    4  A    between atoms: C_4  and  C_19 
REMARK    5  A    between atoms: O_13  and  C_4 
REMARK    6  A    between atoms: C_9  and  O_5 
REMARK    7  A    between atoms: O_12  and  C_18 
REMARK    8  A    between atoms: C_19  and  O_12 
ROOT
ATOM      1  C   UNL d   1       3.415  -6.773   0.175  0.00  0.00     0.245 C 
ATOM      2  N   UNL d   1       2.150  -6.298   0.475  0.00  0.00    -0.325 N 
ATOM      3  O   UNL d   1       4.437  -6.107   0.053  0.00  0.00    -0.271 OA
ATOM      4  H   UNL d   1       1.432  -6.999   0.603  0.00  0.00     0.169 HD
ENDROOT
BRANCH   2   5
ATOM      5  C   UNL d   1       1.758  -4.953   0.622  0.00  0.00     0.035 A 
ATOM      6  C   UNL d   1       2.597  -3.871   0.354  0.00  0.00     0.032 A 
ATOM      7  C   UNL d   1       2.146  -2.555   0.517  0.00  0.00     0.039 A 
ATOM      8  C   UNL d   1       0.852  -2.308   0.970  0.00  0.00     0.075 A 
ATOM      9  C   UNL d   1       0.002  -3.387   1.214  0.00  0.00     0.039 A 
ATOM     10  C   UNL d   1       0.449  -4.700   1.043  0.00  0.00     0.032 A 
BRANCH   8  11
ATOM     11  O   UNL d   1       0.307  -1.074   1.186  0.00  0.00    -0.290 OA
BRANCH  11  12
ATOM     12  C   UNL d   1       1.233  -0.014   1.356  0.00  0.00     0.505 C 
ATOM     13  F   UNL d   1       1.691   0.374   0.141  0.00  0.00    -0.184 F 
ATOM     14  F   UNL d   1       0.550   1.042   1.869  0.00  0.00    -0.184 F 
ENDBRANCH  11  12
ENDBRANCH   8  11
ENDBRANCH   2   5
BRANCH   1  15
ATOM     15  C   UNL d   1       3.466  -8.299   0.079  0.00  0.00     0.271 C 
BRANCH  15  16
ATOM     16  O   UNL d   1       2.375  -8.836  -0.676  0.00  0.00    -0.372 OA
BRANCH  16  17
ATOM     17  C   UNL d   1       2.612 -10.209  -1.010  0.00  0.00     0.277 C 
BRANCH  17  18
ATOM     18  C   UNL d   1       2.241 -11.108   0.158  0.00  0.00     0.164 C 
ATOM     19  O   UNL d   1       2.893 -12.067   0.537  0.00  0.00    -0.648 OA
BRANCH  18  20
ATOM     20  O   UNL d   1       1.082 -10.716   0.745  0.00  0.00    -0.775 OA
ATOM     21  H   UNL d   1       0.728  -9.921   0.294  0.00  0.00     0.167 HD
ENDBRANCH  18  20
ENDBRANCH  17  18
ENDBRANCH  16  17
ENDBRANCH  15  16
ENDBRANCH   1  15
TORSDOF 8
