REMARK  6 active torsions:
REMARK  status: ('A' for Active; 'I' for Inactive)
REMARK    1  A    between atoms: C_6  and  N_1 
REMARK    2  A    between atoms: C_9  and  C_4 
REMARK       I    between atoms: C_8  and  N_12 
REMARK       I    between atoms: N_13  and  C_8 
REMARK    3  A    between atoms: O_22  and  C_9 
REMARK    4  A    between atoms: N_12  and  C_10 
REMARK    5  A    between atoms: C_14  and  N_13 
REMARK    6  A    between atoms: C_30  and  O_22 
ROOT
ATOM      1  C   UNL d   1      -0.724  -2.328   0.067  0.00  0.00     0.154 C 
ATOM      2  C   UNL d   1      -0.270  -3.252   1.022  0.00  0.00     0.082 C 
ATOM      3  N   UNL d   1      -1.592  -2.674  -0.928  0.00  0.00    -0.349 N 
ATOM      4  HN  UNL d   1      -1.861  -2.000  -1.646  1.00  0.00     0.167 HD
ATOM      5  C   UNL d   1      -0.906  -4.498   1.047  0.00  0.00     0.035 C 
ATOM      6  C   UNL d   1      -2.084  -3.926  -0.938  0.00  0.00     0.090 C 
ATOM      7  C   UNL d   1      -1.816  -4.847   0.050  0.00  0.00     0.019 C 
ENDROOT
BRANCH   2   8
ATOM      8  N   UNL d   1       0.696  -2.903   1.986  0.00  0.00    -0.305 N 
ATOM      9  C   UNL d   1       1.760  -3.584   2.497  0.00  0.00     0.325 C 
ATOM     10  N   UNL d   1       1.987  -4.863   2.058  0.00  0.00    -0.307 N 
ATOM     11  O   UNL d   1       2.500  -2.981   3.276  0.00  0.00    -0.247 OA
ATOM     12  H   UNL d   1       1.177  -5.403   1.806  0.00  0.00     0.170 HD
ATOM     13  H   UNL d   1       0.882  -1.899   2.070  0.00  0.00     0.171 HD
BRANCH  10  14
ATOM     14  C   UNL d   1       3.093  -5.628   2.506  0.00  0.00     0.059 A 
ATOM     15  C   UNL d   1       2.913  -6.976   2.859  0.00  0.00     0.082 A 
ATOM     16  C   UNL d   1       3.970  -7.677   3.454  0.00  0.00     0.058 A 
ATOM     17 CL   UNL d   1       1.358  -7.716   2.619  0.00  0.00    -0.080 Cl
ATOM     18 CL   UNL d   1       3.794  -9.291   4.048  0.00  0.00    -0.082 Cl
ATOM     19  C   UNL d   1       5.215  -7.061   3.625  0.00  0.00     0.026 A 
ATOM     20  C   UNL d   1       5.417  -5.755   3.186  0.00  0.00     0.004 A 
ATOM     21  C   UNL d   1       4.358  -5.041   2.631  0.00  0.00     0.031 A 
ENDBRANCH  10  14
ENDBRANCH   2   8
BRANCH   1  22
ATOM     22  N   UNL d   1      -0.310  -0.946   0.112  0.00  0.00    -0.241 N 
ATOM     23  N   UNL d   1       0.773  -0.548   0.839  0.00  0.00    -0.296 N 
ATOM     24  C   UNL d   1       0.943   0.742   0.536  0.00  0.00     0.041 C 
ATOM     25  HN  UNL d   1       1.332  -1.113   1.477  1.00  0.00     0.187 HD
ATOM     26  C   UNL d   1       2.156   1.454   1.028  0.00  0.00     0.071 C 
ATOM     27  C   UNL d   1      -0.120   1.246  -0.256  0.00  0.00     0.087 C 
ATOM     28  C   UNL d   1      -0.929   0.142  -0.492  0.00  0.00     0.050 C 
ATOM     29  C   UNL d   1      -2.232   0.034  -1.206  0.00  0.00     0.071 C 
BRANCH  27  30
ATOM     30  C   UNL d   1      -0.327   2.596  -0.766  0.00  0.00     0.297 C 
ATOM     31  O   UNL d   1      -1.194   2.890  -1.573  0.00  0.00    -0.259 OA
BRANCH  30  32
ATOM     32  O   UNL d   1       0.602   3.476  -0.296  0.00  0.00    -0.318 OA
BRANCH  32  33
ATOM     33  C   UNL d   1       0.715   4.692  -1.044  0.00  0.00     0.174 C 
ATOM     34  C   UNL d   1       1.626   4.437  -2.236  0.00  0.00     0.034 C 
ENDBRANCH  32  33
ENDBRANCH  30  32
ENDBRANCH  27  30
ENDBRANCH   1  22
TORSDOF 6
