REMARK  10 active torsions:
REMARK  status: ('A' for Active; 'I' for Inactive)
REMARK    1  A    between atoms: C_7  and  C_1 
REMARK    2  A    between atoms: C_2  and  C_13 
REMARK    3  A    between atoms: C_3  and  C_14 
REMARK    4  A    between atoms: N_8  and  N_4 
REMARK       I    between atoms: C_6  and  N_8 
REMARK    5  A    between atoms: O_24  and  C_6 
REMARK    6  A    between atoms: O_11  and  C_9 
REMARK    7  A    between atoms: C_13  and  O_11 
REMARK    8  A    between atoms: C_14  and  O_23 
REMARK    9  A    between atoms: O_23  and  C_22 
REMARK   10  A    between atoms: C_27  and  O_24 
ROOT
ATOM      1  C   UNL d   1       3.257  -1.738   0.257  0.00  0.00     0.024 A 
ATOM      2  C   UNL d   1       2.334  -2.793   0.297  0.00  0.00     0.081 A 
ATOM      3  C   UNL d   1       4.632  -2.052   0.224  0.00  0.00     0.053 A 
ATOM      4  C   UNL d   1       2.814  -4.116   0.271  0.00  0.00     0.040 A 
ATOM      5  C   UNL d   1       5.095  -3.365   0.268  0.00  0.00     0.070 A 
ATOM      6  C   UNL d   1       4.186  -4.408   0.266  0.00  0.00     0.039 A 
ENDROOT
BRANCH   1   7
ATOM      7  C   UNL d   1       2.909  -0.286   0.198  0.00  0.00     0.035 C 
ATOM      8  N   UNL d   1       1.928   0.116  -0.553  0.00  0.00    -0.300 N 
ATOM      9  HN  UNL d   1       1.391  -0.543  -1.116  1.00  0.00     0.186 HD
ATOM     10  C   UNL d   1       3.842   0.658   0.954  0.00  0.00     0.070 C 
BRANCH   8  11
ATOM     11  N   UNL d   1       1.640   1.451  -0.563  0.00  0.00    -0.245 N 
ATOM     12  C   UNL d   1       1.088   2.078  -1.645  0.00  0.00     0.379 C 
ATOM     13  O   UNL d   1       0.667   1.564  -2.670  0.00  0.00    -0.237 OA
ATOM     14  H   UNL d   1       2.025   2.078   0.128  0.00  0.00     0.192 HD
BRANCH  12  15
ATOM     15  O   UNL d   1       1.169   3.420  -1.423  0.00  0.00    -0.303 OA
BRANCH  15  16
ATOM     16  C   UNL d   1       0.977   4.258  -2.570  0.00  0.00     0.176 C 
ATOM     17  C   UNL d   1       2.312   4.440  -3.271  0.00  0.00     0.034 C 
ENDBRANCH  15  16
ENDBRANCH  12  15
ENDBRANCH   8  11
ENDBRANCH   1   7
BRANCH   2  18
ATOM     18  O   UNL d   1       0.972  -2.751   0.305  0.00  0.00    -0.342 OA
BRANCH  18  19
ATOM     19  C   UNL d   1       0.268  -1.863   1.180  0.00  0.00     0.293 C 
BRANCH  19  20
ATOM     20  C   UNL d   1       0.739  -1.720   2.624  0.00  0.00     0.408 C 
ATOM     21  F   UNL d   1       1.640  -2.652   2.998  0.00  0.00    -0.169 F 
ATOM     22  F   UNL d   1       1.300  -0.505   2.836  0.00  0.00    -0.169 F 
ATOM     23  F   UNL d   1      -0.310  -1.824   3.479  0.00  0.00    -0.169 F 
ENDBRANCH  19  20
ENDBRANCH  18  19
ENDBRANCH   2  18
BRANCH   5  24
ATOM     24  O   UNL d   1       6.456  -3.493   0.284  0.00  0.00    -0.342 OA
BRANCH  24  25
ATOM     25  C   UNL d   1       6.980  -4.719   0.812  0.00  0.00     0.293 C 
BRANCH  25  26
ATOM     26  C   UNL d   1       8.421  -4.546   1.288  0.00  0.00     0.408 C 
ATOM     27  F   UNL d   1       8.909  -3.308   1.056  0.00  0.00    -0.169 F 
ATOM     28  F   UNL d   1       8.516  -4.775   2.619  0.00  0.00    -0.169 F 
ATOM     29  F   UNL d   1       9.242  -5.428   0.671  0.00  0.00    -0.169 F 
ENDBRANCH  25  26
ENDBRANCH  24  25
ENDBRANCH   5  24
TORSDOF 10
