REMARK  9 active torsions:
REMARK  status: ('A' for Active; 'I' for Inactive)
REMARK    1  A    between atoms: N_2  and  S_1 
REMARK    2  A    between atoms: C_6  and  S_1 
REMARK    3  A    between atoms: C_3  and  N_2 
REMARK    4  A    between atoms: C_3  and  C_11 
REMARK    5  A    between atoms: C_3  and  C_5 
REMARK    6  A    between atoms: C_4  and  O_9 
REMARK    7  A    between atoms: O_18  and  C_5 
REMARK    8  A    between atoms: O_9  and  C_17 
REMARK    9  A    between atoms: C_23  and  O_18 
ROOT
ATOM      1  S   UNL d   1       2.884   2.605  -2.939  0.00  0.00     0.259 S 
ATOM      2  O   UNL d   1       4.119   3.358  -2.893  0.00  0.00    -0.201 OA
ATOM      3  O   UNL d   1       1.797   3.017  -3.801  0.00  0.00    -0.201 OA
ENDROOT
BRANCH   1   4
ATOM      4  N   UNL d   1       2.340   2.566  -1.355  0.00  0.00    -0.301 N 
ATOM      5  H   UNL d   1       2.930   3.104  -0.717  0.00  0.00     0.173 HD
BRANCH   4   6
ATOM      6  C   UNL d   1       0.911   2.372  -0.972  0.00  0.00     0.196 C 
BRANCH   6   7
ATOM      7  C   UNL d   1      -0.008   3.503  -1.529  0.00  0.00     0.010 C 
ATOM      8  C   UNL d   1      -1.390   3.580  -0.856  0.00  0.00     0.012 C 
ATOM      9  C   UNL d   1       0.622   4.899  -1.381  0.00  0.00     0.012 C 
ENDBRANCH   6   7
BRANCH   6  10
ATOM     10  C   UNL d   1       0.501   0.929  -1.306  0.00  0.00     0.282 C 
ATOM     11  O   UNL d   1       1.290   0.005  -1.467  0.00  0.00    -0.263 OA
BRANCH  10  12
ATOM     12  O   UNL d   1      -0.846   0.775  -1.335  0.00  0.00    -0.320 OA
BRANCH  12  13
ATOM     13  C   UNL d   1      -1.330  -0.456  -1.886  0.00  0.00     0.174 C 
ATOM     14  C   UNL d   1      -1.431  -0.288  -3.390  0.00  0.00     0.034 C 
ENDBRANCH  12  13
ENDBRANCH  10  12
ENDBRANCH   6  10
ENDBRANCH   4   6
ENDBRANCH   1   4
BRANCH   1  15
ATOM     15  C   UNL d   1       3.322   0.945  -3.376  0.00  0.00     0.079 A 
ATOM     16  C   UNL d   1       2.631   0.282  -4.401  0.00  0.00     0.028 A 
ATOM     17  C   UNL d   1       3.073  -0.973  -4.844  0.00  0.00     0.038 A 
ATOM     18  C   UNL d   1       4.223  -1.540  -4.294  0.00  0.00     0.078 A 
ATOM     19  C   UNL d   1       4.882  -0.884  -3.246  0.00  0.00     0.038 A 
ATOM     20  C   UNL d   1       4.443   0.361  -2.792  0.00  0.00     0.028 A 
BRANCH  18  21
ATOM     21  O   UNL d   1       4.812  -2.708  -4.679  0.00  0.00    -0.255 OA
BRANCH  21  22
ATOM     22  C   UNL d   1       4.525  -3.221  -5.968  0.00  0.00     0.530 C 
ATOM     23  F   UNL d   1       4.336  -2.253  -6.891  0.00  0.00    -0.144 F 
ATOM     24  F   UNL d   1       5.578  -3.971  -6.372  0.00  0.00    -0.144 F 
ATOM     25  F   UNL d   1       3.435  -4.015  -5.924  0.00  0.00    -0.144 F 
ENDBRANCH  21  22
ENDBRANCH  18  21
ENDBRANCH   1  15
TORSDOF 9
