REMARK  3 active torsions:
REMARK  status: ('A' for Active; 'I' for Inactive)
REMARK    1  A    between atoms: N_2  and  S_1 
REMARK    2  A    between atoms: C_3  and  S_1 
REMARK    3  A    between atoms: C_15  and  C_5 
ROOT
ATOM      1  N   UNL d   1       0.420   1.356   0.923  0.00  0.00    -0.303 N 
ATOM      2  C   UNL d   1      -0.633   3.869   1.836  0.00  0.00    -0.049 C 
ATOM      3  C   UNL d   1       0.605   3.812   1.326  0.00  0.00     0.001 C 
ATOM      4  C   UNL d   1       1.294   2.546   0.919  0.00  0.00     0.163 C 
ATOM      5  C   UNL d   1      -1.046   1.552   1.014  0.00  0.00     0.140 C 
ATOM      6  C   UNL d   1      -1.440   2.623   2.029  0.00  0.00     0.060 C 
ENDROOT
BRANCH   1   7
ATOM      7  S   UNL d   1       0.949   0.055  -0.038  0.00  0.00     0.261 S 
ATOM      8  O   UNL d   1       0.266  -1.139   0.416  0.00  0.00    -0.200 OA
ATOM      9  O   UNL d   1       2.394   0.104  -0.120  0.00  0.00    -0.200 OA
BRANCH   7  10
ATOM     10  C   UNL d   1       0.306   0.425  -1.662  0.00  0.00     0.082 A 
ATOM     11  C   UNL d   1      -0.931  -0.101  -2.042  0.00  0.00     0.068 A 
ATOM     12  C   UNL d   1      -1.414   0.150  -3.322  0.00  0.00     0.123 A 
ATOM     13  F   UNL d   1      -2.613  -0.344  -3.669  0.00  0.00    -0.206 F 
ATOM     14  C   UNL d   1      -0.681   0.902  -4.244  0.00  0.00    -0.023 A 
ATOM     15  C   UNL d   1       0.573   1.400  -3.861  0.00  0.00     0.011 A 
ATOM     16  C   UNL d   1      -1.234   1.147  -5.612  0.00  0.00     0.051 C 
ATOM     17  C   UNL d   1       1.072   1.159  -2.576  0.00  0.00     0.026 A 
ENDBRANCH   7  10
ENDBRANCH   1   7
BRANCH   2  18
ATOM     18  C   UNL d   1      -1.233   5.144   2.239  0.00  0.00    -0.030 A 
ATOM     19  C   UNL d   1      -1.893   5.950   1.304  0.00  0.00     0.012 A 
ATOM     20  C   UNL d   1      -2.515   7.133   1.711  0.00  0.00     0.001 A 
ATOM     21  C   UNL d   1      -2.469   7.520   3.050  0.00  0.00     0.000 A 
ATOM     22  C   UNL d   1      -1.786   6.737   3.979  0.00  0.00     0.001 A 
ATOM     23  C   UNL d   1      -1.166   5.554   3.575  0.00  0.00     0.012 A 
ENDBRANCH   2  18
TORSDOF 3
