REMARK  7 active torsions:
REMARK  status: ('A' for Active; 'I' for Inactive)
REMARK    1  A    between atoms: C_13  and  N_2 
REMARK    2  A    between atoms: C_23  and  C_6 
REMARK    3  A    between atoms: C_21  and  C_7 
REMARK    4  A    between atoms: C_24  and  N_8 
REMARK    5  A    between atoms: C_11  and  C_22 
REMARK    6  A    between atoms: C_16  and  C_13 
REMARK       I    between atoms: N_25  and  C_16 
REMARK    7  A    between atoms: N_18  and  N_25 
ROOT
ATOM      1  C   UNL d   1      -0.424   1.433  -0.795  0.00  0.00     0.127 C 
ATOM      2  N   UNL d   1      -1.044  -0.777  -0.069  0.00  0.00    -0.247 N 
ATOM      3  N   UNL d   1       0.248  -1.047   0.368  0.00  0.00    -0.294 N 
ATOM      4  HN  UNL d   1       0.501  -1.955   0.758  1.00  0.00     0.187 HD
ATOM      5  C   UNL d   1      -1.253   0.231  -1.005  0.00  0.00     0.284 C 
ATOM      6  C   UNL d   1       0.751   1.315  -0.158  0.00  0.00     0.029 C 
ATOM      7  C   UNL d   1       1.122  -0.084   0.257  0.00  0.00     0.071 C 
ATOM      8  C   UNL d   1      -0.953   2.670  -1.255  0.00  0.00     0.106 C 
ATOM      9  N   UNL d   1      -1.354   3.693  -1.616  0.00  0.00    -0.191 NA
ATOM     10  O   UNL d   1      -2.111   0.181  -1.881  0.00  0.00    -0.265 OA
ENDROOT
BRANCH   6  11
ATOM     11  C   UNL d   1       1.579   2.497   0.158  0.00  0.00    -0.022 A 
ATOM     12  C   UNL d   1       1.706   2.943   1.480  0.00  0.00     0.012 A 
ATOM     13  C   UNL d   1       2.523   4.037   1.774  0.00  0.00     0.001 A 
ATOM     14  C   UNL d   1       3.223   4.684   0.755  0.00  0.00     0.000 A 
ATOM     15  C   UNL d   1       3.090   4.256  -0.563  0.00  0.00     0.001 A 
ATOM     16  C   UNL d   1       2.259   3.179  -0.863  0.00  0.00     0.012 A 
ENDBRANCH   6  11
BRANCH   2  17
ATOM     17  C   UNL d   1      -2.009  -1.880  -0.050  0.00  0.00     0.257 C 
BRANCH  17  18
ATOM     18  C   UNL d   1      -3.410  -1.343   0.323  0.00  0.00     0.256 C 
ATOM     19  N   UNL d   1      -4.231  -1.155  -0.795  0.00  0.00    -0.269 N 
ATOM     20  H   UNL d   1      -3.736  -1.095  -1.688  0.00  0.00     0.190 HD
ATOM     21  O   UNL d   1      -3.698  -1.036   1.478  0.00  0.00    -0.270 OA
BRANCH  19  22
ATOM     22  N   UNL d   1      -5.392  -0.412  -0.842  0.00  0.00    -0.308 N 
ATOM     23  C   UNL d   1      -6.095  -0.201   0.221  0.00  0.00     0.122 C 
ATOM     24  HN  UNL d   1      -5.702  -0.023  -1.732  1.00  0.00     0.186 HD
BRANCH  23  25
ATOM     25  C   UNL d   1      -7.191   0.742   0.123  0.00  0.00     0.022 C 
ATOM     26  C   UNL d   1      -7.835   1.172  -1.021  0.00  0.00     0.131 C 
ATOM     27  N   UNL d   1      -8.605   2.258  -0.665  0.00  0.00    -0.267 N 
ATOM     28  N   UNL d   1      -8.688   2.370   0.686  0.00  0.00    -0.298 N 
ATOM     29  C   UNL d   1      -7.777   1.511   1.156  0.00  0.00     0.035 C 
ATOM     30  HN  UNL d   1      -9.309   2.975   1.224  1.00  0.00     0.187 HD
ATOM     31  C   UNL d   1      -7.424   1.522   2.598  0.00  0.00     0.070 C 
BRANCH  27  32
ATOM     32  C   UNL d   1      -9.157   3.258  -1.518  0.00  0.00     0.056 A 
ATOM     33  C   UNL d   1      -9.023   3.180  -2.911  0.00  0.00     0.031 A 
ATOM     34  C   UNL d   1      -9.430   4.250  -3.714  0.00  0.00     0.002 A 
ATOM     35  C   UNL d   1      -9.977   5.395  -3.137  0.00  0.00     0.000 A 
ATOM     36  C   UNL d   1     -10.148   5.464  -1.756  0.00  0.00     0.002 A 
ATOM     37  C   UNL d   1      -9.749   4.397  -0.948  0.00  0.00     0.031 A 
ENDBRANCH  27  32
ENDBRANCH  23  25
ENDBRANCH  19  22
ENDBRANCH  17  18
ENDBRANCH   2  17
BRANCH   7  38
ATOM     38  C   UNL d   1       2.568  -0.353   0.553  0.00  0.00    -0.007 A 
ATOM     39  C   UNL d   1       3.579   0.188  -0.256  0.00  0.00     0.014 A 
ATOM     40  C   UNL d   1       4.924   0.054   0.092  0.00  0.00     0.001 A 
ATOM     41  C   UNL d   1       5.275  -0.692   1.212  0.00  0.00     0.000 A 
ATOM     42  C   UNL d   1       4.282  -1.319   1.966  0.00  0.00     0.001 A 
ATOM     43  C   UNL d   1       2.929  -1.152   1.642  0.00  0.00     0.014 A 
ENDBRANCH   7  38
TORSDOF 7
