REMARK  3 active torsions:
REMARK  status: ('A' for Active; 'I' for Inactive)
REMARK    1  A    between atoms: N_8  and  N_1 
REMARK    2  A    between atoms: S_10  and  C_2 
REMARK    3  A    between atoms: C_11  and  C_7 
ROOT
ATOM      1  N   UNL d   1       1.450  -1.063  -0.167  0.00  0.00    -0.216 N 
ATOM      2  C   UNL d   1       0.128  -1.389  -0.026  0.00  0.00     0.165 A 
ATOM      3  C   UNL d   1       1.558   0.305  -0.135  0.00  0.00     0.291 A 
ATOM      4  C   UNL d   1       0.132   0.721   0.020  0.00  0.00     0.105 A 
ATOM      5  N   UNL d   1      -0.686  -0.385   0.103  0.00  0.00    -0.331 N 
ATOM      6  HN  UNL d   1      -1.697  -0.410   0.236  1.00  0.00     0.168 HD
ATOM      7  C   UNL d   1      -0.238   2.006   0.002  0.00  0.00     0.046 C 
ATOM      8  O   UNL d   1       2.527   1.039  -0.237  0.00  0.00    -0.264 OA
ENDROOT
BRANCH   7   9
ATOM      9  C   UNL d   1      -1.633   2.441   0.071  0.00  0.00    -0.032 A 
ATOM     10  C   UNL d   1      -2.371   2.615  -1.105  0.00  0.00     0.035 A 
ATOM     11  C   UNL d   1      -3.695   3.048  -1.035  0.00  0.00     0.034 A 
ATOM     12 CL   UNL d   1      -4.599   3.269  -2.482  0.00  0.00    -0.084 Cl
ATOM     13  C   UNL d   1      -4.291   3.308   0.198  0.00  0.00     0.024 A 
ATOM     14  C   UNL d   1      -3.561   3.125   1.373  0.00  0.00     0.003 A 
ATOM     15  C   UNL d   1      -2.235   2.690   1.309  0.00  0.00     0.011 A 
ENDBRANCH   7   9
BRANCH   1  16
ATOM     16  N   UNL d   1       2.518  -1.958  -0.428  0.00  0.00    -0.228 NA
ATOM     17  C   UNL d   1       3.148  -1.687  -1.725  0.00  0.00     0.136 C 
ATOM     18  C   UNL d   1       3.528  -1.931   0.633  0.00  0.00     0.136 C 
ENDBRANCH   1  16
BRANCH   2  19
ATOM     19  S   UNL d   1      -0.404  -3.041  -0.041  0.00  0.00    -0.097 SA
ATOM     20  C   UNL d   1      -2.178  -2.838   0.265  0.00  0.00     0.099 C 
ENDBRANCH   2  19
TORSDOF 3
