REMARK  2 active torsions:
REMARK  status: ('A' for Active; 'I' for Inactive)
REMARK    1  A    between atoms: C_6  and  C_1 
REMARK       I    between atoms: N_8  and  C_6 
REMARK    2  A    between atoms: C_12  and  N_8 
ROOT
ATOM      1  C   UNL d   1      -3.174  -1.946   0.230  0.00  0.00     0.263 C 
ATOM      2  N   UNL d   1      -4.332  -1.218   0.008  0.00  0.00    -0.323 N 
ATOM      3  O   UNL d   1      -3.155  -3.150   0.472  0.00  0.00    -0.267 OA
ATOM      4  H   UNL d   1      -4.199  -0.244  -0.236  0.00  0.00     0.169 HD
ENDROOT
BRANCH   1   5
ATOM      5  C   UNL d   1      -1.920  -1.190   0.158  0.00  0.00     0.075 A 
ATOM      6  S   UNL d   1      -1.866   0.491  -0.186  0.00  0.00    -0.084 SA
ATOM      7  C   UNL d   1      -0.123   0.485  -0.064  0.00  0.00     0.023 A 
ATOM      8  C   UNL d   1       0.910   1.463  -0.201  0.00  0.00     0.027 A 
ATOM      9  C   UNL d   1       0.361  -0.758   0.232  0.00  0.00     0.023 A 
ATOM     10  C   UNL d   1       2.148   0.897   0.003  0.00  0.00     0.052 A 
ATOM     11  S   UNL d   1       2.100  -0.777   0.363  0.00  0.00    -0.101 SA
ATOM     12  C   UNL d   1      -0.665  -1.736   0.362  0.00  0.00     0.044 A 
ENDBRANCH   1   5
BRANCH   2  13
ATOM     13  C   UNL d   1      -5.665  -1.680   0.086  0.00  0.00     0.035 A 
ATOM     14  C   UNL d   1      -6.018  -2.973   0.483  0.00  0.00     0.031 A 
ATOM     15  C   UNL d   1      -7.361  -3.359   0.558  0.00  0.00     0.026 A 
ATOM     16  C   UNL d   1      -8.362  -2.451   0.233  0.00  0.00     0.034 A 
ATOM     17  C   UNL d   1      -8.030  -1.160  -0.168  0.00  0.00     0.026 A 
ATOM     18 CL   UNL d   1     -10.012  -2.924   0.331  0.00  0.00    -0.084 Cl
ATOM     19  C   UNL d   1      -6.685  -0.775  -0.238  0.00  0.00     0.031 A 
ENDBRANCH   2  13
TORSDOF 2
