REMARK  7 active torsions:
REMARK  status: ('A' for Active; 'I' for Inactive)
REMARK    1  A    between atoms: C_14  and  N_5 
REMARK    2  A    between atoms: C_21  and  N_11 
REMARK    3  A    between atoms: C_19  and  C_12 
REMARK    4  A    between atoms: C_15  and  C_14 
REMARK       I    between atoms: N_17  and  C_15 
REMARK    5  A    between atoms: C_22  and  N_17 
REMARK    6  A    between atoms: C_27  and  C_21 
REMARK    7  A    between atoms: C_28  and  C_27 
ROOT
ATOM      1  N   UNL d   1       1.169  -0.210  -0.285  0.00  0.00    -0.203 N 
ATOM      2  C   UNL d   1       1.215   1.169  -0.501  0.00  0.00     0.136 A 
ATOM      3  C   UNL d   1      -1.224  -0.172  -0.270  0.00  0.00     0.062 A 
ATOM      4  C   UNL d   1      -1.145   1.136  -0.536  0.00  0.00     0.118 A 
ATOM      5  N   UNL d   1       0.034   1.878  -0.673  0.00  0.00    -0.318 N 
ATOM      6  C   UNL d   1      -0.007  -0.972  -0.150  0.00  0.00     0.278 A 
ATOM      7  N   UNL d   1       2.398  -0.763  -0.153  0.00  0.00    -0.289 N 
ATOM      8  HN  UNL d   1       2.622  -1.748  -0.009  1.00  0.00     0.188 HD
ATOM      9  C   UNL d   1       2.553   1.483  -0.454  0.00  0.00     0.082 A 
ATOM     10  C   UNL d   1      -2.566   1.594  -0.597  0.00  0.00     0.271 A 
ATOM     11  N   UNL d   1      -3.357   0.493  -0.309  0.00  0.00    -0.342 N 
ATOM     12  C   UNL d   1       3.257   0.262  -0.252  0.00  0.00     0.062 A 
ATOM     13  C   UNL d   1      -2.582  -0.692  -0.037  0.00  0.00     0.173 A 
ATOM     14  O   UNL d   1      -0.001  -2.177   0.066  0.00  0.00    -0.265 OA
ATOM     15  O   UNL d   1      -2.941   2.720  -0.869  0.00  0.00    -0.266 OA
ENDROOT
BRANCH   5  16
ATOM     16  C   UNL d   1       0.011   3.334  -0.358  0.00  0.00     0.234 C 
BRANCH  16  17
ATOM     17  C   UNL d   1       1.062   4.190  -1.058  0.00  0.00     0.240 C 
ATOM     18  N   UNL d   1       0.759   4.529  -2.370  0.00  0.00    -0.326 N 
ATOM     19  H   UNL d   1      -0.155   4.261  -2.716  0.00  0.00     0.169 HD
ATOM     20  O   UNL d   1       2.041   4.595  -0.428  0.00  0.00    -0.271 OA
BRANCH  18  21
ATOM     21  C   UNL d   1       1.514   5.407  -3.183  0.00  0.00     0.034 A 
ATOM     22  C   UNL d   1       2.843   5.748  -2.916  0.00  0.00     0.029 A 
ATOM     23  C   UNL d   1       3.524   6.669  -3.719  0.00  0.00     0.002 A 
ATOM     24  C   UNL d   1       2.881   7.259  -4.802  0.00  0.00     0.000 A 
ATOM     25  C   UNL d   1       1.565   6.908  -5.097  0.00  0.00     0.002 A 
ATOM     26  C   UNL d   1       0.890   5.976  -4.300  0.00  0.00     0.029 A 
ENDBRANCH  18  21
ENDBRANCH  16  17
ENDBRANCH   5  16
BRANCH  12  27
ATOM     27  C   UNL d   1       4.710   0.067  -0.153  0.00  0.00    -0.008 A 
ATOM     28  C   UNL d   1       5.605   1.072  -0.553  0.00  0.00     0.014 A 
ATOM     29  C   UNL d   1       6.987   0.877  -0.466  0.00  0.00     0.001 A 
ATOM     30  C   UNL d   1       7.493  -0.323   0.026  0.00  0.00     0.000 A 
ATOM     31  C   UNL d   1       6.619  -1.329   0.431  0.00  0.00     0.001 A 
ATOM     32  C   UNL d   1       5.237  -1.136   0.341  0.00  0.00     0.014 A 
ENDBRANCH  12  27
BRANCH  11  33
ATOM     33  C   UNL d   1      -4.804   0.520  -0.183  0.00  0.00     0.126 C 
BRANCH  33  34
ATOM     34  C   UNL d   1      -5.259   0.860   1.237  0.00  0.00     0.020 C 
BRANCH  34  35
ATOM     35  C   UNL d   1      -6.779   0.747   1.372  0.00  0.00    -0.003 C 
ATOM     36  C   UNL d   1      -7.250   1.098   2.775  0.00  0.00     0.005 C 
ENDBRANCH  34  35
ENDBRANCH  33  34
ENDBRANCH  11  33
TORSDOF 7
