REMARK  3 active torsions:
REMARK  status: ('A' for Active; 'I' for Inactive)
REMARK       I    between atoms: C_3  and  N_1 
REMARK    1  A    between atoms: C_10  and  C_3 
REMARK    2  A    between atoms: C_19  and  C_4 
REMARK    3  A    between atoms: C_20  and  C_19 
ROOT
ATOM      1  N   UNL d   1      -2.490   0.379  -0.299  0.00  0.00    -0.339 N 
ATOM      2  C   UNL d   1      -0.104   0.782   0.017  0.00  0.00    -0.022 A 
ATOM      3  C   UNL d   1      -3.555   0.591  -1.181  0.00  0.00     0.254 C 
ATOM      4  C   UNL d   1      -1.489   1.382   0.153  0.00  0.00     0.121 C 
ATOM      5  C   UNL d   1       0.120  -0.577  -0.093  0.00  0.00    -0.008 A 
ATOM      6  C   UNL d   1      -2.306  -0.991   0.229  0.00  0.00     0.132 C 
ATOM      7  S   UNL d   1       1.769  -0.981  -0.170  0.00  0.00    -0.106 SA
ATOM      8  C   UNL d   1      -0.961  -1.606  -0.187  0.00  0.00     0.067 C 
ATOM      9  C   UNL d   1       1.134   1.503  -0.043  0.00  0.00     0.017 A 
ATOM     10  C   UNL d   1       2.226   0.666  -0.117  0.00  0.00     0.051 A 
ATOM     11  O   UNL d   1      -4.299  -0.326  -1.532  0.00  0.00    -0.267 OA
ENDROOT
BRANCH   3  12
ATOM     12  C   UNL d   1      -3.842   1.924  -1.789  0.00  0.00     0.032 A 
ATOM     13  C   UNL d   1      -4.269   1.941  -3.129  0.00  0.00     0.018 A 
ATOM     14  C   UNL d   1      -4.587   3.146  -3.764  0.00  0.00     0.025 A 
ATOM     15  C   UNL d   1      -4.477   4.343  -3.063  0.00  0.00     0.034 A 
ATOM     16  C   UNL d   1      -4.091   4.340  -1.725  0.00  0.00     0.025 A 
ATOM     17 CL   UNL d   1      -4.837   5.832  -3.846  0.00  0.00    -0.084 Cl
ATOM     18  C   UNL d   1      -3.806   3.130  -1.083  0.00  0.00     0.018 A 
ENDBRANCH   3  12
BRANCH   4  19
ATOM     19  C   UNL d   1      -1.804   1.793   1.614  0.00  0.00     0.030 C 
BRANCH  19  20
ATOM     20  C   UNL d   1      -1.023   3.016   2.100  0.00  0.00    -0.002 C 
ATOM     21  C   UNL d   1      -1.477   3.445   3.487  0.00  0.00     0.005 C 
ENDBRANCH  19  20
ENDBRANCH   4  19
TORSDOF 3
