REMARK  5 active torsions:
REMARK  status: ('A' for Active; 'I' for Inactive)
REMARK    1  A    between atoms: C_7  and  C_3 
REMARK    2  A    between atoms: C_9  and  N_4 
REMARK       I    between atoms: N_8  and  C_7 
REMARK    3  A    between atoms: N_11  and  N_8 
REMARK       I    between atoms: C_10  and  N_11 
REMARK    4  A    between atoms: C_13  and  C_10 
REMARK    5  A    between atoms: C_12  and  C_13 
ROOT
ATOM      1  C   UNL d   1      -0.605  -2.384  -0.585  0.00  0.00     0.288 C 
ATOM      2  N   UNL d   1       0.445  -3.237  -0.873  0.00  0.00    -0.262 N 
ATOM      3  O   UNL d   1      -1.770  -2.772  -0.586  0.00  0.00    -0.264 OA
ATOM      4  H   UNL d   1       1.385  -2.860  -1.019  0.00  0.00     0.190 HD
ENDROOT
BRANCH   2   5
ATOM      5  N   UNL d   1       0.164  -4.545  -1.328  0.00  0.00    -0.267 N 
ATOM      6  C   UNL d   1       1.103  -5.223  -2.073  0.00  0.00     0.240 C 
ATOM      7  O   UNL d   1       2.248  -4.793  -2.236  0.00  0.00    -0.272 OA
ATOM      8  H   UNL d   1      -0.807  -4.856  -1.246  0.00  0.00     0.190 HD
BRANCH   6   9
ATOM      9  C   UNL d   1       0.610  -6.466  -2.796  0.00  0.00     0.146 C 
BRANCH   9  10
ATOM     10  C   UNL d   1       0.241  -7.677  -1.970  0.00  0.00    -0.011 A 
ATOM     11  C   UNL d   1      -0.916  -7.691  -1.186  0.00  0.00     0.123 A 
ATOM     12  F   UNL d   1      -1.645  -6.572  -1.060  0.00  0.00    -0.206 F 
ATOM     13  C   UNL d   1      -1.371  -8.858  -0.572  0.00  0.00     0.043 A 
ATOM     14  C   UNL d   1      -0.665 -10.048  -0.736  0.00  0.00     0.003 A 
ATOM     15  C   UNL d   1       0.509 -10.053  -1.489  0.00  0.00     0.001 A 
ATOM     16  C   UNL d   1       0.963  -8.877  -2.096  0.00  0.00     0.011 A 
ENDBRANCH   9  10
ENDBRANCH   6   9
ENDBRANCH   2   5
BRANCH   1  17
ATOM     17  C   UNL d   1      -0.244  -0.982  -0.319  0.00  0.00     0.119 A 
ATOM     18  N   UNL d   1       1.027  -0.535  -0.273  0.00  0.00    -0.292 N 
ATOM     19  N   UNL d   1       0.932   0.808  -0.048  0.00  0.00    -0.287 N 
ATOM     20  HN  UNL d   1       1.879  -1.084  -0.383  1.00  0.00     0.187 HD
ATOM     21  C   UNL d   1      -0.386   1.227   0.023  0.00  0.00     0.028 A 
ATOM     22  C   UNL d   1      -0.892   2.618   0.163  0.00  0.00     0.070 C 
ATOM     23  C   UNL d   1      -1.145   0.083  -0.107  0.00  0.00     0.063 A 
BRANCH  19  24
ATOM     24  C   UNL d   1       2.178   1.611   0.016  0.00  0.00     0.043 C 
ATOM     25  C   UNL d   1       3.435   0.713  -0.128  0.00  0.00     0.039 C 
ATOM     26  C   UNL d   1       2.224   2.624  -1.146  0.00  0.00     0.039 C 
ATOM     27  C   UNL d   1       2.317   2.336   1.371  0.00  0.00     0.039 C 
ENDBRANCH  19  24
ENDBRANCH   1  17
TORSDOF 5
