REMARK  5 active torsions:
REMARK  status: ('A' for Active; 'I' for Inactive)
REMARK    1  A    between atoms: C_7  and  C_1 
REMARK    2  A    between atoms: C_9  and  C_4 
REMARK       I    between atoms: N_11  and  C_7 
REMARK    3  A    between atoms: N_8  and  C_14 
REMARK    4  A    between atoms: C_13  and  N_11 
REMARK    5  A    between atoms: C_14  and  C_13 
ROOT
ATOM      1  C   UNL d   1       0.013  -1.304  -0.061  0.00  0.00     0.092 A 
ATOM      2  N   UNL d   1      -1.173   0.565   0.473  0.00  0.00    -0.259 N 
ATOM      3  HN  UNL d   1      -1.895   1.194   0.826  1.00  0.00     0.195 HD
ATOM      4  C   UNL d   1      -1.154  -0.774   0.583  0.00  0.00     0.083 A 
ATOM      5  O   UNL d   1      -0.033   0.923  -0.204  0.00  0.00    -0.241 OA
ATOM      6  C   UNL d   1       0.682  -0.184  -0.519  0.00  0.00     0.090 A 
ATOM      7  C   UNL d   1       1.927   0.058  -1.278  0.00  0.00     0.080 C 
ENDROOT
BRANCH   1   8
ATOM      8  C   UNL d   1       0.374  -2.692  -0.244  0.00  0.00     0.256 C 
ATOM      9  O   UNL d   1      -0.473  -3.571  -0.328  0.00  0.00    -0.267 OA
ATOM     10  N   UNL d   1       1.728  -2.967  -0.267  0.00  0.00    -0.355 N 
ATOM     11  H   UNL d   1       2.358  -2.257   0.076  0.00  0.00     0.162 HD
BRANCH  10  12
ATOM     12  C   UNL d   1       2.198  -4.345  -0.247  0.00  0.00     0.153 C 
BRANCH  12  13
ATOM     13  C   UNL d   1       1.769  -5.155  -1.488  0.00  0.00     0.292 C 
BRANCH  13  14
ATOM     14  N   UNL d   1       2.148  -6.564  -1.544  0.00  0.00     0.094 N 
ATOM     15  C   UNL d   1       1.745  -7.344  -0.362  0.00  0.00     0.298 C 
ATOM     16  C   UNL d   1       1.979  -8.838  -0.633  0.00  0.00     0.198 C 
ATOM     17  O   UNL d   1       3.359  -9.093  -0.939  0.00  0.00    -0.388 OA
ATOM     18  C   UNL d   1       3.772  -8.317  -2.076  0.00  0.00     0.198 C 
ATOM     19  C   UNL d   1       3.564  -6.811  -1.834  0.00  0.00     0.298 C 
ENDBRANCH  13  14
ENDBRANCH  12  13
ENDBRANCH  10  12
ENDBRANCH   1   8
BRANCH   4  20
ATOM     20  C   UNL d   1      -2.220  -1.474   1.313  0.00  0.00    -0.006 A 
ATOM     21  C   UNL d   1      -3.534  -0.987   1.289  0.00  0.00     0.014 A 
ATOM     22  C   UNL d   1      -4.554  -1.644   1.990  0.00  0.00     0.001 A 
ATOM     23  C   UNL d   1      -4.270  -2.796   2.719  0.00  0.00     0.000 A 
ATOM     24  C   UNL d   1      -2.970  -3.287   2.760  0.00  0.00     0.001 A 
ATOM     25  C   UNL d   1      -1.950  -2.623   2.073  0.00  0.00     0.014 A 
ENDBRANCH   4  20
TORSDOF 5
