REMARK  2 active torsions:
REMARK  status: ('A' for Active; 'I' for Inactive)
REMARK    1  A    between atoms: C_18  and  C_4 
REMARK       I    between atoms: C_7  and  N_10 
REMARK       I    between atoms: N_11  and  C_7 
REMARK    2  A    between atoms: C_12  and  N_11 
ROOT
ATOM      1  N   UNL d   1       0.519  -0.301   0.631  0.00  0.00    -0.321 N 
ATOM      2  HN  UNL d   1       1.021  -0.385   1.516  1.00  0.00     0.169 HD
ATOM      3  C   UNL d   1       0.217  -1.315  -0.154  0.00  0.00     0.164 A 
ATOM      4  C   UNL d   1       0.062   0.900   0.095  0.00  0.00     0.123 A 
ATOM      5  N   UNL d   1      -0.601   0.858  -1.065  0.00  0.00    -0.309 N 
ATOM      6  HN  UNL d   1      -0.998   1.653  -1.567  1.00  0.00     0.176 HD
ATOM      7  C   UNL d   1       1.157  -6.456   1.017  0.00  0.00     0.323 C 
ATOM      8  S   UNL d   1      -0.655  -0.740  -1.536  0.00  0.00     0.024 SA
ATOM      9  N   UNL d   1       0.522  -2.613   0.147  0.00  0.00    -0.359 N 
ATOM     10  N   UNL d   1       0.206  -5.441   0.931  0.00  0.00    -0.332 N 
ATOM     11  N   UNL d   1       1.529  -6.831   2.290  0.00  0.00    -0.306 N 
ATOM     12  O   UNL d   1       1.574  -6.987  -0.011  0.00  0.00    -0.247 OA
ATOM     13  C   UNL d   1       0.583  -3.677  -0.868  0.00  0.00     0.145 C 
ATOM     14  C   UNL d   1      -0.151  -4.960  -0.418  0.00  0.00     0.147 C 
ATOM     15  C   UNL d   1       0.422  -3.455   2.456  0.00  0.00     0.040 C 
ATOM     16  C   UNL d   1       1.303  -2.862   1.362  0.00  0.00     0.126 C 
ATOM     17  C   UNL d   1      -0.385  -4.678   2.030  0.00  0.00     0.129 C 
ATOM     18  H   UNL d   1       0.908  -6.559   3.032  0.00  0.00     0.171 HD
ENDROOT
BRANCH   4  19
ATOM     19  C   UNL d   1       0.313   2.144   0.831  0.00  0.00     0.009 A 
ATOM     20  C   UNL d   1       1.181   2.140   1.936  0.00  0.00     0.015 A 
ATOM     21  C   UNL d   1       1.422   3.308   2.665  0.00  0.00     0.001 A 
ATOM     22  C   UNL d   1       0.794   4.496   2.297  0.00  0.00     0.000 A 
ATOM     23  C   UNL d   1      -0.068   4.517   1.203  0.00  0.00     0.001 A 
ATOM     24  C   UNL d   1      -0.306   3.349   0.471  0.00  0.00     0.015 A 
ENDBRANCH   4  19
BRANCH  11  25
ATOM     25  C   UNL d   1       2.377  -7.936   2.586  0.00  0.00     0.075 A 
ATOM     26  C   UNL d   1       3.360  -8.446   1.720  0.00  0.00     0.146 A 
ATOM     27  C   UNL d   1       4.012  -9.648   1.989  0.00  0.00     0.086 A 
ATOM     28  F   UNL d   1       3.766  -7.767   0.640  0.00  0.00    -0.204 F 
ATOM     29  C   UNL d   1       3.725 -10.323   3.162  0.00  0.00     0.119 A 
ATOM     30  C   UNL d   1       2.842  -9.790   4.094  0.00  0.00     0.044 A 
ATOM     31  F   UNL d   1       4.318 -11.498   3.412  0.00  0.00    -0.206 F 
ATOM     32  C   UNL d   1       2.176  -8.590   3.813  0.00  0.00     0.036 A 
ENDBRANCH  11  25
TORSDOF 2
