REMARK  6 active torsions:
REMARK  status: ('A' for Active; 'I' for Inactive)
REMARK       I    between atoms: C_6  and  N_2 
REMARK       I    between atoms: N_10  and  C_6 
REMARK    1  A    between atoms: S_11  and  C_7 
REMARK    2  A    between atoms: C_22  and  N_10 
REMARK    3  A    between atoms: C_15  and  S_11 
REMARK    4  A    between atoms: C_13  and  C_15 
REMARK    5  A    between atoms: C_14  and  C_13 
REMARK    6  A    between atoms: O_26  and  C_23 
ROOT
ATOM      1  C   UNL d   1       0.195   0.705   0.217  0.00  0.00     0.707 A 
ATOM      2  N   UNL d   1      -0.816   1.655   0.183  0.00  0.00    -0.131 N 
ATOM      3  N   UNL d   1      -0.105  -0.634   0.152  0.00  0.00    -0.159 N 
ATOM      4  N   UNL d   1       1.503   0.840   0.292  0.00  0.00    -0.129 N 
ATOM      5  HN  UNL d   1       2.014   1.721   0.335  1.00  0.00     0.205 HD
ATOM      6  C   UNL d   1      -0.576   3.028   0.068  0.00  0.00     0.341 C 
ATOM      7  C   UNL d   1       1.081  -1.296   0.202  0.00  0.00     0.177 A 
ATOM      8  N   UNL d   1       2.062  -0.427   0.301  0.00  0.00    -0.265 N 
ATOM      9  HN  UNL d   1       3.056  -0.646   0.373  1.00  0.00     0.189 HD
ATOM     10  N   UNL d   1       0.717   3.400  -0.225  0.00  0.00    -0.308 N 
ATOM     11  O   UNL d   1      -1.514   3.823   0.162  0.00  0.00    -0.246 OA
ATOM     12  C   UNL d   1      -1.447  -1.159   0.020  0.00  0.00     0.151 C 
ATOM     13  C   UNL d   1      -2.208   1.210   0.301  0.00  0.00     0.154 C 
ATOM     14  C   UNL d   1      -2.425  -0.093  -0.462  0.00  0.00     0.042 C 
ATOM     15  H   UNL d   1       1.429   2.692  -0.073  0.00  0.00     0.170 HD
ENDROOT
BRANCH   7  16
ATOM     16  S   UNL d   1       1.194  -3.015   0.104  0.00  0.00    -0.084 SA
BRANCH  16  17
ATOM     17  C   UNL d   1       2.971  -3.273   0.350  0.00  0.00     0.166 C 
BRANCH  17  18
ATOM     18  C   UNL d   1       3.393  -4.702   0.038  0.00  0.00     0.169 C 
ATOM     19  O   UNL d   1       2.621  -5.577  -0.358  0.00  0.00    -0.291 OA
BRANCH  18  20
ATOM     20  C   UNL d   1       4.838  -5.053   0.214  0.00  0.00     0.011 A 
ATOM     21  C   UNL d   1       5.773  -4.138   0.713  0.00  0.00     0.018 A 
ATOM     22  C   UNL d   1       7.117  -4.504   0.857  0.00  0.00     0.037 A 
ATOM     23  C   UNL d   1       7.541  -5.782   0.497  0.00  0.00     0.068 A 
ATOM     24  C   UNL d   1       6.610  -6.705   0.022  0.00  0.00     0.037 A 
ATOM     25  C   UNL d   1       5.266  -6.343  -0.128  0.00  0.00     0.018 A 
BRANCH  23  26
ATOM     26  O   UNL d   1       8.824  -6.244   0.601  0.00  0.00    -0.356 OA
ATOM     27  C   UNL d   1       9.843  -5.252   0.511  0.00  0.00     0.210 C 
ENDBRANCH  23  26
ENDBRANCH  18  20
ENDBRANCH  17  18
ENDBRANCH  16  17
ENDBRANCH   7  16
BRANCH  10  28
ATOM     28  C   UNL d   1       1.163   4.660  -0.685  0.00  0.00     0.036 A 
ATOM     29  C   UNL d   1       0.310   5.715  -1.025  0.00  0.00     0.029 A 
ATOM     30  C   UNL d   1       0.821   6.916  -1.528  0.00  0.00     0.002 A 
ATOM     31  C   UNL d   1       2.192   7.077  -1.695  0.00  0.00     0.000 A 
ATOM     32  C   UNL d   1       3.055   6.037  -1.358  0.00  0.00     0.002 A 
ATOM     33  C   UNL d   1       2.542   4.834  -0.856  0.00  0.00     0.029 A 
ENDBRANCH  10  28
TORSDOF 6
