REMARK  10 active torsions:
REMARK  status: ('A' for Active; 'I' for Inactive)
REMARK    1  A    between atoms: C_4  and  C_1 
REMARK    2  A    between atoms: C_2  and  C_3 
REMARK    3  A    between atoms: C_5  and  N_8 
REMARK    4  A    between atoms: N_15  and  C_5 
REMARK    5  A    between atoms: N_8  and  C_7 
REMARK    6  A    between atoms: O_25  and  C_9 
REMARK    7  A    between atoms: O_26  and  C_13 
REMARK    8  A    between atoms: C_27  and  N_15 
REMARK    9  A    between atoms: C_23  and  C_28 
REMARK   10  A    between atoms: C_28  and  C_27 
ROOT
ATOM      1  C   UNL d   1      -1.043   0.480   4.559  0.00  0.00     0.172 C 
ATOM      2  S   UNL d   1      -1.000  -0.925   3.631  0.00  0.00    -0.041 SA
ENDROOT
BRANCH   1   3
ATOM      3  N   UNL d   1      -0.734   1.762   4.091  0.00  0.00    -0.333 N 
ATOM      4  H   UNL d   1      -1.449   2.441   4.318  0.00  0.00     0.168 HD
BRANCH   3   5
ATOM      5  C   UNL d   1       0.040   2.025   2.933  0.00  0.00     0.035 A 
ATOM      6  C   UNL d   1      -0.394   2.979   2.010  0.00  0.00     0.045 A 
ATOM      7  C   UNL d   1       0.297   3.159   0.796  0.00  0.00     0.050 A 
ATOM      8  C   UNL d   1       1.478   2.433   0.564  0.00  0.00     0.032 A 
ATOM      9  C   UNL d   1       1.965   1.528   1.515  0.00  0.00     0.050 A 
ATOM     10  C   UNL d   1       1.236   1.336   2.697  0.00  0.00     0.045 A 
BRANCH   7  11
ATOM     11  C   UNL d   1      -0.257   4.083  -0.262  0.00  0.00     0.417 C 
ATOM     12  F   UNL d   1       0.442   4.053  -1.432  0.00  0.00    -0.166 F 
ATOM     13  F   UNL d   1      -0.266   5.386   0.134  0.00  0.00    -0.166 F 
ATOM     14  F   UNL d   1      -1.544   3.783  -0.592  0.00  0.00    -0.166 F 
ENDBRANCH   7  11
BRANCH   9  15
ATOM     15  C   UNL d   1       3.231   0.739   1.285  0.00  0.00     0.417 C 
ATOM     16  F   UNL d   1       3.831   1.015   0.093  0.00  0.00    -0.166 F 
ATOM     17  F   UNL d   1       4.172   0.982   2.239  0.00  0.00    -0.166 F 
ATOM     18  F   UNL d   1       3.022  -0.605   1.296  0.00  0.00    -0.166 F 
ENDBRANCH   9  15
ENDBRANCH   3   5
ENDBRANCH   1   3
BRANCH   1  19
ATOM     19  N   UNL d   1      -1.475   0.523   5.883  0.00  0.00    -0.367 N 
ATOM     20  H   UNL d   1      -1.181   1.341   6.402  0.00  0.00     0.161 HD
BRANCH  19  21
ATOM     21  C   UNL d   1      -1.704  -0.703   6.654  0.00  0.00     0.126 C 
BRANCH  21  22
ATOM     22  C   UNL d   1      -2.130  -0.498   8.108  0.00  0.00     0.058 C 
BRANCH  22  23
ATOM     23  C   UNL d   1      -2.391  -1.845   8.756  0.00  0.00    -0.054 A 
ATOM     24  C   UNL d   1      -3.658  -2.448   8.652  0.00  0.00     0.046 A 
ATOM     25  C   UNL d   1      -3.915  -3.724   9.184  0.00  0.00     0.102 A 
ATOM     26  C   UNL d   1      -2.866  -4.416   9.815  0.00  0.00     0.101 A 
ATOM     27  C   UNL d   1      -1.609  -3.810   9.926  0.00  0.00     0.040 A 
ATOM     28  C   UNL d   1      -1.366  -2.541   9.398  0.00  0.00     0.010 A 
BRANCH  25  29
ATOM     29  O   UNL d   1      -5.146  -4.322   9.144  0.00  0.00    -0.353 OA
ATOM     30  C   UNL d   1      -6.213  -3.620   8.523  0.00  0.00     0.210 C 
ENDBRANCH  25  29
BRANCH  26  31
ATOM     31  O   UNL d   1      -2.921  -5.652  10.410  0.00  0.00    -0.353 OA
ATOM     32  C   UNL d   1      -3.838  -6.596   9.872  0.00  0.00     0.210 C 
ENDBRANCH  26  31
ENDBRANCH  22  23
ENDBRANCH  21  22
ENDBRANCH  19  21
ENDBRANCH   1  19
TORSDOF 10
