REMARK  1 active torsions:
REMARK  status: ('A' for Active; 'I' for Inactive)
REMARK    1  A    between atoms: C_2  and  N_1 
ROOT
ATOM      1  C   UNL d   1      -0.755  -2.466   0.013  0.00  0.00     0.038 A 
ATOM      2  C   UNL d   1      -0.305  -3.345   1.009  0.00  0.00     0.030 A 
ATOM      3  C   UNL d   1      -1.635  -2.954  -0.965  0.00  0.00     0.030 A 
ATOM      4  C   UNL d   1      -0.727  -4.679   1.024  0.00  0.00     0.009 A 
ATOM      5  C   UNL d   1      -2.052  -4.291  -0.946  0.00  0.00     0.009 A 
ATOM      6  C   UNL d   1      -1.599  -5.164   0.046  0.00  0.00    -0.062 A 
ATOM      7  C   UNL d   1      -2.052  -6.593   0.084  0.00  0.00     0.048 C 
ENDROOT
BRANCH   1   8
ATOM      8  N   UNL d   1      -0.329  -1.101  -0.004  0.00  0.00    -0.333 N 
ATOM      9  C   UNL d   1       0.561  -0.501   0.870  0.00  0.00     0.096 A 
ATOM     10  C   UNL d   1       0.719   0.825   0.529  0.00  0.00     0.019 A 
ATOM     11  C   UNL d   1      -0.097   1.066  -0.591  0.00  0.00     0.019 A 
ATOM     12  C   UNL d   1      -0.725  -0.121  -0.899  0.00  0.00     0.096 A 
ENDBRANCH   1   8
TORSDOF 1
