REMARK  5 active torsions:
REMARK  status: ('A' for Active; 'I' for Inactive)
REMARK    1  A    between atoms: C_8  and  C_4 
REMARK    2  A    between atoms: C_7  and  C_5 
REMARK    3  A    between atoms: C_26  and  C_8 
REMARK    4  A    between atoms: O_28  and  C_16 
REMARK    5  A    between atoms: O_29  and  C_18 
ROOT
ATOM      1  C   UNL d   1      -0.711   0.498  -0.283  0.00  0.00     0.068 C 
ATOM      2  N   UNL d   1      -1.507  -0.633  -0.198  0.00  0.00    -0.341 N 
ATOM      3  C   UNL d   1      -1.583   1.570  -0.383  0.00  0.00     0.085 C 
ATOM      4  C   UNL d   1      -2.846  -0.311  -0.094  0.00  0.00     0.099 C 
ATOM      5  C   UNL d   1      -2.912   1.083  -0.149  0.00  0.00     0.028 C 
ATOM      6  C   UNL d   1       0.758   0.362  -0.237  0.00  0.00     0.002 A 
ATOM      7  C   UNL d   1       1.305  -0.909  -0.496  0.00  0.00    -0.041 A 
ATOM      8  C   UNL d   1       1.619   1.392   0.163  0.00  0.00     0.054 A 
ATOM      9  C   UNL d   1      -1.211   2.936  -0.618  0.00  0.00     0.102 C 
ATOM     10  C   UNL d   1      -0.924  -1.970  -0.149  0.00  0.00     0.134 C 
ATOM     11  N   UNL d   1      -0.895   4.033  -0.816  0.00  0.00    -0.191 NA
ATOM     12  C   UNL d   1       3.003   1.164   0.304  0.00  0.00     0.102 A 
ATOM     13  C   UNL d   1       2.684  -1.121  -0.369  0.00  0.00     0.047 A 
ATOM     14  C   UNL d   1       3.543  -0.102   0.052  0.00  0.00     0.102 A 
ATOM     15  C   UNL d   1       0.398  -2.042  -0.904  0.00  0.00     0.060 C 
ENDROOT
BRANCH   5  16
ATOM     16  C   UNL d   1      -4.098   1.853   0.232  0.00  0.00    -0.019 A 
ATOM     17  C   UNL d   1      -3.968   2.764   1.294  0.00  0.00     0.052 A 
ATOM     18  C   UNL d   1      -5.109   3.335   1.810  0.00  0.00     0.105 A 
ATOM     19  O   UNL d   1      -5.156   4.163   2.888  0.00  0.00    -0.323 OA
ATOM     20  C   UNL d   1      -6.353   3.058   1.301  0.00  0.00     0.105 A 
ATOM     21  C   UNL d   1      -6.581   4.252   3.085  0.00  0.00     0.352 C 
ATOM     22  O   UNL d   1      -7.343   3.666   2.008  0.00  0.00    -0.323 OA
ATOM     23  C   UNL d   1      -6.517   2.226   0.216  0.00  0.00     0.040 A 
ATOM     24  C   UNL d   1      -5.373   1.624  -0.328  0.00  0.00     0.015 A 
ENDBRANCH   5  16
BRANCH   4  25
ATOM     25  C   UNL d   1      -3.933  -1.282  -0.016  0.00  0.00     0.209 C 
ATOM     26  O   UNL d   1      -4.821  -1.327  -0.864  0.00  0.00    -0.285 OA
BRANCH  25  27
ATOM     27  C   UNL d   1      -3.952  -2.329   1.049  0.00  0.00     0.016 A 
ATOM     28  C   UNL d   1      -4.665  -3.512   0.798  0.00  0.00     0.015 A 
ATOM     29  C   UNL d   1      -4.666  -4.551   1.729  0.00  0.00     0.001 A 
ATOM     30  C   UNL d   1      -3.958  -4.413   2.920  0.00  0.00     0.000 A 
ATOM     31  C   UNL d   1      -3.268  -3.230   3.191  0.00  0.00     0.001 A 
ATOM     32  C   UNL d   1      -3.273  -2.182   2.264  0.00  0.00     0.015 A 
ENDBRANCH  25  27
ENDBRANCH   4  25
BRANCH  12  33
ATOM     33  O   UNL d   1       3.761   2.173   0.840  0.00  0.00    -0.353 OA
ATOM     34  C   UNL d   1       4.111   3.152  -0.139  0.00  0.00     0.210 C 
ENDBRANCH  12  33
BRANCH  14  35
ATOM     35  O   UNL d   1       4.830  -0.539   0.197  0.00  0.00    -0.353 OA
ATOM     36  C   UNL d   1       5.858   0.408   0.430  0.00  0.00     0.210 C 
ENDBRANCH  14  35
TORSDOF 5
