REMARK  4 active torsions:
REMARK  status: ('A' for Active; 'I' for Inactive)
REMARK    1  A    between atoms: N_3  and  C_1 
REMARK    2  A    between atoms: N_4  and  C_1 
REMARK    3  A    between atoms: C_2  and  N_3 
REMARK    4  A    between atoms: C_9  and  N_4 
ROOT
ATOM      1  N   UNL d   1       0.418   0.262  -1.204  0.00  0.00    -0.332 N 
ATOM      2  H   UNL d   1      -0.396   0.870  -1.229  0.00  0.00     0.168 HD
ENDROOT
BRANCH   1   3
ATOM      3  C   UNL d   1       1.057   0.115  -2.466  0.00  0.00     0.062 A 
ATOM      4  C   UNL d   1       0.675   0.981  -3.511  0.00  0.00     0.061 A 
ATOM      5 CL   UNL d   1      -0.496   2.233  -3.252  0.00  0.00    -0.082 Cl
ATOM      6  C   UNL d   1       1.240   0.873  -4.785  0.00  0.00     0.026 A 
ATOM      7  C   UNL d   1       2.185  -0.115  -5.042  0.00  0.00     0.002 A 
ATOM      8  C   UNL d   1       2.543  -1.003  -4.030  0.00  0.00     0.009 A 
ATOM      9  C   UNL d   1       1.970  -0.923  -2.743  0.00  0.00    -0.034 A 
ATOM     10  C   UNL d   1       2.344  -2.014  -1.776  0.00  0.00     0.050 C 
ENDBRANCH   1   3
BRANCH   1  11
ATOM     11  C   UNL d   1       1.021   0.304   0.027  0.00  0.00     0.172 C 
ATOM     12  S   UNL d   1       2.594   0.751   0.372  0.00  0.00    -0.041 SA
BRANCH  11  13
ATOM     13  N   UNL d   1       0.202  -0.002   1.082  0.00  0.00    -0.362 N 
ATOM     14  H   UNL d   1       0.699  -0.009   1.967  0.00  0.00     0.162 HD
BRANCH  13  15
ATOM     15  C   UNL d   1      -1.044  -0.759   1.023  0.00  0.00     0.083 C 
ATOM     16  C   UNL d   1      -1.730  -0.829   2.384  0.00  0.00     0.025 C 
ATOM     17  C   UNL d   1      -2.555  -2.113   2.369  0.00  0.00     0.002 C 
ATOM     18  C   UNL d   1      -2.063  -2.934   1.181  0.00  0.00     0.002 C 
ATOM     19  C   UNL d   1      -0.816  -2.228   0.674  0.00  0.00     0.025 C 
ENDBRANCH  13  15
ENDBRANCH  11  13
ENDBRANCH   1  11
TORSDOF 4
