REMARK  5 active torsions:
REMARK  status: ('A' for Active; 'I' for Inactive)
REMARK    1  A    between atoms: C_2  and  S_1 
REMARK    2  A    between atoms: N_5  and  S_1 
REMARK    3  A    between atoms: C_3  and  O_7 
REMARK    4  A    between atoms: C_22  and  N_5 
REMARK    5  A    between atoms: O_7  and  C_15 
ROOT
ATOM      1  N   UNL d   1       2.527   1.722   3.958  0.00  0.00    -0.345 N 
ATOM      2  HN  UNL d   1       3.486   1.582   4.276  1.00  0.00     0.167 HD
ATOM      3  C   UNL d   1       1.566   2.191   4.785  0.00  0.00     0.149 A 
ATOM      4  C   UNL d   1       0.849   1.556   2.218  0.00  0.00     0.038 A 
ATOM      5  C   UNL d   1       2.153   1.448   2.689  0.00  0.00     0.114 A 
ATOM      6  C   UNL d   1       0.229   2.298   4.419  0.00  0.00     0.058 A 
ATOM      7  C   UNL d   1      -0.132   1.981   3.109  0.00  0.00     0.030 A 
ENDROOT
BRANCH   3   8
ATOM      8  O   UNL d   1       1.877   2.489   6.101  0.00  0.00    -0.276 OA
BRANCH   8   9
ATOM      9  C   UNL d   1       3.128   3.050   6.341  0.00  0.00     0.163 A 
ATOM     10  C   UNL d   1       3.720   2.787   7.581  0.00  0.00     0.042 A 
ATOM     11  C   UNL d   1       4.947   3.428   7.791  0.00  0.00     0.049 A 
ATOM     12  C   UNL d   1       3.171   1.957   8.589  0.00  0.00     0.020 A 
ATOM     13  C   UNL d   1       5.600   3.235   9.001  0.00  0.00     0.054 A 
ATOM     14  N   UNL d   1       5.511   4.222   6.873  0.00  0.00    -0.351 N 
ATOM     15  C   UNL d   1       5.058   2.420   9.995  0.00  0.00     0.036 A 
ATOM     16  C   UNL d   1       3.843   1.777   9.795  0.00  0.00     0.025 A 
ATOM     17 CL   UNL d   1       5.898   2.211  11.482  0.00  0.00    -0.084 Cl
ATOM     18  C   UNL d   1       4.834   4.411   5.732  0.00  0.00     0.182 A 
ATOM     19  HN  UNL d   1       6.416   4.663   7.035  1.00  0.00     0.166 HD
ATOM     20  N   UNL d   1       3.642   3.897   5.428  0.00  0.00    -0.332 N 
ATOM     21  HN  UNL d   1       3.152   4.130   4.565  1.00  0.00     0.168 HD
ENDBRANCH   8   9
ENDBRANCH   3   8
BRANCH   4  22
ATOM     22  N   UNL d   1       0.552   1.216   0.863  0.00  0.00    -0.180 NA
ATOM     23  H   UNL d   1      -0.193   0.531   0.739  0.00  0.00     0.146 HD
BRANCH  22  24
ATOM     24  S   UNL d   1       0.342   2.493  -0.232  0.00  0.00     0.252 S 
ATOM     25  O   UNL d   1      -0.047   1.891  -1.493  0.00  0.00    -0.205 OA
ATOM     26  O   UNL d   1      -0.480   3.512   0.387  0.00  0.00    -0.205 OA
BRANCH  24  27
ATOM     27  C   UNL d   1       1.913   3.262  -0.526  0.00  0.00     0.115 A 
ATOM     28  S   UNL d   1       3.173   2.225  -1.048  0.00  0.00    -0.089 SA
ATOM     29  C   UNL d   1       4.299   3.512  -1.094  0.00  0.00     0.051 A 
ATOM     30  C   UNL d   1       3.727   4.713  -0.739  0.00  0.00     0.009 A 
ATOM     31  C   UNL d   1       2.346   4.570  -0.416  0.00  0.00     0.033 A 
ENDBRANCH  24  27
ENDBRANCH  22  24
ENDBRANCH   4  22
TORSDOF 5
