REMARK  3 active torsions:
REMARK  status: ('A' for Active; 'I' for Inactive)
REMARK    1  A    between atoms: C_14  and  C_4 
REMARK    2  A    between atoms: C_5  and  N_12 
REMARK    3  A    between atoms: N_12  and  C_6 
ROOT
ATOM      1  N   UNL d   1       3.923  -1.176  -0.140  0.00  0.00    -0.349 N 
ATOM      2  H   UNL d   1       3.438  -2.062  -0.333  0.00  0.00     0.166 HD
ENDROOT
BRANCH   1   3
ATOM      3  C   UNL d   1       5.281  -1.167  -0.119  0.00  0.00     0.132 A 
ATOM      4  C   UNL d   1       6.245  -1.989  -0.676  0.00  0.00     0.036 A 
ATOM      5  C   UNL d   1       7.469  -1.449  -0.204  0.00  0.00     0.123 A 
ATOM      6  N   UNL d   1       7.305  -0.377   0.574  0.00  0.00    -0.309 N 
ATOM      7  N   UNL d   1       5.973  -0.218   0.589  0.00  0.00    -0.285 N 
ATOM      8  HN  UNL d   1       8.017   0.183   1.042  1.00  0.00     0.186 HD
ATOM      9  H   UNL d   1       5.582   0.546   1.124  0.00  0.00     0.188 HD
BRANCH   4  10
ATOM     10  C   UNL d   1       6.035  -3.062  -1.637  0.00  0.00    -0.021 A 
ATOM     11  C   UNL d   1       4.991  -3.001  -2.570  0.00  0.00     0.012 A 
ATOM     12  C   UNL d   1       4.864  -3.970  -3.567  0.00  0.00     0.001 A 
ATOM     13  C   UNL d   1       5.788  -5.008  -3.648  0.00  0.00     0.000 A 
ATOM     14  C   UNL d   1       6.825  -5.091  -2.721  0.00  0.00     0.001 A 
ATOM     15  C   UNL d   1       6.947  -4.125  -1.718  0.00  0.00     0.012 A 
ENDBRANCH   4  10
ENDBRANCH   1   3
BRANCH   1  16
ATOM     16  C   UNL d   1       3.088  -0.081  -0.082  0.00  0.00     0.109 C 
ATOM     17  C   UNL d   1       1.754  -0.061  -0.119  0.00  0.00     0.081 A 
ATOM     18  C   UNL d   1       0.872  -1.246  -0.199  0.00  0.00     0.198 A 
ATOM     19  C   UNL d   1       0.930   1.170  -0.102  0.00  0.00     0.198 A 
ATOM     20  C   UNL d   1      -0.490  -0.702  -0.229  0.00  0.00     0.029 A 
ATOM     21  O   UNL d   1       1.196  -2.414  -0.245  0.00  0.00    -0.286 OA
ATOM     22  C   UNL d   1      -1.679  -1.401  -0.306  0.00  0.00     0.016 A 
ATOM     23  C   UNL d   1      -0.457   0.694  -0.183  0.00  0.00     0.029 A 
ATOM     24  C   UNL d   1      -2.860  -0.655  -0.350  0.00  0.00     0.001 A 
ATOM     25  C   UNL d   1      -2.829   0.754  -0.317  0.00  0.00     0.001 A 
ATOM     26  C   UNL d   1      -1.616   1.445  -0.231  0.00  0.00     0.016 A 
ATOM     27  O   UNL d   1       1.307   2.323  -0.044  0.00  0.00    -0.286 OA
ENDBRANCH   1  16
TORSDOF 3
