REMARK  7 active torsions:
REMARK  status: ('A' for Active; 'I' for Inactive)
REMARK    1  A    between atoms: C_4  and  S_1 
REMARK    2  A    between atoms: N_5  and  S_1 
REMARK       I    between atoms: N_2  and  C_3 
REMARK    3  A    between atoms: C_3  and  C_10 
REMARK    4  A    between atoms: C_22  and  N_5 
REMARK    5  A    between atoms: C_23  and  N_5 
REMARK    6  A    between atoms: C_25  and  C_22 
REMARK    7  A    between atoms: C_24  and  C_23 
ROOT
ATOM      1  C   UNL d   1       0.792  -1.575  -0.799  0.00  0.00     0.074 A 
ATOM      2  C   UNL d   1      -0.201  -3.962  -1.926  0.00  0.00     0.032 A 
ATOM      3  C   UNL d   1       1.363  -2.798  -0.442  0.00  0.00     0.026 A 
ATOM      4  C   UNL d   1      -0.270  -1.535  -1.698  0.00  0.00     0.026 A 
ATOM      5  C   UNL d   1      -0.762  -2.720  -2.247  0.00  0.00     0.018 A 
ATOM      6  C   UNL d   1       0.868  -3.983  -1.009  0.00  0.00     0.018 A 
ENDROOT
BRANCH   2   7
ATOM      7  C   UNL d   1      -0.773  -5.283  -2.364  0.00  0.00     0.253 C 
ATOM      8  N   UNL d   1      -1.469  -5.448  -3.571  0.00  0.00    -0.347 N 
ATOM      9  C   UNL d   1      -1.532  -4.495  -4.665  0.00  0.00     0.130 C 
ATOM     10  C   UNL d   1      -2.186  -6.711  -3.800  0.00  0.00     0.130 C 
ATOM     11  C   UNL d   1      -2.963  -3.935  -4.851  0.00  0.00     0.004 C 
ATOM     12  C   UNL d   1      -3.636  -4.652  -6.025  0.00  0.00     0.007 C 
ATOM     13  C   UNL d   1      -3.877  -4.088  -3.609  0.00  0.00     0.007 C 
ATOM     14  C   UNL d   1      -3.772  -6.156  -5.766  0.00  0.00     0.007 C 
ATOM     15  C   UNL d   1      -3.653  -6.540  -4.277  0.00  0.00     0.004 C 
ATOM     16  C   UNL d   1      -4.412  -5.516  -3.425  0.00  0.00     0.007 C 
ATOM     17  O   UNL d   1      -0.624  -6.223  -1.579  0.00  0.00    -0.267 OA
ENDBRANCH   2   7
BRANCH   1  18
ATOM     18  S   UNL d   1       1.261  -0.080   0.034  0.00  0.00     0.243 S 
ATOM     19  O   UNL d   1       1.751  -0.470   1.338  0.00  0.00    -0.206 OA
ATOM     20  O   UNL d   1       0.151   0.850  -0.082  0.00  0.00    -0.206 OA
BRANCH  18  21
ATOM     21  N   UNL d   1       2.571   0.569  -0.902  0.00  0.00    -0.206 NA
BRANCH  21  22
ATOM     22  C   UNL d   1       2.232   0.723  -2.360  0.00  0.00     0.107 C 
BRANCH  22  23
ATOM     23  C   UNL d   1       3.400   1.181  -3.243  0.00  0.00     0.011 C 
ATOM     24  C   UNL d   1       4.630   0.297  -3.128  0.00  0.00     0.006 C 
ENDBRANCH  22  23
ENDBRANCH  21  22
BRANCH  21  25
ATOM     25  C   UNL d   1       3.097   1.853  -0.311  0.00  0.00     0.107 C 
BRANCH  25  26
ATOM     26  C   UNL d   1       3.800   1.676   1.033  0.00  0.00     0.011 C 
ATOM     27  C   UNL d   1       4.915   0.642   0.989  0.00  0.00     0.006 C 
ENDBRANCH  25  26
ENDBRANCH  21  25
ENDBRANCH  18  21
ENDBRANCH   1  18
TORSDOF 7
