REMARK  6 active torsions:
REMARK  status: ('A' for Active; 'I' for Inactive)
REMARK       I    between atoms: N_2  and  C_1 
REMARK       I    between atoms: N_3  and  C_1 
REMARK    1  A    between atoms: C_9  and  N_2 
REMARK    2  A    between atoms: C_10  and  N_3 
REMARK    3  A    between atoms: N_6  and  C_4 
REMARK    4  A    between atoms: O_11  and  C_12 
REMARK    5  A    between atoms: C_15  and  O_11 
REMARK    6  A    between atoms: C_20  and  C_15 
ROOT
ATOM      1  C   UNL d   1       0.911   0.110  -0.002  0.00  0.00     0.325 C 
ATOM      2  N   UNL d   1       2.270   0.311  -0.182  0.00  0.00    -0.309 N 
ATOM      3  N   UNL d   1       0.145   0.908  -0.836  0.00  0.00    -0.309 N 
ATOM      4  O   UNL d   1       0.438  -0.674   0.817  0.00  0.00    -0.247 OA
ATOM      5  H   UNL d   1       2.551   1.087  -0.761  0.00  0.00     0.170 HD
ATOM      6  H   UNL d   1       0.614   1.363  -1.604  0.00  0.00     0.170 HD
ENDROOT
BRANCH   3   7
ATOM      7  C   UNL d   1      -1.267   1.030  -0.790  0.00  0.00     0.036 A 
ATOM      8  C   UNL d   1      -2.055   0.437   0.200  0.00  0.00     0.032 A 
ATOM      9  C   UNL d   1      -3.444   0.574   0.204  0.00  0.00     0.039 A 
ATOM     10  C   UNL d   1      -4.078   1.314  -0.787  0.00  0.00     0.069 A 
ATOM     11  C   UNL d   1      -3.301   1.948  -1.758  0.00  0.00     0.039 A 
ATOM     12  C   UNL d   1      -1.905   1.799  -1.768  0.00  0.00     0.032 A 
BRANCH  10  13
ATOM     13  O   UNL d   1      -5.431   1.505  -0.866  0.00  0.00    -0.347 OA
BRANCH  13  14
ATOM     14  C   UNL d   1      -6.214   0.426  -0.345  0.00  0.00     0.214 C 
BRANCH  14  15
ATOM     15  C   UNL d   1      -7.683   0.729  -0.501  0.00  0.00    -0.034 A 
ATOM     16  C   UNL d   1      -8.509  -0.101  -1.270  0.00  0.00     0.009 A 
ATOM     17  C   UNL d   1      -9.881   0.141  -1.343  0.00  0.00     0.001 A 
ATOM     18  C   UNL d   1     -10.439   1.214  -0.648  0.00  0.00     0.000 A 
ATOM     19  C   UNL d   1      -9.625   2.052   0.112  0.00  0.00     0.001 A 
ATOM     20  C   UNL d   1      -8.253   1.813   0.183  0.00  0.00     0.009 A 
ENDBRANCH  14  15
ENDBRANCH  13  14
ENDBRANCH  10  13
ENDBRANCH   3   7
BRANCH   2  21
ATOM     21  C   UNL d   1       3.296  -0.337   0.552  0.00  0.00     0.036 A 
ATOM     22  C   UNL d   1       3.078  -1.428   1.386  0.00  0.00     0.032 A 
ATOM     23  C   UNL d   1       4.121  -2.003   2.127  0.00  0.00     0.031 A 
ATOM     24  C   UNL d   1       5.437  -1.537   2.049  0.00  0.00     0.029 A 
ATOM     25  C   UNL d   1       5.644  -0.452   1.177  0.00  0.00     0.031 A 
ATOM     26  C   UNL d   1       4.599   0.141   0.442  0.00  0.00     0.032 A 
BRANCH  24  27
ATOM     27  N   UNL d   1       6.490  -2.151   2.719  0.00  0.00    -0.390 N 
ATOM     28  C   UNL d   1       7.579  -1.342   3.264  0.00  0.00     0.149 C 
ATOM     29  C   UNL d   1       6.295  -3.428   3.407  0.00  0.00     0.149 C 
ENDBRANCH  24  27
ENDBRANCH   2  21
TORSDOF 6
