REMARK  5 active torsions:
REMARK  status: ('A' for Active; 'I' for Inactive)
REMARK    1  A    between atoms: C_7  and  C_1 
REMARK    2  A    between atoms: C_6  and  C_2 
REMARK    3  A    between atoms: N_9  and  C_3 
REMARK    4  A    between atoms: C_8  and  C_4 
REMARK    5  A    between atoms: O_14  and  C_7 
ROOT
ATOM      1  C   UNL d   1      -0.220   1.078   0.019  0.00  0.00     0.101 A 
ATOM      2  C   UNL d   1       0.761  -1.208  -0.113  0.00  0.00     0.102 A 
ATOM      3  C   UNL d   1      -1.172   0.085   0.139  0.00  0.00     0.042 A 
ATOM      4  C   UNL d   1      -0.624  -1.254   0.059  0.00  0.00     0.019 A 
ATOM      5  S   UNL d   1       1.334   0.415  -0.176  0.00  0.00    -0.076 SA
ENDROOT
BRANCH   4   6
ATOM      6  C   UNL d   1      -1.381  -2.517   0.048  0.00  0.00    -0.023 A 
ATOM      7  C   UNL d   1      -2.499  -2.650  -0.791  0.00  0.00     0.012 A 
ATOM      8  C   UNL d   1      -3.209  -3.852  -0.860  0.00  0.00     0.001 A 
ATOM      9  C   UNL d   1      -2.788  -4.951  -0.117  0.00  0.00     0.000 A 
ATOM     10  C   UNL d   1      -1.684  -4.835   0.725  0.00  0.00     0.001 A 
ATOM     11  C   UNL d   1      -1.002  -3.616   0.831  0.00  0.00     0.012 A 
ENDBRANCH   4   6
BRANCH   3  12
ATOM     12  N   UNL d   1      -2.494   0.371   0.323  0.00  0.00    -0.301 NA
ATOM     13  H   UNL d   1      -2.936   0.981  -0.372  0.00  0.00     0.124 HD
ATOM     14  H   UNL d   1      -3.124  -0.426   0.469  0.00  0.00     0.124 HD
ENDBRANCH   3  12
BRANCH   2  15
ATOM     15  C   UNL d   1       1.801  -2.281  -0.237  0.00  0.00     0.424 C 
ATOM     16  F   UNL d   1       1.311  -3.490  -0.609  0.00  0.00    -0.166 F 
ATOM     17  F   UNL d   1       2.758  -1.975  -1.154  0.00  0.00    -0.166 F 
ATOM     18  F   UNL d   1       2.445  -2.473   0.946  0.00  0.00    -0.166 F 
ENDBRANCH   2  15
BRANCH   1  19
ATOM     19  C   UNL d   1      -0.352   2.526   0.064  0.00  0.00     0.185 C 
ATOM     20  O   UNL d   1       0.439   3.344  -0.377  0.00  0.00    -0.646 OA
BRANCH  19  21
ATOM     21  O   UNL d   1      -1.500   2.911   0.687  0.00  0.00    -0.772 OA
ATOM     22  H   UNL d   1      -1.981   2.134   1.047  0.00  0.00     0.167 HD
ENDBRANCH  19  21
ENDBRANCH   1  19
TORSDOF 5
