REMARK  1 active torsions:
REMARK  status: ('A' for Active; 'I' for Inactive)
REMARK    1  A    between atoms: C_10  and  C_5 
ROOT
ATOM      1  N   UNL d   1       1.398  -1.102   0.018  0.00  0.00    -0.334 N 
ATOM      2  HN  UNL d   1       1.744  -2.062   0.027  1.00  0.00     0.168 HD
ATOM      3  C   UNL d   1       0.163  -0.696   0.079  0.00  0.00     0.148 A 
ATOM      4  C   UNL d   1       1.303   1.187   0.004  0.00  0.00     0.146 A 
ATOM      5  C   UNL d   1       2.138   0.076  -0.062  0.00  0.00     0.082 A 
ATOM      6  N   UNL d   1       0.056   0.653   0.062  0.00  0.00    -0.316 N 
ATOM      7  C   UNL d   1       1.590   2.572   0.026  0.00  0.00     0.120 C 
ATOM      8  S   UNL d   1      -1.356  -1.490   0.119  0.00  0.00    -0.092 SA
ATOM      9  N   UNL d   1       1.775   3.718   0.029  0.00  0.00    -0.190 NA
ATOM     10  C   UNL d   1      -1.272   1.218   0.133  0.00  0.00     0.142 C 
ATOM     11  C   UNL d   1      -2.246   0.086  -0.213  0.00  0.00     0.102 C 
ENDROOT
BRANCH   5  12
ATOM     12  C   UNL d   1       3.590   0.061  -0.191  0.00  0.00    -0.006 A 
ATOM     13  C   UNL d   1       4.319  -0.987   0.388  0.00  0.00     0.014 A 
ATOM     14  C   UNL d   1       5.710  -1.047   0.257  0.00  0.00     0.001 A 
ATOM     15  C   UNL d   1       6.387  -0.062  -0.458  0.00  0.00     0.000 A 
ATOM     16  C   UNL d   1       5.674   0.980  -1.046  0.00  0.00     0.001 A 
ATOM     17  C   UNL d   1       4.284   1.038  -0.919  0.00  0.00     0.014 A 
ENDBRANCH   5  12
TORSDOF 1
