REMARK  2 active torsions:
REMARK  status: ('A' for Active; 'I' for Inactive)
REMARK    1  A    between atoms: C_17  and  C_12 
REMARK    2  A    between atoms: C_18  and  C_13 
ROOT
ATOM      1  N   UNL d   1       1.108   0.498  -0.253  0.00  0.00    -0.196 N 
ATOM      2  C   UNL d   1      -1.245   0.479   0.121  0.00  0.00     0.069 C 
ATOM      3  C   UNL d   1      -1.234  -0.764  -0.470  0.00  0.00     0.092 C 
ATOM      4  C   UNL d   1       0.957  -0.809  -0.760  0.00  0.00     0.170 C 
ATOM      5  N   UNL d   1      -0.168  -1.415  -0.974  0.00  0.00    -0.329 N 
ATOM      6  HN  UNL d   1      -0.239  -2.300  -1.477  1.00  0.00     0.168 HD
ATOM      7  C   UNL d   1      -0.022   1.262   0.100  0.00  0.00     0.281 C 
ATOM      8  N   UNL d   1       2.352   1.152  -0.207  0.00  0.00    -0.292 N 
ATOM      9  HN  UNL d   1       2.427   2.162  -0.325  1.00  0.00     0.187 HD
ATOM     10  C   UNL d   1      -2.446   0.699   0.873  0.00  0.00     0.040 C 
ATOM     11  S   UNL d   1      -2.724  -1.560  -0.293  0.00  0.00    -0.071 SA
ATOM     12  C   UNL d   1      -3.154  -0.490   0.984  0.00  0.00     0.018 C 
ATOM     13  C   UNL d   1       3.407   0.409  -0.006  0.00  0.00     0.046 C 
ATOM     14  S   UNL d   1       2.397  -1.780  -1.006  0.00  0.00    -0.086 SA
ATOM     15  C   UNL d   1       3.262  -1.042   0.393  0.00  0.00     0.142 C 
ATOM     16  O   UNL d   1      -0.008   2.441   0.453  0.00  0.00    -0.265 OA
ENDROOT
BRANCH  12  17
ATOM     17  C   UNL d   1      -3.939  -1.021   2.102  0.00  0.00    -0.019 A 
ATOM     18  C   UNL d   1      -5.060  -1.838   1.916  0.00  0.00     0.013 A 
ATOM     19  C   UNL d   1      -5.595  -2.554   2.991  0.00  0.00     0.001 A 
ATOM     20  C   UNL d   1      -5.022  -2.454   4.258  0.00  0.00     0.000 A 
ATOM     21  C   UNL d   1      -3.933  -1.612   4.465  0.00  0.00     0.001 A 
ATOM     22  C   UNL d   1      -3.402  -0.893   3.395  0.00  0.00     0.013 A 
ENDBRANCH  12  17
BRANCH  13  23
ATOM     23  C   UNL d   1       4.778   0.960  -0.219  0.00  0.00    -0.011 A 
ATOM     24  C   UNL d   1       4.982   2.342  -0.203  0.00  0.00     0.013 A 
ATOM     25  C   UNL d   1       6.247   2.866  -0.489  0.00  0.00     0.001 A 
ATOM     26  C   UNL d   1       7.308   2.012  -0.795  0.00  0.00     0.000 A 
ATOM     27  C   UNL d   1       7.111   0.635  -0.820  0.00  0.00     0.001 A 
ATOM     28  C   UNL d   1       5.848   0.111  -0.542  0.00  0.00     0.013 A 
ENDBRANCH  13  23
TORSDOF 2
