REMARK  7 active torsions:
REMARK  status: ('A' for Active; 'I' for Inactive)
REMARK    1  A    between atoms: S_2  and  C_1 
REMARK    2  A    between atoms: N_8  and  S_2 
REMARK    3  A    between atoms: C_9  and  C_3 
REMARK    4  A    between atoms: C_12  and  C_4 
REMARK    5  A    between atoms: C_7  and  C_5 
REMARK    6  A    between atoms: C_13  and  N_8 
REMARK    7  A    between atoms: O_18  and  C_9 
ROOT
ATOM      1  C   UNL d   1       1.533   0.783  -0.153  0.00  0.00     0.115 A 
ATOM      2  C   UNL d   1       0.251   1.299  -0.263  0.00  0.00     0.105 A 
ATOM      3  C   UNL d   1       1.547  -0.675  -0.194  0.00  0.00     0.021 A 
ATOM      4  C   UNL d   1       0.255  -1.185  -0.340  0.00  0.00     0.102 A 
ATOM      5  S   UNL d   1      -0.916   0.067  -0.397  0.00  0.00    -0.077 SA
ENDROOT
BRANCH   1   6
ATOM      6  S   UNL d   1       2.934   1.785   0.119  0.00  0.00     0.262 S 
ATOM      7  O   UNL d   1       3.747   1.591  -1.062  0.00  0.00    -0.200 OA
ATOM      8  O   UNL d   1       2.438   3.092   0.470  0.00  0.00    -0.200 OA
BRANCH   6   9
ATOM      9  N   UNL d   1       3.813   1.209   1.428  0.00  0.00    -0.307 N 
ATOM     10  H   UNL d   1       4.811   1.303   1.236  0.00  0.00     0.173 HD
BRANCH   9  11
ATOM     11  C   UNL d   1       3.425   1.497   2.839  0.00  0.00     0.029 C 
ATOM     12  C   UNL d   1       2.030   0.950   3.152  0.00  0.00     0.038 C 
ATOM     13  C   UNL d   1       4.452   0.766   3.722  0.00  0.00     0.038 C 
ATOM     14  C   UNL d   1       3.507   2.996   3.159  0.00  0.00     0.038 C 
ENDBRANCH   9  11
ENDBRANCH   6   9
ENDBRANCH   1   6
BRANCH   2  15
ATOM     15  C   UNL d   1      -0.234   2.661  -0.199  0.00  0.00     0.301 C 
ATOM     16  O   UNL d   1      -1.103   3.060   0.567  0.00  0.00    -0.259 OA
BRANCH  15  17
ATOM     17  O   UNL d   1       0.385   3.426  -1.139  0.00  0.00    -0.322 OA
ATOM     18  C   UNL d   1       0.160   4.830  -0.985  0.00  0.00     0.213 C 
ENDBRANCH  15  17
ENDBRANCH   2  15
BRANCH   3  19
ATOM     19  C   UNL d   1       2.701  -1.575  -0.065  0.00  0.00    -0.023 A 
ATOM     20  C   UNL d   1       2.731  -2.567   0.928  0.00  0.00     0.012 A 
ATOM     21  C   UNL d   1       3.806  -3.458   1.016  0.00  0.00     0.001 A 
ATOM     22  C   UNL d   1       4.883  -3.341   0.142  0.00  0.00     0.000 A 
ATOM     23  C   UNL d   1       4.877  -2.348  -0.833  0.00  0.00     0.001 A 
ATOM     24  C   UNL d   1       3.782  -1.485  -0.950  0.00  0.00     0.012 A 
ENDBRANCH   3  19
BRANCH   4  25
ATOM     25  C   UNL d   1      -0.258  -2.596  -0.393  0.00  0.00     0.424 C 
ATOM     26  F   UNL d   1       0.655  -3.492  -0.842  0.00  0.00    -0.166 F 
ATOM     27  F   UNL d   1      -0.644  -3.016   0.842  0.00  0.00    -0.166 F 
ATOM     28  F   UNL d   1      -1.342  -2.729  -1.203  0.00  0.00    -0.166 F 
ENDBRANCH   4  25
TORSDOF 7
