REMARK  5 active torsions:
REMARK  status: ('A' for Active; 'I' for Inactive)
REMARK    1  A    between atoms: O_5  and  C_1 
REMARK    2  A    between atoms: C_2  and  C_3 
REMARK    3  A    between atoms: O_12  and  C_2 
REMARK    4  A    between atoms: C_4  and  C_10 
REMARK    5  A    between atoms: C_11  and  O_5 
ROOT
ATOM      1  C   UNL d   1       1.817   4.935  -0.837  0.00  0.00    -0.036 A 
ATOM      2  C   UNL d   1       1.036   2.224  -0.886  0.00  0.00     0.078 A 
ATOM      3  C   UNL d   1       2.723   3.918  -0.506  0.00  0.00     0.014 A 
ATOM      4  C   UNL d   1       0.495   4.582  -1.123  0.00  0.00     0.014 A 
ATOM      5  C   UNL d   1       0.111   3.238  -1.147  0.00  0.00     0.038 A 
ATOM      6  C   UNL d   1       2.333   2.571  -0.519  0.00  0.00     0.038 A 
ENDROOT
BRANCH   1   7
ATOM      7  C   UNL d   1       2.199   6.355  -0.833  0.00  0.00     0.018 C 
ATOM      8  C   UNL d   1       3.410   6.800  -1.199  0.00  0.00     0.082 C 
BRANCH   8   9
ATOM      9  C   UNL d   1       3.696   8.245  -1.162  0.00  0.00     0.165 C 
ATOM     10  O   UNL d   1       2.898   9.105  -0.824  0.00  0.00    -0.647 OA
BRANCH   9  11
ATOM     11  O   UNL d   1       4.962   8.522  -1.541  0.00  0.00    -0.773 OA
ATOM     12  H   UNL d   1       5.505   7.755  -1.792  0.00  0.00     0.167 HD
ENDBRANCH   9  11
ENDBRANCH   8   9
ENDBRANCH   1   7
BRANCH   2  13
ATOM     13  O   UNL d   1       0.540   0.961  -0.979  0.00  0.00    -0.255 OA
BRANCH  13  14
ATOM     14  C   UNL d   1       1.413  -0.107  -1.320  0.00  0.00     0.530 C 
ATOM     15  F   UNL d   1       2.607   0.290  -1.810  0.00  0.00    -0.144 F 
ATOM     16  F   UNL d   1       0.813  -0.862  -2.268  0.00  0.00    -0.144 F 
ATOM     17  F   UNL d   1       1.622  -0.883  -0.235  0.00  0.00    -0.144 F 
ENDBRANCH  13  14
ENDBRANCH   2  13
TORSDOF 5
