REMARK  2 active torsions:
REMARK  status: ('A' for Active; 'I' for Inactive)
REMARK    1  A    between atoms: C_4  and  N_1 
REMARK    2  A    between atoms: C_3  and  C_2 
ROOT
ATOM      1  C   UNL d   1       0.175   1.812  -3.361  0.00  0.00     0.009 A 
ATOM      2  C   UNL d   1      -0.921   2.672  -3.162  0.00  0.00     0.046 A 
ATOM      3  C   UNL d   1       0.597   1.578  -4.684  0.00  0.00     0.046 A 
ATOM      4 CL   UNL d   1      -1.508   3.049  -1.577  0.00  0.00    -0.083 Cl
ATOM      5 CL   UNL d   1       1.940   0.546  -5.041  0.00  0.00    -0.083 Cl
ATOM      6  C   UNL d   1      -1.141   3.027  -5.548  0.00  0.00     0.003 A 
ATOM      7  C   UNL d   1      -1.575   3.271  -4.247  0.00  0.00     0.025 A 
ATOM      8  C   UNL d   1      -0.054   2.183  -5.766  0.00  0.00     0.025 A 
ENDROOT
BRANCH   1   9
ATOM      9  C   UNL d   1       0.880   1.200  -2.221  0.00  0.00     0.038 C 
ATOM     10  C   UNL d   1       0.509   0.021  -1.707  0.00  0.00     0.168 C 
BRANCH  10  11
ATOM     11  N   UNL d   1       1.233  -0.525  -0.581  0.00  0.00    -0.127 N 
ATOM     12  O   UNL d   1       0.846  -1.629  -0.177  0.00  0.00    -0.532 OA
ATOM     13  O   UNL d   1       2.171   0.123  -0.100  0.00  0.00    -0.532 OA
ENDBRANCH  10  11
ENDBRANCH   1   9
TORSDOF 2
