REMARK  5 active torsions:
REMARK  status: ('A' for Active; 'I' for Inactive)
REMARK    1  A    between atoms: N_8  and  C_1 
REMARK    2  A    between atoms: S_11  and  C_3 
REMARK    3  A    between atoms: N_12  and  C_10 
REMARK    4  A    between atoms: C_13  and  S_11 
REMARK    5  A    between atoms: C_16  and  C_13 
ROOT
ATOM      1  C   UNL d   1      -0.127   1.216  -0.035  0.00  0.00     0.166 A 
ATOM      2  S   UNL d   1       1.129   0.022   0.010  0.00  0.00    -0.026 SA
ATOM      3  C   UNL d   1      -0.089  -1.175  -0.060  0.00  0.00     0.130 A 
ATOM      4  N   UNL d   1      -1.334   0.678  -0.082  0.00  0.00    -0.278 N 
ATOM      5  HN  UNL d   1      -2.193   1.228  -0.104  1.00  0.00     0.189 HD
ATOM      6  N   UNL d   1      -1.314  -0.703  -0.099  0.00  0.00    -0.286 N 
ATOM      7  HN  UNL d   1      -2.150  -1.287  -0.137  1.00  0.00     0.188 HD
ENDROOT
BRANCH   1   8
ATOM      8  N   UNL d   1       0.240   2.525  -0.027  0.00  0.00    -0.332 N 
ATOM      9  C   UNL d   1      -0.728   3.379  -0.035  0.00  0.00     0.179 C 
ATOM     10  HN  UNL d   1       1.218   2.814  -0.015  1.00  0.00     0.168 HD
BRANCH   9  11
ATOM     11  N   UNL d   1      -0.600   4.753  -0.041  0.00  0.00    -0.386 N 
ATOM     12  C   UNL d   1       0.699   5.406  -0.042  0.00  0.00     0.149 C 
ATOM     13  C   UNL d   1      -1.753   5.638  -0.043  0.00  0.00     0.149 C 
ENDBRANCH   9  11
ENDBRANCH   1   8
BRANCH   3  14
ATOM     14  S   UNL d   1       0.268  -2.889  -0.061  0.00  0.00    -0.103 SA
BRANCH  14  15
ATOM     15  C   UNL d   1      -1.222  -3.549  -0.869  0.00  0.00     0.081 C 
BRANCH  15  16
ATOM     16  C   UNL d   1      -1.145  -5.074  -0.942  0.00  0.00     0.006 C 
ATOM     17  C   UNL d   1      -2.353  -5.657  -1.661  0.00  0.00     0.006 C 
ENDBRANCH  15  16
ENDBRANCH  14  15
ENDBRANCH   3  14
TORSDOF 5
