REMARK  6 active torsions:
REMARK  status: ('A' for Active; 'I' for Inactive)
REMARK    1  A    between atoms: C_14  and  C_1 
REMARK    2  A    between atoms: C_20  and  N_2 
REMARK    3  A    between atoms: C_17  and  C_10 
REMARK    4  A    between atoms: C_11  and  C_19 
REMARK       I    between atoms: N_16  and  C_14 
REMARK    5  A    between atoms: C_15  and  C_18 
REMARK    6  A    between atoms: C_19  and  N_16 
ROOT
ATOM      1  C   UNL d   1      -0.266  -2.538   0.073  0.00  0.00     0.260 C 
ATOM      2  N   UNL d   1       0.890  -3.280   0.125  0.00  0.00    -0.351 N 
ATOM      3  O   UNL d   1      -1.358  -3.107   0.049  0.00  0.00    -0.267 OA
ATOM      4  H   UNL d   1       1.802  -2.834   0.120  0.00  0.00     0.163 HD
ENDROOT
BRANCH   1   5
ATOM      5  C   UNL d   1      -0.129  -1.089   0.050  0.00  0.00     0.096 A 
ATOM      6  S   UNL d   1       1.386  -0.285   0.099  0.00  0.00    -0.064 SA
ATOM      7  C   UNL d   1       0.598   1.248   0.024  0.00  0.00     0.085 A 
ATOM      8  N   UNL d   1      -0.717   1.179  -0.002  0.00  0.00    -0.352 N 
ATOM      9  C   UNL d   1      -1.142  -0.142  -0.014  0.00  0.00     0.029 A 
ATOM     10  HN  UNL d   1      -1.339   1.987  -0.013  1.00  0.00     0.166 HD
ATOM     11  C   UNL d   1      -2.606  -0.400  -0.096  0.00  0.00     0.070 C 
BRANCH   7  12
ATOM     12  C   UNL d   1       1.354   2.517   0.025  0.00  0.00    -0.002 A 
ATOM     13  C   UNL d   1       2.633   2.635  -0.537  0.00  0.00     0.015 A 
ATOM     14  C   UNL d   1       3.310   3.862  -0.539  0.00  0.00     0.017 A 
ATOM     15  C   UNL d   1       2.726   5.007   0.021  0.00  0.00     0.048 A 
ATOM     16  C   UNL d   1       1.445   4.899   0.578  0.00  0.00     0.017 A 
ATOM     17  C   UNL d   1       0.769   3.672   0.572  0.00  0.00     0.015 A 
BRANCH  15  18
ATOM     18  C   UNL d   1       3.475   6.318   0.008  0.00  0.00     0.417 C 
ATOM     19  F   UNL d   1       2.790   7.348   0.577  0.00  0.00    -0.166 F 
ATOM     20  F   UNL d   1       4.660   6.244   0.677  0.00  0.00    -0.166 F 
ATOM     21  F   UNL d   1       3.785   6.728  -1.253  0.00  0.00    -0.166 F 
ENDBRANCH  15  18
ENDBRANCH   7  12
ENDBRANCH   1   5
BRANCH   2  22
ATOM     22  C   UNL d   1       0.863  -4.730   0.145  0.00  0.00     0.183 C 
BRANCH  22  23
ATOM     23  C   UNL d   1       2.252  -5.274   0.124  0.00  0.00     0.069 A 
ATOM     24  N   UNL d   1       3.321  -4.465   0.051  0.00  0.00    -0.280 N 
ATOM     25  N   UNL d   1       4.357  -5.346   0.001  0.00  0.00    -0.197 N 
ATOM     26  HN  UNL d   1       3.350  -3.446   0.037  1.00  0.00     0.189 HD
ATOM     27  N   UNL d   1       4.021  -6.661   0.052  0.00  0.00    -0.282 N 
ATOM     28  C   UNL d   1       2.688  -6.621   0.163  0.00  0.00     0.049 A 
ATOM     29  HN  UNL d   1       4.632  -7.477   0.014  1.00  0.00     0.189 HD
ATOM     30  C   UNL d   1       1.896  -7.864   0.304  0.00  0.00     0.072 C 
BRANCH  25  31
ATOM     31  C   UNL d   1       5.699  -4.899  -0.098  0.00  0.00     0.074 A 
ATOM     32  C   UNL d   1       5.975  -3.527   0.012  0.00  0.00     0.033 A 
ATOM     33  C   UNL d   1       7.289  -3.070  -0.081  0.00  0.00     0.002 A 
ATOM     34  C   UNL d   1       8.327  -3.975  -0.297  0.00  0.00     0.000 A 
ATOM     35  C   UNL d   1       8.056  -5.340  -0.413  0.00  0.00     0.002 A 
ATOM     36  C   UNL d   1       6.744  -5.808  -0.305  0.00  0.00     0.033 A 
ENDBRANCH  25  31
ENDBRANCH  22  23
ENDBRANCH   2  22
TORSDOF 6
