REMARK  8 active torsions:
REMARK  status: ('A' for Active; 'I' for Inactive)
REMARK    1  A    between atoms: N_2  and  C_1 
REMARK    2  A    between atoms: C_3  and  N_2 
REMARK    3  A    between atoms: O_13  and  C_4 
REMARK    4  A    between atoms: O_14  and  C_6 
REMARK    5  A    between atoms: O_15  and  C_8 
REMARK    6  A    between atoms: C_16  and  N_9 
REMARK    7  A    between atoms: C_11  and  C_18 
REMARK    8  A    between atoms: C_18  and  C_16 
ROOT
ATOM      1  C   UNL d   1       1.149   0.687   0.163  0.00  0.00     0.172 C 
ATOM      2  S   UNL d   1       0.381   0.364   1.610  0.00  0.00    -0.041 SA
ATOM      3  N   UNL d   1       2.475   0.402   0.051  0.00  0.00    -0.367 N 
ATOM      4  H   UNL d   1       2.868   0.018   0.905  0.00  0.00     0.161 HD
ENDROOT
BRANCH   3   5
ATOM      5  C   UNL d   1       3.407   1.010  -0.888  0.00  0.00     0.126 C 
BRANCH   5   6
ATOM      6  C   UNL d   1       4.889   0.770  -0.591  0.00  0.00     0.058 C 
BRANCH   6   7
ATOM      7  C   UNL d   1       5.690   1.330  -1.747  0.00  0.00    -0.054 A 
ATOM      8  C   UNL d   1       5.989   0.528  -2.870  0.00  0.00     0.046 A 
ATOM      9  C   UNL d   1       6.578   1.074  -4.025  0.00  0.00     0.102 A 
ATOM     10  C   UNL d   1       6.862   2.449  -4.055  0.00  0.00     0.101 A 
ATOM     11  C   UNL d   1       6.580   3.235  -2.925  0.00  0.00     0.040 A 
ATOM     12  C   UNL d   1       6.007   2.685  -1.783  0.00  0.00     0.010 A 
BRANCH   9  13
ATOM     13  O   UNL d   1       6.880   0.329  -5.135  0.00  0.00    -0.353 OA
ATOM     14  C   UNL d   1       6.559  -1.054  -5.142  0.00  0.00     0.210 C 
ENDBRANCH   9  13
BRANCH  10  15
ATOM     15  O   UNL d   1       7.391   3.200  -5.073  0.00  0.00    -0.353 OA
ATOM     16  C   UNL d   1       7.671   2.581  -6.318  0.00  0.00     0.210 C 
ENDBRANCH  10  15
ENDBRANCH   6   7
ENDBRANCH   5   6
ENDBRANCH   3   5
BRANCH   1  17
ATOM     17  N   UNL d   1       0.469   1.329  -0.820  0.00  0.00    -0.331 N 
ATOM     18  H   UNL d   1      -0.393   1.769  -0.516  0.00  0.00     0.168 HD
BRANCH  17  19
ATOM     19  C   UNL d   1       0.582   1.220  -2.223  0.00  0.00     0.068 A 
ATOM     20  C   UNL d   1       0.099   2.236  -3.066  0.00  0.00     0.095 A 
ATOM     21  C   UNL d   1       0.171   2.070  -4.457  0.00  0.00     0.039 A 
ATOM     22  C   UNL d   1       0.718   0.913  -5.014  0.00  0.00     0.003 A 
ATOM     23  C   UNL d   1       1.162  -0.108  -4.183  0.00  0.00     0.002 A 
ATOM     24  C   UNL d   1       1.073   0.039  -2.799  0.00  0.00     0.032 A 
BRANCH  20  25
ATOM     25  O   UNL d   1      -0.516   3.396  -2.671  0.00  0.00    -0.354 OA
ATOM     26  C   UNL d   1       0.126   4.135  -1.636  0.00  0.00     0.210 C 
ENDBRANCH  20  25
ENDBRANCH  17  19
ENDBRANCH   1  17
TORSDOF 8
