REMARK  2 active torsions:
REMARK  status: ('A' for Active; 'I' for Inactive)
REMARK    1  A    between atoms: C_9  and  C_5 
REMARK    2  A    between atoms: C_11  and  C_6 
ROOT
ATOM      1  C   UNL d   1       0.800   0.437   0.022  0.00  0.00     0.050 A 
ATOM      2  N   UNL d   1       1.459   1.542   0.460  0.00  0.00    -0.354 N 
ATOM      3  HN  UNL d   1       0.944   2.343   0.825  1.00  0.00     0.166 HD
ATOM      4  C   UNL d   1       1.456  -0.710  -0.482  0.00  0.00    -0.019 A 
ATOM      5  C   UNL d   1       2.867  -0.688  -0.560  0.00  0.00    -0.015 A 
ATOM      6  C   UNL d   1       2.809   1.558   0.403  0.00  0.00     0.043 A 
ATOM      7  C   UNL d   1       3.521   0.471  -0.093  0.00  0.00     0.043 A 
ATOM      8  C   UNL d   1      -0.678   0.546   0.083  0.00  0.00    -0.003 A 
ATOM      9  C   UNL d   1      -1.487  -0.498   0.592  0.00  0.00    -0.046 A 
ATOM     10  C   UNL d   1       0.603  -1.877  -0.941  0.00  0.00     0.042 C 
ATOM     11  C   UNL d   1      -1.318   1.692  -0.423  0.00  0.00     0.014 A 
ATOM     12  C   UNL d   1      -0.156  -2.606   0.173  0.00  0.00     0.009 C 
ATOM     13  C   UNL d   1      -0.846  -1.718   1.204  0.00  0.00     0.040 C 
ATOM     14  C   UNL d   1      -2.886  -0.402   0.528  0.00  0.00     0.008 A 
ATOM     15  C   UNL d   1      -2.711   1.783  -0.474  0.00  0.00     0.001 A 
ATOM     16  C   UNL d   1      -3.493   0.729  -0.012  0.00  0.00     0.001 A 
ENDROOT
BRANCH   5  17
ATOM     17  C   UNL d   1       3.708  -1.786  -1.101  0.00  0.00    -0.025 A 
ATOM     18  C   UNL d   1       3.462  -2.368  -2.357  0.00  0.00     0.012 A 
ATOM     19  C   UNL d   1       4.243  -3.422  -2.841  0.00  0.00     0.001 A 
ATOM     20  C   UNL d   1       5.336  -3.872  -2.109  0.00  0.00     0.000 A 
ATOM     21  C   UNL d   1       5.644  -3.272  -0.893  0.00  0.00     0.001 A 
ATOM     22  C   UNL d   1       4.831  -2.252  -0.390  0.00  0.00     0.012 A 
ENDBRANCH   5  17
BRANCH   6  23
ATOM     23  C   UNL d   1       3.471   2.787   0.904  0.00  0.00    -0.009 A 
ATOM     24  C   UNL d   1       2.885   3.559   1.925  0.00  0.00     0.013 A 
ATOM     25  C   UNL d   1       3.502   4.719   2.412  0.00  0.00     0.001 A 
ATOM     26  C   UNL d   1       4.715   5.137   1.879  0.00  0.00     0.000 A 
ATOM     27  C   UNL d   1       5.315   4.400   0.862  0.00  0.00     0.001 A 
ATOM     28  C   UNL d   1       4.695   3.241   0.379  0.00  0.00     0.013 A 
ENDBRANCH   6  23
TORSDOF 2
