REMARK  7 active torsions:
REMARK  status: ('A' for Active; 'I' for Inactive)
REMARK    1  A    between atoms: N_5  and  C_1 
REMARK    2  A    between atoms: C_8  and  C_4 
REMARK       I    between atoms: C_9  and  N_5 
REMARK    3  A    between atoms: C_22  and  C_9 
REMARK    4  A    between atoms: C_12  and  C_23 
REMARK    5  A    between atoms: O_21  and  C_12 
REMARK    6  A    between atoms: S_18  and  C_22 
REMARK    7  A    between atoms: C_23  and  S_18 
ROOT
ATOM      1  C   UNL d   1       0.436  -1.290   0.044  0.00  0.00     0.151 A 
ATOM      2  N   UNL d   1       1.556  -0.622   0.063  0.00  0.00    -0.335 N 
ATOM      3  HN  UNL d   1       2.485  -1.037   0.128  1.00  0.00     0.168 HD
ATOM      4  C   UNL d   1       1.298   0.736  -0.018  0.00  0.00     0.051 A 
ATOM      5  S   UNL d   1      -0.995  -0.373  -0.071  0.00  0.00    -0.063 SA
ATOM      6  C   UNL d   1      -0.044   1.064  -0.056  0.00  0.00     0.083 A 
ENDROOT
BRANCH   1   7
ATOM      7  N   UNL d   1       0.255  -2.644   0.100  0.00  0.00    -0.306 N 
ATOM      8  C   UNL d   1       1.315  -3.495   0.312  0.00  0.00     0.232 C 
ATOM      9  O   UNL d   1       2.486  -3.178   0.529  0.00  0.00    -0.272 OA
ATOM     10  H   UNL d   1      -0.687  -2.986  -0.022  0.00  0.00     0.171 HD
BRANCH   8  11
ATOM     11  C   UNL d   1       0.953  -4.966   0.213  0.00  0.00     0.177 C 
BRANCH  11  12
ATOM     12  S   UNL d   1       1.341  -5.606  -1.449  0.00  0.00    -0.149 SA
BRANCH  12  13
ATOM     13  C   UNL d   1       3.115  -5.186  -1.599  0.00  0.00     0.184 C 
BRANCH  13  14
ATOM     14  C   UNL d   1       3.967  -5.838  -0.532  0.00  0.00     0.149 C 
ATOM     15  O   UNL d   1       4.380  -6.988  -0.600  0.00  0.00    -0.649 OA
BRANCH  14  16
ATOM     16  O   UNL d   1       4.228  -5.052   0.537  0.00  0.00    -0.776 OA
ATOM     17  H   UNL d   1       3.797  -4.159   0.515  0.00  0.00     0.167 HD
ENDBRANCH  14  16
ENDBRANCH  13  14
ENDBRANCH  12  13
ENDBRANCH  11  12
ENDBRANCH   8  11
ENDBRANCH   1   7
BRANCH   4  18
ATOM     18  C   UNL d   1       2.404   1.690  -0.046  0.00  0.00    -0.006 A 
ATOM     19  C   UNL d   1       2.260   2.989  -0.551  0.00  0.00     0.059 A 
ATOM     20  C   UNL d   1       3.359   3.844  -0.589  0.00  0.00     0.155 A 
ATOM     21  F   UNL d   1       3.206   5.080  -1.085  0.00  0.00    -0.203 F 
ATOM     22  C   UNL d   1       4.603   3.426  -0.130  0.00  0.00     0.154 A 
ATOM     23  C   UNL d   1       4.767   2.143   0.372  0.00  0.00     0.046 A 
ATOM     24  F   UNL d   1       5.654   4.255  -0.178  0.00  0.00    -0.203 F 
ATOM     25  C   UNL d   1       3.670   1.278   0.411  0.00  0.00     0.017 A 
ENDBRANCH   4  18
TORSDOF 7
