REMARK  4 active torsions:
REMARK  status: ('A' for Active; 'I' for Inactive)
REMARK    1  A    between atoms: C_2  and  C_1 
REMARK       I    between atoms: N_3  and  C_1 
REMARK       I    between atoms: C_5  and  N_3 
REMARK    2  A    between atoms: C_4  and  C_6 
REMARK       I    between atoms: N_8  and  C_5 
REMARK    3  A    between atoms: O_17  and  C_7 
REMARK    4  A    between atoms: C_16  and  N_8 
ROOT
ATOM      1  C   UNL d   1       0.815   0.240   0.514  0.00  0.00     0.264 C 
ATOM      2  N   UNL d   1       0.126  -0.966   0.602  0.00  0.00    -0.275 N 
ATOM      3  C   UNL d   1       0.322  -2.140   1.282  0.00  0.00     0.327 C 
ATOM      4  N   UNL d   1       1.230  -2.154   2.298  0.00  0.00    -0.309 N 
ATOM      5  O   UNL d   1       1.764   0.554   1.217  0.00  0.00    -0.267 OA
ATOM      6  O   UNL d   1      -0.404  -3.065   0.919  0.00  0.00    -0.247 OA
ATOM      7  H   UNL d   1      -0.649  -1.120  -0.028  0.00  0.00     0.173 HD
ATOM      8  H   UNL d   1       1.686  -1.271   2.507  0.00  0.00     0.170 HD
ENDROOT
BRANCH   1   9
ATOM      9  C   UNL d   1       0.226   1.141  -0.526  0.00  0.00     0.098 C 
ATOM     10  C   UNL d   1      -0.017   0.682  -1.837  0.00  0.00     0.069 C 
ATOM     11  C   UNL d   1      -0.874   1.421  -2.668  0.00  0.00     0.034 C 
ATOM     12  C   UNL d   1      -1.375   2.620  -2.208  0.00  0.00     0.091 C 
ATOM     13  N   UNL d   1      -1.052   3.134  -1.007  0.00  0.00    -0.346 N 
ATOM     14  C   UNL d   1      -0.258   2.403  -0.183  0.00  0.00     0.158 C 
ATOM     15  HN  UNL d   1      -1.396   4.051  -0.722  1.00  0.00     0.167 HD
BRANCH  10  16
ATOM     16  C   UNL d   1       0.582  -0.591  -2.366  0.00  0.00     0.418 C 
ATOM     17  F   UNL d   1       1.833  -0.836  -1.902  0.00  0.00    -0.166 F 
ATOM     18  F   UNL d   1      -0.177  -1.668  -2.032  0.00  0.00    -0.166 F 
ATOM     19  F   UNL d   1       0.677  -0.607  -3.724  0.00  0.00    -0.166 F 
ENDBRANCH  10  16
BRANCH  14  20
ATOM     20  O   UNL d   1      -0.001   2.919   1.067  0.00  0.00    -0.340 OA
ATOM     21  C   UNL d   1      -0.246   4.325   1.142  0.00  0.00     0.211 C 
ENDBRANCH  14  20
ENDBRANCH   1   9
BRANCH   4  22
ATOM     22  C   UNL d   1       1.374  -3.224   3.224  0.00  0.00     0.036 A 
ATOM     23  C   UNL d   1       0.851  -4.505   3.002  0.00  0.00     0.029 A 
ATOM     24  C   UNL d   1       0.899  -5.492   3.994  0.00  0.00     0.002 A 
ATOM     25  C   UNL d   1       1.493  -5.211   5.219  0.00  0.00     0.000 A 
ATOM     26  C   UNL d   1       2.065  -3.962   5.436  0.00  0.00     0.002 A 
ATOM     27  C   UNL d   1       2.021  -2.973   4.437  0.00  0.00     0.029 A 
ENDBRANCH   4  22
TORSDOF 4
