REMARK  2 active torsions:
REMARK  status: ('A' for Active; 'I' for Inactive)
REMARK    1  A    between atoms: C_9  and  C_4 
REMARK    2  A    between atoms: C_10  and  N_5 
ROOT
ATOM      1  N   UNL d   1       0.932  -0.634   0.132  0.00  0.00    -0.289 N 
ATOM      2  HN  UNL d   1       1.746  -1.239   0.241  1.00  0.00     0.188 HD
ATOM      3  C   UNL d   1      -0.404   1.190  -0.048  0.00  0.00     0.093 A 
ATOM      4  C   UNL d   1       0.921   0.709   0.057  0.00  0.00     0.116 A 
ATOM      5  N   UNL d   1      -0.369  -1.018   0.033  0.00  0.00    -0.266 N 
ATOM      6  C   UNL d   1      -1.203   0.072  -0.065  0.00  0.00     0.142 A 
ATOM      7  C   UNL d   1      -0.870   2.535  -0.130  0.00  0.00     0.103 C 
ATOM      8  N   UNL d   1      -1.313   3.606  -0.197  0.00  0.00    -0.191 NA
ENDROOT
BRANCH   4   9
ATOM      9  C   UNL d   1       2.153   1.510   0.083  0.00  0.00     0.174 C 
ATOM     10  O   UNL d   1       2.110   2.737   0.004  0.00  0.00    -0.291 OA
ATOM     11  C   UNL d   1       3.491   0.821   0.192  0.00  0.00     0.098 C 
ENDBRANCH   4   9
BRANCH   5  12
ATOM     12  C   UNL d   1      -0.733  -2.394   0.027  0.00  0.00     0.056 A 
ATOM     13  C   UNL d   1       0.255  -3.374   0.212  0.00  0.00     0.031 A 
ATOM     14  C   UNL d   1      -0.087  -4.729   0.202  0.00  0.00     0.002 A 
ATOM     15  C   UNL d   1      -1.411  -5.115   0.002  0.00  0.00     0.000 A 
ATOM     16  C   UNL d   1      -2.397  -4.148  -0.184  0.00  0.00     0.002 A 
ATOM     17  C   UNL d   1      -2.064  -2.791  -0.170  0.00  0.00     0.031 A 
ENDBRANCH   5  12
TORSDOF 2
