REMARK  8 active torsions:
REMARK  status: ('A' for Active; 'I' for Inactive)
REMARK    1  A    between atoms: C_6  and  C_1 
REMARK    2  A    between atoms: C_2  and  C_6 
REMARK    3  A    between atoms: C_3  and  C_6 
REMARK    4  A    between atoms: N_31  and  C_4 
REMARK    5  A    between atoms: N_30  and  C_5 
REMARK    6  A    between atoms: C_29  and  N_15 
REMARK    7  A    between atoms: C_22  and  C_16 
REMARK    8  A    between atoms: N_20  and  C_21 
ROOT
ATOM      1  C   UNL d   1      -0.913   2.495  -0.034  0.00  0.00     0.106 C 
ENDROOT
BRANCH   1   2
ATOM      2  C   UNL d   1      -2.191   2.662  -0.850  0.00  0.00     0.061 A 
ATOM      3  C   UNL d   1      -3.435   2.251  -0.519  0.00  0.00     0.092 A 
ATOM      4  N   UNL d   1      -4.473   2.528  -1.368  0.00  0.00    -0.323 N 
ATOM      5  C   UNL d   1      -4.364   3.186  -2.551  0.00  0.00     0.179 A 
ATOM      6  H   UNL d   1      -5.390   2.176  -1.123  0.00  0.00     0.169 HD
ATOM      7  N   UNL d   1      -3.121   3.589  -2.908  0.00  0.00    -0.300 N 
ATOM      8  S   UNL d   1      -5.688   3.484  -3.510  0.00  0.00    -0.040 SA
ATOM      9  C   UNL d   1      -2.017   3.426  -2.126  0.00  0.00     0.258 A 
ATOM     10  H   UNL d   1      -3.007   4.112  -3.764  0.00  0.00     0.171 HD
ATOM     11  O   UNL d   1      -0.945   3.939  -2.433  0.00  0.00    -0.267 OA
BRANCH   3  12
ATOM     12  N   UNL d   1      -3.754   1.537   0.608  0.00  0.00    -0.288 NA
ATOM     13  H   UNL d   1      -3.019   1.429   1.308  0.00  0.00     0.125 HD
ATOM     14  H   UNL d   1      -4.649   1.771   1.018  0.00  0.00     0.125 HD
ENDBRANCH   3  12
ENDBRANCH   1   2
BRANCH   1  15
ATOM     15  C   UNL d   1      -0.970   3.179   1.331  0.00  0.00     0.061 C 
ATOM     16  C   UNL d   1      -1.136   4.512   1.507  0.00  0.00     0.092 C 
ATOM     17  N   UNL d   1      -1.057   5.033   2.769  0.00  0.00    -0.323 N 
ATOM     18  C   UNL d   1      -0.671   4.335   3.871  0.00  0.00     0.179 C 
ATOM     19  H   UNL d   1      -1.235   6.021   2.900  0.00  0.00     0.169 HD
ATOM     20  N   UNL d   1      -0.450   3.008   3.696  0.00  0.00    -0.300 N 
ATOM     21  S   UNL d   1      -0.490   5.070   5.350  0.00  0.00    -0.040 SA
ATOM     22  C   UNL d   1      -0.859   2.358   2.569  0.00  0.00     0.258 C 
ATOM     23  H   UNL d   1      -0.340   2.445   4.528  0.00  0.00     0.171 HD
ATOM     24  O   UNL d   1      -1.216   1.186   2.615  0.00  0.00    -0.267 OA
BRANCH  16  25
ATOM     25  N   UNL d   1      -1.377   5.412   0.499  0.00  0.00    -0.288 NA
ATOM     26  H   UNL d   1      -1.056   5.148  -0.431  0.00  0.00     0.125 HD
ATOM     27  H   UNL d   1      -1.107   6.366   0.721  0.00  0.00     0.125 HD
ENDBRANCH  16  25
ENDBRANCH   1  15
BRANCH   1  28
ATOM     28  C   UNL d   1      -0.359   1.079  -0.078  0.00  0.00     0.002 C 
ATOM     29  C   UNL d   1       0.995   0.605  -0.013  0.00  0.00     0.067 C 
ATOM     30  N   UNL d   1       1.037  -0.739   0.051  0.00  0.00    -0.293 N 
ATOM     31  N   UNL d   1      -0.251  -1.152  -0.040  0.00  0.00    -0.267 N 
ATOM     32  HN  UNL d   1       1.865  -1.326   0.149  1.00  0.00     0.187 HD
ATOM     33  C   UNL d   1      -1.093  -0.084  -0.197  0.00  0.00     0.127 C 
BRANCH  29  34
ATOM     34  C   UNL d   1       2.246   1.379  -0.011  0.00  0.00    -0.007 A 
ATOM     35  C   UNL d   1       2.378   2.536  -0.795  0.00  0.00     0.016 A 
ATOM     36  C   UNL d   1       3.555   3.288  -0.794  0.00  0.00     0.037 A 
ATOM     37  C   UNL d   1       4.649   2.845  -0.048  0.00  0.00     0.102 A 
ATOM     38  C   UNL d   1       4.562   1.669   0.706  0.00  0.00     0.037 A 
ATOM     39  C   UNL d   1       3.360   0.948   0.730  0.00  0.00     0.016 A 
BRANCH  37  40
ATOM     40  N   UNL d   1       5.907   3.610  -0.093  0.00  0.00    -0.116 N 
ATOM     41  O   UNL d   1       5.913   4.663  -0.738  0.00  0.00    -0.532 OA
ATOM     42  O   UNL d   1       6.878   3.147   0.517  0.00  0.00    -0.532 OA
ENDBRANCH  37  40
ENDBRANCH  29  34
BRANCH  31  43
ATOM     43  C   UNL d   1      -0.629  -2.526   0.014  0.00  0.00     0.056 A 
ATOM     44  C   UNL d   1      -1.973  -2.909  -0.153  0.00  0.00     0.031 A 
ATOM     45  C   UNL d   1      -2.340  -4.255  -0.095  0.00  0.00     0.002 A 
ATOM     46  C   UNL d   1      -1.373  -5.229   0.136  0.00  0.00     0.000 A 
ATOM     47  C   UNL d   1      -0.040  -4.858   0.308  0.00  0.00     0.002 A 
ATOM     48  C   UNL d   1       0.337  -3.512   0.245  0.00  0.00     0.031 A 
ENDBRANCH  31  43
ENDBRANCH   1  28
TORSDOF 8
