REMARK  3 active torsions:
REMARK  status: ('A' for Active; 'I' for Inactive)
REMARK    1  A    between atoms: S_16  and  C_7 
REMARK    2  A    between atoms: C_14  and  C_8 
REMARK    3  A    between atoms: C_15  and  C_9 
ROOT
ATOM      1  N   UNL d   1      -0.216   0.652   0.037  0.00  0.00    -0.060 N 
ATOM      2  C   UNL d   1      -0.046  -0.719   0.044  0.00  0.00     0.721 A 
ATOM      3  N   UNL d   1       0.773   1.592  -0.018  0.00  0.00    -0.275 N 
ATOM      4  HN  UNL d   1       0.591   2.596  -0.018  1.00  0.00     0.188 HD
ATOM      5  N   UNL d   1       1.191  -1.274   0.050  0.00  0.00    -0.185 N 
ATOM      6  HN  UNL d   1       1.324  -2.286   0.072  1.00  0.00     0.184 HD
ATOM      7  C   UNL d   1      -1.573   0.849   0.055  0.00  0.00     0.196 A 
ATOM      8  C   UNL d   1       1.976   1.081  -0.071  0.00  0.00     0.087 A 
ATOM      9  C   UNL d   1       2.201  -0.451   0.027  0.00  0.00     0.088 A 
ATOM     10  N   UNL d   1      -1.235  -1.292   0.054  0.00  0.00    -0.128 N 
ATOM     11  HN  UNL d   1      -1.412  -2.297   0.056  1.00  0.00     0.205 HD
ATOM     12  N   UNL d   1      -2.199  -0.304   0.062  0.00  0.00    -0.264 N 
ATOM     13  HN  UNL d   1      -3.209  -0.443   0.072  1.00  0.00     0.189 HD
ENDROOT
BRANCH   8  14
ATOM     14  C   UNL d   1       3.104   2.031  -0.241  0.00  0.00    -0.006 A 
ATOM     15  C   UNL d   1       3.108   3.204   0.528  0.00  0.00     0.014 A 
ATOM     16  C   UNL d   1       4.172   4.103   0.431  0.00  0.00     0.001 A 
ATOM     17  C   UNL d   1       5.232   3.834  -0.432  0.00  0.00     0.000 A 
ATOM     18  C   UNL d   1       5.213   2.690  -1.229  0.00  0.00     0.001 A 
ATOM     19  C   UNL d   1       4.137   1.802  -1.156  0.00  0.00     0.014 A 
ENDBRANCH   8  14
BRANCH   9  20
ATOM     20  C   UNL d   1       3.564  -1.049   0.077  0.00  0.00    -0.006 A 
ATOM     21  C   UNL d   1       4.589  -0.517   0.867  0.00  0.00     0.014 A 
ATOM     22  C   UNL d   1       5.879  -1.046   0.776  0.00  0.00     0.001 A 
ATOM     23  C   UNL d   1       6.134  -2.135  -0.057  0.00  0.00     0.000 A 
ATOM     24  C   UNL d   1       5.097  -2.716  -0.785  0.00  0.00     0.001 A 
ATOM     25  C   UNL d   1       3.813  -2.176  -0.717  0.00  0.00     0.014 A 
ENDBRANCH   9  20
BRANCH   7  26
ATOM     26  S   UNL d   1      -2.293   2.419   0.051  0.00  0.00    -0.103 SA
ATOM     27  H   UNL d   1      -1.155   3.128   0.004  0.00  0.00     0.110 HD
ENDBRANCH   7  26
TORSDOF 3
