REMARK  3 active torsions:
REMARK  status: ('A' for Active; 'I' for Inactive)
REMARK    1  A    between atoms: C_2  and  C_1 
REMARK    2  A    between atoms: C_6  and  C_8 
REMARK    3  A    between atoms: C_10  and  C_7 
ROOT
ATOM      1  C   UNL d   1      -0.179   1.005  -0.096  0.00  0.00     0.160 A 
ATOM      2  N   UNL d   1      -1.275   0.319  -0.332  0.00  0.00    -0.343 N 
ATOM      3  HN  UNL d   1      -2.220   0.672  -0.482  1.00  0.00     0.167 HD
ATOM      4  O   UNL d   1       0.953   0.245   0.032  0.00  0.00    -0.291 OA
ATOM      5  C   UNL d   1       0.513  -1.049  -0.103  0.00  0.00     0.103 A 
ATOM      6  C   UNL d   1      -0.848  -0.986  -0.329  0.00  0.00     0.128 A 
ENDROOT
BRANCH   1   7
ATOM      7  C   UNL d   1      -0.025   2.445   0.038  0.00  0.00     0.046 A 
ATOM      8  C   UNL d   1      -0.953   3.260   0.707  0.00  0.00     0.065 A 
ATOM      9  C   UNL d   1      -0.772   4.657   0.669  0.00  0.00     0.034 A 
ATOM     10  C   UNL d   1       0.327   5.181   0.014  0.00  0.00     0.088 A 
ATOM     11  N   UNL d   1       1.255   4.418  -0.596  0.00  0.00    -0.374 N 
ATOM     12  C   UNL d   1       1.056   3.079  -0.573  0.00  0.00     0.104 A 
ATOM     13  HN  UNL d   1       2.069   4.830  -1.054  1.00  0.00     0.164 HD
BRANCH   8  14
ATOM     14  C   UNL d   1      -2.143   2.727   1.466  0.00  0.00     0.418 C 
ATOM     15  F   UNL d   1      -2.029   1.453   1.920  0.00  0.00    -0.166 F 
ATOM     16  F   UNL d   1      -2.383   3.469   2.592  0.00  0.00    -0.166 F 
ATOM     17  F   UNL d   1      -3.294   2.793   0.745  0.00  0.00    -0.166 F 
ENDBRANCH   8  14
ENDBRANCH   1   7
BRANCH   5  18
ATOM     18  C   UNL d   1       1.487  -2.124   0.026  0.00  0.00    -0.001 A 
ATOM     19  C   UNL d   1       2.865  -1.868   0.109  0.00  0.00     0.016 A 
ATOM     20  C   UNL d   1       3.783  -2.919   0.232  0.00  0.00     0.024 A 
ATOM     21  C   UNL d   1       3.332  -4.235   0.275  0.00  0.00     0.034 A 
ATOM     22  C   UNL d   1       1.972  -4.513   0.194  0.00  0.00     0.024 A 
ATOM     23 CL   UNL d   1       4.460  -5.525   0.424  0.00  0.00    -0.084 Cl
ATOM     24  C   UNL d   1       1.056  -3.462   0.069  0.00  0.00     0.016 A 
ENDBRANCH   5  18
TORSDOF 3
