REMARK  4 active torsions:
REMARK  status: ('A' for Active; 'I' for Inactive)
REMARK    1  A    between atoms: C_3  and  C_1 
REMARK       I    between atoms: N_4  and  C_1 
REMARK    2  A    between atoms: C_2  and  C_5 
REMARK    3  A    between atoms: C_6  and  C_10 
REMARK    4  A    between atoms: O_17  and  C_11 
ROOT
ATOM      1  C   UNL d   1       0.605   0.597   0.436  0.00  0.00     0.254 C 
ATOM      2  N   UNL d   1      -0.057  -0.625   0.614  0.00  0.00    -0.348 N 
ATOM      3  O   UNL d   1       1.552   0.983   1.107  0.00  0.00    -0.267 OA
ATOM      4  C   UNL d   1       0.480  -1.548   1.604  0.00  0.00     0.127 C 
ATOM      5  C   UNL d   1      -0.941  -1.245  -0.375  0.00  0.00     0.127 C 
ATOM      6  C   UNL d   1      -1.638  -2.999   1.419  0.00  0.00     0.024 C 
ATOM      7  C   UNL d   1      -2.070  -2.057   0.272  0.00  0.00     0.029 C 
ATOM      8  C   UNL d   1      -0.634  -2.266   2.341  0.00  0.00     0.029 C 
ENDROOT
BRANCH   1   9
ATOM      9  C   UNL d   1       0.082   1.532  -0.588  0.00  0.00     0.047 A 
ATOM     10  C   UNL d   1       0.880   2.049  -1.619  0.00  0.00     0.063 A 
ATOM     11  C   UNL d   1       0.269   2.909  -2.555  0.00  0.00     0.017 A 
ATOM     12  C   UNL d   1      -1.084   3.243  -2.459  0.00  0.00     0.001 A 
ATOM     13  C   UNL d   1      -1.848   2.758  -1.405  0.00  0.00     0.001 A 
ATOM     14  C   UNL d   1      -1.263   1.923  -0.460  0.00  0.00     0.018 A 
BRANCH  10  15
ATOM     15  C   UNL d   1       2.355   1.775  -1.773  0.00  0.00     0.418 C 
ATOM     16  F   UNL d   1       2.838   0.681  -1.131  0.00  0.00    -0.166 F 
ATOM     17  F   UNL d   1       2.682   1.571  -3.088  0.00  0.00    -0.166 F 
ATOM     18  F   UNL d   1       3.120   2.833  -1.383  0.00  0.00    -0.166 F 
ENDBRANCH  10  15
ENDBRANCH   1   9
BRANCH   6  19
ATOM     19  C   UNL d   1      -1.185  -4.403   1.016  0.00  0.00    -0.021 A 
ATOM     20  C   UNL d   1      -1.413  -5.531   1.836  0.00  0.00     0.074 A 
ATOM     21  C   UNL d   1      -1.025  -6.815   1.422  0.00  0.00     0.037 A 
ATOM     22  C   UNL d   1      -0.420  -7.013   0.184  0.00  0.00     0.003 A 
ATOM     23  C   UNL d   1      -0.211  -5.926  -0.649  0.00  0.00     0.001 A 
ATOM     24  C   UNL d   1      -0.580  -4.643  -0.232  0.00  0.00     0.010 A 
BRANCH  20  25
ATOM     25  O   UNL d   1      -2.207  -5.513   2.956  0.00  0.00    -0.355 OA
ATOM     26  C   UNL d   1      -1.630  -4.877   4.090  0.00  0.00     0.210 C 
ENDBRANCH  20  25
ENDBRANCH   6  19
TORSDOF 4
