REMARK  1 active torsions:
REMARK  status: ('A' for Active; 'I' for Inactive)
REMARK       I    between atoms: N_2  and  C_1 
REMARK       I    between atoms: N_4  and  C_1 
REMARK    1  A    between atoms: C_8  and  N_4 
ROOT
ATOM      1  C   UNL d   1       0.842   0.031   0.075  0.00  0.00     0.327 C 
ATOM      2  N   UNL d   1       0.229  -1.085   0.687  0.00  0.00    -0.299 N 
ATOM      3  C   UNL d   1      -0.881  -1.760   0.044  0.00  0.00     0.045 A 
ATOM      4  N   UNL d   1       1.933   0.560   0.742  0.00  0.00    -0.309 N 
ATOM      5  O   UNL d   1       0.423   0.526  -0.968  0.00  0.00    -0.246 OA
ATOM      6  C   UNL d   1      -1.843  -2.437   0.825  0.00  0.00    -0.031 A 
ATOM      7  C   UNL d   1       0.540  -1.616   2.026  0.00  0.00     0.134 C 
ATOM      8  C   UNL d   1      -1.032  -1.783  -1.352  0.00  0.00     0.030 A 
ATOM      9  C   UNL d   1      -0.696  -1.597   2.906  0.00  0.00     0.025 C 
ATOM     10  C   UNL d   1      -1.748  -2.526   2.326  0.00  0.00     0.042 C 
ATOM     11  C   UNL d   1      -2.936  -3.070   0.203  0.00  0.00     0.009 A 
ATOM     12  C   UNL d   1      -2.119  -2.418  -1.958  0.00  0.00     0.002 A 
ATOM     13  C   UNL d   1      -3.078  -3.051  -1.180  0.00  0.00     0.001 A 
ATOM     14  H   UNL d   1       2.192   0.162   1.623  0.00  0.00     0.170 HD
ENDROOT
BRANCH   4  15
ATOM     15  C   UNL d   1       2.757   1.639   0.337  0.00  0.00     0.036 A 
ATOM     16  C   UNL d   1       2.631   2.321  -0.875  0.00  0.00     0.029 A 
ATOM     17  C   UNL d   1       3.516   3.353  -1.209  0.00  0.00     0.002 A 
ATOM     18  C   UNL d   1       4.534   3.717  -0.332  0.00  0.00     0.000 A 
ATOM     19  C   UNL d   1       4.662   3.055   0.885  0.00  0.00     0.002 A 
ATOM     20  C   UNL d   1       3.779   2.024   1.217  0.00  0.00     0.029 A 
ENDBRANCH   4  15
TORSDOF 1
