REMARK  3 active torsions:
REMARK  status: ('A' for Active; 'I' for Inactive)
REMARK    1  A    between atoms: C_3  and  C_1 
REMARK    2  A    between atoms: C_2  and  C_3 
REMARK    3  A    between atoms: C_9  and  C_5 
ROOT
ATOM      1  C   UNL d   1       2.294  -3.858   0.008  0.00  0.00     0.096 C 
ATOM      2  C   UNL d   1       2.350  -5.204  -0.073  0.00  0.00     0.040 C 
ATOM      3  C   UNL d   1       1.054  -3.159  -0.008  0.00  0.00     0.103 C 
ATOM      4  N   UNL d   1       0.033  -2.610  -0.006  0.00  0.00    -0.191 NA
ENDROOT
BRANCH   1   5
ATOM      5  C   UNL d   1       3.610  -3.137   0.033  0.00  0.00     0.204 C 
ATOM      6  O   UNL d   1       4.626  -3.695  -0.375  0.00  0.00    -0.286 OA
BRANCH   5   7
ATOM      7  C   UNL d   1       3.643  -1.753   0.530  0.00  0.00     0.034 A 
ATOM      8  C   UNL d   1       2.847  -1.257   1.547  0.00  0.00     0.067 A 
ATOM      9  S   UNL d   1       3.138   0.384   1.897  0.00  0.00    -0.100 SA
ATOM     10  C   UNL d   1       4.409   0.479   0.748  0.00  0.00     0.016 A 
ATOM     11  C   UNL d   1       4.591  -0.737   0.080  0.00  0.00    -0.004 A 
ATOM     12  C   UNL d   1       5.207   1.611   0.474  0.00  0.00     0.019 A 
ATOM     13  C   UNL d   1       5.625  -0.789  -0.895  0.00  0.00     0.014 A 
ATOM     14  C   UNL d   1       6.422   0.330  -1.167  0.00  0.00     0.001 A 
ATOM     15  C   UNL d   1       6.213   1.518  -0.486  0.00  0.00     0.001 A 
ENDBRANCH   5   7
ENDBRANCH   1   5
BRANCH   2  16
ATOM     16  C   UNL d   1       1.181  -6.097  -0.156  0.00  0.00    -0.013 A 
ATOM     17  C   UNL d   1       0.548  -6.631   0.980  0.00  0.00     0.045 A 
ATOM     18  C   UNL d   1      -0.547  -7.489   0.848  0.00  0.00     0.048 A 
ATOM     19 CL   UNL d   1       1.091  -6.250   2.577  0.00  0.00    -0.083 Cl
ATOM     20  C   UNL d   1      -1.019  -7.810  -0.423  0.00  0.00     0.035 A 
ATOM     21  C   UNL d   1      -0.413  -7.278  -1.559  0.00  0.00     0.024 A 
ATOM     22 CL   UNL d   1      -2.357  -8.879  -0.593  0.00  0.00    -0.084 Cl
ATOM     23  C   UNL d   1       0.687  -6.426  -1.427  0.00  0.00     0.015 A 
ENDBRANCH   2  16
TORSDOF 3
