REMARK  2 active torsions:
REMARK  status: ('A' for Active; 'I' for Inactive)
REMARK    1  A    between atoms: C_9  and  C_5 
REMARK    2  A    between atoms: O_10  and  N_7 
ROOT
ATOM      1  C   UNL d   1      -1.288  -1.533  -0.079  0.00  0.00     0.048 C 
ATOM      2  O   UNL d   1      -1.251   1.339   0.121  0.00  0.00    -0.340 OA
ATOM      3  C   UNL d   1      -0.021  -0.764  -0.077  0.00  0.00     0.022 A 
ATOM      4  C   UNL d   1      -0.083   0.628   0.038  0.00  0.00     0.082 A 
ATOM      5  C   UNL d   1      -2.403   0.616  -0.345  0.00  0.00     0.167 C 
ATOM      6  C   UNL d   1      -2.509  -0.744   0.335  0.00  0.00     0.097 C 
ATOM      7  N   UNL d   1      -1.288  -2.793  -0.400  0.00  0.00    -0.270 N 
ATOM      8  HN  UNL d   1      -0.454  -3.319  -0.663  1.00  0.00     0.194 HD
ATOM      9  C   UNL d   1       1.218  -1.409  -0.151  0.00  0.00     0.016 A 
ATOM     10  C   UNL d   1       1.095   1.372   0.099  0.00  0.00     0.038 A 
ATOM     11  C   UNL d   1       2.393  -0.658  -0.098  0.00  0.00     0.001 A 
ATOM     12  C   UNL d   1       2.333   0.730   0.031  0.00  0.00     0.003 A 
ENDROOT
BRANCH   5  13
ATOM     13  C   UNL d   1      -3.623   1.475  -0.072  0.00  0.00    -0.029 A 
ATOM     14  C   UNL d   1      -4.475   1.848  -1.123  0.00  0.00     0.010 A 
ATOM     15  C   UNL d   1      -5.581   2.666  -0.883  0.00  0.00     0.001 A 
ATOM     16  C   UNL d   1      -5.854   3.114   0.408  0.00  0.00     0.000 A 
ATOM     17  C   UNL d   1      -5.026   2.738   1.463  0.00  0.00     0.001 A 
ATOM     18  C   UNL d   1      -3.917   1.924   1.226  0.00  0.00     0.010 A 
ENDBRANCH   5  13
BRANCH   7  19
ATOM     19  O   UNL d   1      -2.577  -3.338  -0.339  0.00  0.00    -0.285 OA
ATOM     20  C   UNL d   1      -2.517  -4.694  -0.760  0.00  0.00     0.237 C 
ENDBRANCH   7  19
TORSDOF 2
