REMARK  6 active torsions:
REMARK  status: ('A' for Active; 'I' for Inactive)
REMARK    1  A    between atoms: N_11  and  S_1 
REMARK    2  A    between atoms: C_12  and  C_4 
REMARK    3  A    between atoms: C_5  and  N_13 
REMARK    4  A    between atoms: C_15  and  N_11 
REMARK    5  A    between atoms: N_13  and  C_18 
REMARK    6  A    between atoms: C_18  and  C_15 
ROOT
ATOM      1  N   UNL d   1      -5.221   1.776  -6.389  0.00  0.00    -0.355 N 
ATOM      2  HN  UNL d   1      -5.750   2.045  -7.219  1.00  0.00     0.166 HD
ATOM      3  C   UNL d   1      -5.567   2.250  -5.173  0.00  0.00     0.045 A 
ATOM      4  C   UNL d   1      -3.799   0.991  -4.088  0.00  0.00     0.042 A 
ATOM      5  C   UNL d   1      -4.870   1.883  -4.029  0.00  0.00     0.060 A 
ATOM      6  C   UNL d   1      -4.173   0.948  -6.488  0.00  0.00     0.045 A 
ATOM      7  C   UNL d   1      -3.414   0.515  -5.374  0.00  0.00     0.017 A 
ATOM      8  C   UNL d   1      -2.323  -0.361  -5.611  0.00  0.00     0.016 A 
ATOM      9  C   UNL d   1      -3.825   0.508  -7.758  0.00  0.00     0.030 A 
ATOM     10  C   UNL d   1      -2.002  -0.796  -6.897  0.00  0.00     0.001 A 
ATOM     11  C   UNL d   1      -2.754  -0.358  -7.976  0.00  0.00     0.002 A 
ENDROOT
BRANCH   4  12
ATOM     12  N   UNL d   1      -3.051   0.682  -2.942  0.00  0.00    -0.388 N 
ATOM     13  H   UNL d   1      -2.598  -0.223  -2.965  0.00  0.00     0.159 HD
BRANCH  12  14
ATOM     14  C   UNL d   1      -3.455   1.109  -1.594  0.00  0.00     0.135 C 
BRANCH  14  15
ATOM     15  C   UNL d   1      -4.565   0.221  -1.013  0.00  0.00     0.123 C 
BRANCH  15  16
ATOM     16  N   UNL d   1      -4.068  -1.183  -0.877  0.00  0.00    -0.219 NA
ATOM     17  H   UNL d   1      -3.837  -1.543  -1.805  0.00  0.00     0.139 HD
BRANCH  16  18
ATOM     18  S   UNL d   1      -5.201  -2.213  -0.146  0.00  0.00     0.205 S 
ATOM     19  O   UNL d   1      -6.289  -2.343  -1.095  0.00  0.00    -0.212 OA
ATOM     20  O   UNL d   1      -5.408  -1.760   1.205  0.00  0.00    -0.212 OA
ATOM     21  C   UNL d   1      -4.291  -3.743  -0.124  0.00  0.00     0.179 C 
ENDBRANCH  16  18
ENDBRANCH  15  16
ENDBRANCH  14  15
ENDBRANCH  12  14
ENDBRANCH   4  12
BRANCH   3  22
ATOM     22  C   UNL d   1      -6.737   3.152  -5.117  0.00  0.00    -0.009 A 
ATOM     23  C   UNL d   1      -6.875   4.138  -4.119  0.00  0.00     0.013 A 
ATOM     24  C   UNL d   1      -8.003   4.960  -4.054  0.00  0.00     0.001 A 
ATOM     25  C   UNL d   1      -9.017   4.823  -4.996  0.00  0.00     0.000 A 
ATOM     26  C   UNL d   1      -8.903   3.863  -5.999  0.00  0.00     0.001 A 
ATOM     27  C   UNL d   1      -7.776   3.039  -6.057  0.00  0.00     0.013 A 
ENDBRANCH   3  22
TORSDOF 6
