REMARK  4 active torsions:
REMARK  status: ('A' for Active; 'I' for Inactive)
REMARK       I    between atoms: N_2  and  C_1 
REMARK       I    between atoms: N_3  and  C_1 
REMARK    1  A    between atoms: C_12  and  N_3 
REMARK    2  A    between atoms: C_4  and  C_8 
REMARK    3  A    between atoms: O_14  and  C_4 
REMARK    4  A    between atoms: C_20  and  O_14 
ROOT
ATOM      1  C   UNL d   1       0.827  -0.149  -0.224  0.00  0.00     0.322 C 
ATOM      2  N   UNL d   1       0.141   0.476  -1.265  0.00  0.00    -0.334 N 
ATOM      3  N   UNL d   1       0.572   0.323   1.044  0.00  0.00    -0.309 N 
ATOM      4  O   UNL d   1       1.619  -1.056  -0.472  0.00  0.00    -0.247 OA
ATOM      5  C   UNL d   1      -0.906   1.483  -1.173  0.00  0.00     0.128 C 
ATOM      6  C   UNL d   1       0.559   0.156  -2.630  0.00  0.00     0.128 C 
ATOM      7  C   UNL d   1      -1.811   0.575  -3.389  0.00  0.00     0.088 C 
ATOM      8  C   UNL d   1      -2.139   1.055  -1.968  0.00  0.00     0.034 C 
ATOM      9  C   UNL d   1      -0.615  -0.370  -3.443  0.00  0.00     0.034 C 
ATOM     10  H   UNL d   1      -0.024   1.134   1.126  0.00  0.00     0.170 HD
ENDROOT
BRANCH   3  11
ATOM     11  C   UNL d   1       1.254  -0.035   2.225  0.00  0.00     0.036 A 
ATOM     12  C   UNL d   1       2.250  -1.018   2.273  0.00  0.00     0.032 A 
ATOM     13  C   UNL d   1       3.015  -1.207   3.426  0.00  0.00     0.044 A 
ATOM     14  C   UNL d   1       2.758  -0.436   4.548  0.00  0.00     0.116 A 
ATOM     15  C   UNL d   1       1.719   0.487   4.555  0.00  0.00     0.044 A 
ATOM     16  F   UNL d   1       3.525  -0.581   5.636  0.00  0.00    -0.206 F 
ATOM     17  C   UNL d   1       0.963   0.684   3.394  0.00  0.00     0.032 A 
ENDBRANCH   3  11
BRANCH   7  18
ATOM     18  C   UNL d   1      -1.623   1.768  -4.303  0.00  0.00     0.263 C 
ATOM     19  O   UNL d   1      -1.157   2.846  -3.959  0.00  0.00    -0.265 OA
BRANCH  18  20
ATOM     20  O   UNL d   1      -2.157   1.494  -5.524  0.00  0.00    -0.322 OA
BRANCH  20  21
ATOM     21  C   UNL d   1      -2.571   2.647  -6.267  0.00  0.00     0.174 C 
ATOM     22  C   UNL d   1      -3.975   3.010  -5.811  0.00  0.00     0.034 C 
ENDBRANCH  20  21
ENDBRANCH  18  20
ENDBRANCH   7  18
TORSDOF 4
