REMARK  4 active torsions:
REMARK  status: ('A' for Active; 'I' for Inactive)
REMARK    1  A    between atoms: C_16  and  N_1 
REMARK    2  A    between atoms: C_15  and  C_6 
REMARK    3  A    between atoms: C_7  and  C_10 
REMARK       I    between atoms: C_10  and  N_13 
REMARK    4  A    between atoms: N_13  and  C_15 
ROOT
ATOM      1  C   UNL d   1       2.257   1.529   0.033  0.00  0.00     0.183 C 
ENDROOT
BRANCH   1   2
ATOM      2  N   UNL d   1       3.479   0.763   0.082  0.00  0.00    -0.351 N 
ATOM      3  C   UNL d   1       4.699   1.366   0.186  0.00  0.00     0.250 C 
ATOM      4  O   UNL d   1       4.849   2.583   0.183  0.00  0.00    -0.268 OA
ATOM      5  H   UNL d   1       3.380  -0.237  -0.045  0.00  0.00     0.163 HD
BRANCH   3   6
ATOM      6  C   UNL d   1       5.866   0.450   0.259  0.00  0.00     0.034 C 
ATOM      7  C   UNL d   1       5.782  -0.779   0.788  0.00  0.00     0.029 C 
ATOM      8  C   UNL d   1       7.013  -1.556   0.866  0.00  0.00    -0.002 A 
ATOM      9  C   UNL d   1       7.058  -2.756   1.584  0.00  0.00     0.014 A 
ATOM     10  C   UNL d   1       8.156  -1.110   0.195  0.00  0.00     0.079 A 
ATOM     11  C   UNL d   1       8.236  -3.503   1.623  0.00  0.00     0.001 A 
ATOM     12  C   UNL d   1       9.367  -3.064   0.934  0.00  0.00     0.003 A 
ATOM     13  C   UNL d   1       9.325  -1.870   0.213  0.00  0.00     0.037 A 
ATOM     14  O   UNL d   1       8.181   0.044  -0.542  0.00  0.00    -0.346 OA
ATOM     15  C   UNL d   1       7.176   1.020  -0.203  0.00  0.00     0.220 C 
ENDBRANCH   3   6
ENDBRANCH   1   2
BRANCH   1  16
ATOM     16  C   UNL d   1       1.086   0.606   0.018  0.00  0.00     0.069 A 
ATOM     17  N   UNL d   1       1.216  -0.728  -0.029  0.00  0.00    -0.280 N 
ATOM     18  N   UNL d   1      -0.080  -1.152  -0.074  0.00  0.00    -0.197 N 
ATOM     19  HN  UNL d   1       2.069  -1.286  -0.030  1.00  0.00     0.189 HD
ATOM     20  N   UNL d   1      -1.022  -0.170  -0.040  0.00  0.00    -0.282 N 
ATOM     21  C   UNL d   1      -0.285   0.944   0.044  0.00  0.00     0.049 A 
ATOM     22  HN  UNL d   1      -2.037  -0.260  -0.071  1.00  0.00     0.189 HD
ATOM     23  C   UNL d   1      -0.902   2.283   0.143  0.00  0.00     0.072 C 
BRANCH  18  24
ATOM     24  C   UNL d   1      -0.417  -2.528  -0.160  0.00  0.00     0.074 A 
ATOM     25  C   UNL d   1       0.589  -3.502  -0.059  0.00  0.00     0.033 A 
ATOM     26  C   UNL d   1       0.262  -4.856  -0.150  0.00  0.00     0.002 A 
ATOM     27  C   UNL d   1      -1.062  -5.243  -0.355  0.00  0.00     0.000 A 
ATOM     28  C   UNL d   1      -2.065  -4.279  -0.458  0.00  0.00     0.002 A 
ATOM     29  C   UNL d   1      -1.748  -2.921  -0.353  0.00  0.00     0.033 A 
ENDBRANCH  18  24
ENDBRANCH   1  16
TORSDOF 4
