REMARK  4 active torsions:
REMARK  status: ('A' for Active; 'I' for Inactive)
REMARK    1  A    between atoms: C_9  and  C_1 
REMARK    2  A    between atoms: S_7  and  C_4 
REMARK    3  A    between atoms: S_8  and  C_5 
REMARK    4  A    between atoms: O_10  and  C_9 
ROOT
ATOM      1  C   UNL d   1      -1.462  -0.836  -0.022  0.00  0.00     0.024 A 
ATOM      2  N   UNL d   1      -0.009   1.042   0.012  0.00  0.00    -0.319 N 
ATOM      3  HN  UNL d   1       0.278   2.020  -0.016  1.00  0.00     0.175 HD
ATOM      4  C   UNL d   1      -0.225  -1.463   0.118  0.00  0.00     0.068 A 
ATOM      5  C   UNL d   1      -1.258   0.601  -0.050  0.00  0.00     0.086 A 
ATOM      6  S   UNL d   1       1.000  -0.248   0.141  0.00  0.00    -0.006 SA
ENDROOT
BRANCH   1   7
ATOM      7  C   UNL d   1      -2.805  -1.484  -0.086  0.00  0.00     0.207 C 
BRANCH   7   8
ATOM      8  O   UNL d   1      -3.005  -2.167  -1.320  0.00  0.00    -0.396 OA
ATOM      9  H   UNL d   1      -2.903  -1.506  -2.027  0.00  0.00     0.209 HD
ENDBRANCH   7   8
ENDBRANCH   1   7
BRANCH   4  10
ATOM     10  S   UNL d   1       0.287  -3.131   0.333  0.00  0.00    -0.125 SA
ATOM     11  C   UNL d   1      -1.030  -4.180  -0.285  0.00  0.00     0.096 C 
ENDBRANCH   4  10
BRANCH   5  12
ATOM     12  S   UNL d   1      -2.574   1.776  -0.163  0.00  0.00    -0.116 SA
ATOM     13  C   UNL d   1      -1.713   3.342   0.114  0.00  0.00     0.097 C 
ENDBRANCH   5  12
TORSDOF 4
