REMARK  3 active torsions:
REMARK  status: ('A' for Active; 'I' for Inactive)
REMARK    1  A    between atoms: C_3  and  C_1 
REMARK    2  A    between atoms: C_11  and  C_2 
REMARK    3  A    between atoms: C_14  and  C_6 
ROOT
ATOM      1  C   UNL d   1      -2.607   1.572   0.105  0.00  0.00     0.157 A 
ATOM      2  N   UNL d   1      -2.873   2.377  -0.968  0.00  0.00    -0.317 N 
ATOM      3  HN  UNL d   1      -2.312   2.529  -1.806  1.00  0.00     0.169 HD
ATOM      4  C   UNL d   1      -4.033   2.905  -0.649  0.00  0.00     0.184 A 
ATOM      5  N   UNL d   1      -3.533   1.594   1.072  0.00  0.00    -0.241 N 
ATOM      6  HN  UNL d   1      -3.543   1.081   1.953  1.00  0.00     0.196 HD
ATOM      7  O   UNL d   1      -4.484   2.494   0.577  0.00  0.00    -0.217 OA
ENDROOT
BRANCH   1   8
ATOM      8  C   UNL d   1      -1.410   0.737   0.105  0.00  0.00     0.119 A 
ATOM      9  C   UNL d   1      -0.210   0.952  -0.532  0.00  0.00     0.191 A 
ATOM     10  O   UNL d   1       0.583  -0.147  -0.287  0.00  0.00    -0.291 OA
ATOM     11  C   UNL d   1      -0.192  -0.958   0.491  0.00  0.00     0.121 A 
ATOM     12  N   UNL d   1      -1.382  -0.471   0.771  0.00  0.00    -0.335 N 
ATOM     13  C   UNL d   1       0.401  -2.251   0.889  0.00  0.00     0.098 C 
ATOM     14  HN  UNL d   1      -2.113  -0.890   1.346  1.00  0.00     0.168 HD
BRANCH   9  15
ATOM     15  C   UNL d   1       0.366   2.036  -1.345  0.00  0.00     0.442 C 
ATOM     16  F   UNL d   1      -0.409   3.145  -1.424  0.00  0.00    -0.164 F 
ATOM     17  F   UNL d   1       1.556   2.453  -0.832  0.00  0.00    -0.164 F 
ATOM     18  F   UNL d   1       0.618   1.637  -2.619  0.00  0.00    -0.164 F 
ENDBRANCH   9  15
ENDBRANCH   1   8
BRANCH   4  19
ATOM     19  C   UNL d   1      -4.895   3.817  -1.388  0.00  0.00     0.039 A 
ATOM     20  C   UNL d   1      -4.948   3.828  -2.793  0.00  0.00     0.048 A 
ATOM     21 CL   UNL d   1      -4.039   2.732  -3.781  0.00  0.00    -0.083 Cl
ATOM     22  C   UNL d   1      -5.787   4.723  -3.469  0.00  0.00     0.025 A 
ATOM     23  C   UNL d   1      -6.582   5.619  -2.757  0.00  0.00     0.002 A 
ATOM     24  C   UNL d   1      -6.542   5.624  -1.367  0.00  0.00     0.001 A 
ATOM     25  C   UNL d   1      -5.707   4.731  -0.689  0.00  0.00     0.017 A 
ENDBRANCH   4  19
TORSDOF 3
