REMARK  2 active torsions:
REMARK  status: ('A' for Active; 'I' for Inactive)
REMARK    1  A    between atoms: N_4  and  C_1 
REMARK    2  A    between atoms: C_9  and  N_4 
ROOT
ATOM      1  C   UNL d   1      -0.348   1.804  -0.025  0.00  0.00     0.013 C 
ATOM      2  C   UNL d   1      -1.421   0.995   0.048  0.00  0.00     0.075 C 
ATOM      3  C   UNL d   1      -1.328  -0.461  -0.174  0.00  0.00     0.151 C 
ATOM      4  C   UNL d   1       1.197  -0.246  -0.002  0.00  0.00    -0.036 C 
ATOM      5  C   UNL d   1       1.015   1.241  -0.394  0.00  0.00     0.066 C 
ATOM      6  O   UNL d   1      -2.353  -1.142  -0.117  0.00  0.00    -0.293 OA
ATOM      7  C   UNL d   1       0.007  -1.067  -0.526  0.00  0.00     0.092 C 
ATOM      8  C   UNL d   1       2.487  -0.799  -0.636  0.00  0.00     0.015 C 
ATOM      9  C   UNL d   1       1.321  -0.389   1.530  0.00  0.00     0.015 C 
ENDROOT
BRANCH   1  10
ATOM     10  N   UNL d   1      -0.416   3.174   0.184  0.00  0.00    -0.359 N 
ATOM     11  H   UNL d   1       0.343   3.720  -0.215  0.00  0.00     0.166 HD
BRANCH  10  12
ATOM     12  C   UNL d   1      -1.103   3.849   1.219  0.00  0.00     0.032 A 
ATOM     13  C   UNL d   1      -1.615   3.195   2.352  0.00  0.00     0.032 A 
ATOM     14  C   UNL d   1      -2.351   3.888   3.317  0.00  0.00     0.044 A 
ATOM     15  C   UNL d   1      -2.584   5.245   3.152  0.00  0.00     0.116 A 
ATOM     16  C   UNL d   1      -2.096   5.919   2.042  0.00  0.00     0.044 A 
ATOM     17  F   UNL d   1      -3.293   5.909   4.074  0.00  0.00    -0.206 F 
ATOM     18  C   UNL d   1      -1.360   5.221   1.077  0.00  0.00     0.032 A 
ENDBRANCH  10  12
ENDBRANCH   1  10
TORSDOF 2
