REMARK  4 active torsions:
REMARK  status: ('A' for Active; 'I' for Inactive)
REMARK    1  A    between atoms: C_7  and  N_1 
REMARK    2  A    between atoms: C_4  and  N_12 
REMARK    3  A    between atoms: C_5  and  C_10 
REMARK       I    between atoms: N_9  and  C_5 
REMARK    4  A    between atoms: N_12  and  N_9 
ROOT
ATOM      1  C   UNL d   1       0.318   5.098  -0.946  0.00  0.00     0.270 C 
ATOM      2  N   UNL d   1      -0.858   5.763  -1.228  0.00  0.00    -0.264 N 
ATOM      3  O   UNL d   1       0.618   4.718   0.183  0.00  0.00    -0.266 OA
ATOM      4  H   UNL d   1      -0.965   6.371  -2.041  0.00  0.00     0.190 HD
ENDROOT
BRANCH   2   5
ATOM      5  N   UNL d   1      -1.639   6.164  -0.140  0.00  0.00    -0.285 N 
ATOM      6  H   UNL d   1      -1.753   5.486   0.612  0.00  0.00     0.188 HD
BRANCH   5   7
ATOM      7  C   UNL d   1      -2.502   7.222  -0.358  0.00  0.00     0.106 C 
ATOM      8  N   UNL d   1      -2.339   7.938  -1.438  0.00  0.00    -0.343 N 
ATOM      9  C   UNL d   1      -3.137   9.050  -1.733  0.00  0.00     0.050 A 
ATOM     10  HN  UNL d   1      -1.602   7.677  -2.093  1.00  0.00     0.167 HD
ATOM     11  C   UNL d   1      -2.717   9.835  -2.816  0.00  0.00     0.031 A 
ATOM     12  C   UNL d   1      -4.327   9.384  -1.078  0.00  0.00     0.027 A 
ATOM     13  C   UNL d   1      -3.465  10.929  -3.253  0.00  0.00     0.002 A 
ATOM     14  C   UNL d   1      -4.646  11.257  -2.599  0.00  0.00     0.002 A 
ATOM     15  C   UNL d   1      -5.072  10.491  -1.512  0.00  0.00     0.021 A 
ATOM     16  S   UNL d   1      -4.988   8.398   0.242  0.00  0.00    -0.120 SA
ATOM     17  C   UNL d   1      -3.519   7.482   0.738  0.00  0.00     0.157 C 
ENDBRANCH   5   7
ENDBRANCH   2   5
BRANCH   1  18
ATOM     18  C   UNL d   1       1.233   4.826  -2.097  0.00  0.00     0.036 A 
ATOM     19  C   UNL d   1       2.534   4.382  -1.814  0.00  0.00     0.053 A 
ATOM     20  C   UNL d   1       3.398   4.047  -2.865  0.00  0.00     0.103 A 
ATOM     21  C   UNL d   1       2.978   4.154  -4.197  0.00  0.00     0.036 A 
ATOM     22  C   UNL d   1       1.684   4.598  -4.476  0.00  0.00     0.003 A 
ATOM     23  C   UNL d   1       0.814   4.928  -3.433  0.00  0.00     0.017 A 
BRANCH  20  24
ATOM     24  N   UNL d   1       4.756   3.564  -2.568  0.00  0.00    -0.116 N 
ATOM     25  O   UNL d   1       5.082   3.462  -1.381  0.00  0.00    -0.532 OA
ATOM     26  O   UNL d   1       5.486   3.285  -3.529  0.00  0.00    -0.532 OA
ENDBRANCH  20  24
ENDBRANCH   1  18
TORSDOF 4
