REMARK  5 active torsions:
REMARK  status: ('A' for Active; 'I' for Inactive)
REMARK    1  A    between atoms: N_4  and  C_1 
REMARK    2  A    between atoms: N_6  and  C_1 
REMARK    3  A    between atoms: C_8  and  N_4 
REMARK    4  A    between atoms: C_9  and  N_6 
REMARK    5  A    between atoms: C_11  and  C_9 
ROOT
ATOM      1  N   UNL d   1       6.157   5.764  -3.743  0.00  0.00    -0.191 NA
ATOM      2  C   UNL d   1       5.663   4.978  -3.042  0.00  0.00     0.099 C 
ATOM      3  C   UNL d   1       5.060   4.013  -2.170  0.00  0.00     0.044 A 
ATOM      4  C   UNL d   1       3.893   2.107  -0.445  0.00  0.00    -0.040 A 
ATOM      5  C   UNL d   1       4.625   2.781  -2.667  0.00  0.00     0.023 A 
ATOM      6  C   UNL d   1       4.915   4.294  -0.809  0.00  0.00     0.023 A 
ATOM      7  C   UNL d   1       4.341   3.346   0.044  0.00  0.00     0.010 A 
ATOM      8  C   UNL d   1       4.051   1.833  -1.811  0.00  0.00     0.010 A 
ENDROOT
BRANCH   4   9
ATOM      9  C   UNL d   1       3.377   1.091   0.546  0.00  0.00     0.160 C 
BRANCH   9  10
ATOM     10  N   UNL d   1       2.521   0.053   0.007  0.00  0.00    -0.363 N 
ATOM     11  H   UNL d   1       2.911  -0.883   0.009  0.00  0.00     0.162 HD
BRANCH  10  12
ATOM     12  C   UNL d   1       1.179   0.055  -0.239  0.00  0.00     0.172 C 
ATOM     13  S   UNL d   1       0.489  -1.457  -0.432  0.00  0.00    -0.041 SA
BRANCH  12  14
ATOM     14  N   UNL d   1       0.567   1.282  -0.269  0.00  0.00    -0.333 N 
ATOM     15  H   UNL d   1       1.038   2.014   0.242  0.00  0.00     0.168 HD
BRANCH  14  16
ATOM     16  C   UNL d   1      -0.679   1.663  -0.826  0.00  0.00     0.034 A 
ATOM     17  C   UNL d   1      -1.254   2.861  -0.379  0.00  0.00     0.031 A 
ATOM     18  C   UNL d   1      -2.460   3.321  -0.922  0.00  0.00     0.026 A 
ATOM     19  C   UNL d   1      -3.088   2.596  -1.931  0.00  0.00     0.034 A 
ATOM     20  C   UNL d   1      -2.519   1.417  -2.398  0.00  0.00     0.026 A 
ATOM     21 CL   UNL d   1      -4.555   3.169  -2.620  0.00  0.00    -0.084 Cl
ATOM     22  C   UNL d   1      -1.317   0.958  -1.849  0.00  0.00     0.031 A 
ENDBRANCH  14  16
ENDBRANCH  12  14
ENDBRANCH  10  12
ENDBRANCH   9  10
ENDBRANCH   4   9
TORSDOF 5
