REMARK  2 active torsions:
REMARK  status: ('A' for Active; 'I' for Inactive)
REMARK    1  A    between atoms: N_15  and  C_4 
REMARK    2  A    between atoms: C_14  and  C_7 
ROOT
ATOM      1  C   UNL d   1       1.446   0.899  -0.018  0.00  0.00     0.073 A 
ATOM      2  C   UNL d   1       0.651   2.167   0.013  0.00  0.00     0.301 A 
ATOM      3  C   UNL d   1       0.779  -0.336  -0.030  0.00  0.00    -0.004 A 
ATOM      4  C   UNL d   1       2.868   0.964   0.022  0.00  0.00     0.045 A 
ATOM      5  C   UNL d   1       3.619  -0.245   0.036  0.00  0.00     0.077 A 
ATOM      6  O   UNL d   1      -0.730   2.059  -0.030  0.00  0.00    -0.274 OA
ATOM      7  C   UNL d   1       2.983  -1.507   0.000  0.00  0.00    -0.001 A 
ATOM      8  C   UNL d   1       1.568  -1.505  -0.049  0.00  0.00     0.027 A 
ATOM      9  C   UNL d   1      -0.695  -0.377  -0.027  0.00  0.00     0.009 A 
ATOM     10  C   UNL d   1      -1.401   0.826  -0.027  0.00  0.00     0.090 A 
ATOM     11  C   UNL d   1       5.053  -0.135   0.135  0.00  0.00     0.102 C 
ATOM     12  N   UNL d   1       6.204  -0.011   0.217  0.00  0.00    -0.191 NA
ATOM     13  O   UNL d   1       1.181   3.271   0.102  0.00  0.00    -0.259 OA
ATOM     14  C   UNL d   1      -1.471  -1.550  -0.010  0.00  0.00     0.015 A 
ATOM     15  C   UNL d   1      -2.797   0.894  -0.014  0.00  0.00     0.038 A 
ATOM     16  C   UNL d   1      -2.873  -1.504   0.000  0.00  0.00     0.001 A 
ATOM     17  C   UNL d   1      -3.536  -0.281  -0.002  0.00  0.00     0.003 A 
ENDROOT
BRANCH   4  18
ATOM     18  N   UNL d   1       3.535   2.196  -0.187  0.00  0.00    -0.301 NA
ATOM     19  H   UNL d   1       2.955   3.022   0.012  0.00  0.00     0.124 HD
ATOM     20  H   UNL d   1       4.476   2.296   0.185  0.00  0.00     0.124 HD
ENDBRANCH   4  18
BRANCH   7  21
ATOM     21  C   UNL d   1       3.693  -2.822   0.022  0.00  0.00    -0.009 A 
ATOM     22  C   UNL d   1       4.887  -3.075  -0.662  0.00  0.00     0.100 A 
ATOM     23  N   UNL d   1       5.567  -4.251  -0.650  0.00  0.00    -0.374 N 
ATOM     24  C   UNL d   1       5.033  -5.261   0.059  0.00  0.00     0.087 A 
ATOM     25  HN  UNL d   1       6.445  -4.363  -1.158  1.00  0.00     0.164 HD
ATOM     26  C   UNL d   1       3.838  -5.154   0.742  0.00  0.00     0.018 A 
ATOM     27  C   UNL d   1       3.175  -3.925   0.727  0.00  0.00     0.015 A 
ENDBRANCH   7  21
TORSDOF 2
