REMARK  8 active torsions:
REMARK  status: ('A' for Active; 'I' for Inactive)
REMARK    1  A    between atoms: C_2  and  O_16 
REMARK    2  A    between atoms: C_17  and  C_8 
REMARK    3  A    between atoms: O_20  and  C_9 
REMARK    4  A    between atoms: C_25  and  C_17 
REMARK    5  A    between atoms: O_23  and  C_18 
REMARK    6  A    between atoms: C_24  and  C_25 
REMARK    7  A    between atoms: C_27  and  C_24 
REMARK    8  A    between atoms: C_28  and  C_27 
ROOT
ATOM      1  C   UNL d   1      10.102   5.537  -9.149  0.00  0.00    -0.006 C 
ATOM      2  C   UNL d   1      10.694   5.618  -7.700  0.00  0.00     0.093 C 
ATOM      3  C   UNL d   1       6.317   3.285  -9.573  0.00  0.00    -0.036 C 
ATOM      4  C   UNL d   1       7.949   4.488  -7.947  0.00  0.00    -0.002 C 
ATOM      5  C   UNL d   1       8.522   5.420  -9.073  0.00  0.00     0.001 C 
ATOM      6  C   UNL d   1       7.445   3.119  -8.481  0.00  0.00    -0.001 C 
ATOM      7  C   UNL d   1       8.794   4.373  -6.675  0.00  0.00     0.040 C 
ATOM      8  C   UNL d   1       5.043   3.111  -8.687  0.00  0.00    -0.002 C 
ATOM      9  C   UNL d   1      10.294   4.366  -6.897  0.00  0.00     0.153 C 
ATOM     10  C   UNL d   1       6.383   4.673 -10.254  0.00  0.00     0.010 C 
ATOM     11  C   UNL d   1      12.213   5.880  -7.678  0.00  0.00     0.073 C 
ATOM     12  C   UNL d   1       7.835   5.131 -10.434  0.00  0.00     0.007 C 
ATOM     13  C   UNL d   1      10.494   6.845  -9.907  0.00  0.00     0.015 C 
ATOM     14  C   UNL d   1       6.798   2.264  -7.356  0.00  0.00     0.006 C 
ATOM     15  C   UNL d   1       5.407   1.896  -7.827  0.00  0.00     0.006 C 
ATOM     16  C   UNL d   1      12.566   7.162  -8.437  0.00  0.00     0.121 C 
ATOM     17  C   UNL d   1      10.703   4.342  -9.939  0.00  0.00     0.019 C 
ATOM     18  C   UNL d   1      11.997   7.163  -9.856  0.00  0.00     0.032 C 
ATOM     19  C   UNL d   1       6.511   2.190 -10.649  0.00  0.00     0.016 C 
ENDROOT
BRANCH   8  20
ATOM     20  C   UNL d   1       3.591   3.120  -9.210  0.00  0.00    -0.014 C 
ATOM     21  C   UNL d   1       3.297   2.111 -10.317  0.00  0.00     0.010 C 
BRANCH  20  22
ATOM     22  C   UNL d   1       2.569   2.900  -8.045  0.00  0.00     0.005 C 
BRANCH  22  23
ATOM     23  C   UNL d   1       2.780   3.814  -6.823  0.00  0.00     0.001 C 
BRANCH  23  24
ATOM     24  C   UNL d   1       1.881   3.446  -5.638  0.00  0.00     0.004 C 
BRANCH  24  25
ATOM     25  C   UNL d   1       2.229   4.235  -4.356  0.00  0.00    -0.023 C 
ATOM     26  C   UNL d   1       2.098   5.746  -4.547  0.00  0.00     0.009 C 
ATOM     27  C   UNL d   1       1.347   3.777  -3.194  0.00  0.00     0.009 C 
ENDBRANCH  24  25
ENDBRANCH  23  24
ENDBRANCH  22  23
ENDBRANCH  20  22
ENDBRANCH   8  20
BRANCH   9  28
ATOM     28  O   UNL d   1      10.911   4.395  -5.603  0.00  0.00    -0.393 OA
ATOM     29  H   UNL d   1      10.661   3.570  -5.147  0.00  0.00     0.210 HD
ENDBRANCH   9  28
BRANCH   2  30
ATOM     30  O   UNL d   1      10.110   6.763  -7.022  0.00  0.00    -0.386 OA
ATOM     31  H   UNL d   1      10.329   6.632  -6.074  0.00  0.00     0.210 HD
ENDBRANCH   2  30
BRANCH  16  32
ATOM     32  O   UNL d   1      12.073   8.307  -7.739  0.00  0.00    -0.395 OA
ATOM     33  H   UNL d   1      11.137   8.118  -7.513  0.00  0.00     0.210 HD
ENDBRANCH  16  32
TORSDOF 8
