REMARK  7 active torsions:
REMARK  status: ('A' for Active; 'I' for Inactive)
REMARK    1  A    between atoms: C_8  and  N_1 
REMARK    2  A    between atoms: C_10  and  C_2 
REMARK    3  A    between atoms: C_13  and  C_7 
REMARK    4  A    between atoms: C_9  and  C_8 
REMARK    5  A    between atoms: O_15  and  C_9 
REMARK    6  A    between atoms: O_20  and  C_14 
REMARK    7  A    between atoms: C_23  and  O_15 
ROOT
ATOM      1  N   UNL d   1       0.066  -1.450  -0.103  0.00  0.00    -0.288 N 
ATOM      2  C   UNL d   1       1.356  -0.993  -0.168  0.00  0.00     0.121 A 
ATOM      3  N   UNL d   1       1.473   0.307  -0.156  0.00  0.00    -0.337 N 
ATOM      4  HN  UNL d   1       2.334   0.853  -0.171  1.00  0.00     0.167 HD
ATOM      5  C   UNL d   1       0.180   0.783  -0.119  0.00  0.00     0.103 A 
ATOM      6  C   UNL d   1      -0.761  -0.366  -0.175  0.00  0.00     0.276 A 
ATOM      7  C   UNL d   1      -0.158   2.075  -0.003  0.00  0.00     0.046 C 
ATOM      8  O   UNL d   1      -1.975  -0.358  -0.310  0.00  0.00    -0.265 OA
ENDROOT
BRANCH   7   9
ATOM      9  C   UNL d   1      -1.536   2.558   0.096  0.00  0.00    -0.034 A 
ATOM     10  C   UNL d   1      -2.160   2.650   1.346  0.00  0.00     0.014 A 
ATOM     11  C   UNL d   1      -3.501   3.038   1.445  0.00  0.00     0.037 A 
ATOM     12  C   UNL d   1      -4.229   3.337   0.293  0.00  0.00     0.068 A 
ATOM     13  C   UNL d   1      -3.598   3.280  -0.952  0.00  0.00     0.037 A 
ATOM     14  C   UNL d   1      -2.261   2.883  -1.054  0.00  0.00     0.014 A 
BRANCH  12  15
ATOM     15  O   UNL d   1      -5.541   3.728   0.270  0.00  0.00    -0.356 OA
ATOM     16  C   UNL d   1      -6.348   3.224   1.329  0.00  0.00     0.210 C 
ENDBRANCH  12  15
ENDBRANCH   7   9
BRANCH   1  17
ATOM     17  C   UNL d   1      -0.495  -2.792   0.007  0.00  0.00     0.245 C 
BRANCH  17  18
ATOM     18  C   UNL d   1      -0.167  -3.530   1.294  0.00  0.00     0.277 C 
ATOM     19  O   UNL d   1      -0.520  -4.687   1.503  0.00  0.00    -0.263 OA
BRANCH  18  20
ATOM     20  O   UNL d   1       0.472  -2.739   2.196  0.00  0.00    -0.321 OA
BRANCH  20  21
ATOM     21  C   UNL d   1       0.464  -3.204   3.553  0.00  0.00     0.174 C 
ATOM     22  C   UNL d   1      -0.791  -2.660   4.211  0.00  0.00     0.034 C 
ENDBRANCH  20  21
ENDBRANCH  18  20
ENDBRANCH  17  18
ENDBRANCH   1  17
BRANCH   2  23
ATOM     23  C   UNL d   1       2.545  -1.883  -0.224  0.00  0.00     0.008 A 
ATOM     24  C   UNL d   1       2.530  -3.116  -0.884  0.00  0.00     0.015 A 
ATOM     25  C   UNL d   1       3.675  -3.912  -0.941  0.00  0.00     0.001 A 
ATOM     26  C   UNL d   1       4.865  -3.460  -0.382  0.00  0.00     0.000 A 
ATOM     27  C   UNL d   1       4.907  -2.216   0.244  0.00  0.00     0.001 A 
ATOM     28  C   UNL d   1       3.751  -1.432   0.330  0.00  0.00     0.015 A 
ENDBRANCH   2  23
TORSDOF 7
