REMARK  0 active torsions:
REMARK  status: ('A' for Active; 'I' for Inactive)
ROOT
ATOM      1  C   UNL d   1      -0.000   1.259  -0.001  0.00  0.00     0.196 A 
ATOM      2  N   UNL d   1       0.003  -1.572  -0.025  0.00  0.00    -0.355 N 
ATOM      3  C   UNL d   1       1.278   0.503   0.003  0.00  0.00     0.042 A 
ATOM      4  C   UNL d   1      -1.276   0.500   0.003  0.00  0.00     0.042 A 
ATOM      5  C   UNL d   1      -1.230  -0.902  -0.047  0.00  0.00     0.046 A 
ATOM      6  C   UNL d   1       1.235  -0.900  -0.044  0.00  0.00     0.046 A 
ATOM      7  O   UNL d   1      -0.002   2.486  -0.005  0.00  0.00    -0.286 OA
ATOM      8  C   UNL d   1       2.499   1.184   0.056  0.00  0.00     0.018 A 
ATOM      9  C   UNL d   1      -2.499   1.177   0.058  0.00  0.00     0.018 A 
ATOM     10  C   UNL d   1      -2.432  -1.616  -0.006  0.00  0.00     0.030 A 
ATOM     11  C   UNL d   1       2.438  -1.612   0.002  0.00  0.00     0.030 A 
ATOM     12  C   UNL d   1       3.690   0.461   0.086  0.00  0.00     0.001 A 
ATOM     13  C   UNL d   1      -3.690   0.452   0.083  0.00  0.00     0.001 A 
ATOM     14  C   UNL d   1      -3.655  -0.942   0.052  0.00  0.00     0.002 A 
ATOM     15  C   UNL d   1       3.659  -0.934   0.062  0.00  0.00     0.002 A 
ATOM     16  H   UNL d   1       0.005  -2.546  -0.296  0.00  0.00     0.166 HD
ENDROOT
TORSDOF 0
