REMARK  4 active torsions:
REMARK  status: ('A' for Active; 'I' for Inactive)
REMARK    1  A    between atoms: O_2  and  C_1 
REMARK    2  A    between atoms: C_5  and  C_1 
REMARK    3  A    between atoms: C_4  and  O_2 
REMARK    4  A    between atoms: C_6  and  C_3 
ROOT
ATOM      1  O   UNL d   1       0.206  -0.021   0.668  0.00  0.00    -0.274 OA
ENDROOT
BRANCH   1   2
ATOM      2  C   UNL d   1       0.959   0.473   1.724  0.00  0.00     0.298 C 
ATOM      3  O   UNL d   1       0.878   0.160   2.902  0.00  0.00    -0.259 OA
BRANCH   2   4
ATOM      4  C   UNL d   1       1.894   1.514   1.211  0.00  0.00     0.040 A 
ATOM      5  C   UNL d   1       2.668   2.222   2.142  0.00  0.00     0.019 A 
ATOM      6  C   UNL d   1       3.536   3.233   1.717  0.00  0.00     0.025 A 
ATOM      7  C   UNL d   1       3.634   3.537   0.361  0.00  0.00     0.034 A 
ATOM      8  C   UNL d   1       2.863   2.848  -0.574  0.00  0.00     0.025 A 
ATOM      9 CL   UNL d   1       4.710   4.772  -0.164  0.00  0.00    -0.084 Cl
ATOM     10  C   UNL d   1       1.992   1.840  -0.151  0.00  0.00     0.019 A 
ENDBRANCH   2   4
ENDBRANCH   1   2
BRANCH   1  11
ATOM     11  C   UNL d   1      -1.102  -0.559   0.772  0.00  0.00     0.093 A 
ATOM     12  C   UNL d   1      -1.760  -0.861  -0.430  0.00  0.00     0.043 A 
ATOM     13  C   UNL d   1      -3.138  -1.111  -0.420  0.00  0.00     0.018 A 
ATOM     14  C   UNL d   1      -3.840  -1.124   0.786  0.00  0.00     0.001 A 
ATOM     15  C   UNL d   1      -3.164  -0.906   1.984  0.00  0.00     0.003 A 
ATOM     16  C   UNL d   1      -1.798  -0.616   1.982  0.00  0.00     0.038 A 
BRANCH  12  17
ATOM     17  C   UNL d   1      -1.071  -0.893  -1.745  0.00  0.00     0.158 C 
ATOM     18  O   UNL d   1      -1.636  -0.428  -2.734  0.00  0.00    -0.293 OA
ATOM     19  C   UNL d   1       0.277  -1.560  -1.853  0.00  0.00     0.097 C 
ENDBRANCH  12  17
ENDBRANCH   1  11
TORSDOF 4
