REMARK  3 active torsions:
REMARK  status: ('A' for Active; 'I' for Inactive)
REMARK    1  A    between atoms: N_2  and  S_1 
REMARK    2  A    between atoms: C_9  and  S_1 
REMARK    3  A    between atoms: C_3  and  N_4 
ROOT
ATOM      1  N   UNL d   1       0.532  -1.226  -0.299  0.00  0.00    -0.203 NA
ATOM      2  N   UNL d   1      -0.875  -2.535   1.939  0.00  0.00    -0.378 N 
ATOM      3  C   UNL d   1      -0.913  -0.947  -0.036  0.00  0.00     0.127 C 
ATOM      4  C   UNL d   1       0.838  -2.636   0.128  0.00  0.00     0.127 C 
ATOM      5  C   UNL d   1       0.531  -2.856   1.626  0.00  0.00     0.138 C 
ATOM      6  C   UNL d   1      -1.288  -1.179   1.450  0.00  0.00     0.138 C 
ENDROOT
BRANCH   2   7
ATOM      7  C   UNL d   1      -1.462  -2.864   3.190  0.00  0.00     0.044 A 
ATOM      8  C   UNL d   1      -0.811  -3.212   4.430  0.00  0.00     0.017 A 
ATOM      9  C   UNL d   1      -1.659  -3.411   5.560  0.00  0.00     0.044 A 
ATOM     10  C   UNL d   1       0.586  -3.365   4.691  0.00  0.00     0.016 A 
ATOM     11  C   UNL d   1      -1.130  -3.732   6.802  0.00  0.00     0.030 A 
ATOM     12  N   UNL d   1      -2.991  -3.298   5.537  0.00  0.00    -0.359 N 
ATOM     13  C   UNL d   1       0.236  -3.878   7.016  0.00  0.00     0.002 A 
ATOM     14  C   UNL d   1       1.098  -3.695   5.954  0.00  0.00     0.001 A 
ATOM     15  C   UNL d   1      -3.588  -3.017   4.371  0.00  0.00     0.007 A 
ATOM     16  HN  UNL d   1      -3.540  -3.422   6.387  1.00  0.00     0.166 HD
ATOM     17  C   UNL d   1      -2.874  -2.835   3.201  0.00  0.00     0.054 A 
ATOM     18  C   UNL d   1      -5.075  -2.833   4.375  0.00  0.00     0.068 C 
ENDBRANCH   2   7
BRANCH   1  19
ATOM     19  S   UNL d   1       1.629  -0.039   0.250  0.00  0.00     0.243 S 
ATOM     20  O   UNL d   1       2.893  -0.684   0.523  0.00  0.00    -0.206 OA
ATOM     21  O   UNL d   1       0.975   0.774   1.255  0.00  0.00    -0.206 OA
BRANCH  19  22
ATOM     22  C   UNL d   1       1.897   0.999  -1.174  0.00  0.00     0.074 A 
ATOM     23  C   UNL d   1       1.550   2.354  -1.131  0.00  0.00     0.025 A 
ATOM     24  C   UNL d   1       2.038   3.224  -2.111  0.00  0.00     0.008 A 
ATOM     25  C   UNL d   1       2.881   2.749  -3.126  0.00  0.00    -0.062 A 
ATOM     26  C   UNL d   1       3.151   1.377  -3.205  0.00  0.00     0.008 A 
ATOM     27  C   UNL d   1       3.502   3.703  -4.106  0.00  0.00     0.048 C 
ATOM     28  C   UNL d   1       2.669   0.502  -2.228  0.00  0.00     0.025 A 
ENDBRANCH  19  22
ENDBRANCH   1  19
TORSDOF 3
