REMARK  5 active torsions:
REMARK  status: ('A' for Active; 'I' for Inactive)
REMARK    1  A    between atoms: N_2  and  S_1 
REMARK    2  A    between atoms: C_5  and  S_1 
REMARK    3  A    between atoms: C_3  and  N_2 
REMARK    4  A    between atoms: S_6  and  C_4 
REMARK    5  A    between atoms: C_13  and  S_6 
ROOT
ATOM      1  C   UNL d   1       0.951   0.250  -2.579  0.00  0.00     0.076 A 
ATOM      2  C   UNL d   1      -0.095   0.594  -3.456  0.00  0.00     0.102 A 
ATOM      3  N   UNL d   1       0.108   1.380  -4.549  0.00  0.00    -0.358 N 
ATOM      4  HN  UNL d   1      -0.665   1.632  -5.165  1.00  0.00     0.166 HD
ATOM      5  C   UNL d   1       2.231   0.740  -2.860  0.00  0.00     0.034 A 
ATOM      6  C   UNL d   1       1.362   1.815  -4.793  0.00  0.00     0.089 A 
ATOM      7  C   UNL d   1       2.446   1.518  -3.991  0.00  0.00     0.019 A 
ENDROOT
BRANCH   1   8
ATOM      8  N   UNL d   1       0.813  -0.610  -1.442  0.00  0.00    -0.278 N 
ATOM      9  H   UNL d   1       1.212  -0.280  -0.564  0.00  0.00     0.179 HD
BRANCH   8  10
ATOM     10  S   UNL d   1       1.041  -2.278  -1.624  0.00  0.00     0.263 S 
ATOM     11  O   UNL d   1       0.133  -2.786  -2.628  0.00  0.00    -0.200 OA
ATOM     12  O   UNL d   1       1.055  -2.823  -0.281  0.00  0.00    -0.200 OA
BRANCH  10  13
ATOM     13  C   UNL d   1       2.693  -2.431  -2.276  0.00  0.00     0.079 A 
ATOM     14  C   UNL d   1       3.773  -2.618  -1.404  0.00  0.00     0.026 A 
ATOM     15  C   UNL d   1       5.062  -2.766  -1.926  0.00  0.00     0.008 A 
ATOM     16  C   UNL d   1       5.279  -2.735  -3.311  0.00  0.00    -0.062 A 
ATOM     17  C   UNL d   1       4.187  -2.563  -4.172  0.00  0.00     0.008 A 
ATOM     18  C   UNL d   1       6.666  -2.924  -3.855  0.00  0.00     0.048 C 
ATOM     19  C   UNL d   1       2.895  -2.428  -3.658  0.00  0.00     0.026 A 
ENDBRANCH  10  13
ENDBRANCH   8  10
ENDBRANCH   1   8
BRANCH   2  20
ATOM     20  S   UNL d   1      -1.756  -0.020  -3.294  0.00  0.00    -0.070 SA
BRANCH  20  21
ATOM     21  C   UNL d   1      -2.641   1.277  -2.449  0.00  0.00     0.007 A 
ATOM     22  C   UNL d   1      -2.679   2.610  -2.876  0.00  0.00     0.019 A 
ATOM     23  C   UNL d   1      -3.495   3.542  -2.217  0.00  0.00     0.008 A 
ATOM     24  C   UNL d   1      -4.298   3.156  -1.135  0.00  0.00    -0.062 A 
ATOM     25  C   UNL d   1      -4.247   1.829  -0.703  0.00  0.00     0.008 A 
ATOM     26  C   UNL d   1      -5.211   4.143  -0.467  0.00  0.00     0.048 C 
ATOM     27  C   UNL d   1      -3.435   0.900  -1.359  0.00  0.00     0.019 A 
ENDBRANCH  20  21
ENDBRANCH   2  20
TORSDOF 5
