REMARK  5 active torsions:
REMARK  status: ('A' for Active; 'I' for Inactive)
REMARK    1  A    between atoms: C_2  and  C_1 
REMARK       I    between atoms: N_12  and  C_2 
REMARK    2  A    between atoms: N_3  and  C_4 
REMARK    3  A    between atoms: C_7  and  N_3 
REMARK    4  A    between atoms: C_5  and  C_7 
REMARK    5  A    between atoms: C_6  and  C_5 
ROOT
ATOM      1  N   UNL d   1       1.107  -2.613  -0.106  0.00  0.00    -0.285 NA
ATOM      2  H   UNL d   1       0.503  -3.274   0.386  0.00  0.00     0.128 HD
ENDROOT
BRANCH   1   3
ATOM      3  C   UNL d   1       0.662  -1.292   0.048  0.00  0.00     0.024 A 
ATOM      4  C   UNL d   1       1.335  -0.106  -0.313  0.00  0.00     0.052 A 
ATOM      5  C   UNL d   1       0.713   1.154  -0.162  0.00  0.00     0.019 A 
ATOM      6  C   UNL d   1      -0.581   1.259   0.337  0.00  0.00     0.001 A 
ATOM      7  C   UNL d   1      -1.272   0.106   0.674  0.00  0.00     0.002 A 
ATOM      8  C   UNL d   1      -0.663  -1.143   0.516  0.00  0.00     0.024 A 
BRANCH   4   9
ATOM      9  C   UNL d   1       2.678  -0.060  -0.941  0.00  0.00     0.251 C 
ATOM     10  O   UNL d   1       2.958  -0.671  -1.964  0.00  0.00    -0.268 OA
ATOM     11  N   UNL d   1       3.595   0.749  -0.323  0.00  0.00    -0.366 N 
ATOM     12  H   UNL d   1       3.387   1.283   0.509  0.00  0.00     0.159 HD
ATOM     13  H   UNL d   1       4.504   0.847  -0.752  0.00  0.00     0.159 HD
ENDBRANCH   4   9
ENDBRANCH   1   3
BRANCH   1  14
ATOM     14  C   UNL d   1       2.505  -2.981   0.127  0.00  0.00     0.176 C 
BRANCH  14  15
ATOM     15  C   UNL d   1       2.634  -4.499   0.015  0.00  0.00     0.172 C 
ATOM     16  O   UNL d   1       2.123  -5.258   0.841  0.00  0.00    -0.291 OA
BRANCH  15  17
ATOM     17  C   UNL d   1       3.397  -5.072  -1.127  0.00  0.00     0.011 A 
ATOM     18  C   UNL d   1       4.115  -6.259  -0.922  0.00  0.00     0.018 A 
ATOM     19  C   UNL d   1       4.865  -6.810  -1.963  0.00  0.00     0.043 A 
ATOM     20  C   UNL d   1       4.876  -6.184  -3.205  0.00  0.00     0.116 A 
ATOM     21  C   UNL d   1       4.145  -5.022  -3.428  0.00  0.00     0.043 A 
ATOM     22  F   UNL d   1       5.600  -6.710  -4.201  0.00  0.00    -0.206 F 
ATOM     23  C   UNL d   1       3.399  -4.462  -2.388  0.00  0.00     0.018 A 
ENDBRANCH  15  17
ENDBRANCH  14  15
ENDBRANCH   1  14
TORSDOF 5
