REMARK  2 active torsions:
REMARK  status: ('A' for Active; 'I' for Inactive)
REMARK    1  A    between atoms: C_11  and  N_6 
REMARK    2  A    between atoms: C_12  and  C_11 
ROOT
ATOM      1  C   UNL d   1      -0.876  -0.251  -0.173  0.00  0.00     0.072 C 
ATOM      2  N   UNL d   1       0.230  -1.237  -0.125  0.00  0.00    -0.273 NA
ATOM      3  S   UNL d   1      -0.166   1.323  -0.841  0.00  0.00    -0.102 SA
ATOM      4  C   UNL d   1       1.460  -0.548  -0.031  0.00  0.00     0.026 A 
ATOM      5  C   UNL d   1       1.459   0.790  -0.434  0.00  0.00     0.023 A 
ATOM      6  N   UNL d   1      -3.750   0.302   0.348  0.00  0.00     0.092 N 
ATOM      7  C   UNL d   1      -1.427  -0.031   1.247  0.00  0.00     0.067 C 
ATOM      8  C   UNL d   1      -1.987  -0.773  -1.088  0.00  0.00     0.067 C 
ATOM      9  C   UNL d   1      -3.230   0.114  -1.016  0.00  0.00     0.275 C 
ATOM     10  C   UNL d   1      -2.709   0.804   1.251  0.00  0.00     0.275 C 
ATOM     11  C   UNL d   1       2.658  -1.156   0.312  0.00  0.00     0.025 A 
ATOM     12  C   UNL d   1       2.614   1.555  -0.449  0.00  0.00     0.020 A 
ATOM     13  C   UNL d   1       3.810   0.955  -0.058  0.00  0.00     0.001 A 
ATOM     14  C   UNL d   1       3.833  -0.394   0.317  0.00  0.00     0.002 A 
ATOM     15  H   UNL d   1       0.132  -1.970   0.568  0.00  0.00     0.129 HD
ENDROOT
BRANCH   6  16
ATOM     16  C   UNL d   1      -4.446  -0.874   0.896  0.00  0.00     0.311 C 
BRANCH  16  17
ATOM     17  C   UNL d   1      -5.619  -1.311   0.047  0.00  0.00    -0.030 A 
ATOM     18  C   UNL d   1      -5.615  -2.565  -0.583  0.00  0.00     0.009 A 
ATOM     19  C   UNL d   1      -6.656  -2.927  -1.438  0.00  0.00     0.001 A 
ATOM     20  C   UNL d   1      -7.712  -2.045  -1.669  0.00  0.00     0.000 A 
ATOM     21  C   UNL d   1      -7.735  -0.804  -1.036  0.00  0.00     0.001 A 
ATOM     22  C   UNL d   1      -6.696  -0.439  -0.179  0.00  0.00     0.009 A 
ENDBRANCH  16  17
ENDBRANCH   6  16
TORSDOF 2
