REMARK  6 active torsions:
REMARK  status: ('A' for Active; 'I' for Inactive)
REMARK    1  A    between atoms: C_11  and  N_1 
REMARK    2  A    between atoms: S_12  and  C_5 
REMARK       I    between atoms: C_8  and  N_10 
REMARK       I    between atoms: N_15  and  C_8 
REMARK       I    between atoms: N_10  and  C_13 
REMARK    3  A    between atoms: C_21  and  S_12 
REMARK    4  A    between atoms: C_13  and  C_21 
REMARK    5  A    between atoms: C_24  and  N_15 
REMARK    6  A    between atoms: O_28  and  C_25 
ROOT
ATOM      1  N   UNL d   1      -0.004  -0.579   0.138  0.00  0.00    -0.274 N 
ATOM      2  C   UNL d   1       1.301  -0.058   0.105  0.00  0.00     0.146 C 
ATOM      3  N   UNL d   1       1.266   1.253   0.233  0.00  0.00    -0.282 N 
ATOM      4  HN  UNL d   1       2.066   1.881   0.158  1.00  0.00     0.188 HD
ATOM      5  C   UNL d   1      -0.758   0.540   0.506  0.00  0.00     0.168 C 
ATOM      6  N   UNL d   1      -0.013   1.623   0.481  0.00  0.00    -0.278 N 
ATOM      7  HN  UNL d   1      -0.342   2.578   0.625  1.00  0.00     0.189 HD
ATOM      8  C   UNL d   1       2.547  -0.778   0.075  0.00  0.00     0.050 A 
ATOM      9  S   UNL d   1       3.832  -0.249  -0.933  0.00  0.00    -0.098 SA
ATOM     10  C   UNL d   1       2.916  -1.892   0.809  0.00  0.00     0.023 A 
ATOM     11  C   UNL d   1       4.857  -1.513  -0.411  0.00  0.00     0.050 A 
ATOM     12  C   UNL d   1       4.247  -2.321   0.521  0.00  0.00     0.009 A 
ENDROOT
BRANCH   5  13
ATOM     13  S   UNL d   1      -2.454   0.694   0.840  0.00  0.00    -0.083 SA
BRANCH  13  14
ATOM     14  C   UNL d   1      -2.413   2.069   2.066  0.00  0.00     0.185 C 
BRANCH  14  15
ATOM     15  C   UNL d   1      -2.901   3.430   1.558  0.00  0.00     0.235 C 
ATOM     16  N   UNL d   1      -2.121   4.022   0.577  0.00  0.00    -0.278 N 
ATOM     17  C   UNL d   1      -2.248   5.257  -0.047  0.00  0.00     0.327 C 
ATOM     18  H   UNL d   1      -1.441   3.436   0.111  0.00  0.00     0.173 HD
ATOM     19  N   UNL d   1      -3.036   6.194   0.581  0.00  0.00    -0.309 N 
ATOM     20  O   UNL d   1      -1.621   5.422  -1.091  0.00  0.00    -0.247 OA
ATOM     21  H   UNL d   1      -3.411   5.927   1.487  0.00  0.00     0.170 HD
ATOM     22  O   UNL d   1      -3.842   4.015   2.103  0.00  0.00    -0.272 OA
BRANCH  19  23
ATOM     23  C   UNL d   1      -3.295   7.526   0.141  0.00  0.00     0.036 A 
ATOM     24  C   UNL d   1      -3.003   7.981  -1.149  0.00  0.00     0.029 A 
ATOM     25  C   UNL d   1      -3.279   9.301  -1.534  0.00  0.00     0.002 A 
ATOM     26  C   UNL d   1      -3.842  10.194  -0.629  0.00  0.00     0.000 A 
ATOM     27  C   UNL d   1      -4.141   9.759   0.660  0.00  0.00     0.002 A 
ATOM     28  C   UNL d   1      -3.881   8.433   1.039  0.00  0.00     0.029 A 
ENDBRANCH  19  23
ENDBRANCH  14  15
ENDBRANCH  13  14
ENDBRANCH   5  13
BRANCH   1  29
ATOM     29  C   UNL d   1      -0.348  -1.946  -0.149  0.00  0.00     0.043 A 
ATOM     30  C   UNL d   1      -1.352  -2.655   0.522  0.00  0.00     0.033 A 
ATOM     31  C   UNL d   1      -1.513  -4.048   0.298  0.00  0.00     0.039 A 
ATOM     32  C   UNL d   1      -0.700  -4.731  -0.611  0.00  0.00     0.068 A 
ATOM     33  C   UNL d   1       0.249  -4.008  -1.323  0.00  0.00     0.039 A 
ATOM     34  C   UNL d   1       0.416  -2.639  -1.107  0.00  0.00     0.033 A 
BRANCH  32  35
ATOM     35  O   UNL d   1      -0.731  -6.057  -0.933  0.00  0.00    -0.356 OA
ATOM     36  C   UNL d   1      -1.436  -6.949  -0.084  0.00  0.00     0.210 C 
ENDBRANCH  32  35
ENDBRANCH   1  29
TORSDOF 6
