REMARK  0 active torsions:
REMARK  status: ('A' for Active; 'I' for Inactive)
ROOT
ATOM      1  C   UNL d   1      -0.026   0.701   0.021  0.00  0.00     0.059 A 
ATOM      2  C   UNL d   1       1.252   1.437   0.027  0.00  0.00     0.258 A 
ATOM      3  C   UNL d   1       0.035  -0.698   0.037  0.00  0.00     0.050 A 
ATOM      4  N   UNL d   1       1.254  -1.399   0.052  0.00  0.00    -0.351 N 
ATOM      5  HN  UNL d   1       1.277  -2.418   0.073  1.00  0.00     0.166 HD
ATOM      6  N   UNL d   1       2.381   0.658   0.023  0.00  0.00    -0.319 N 
ATOM      7  C   UNL d   1       2.340  -0.706   0.041  0.00  0.00     0.183 A 
ATOM      8  C   UNL d   1      -1.249   1.378  -0.009  0.00  0.00     0.021 A 
ATOM      9  C   UNL d   1      -1.159  -1.421   0.026  0.00  0.00     0.054 A 
ATOM     10  O   UNL d   1       1.301   2.660   0.034  0.00  0.00    -0.267 OA
ATOM     11  C   UNL d   1      -2.384  -0.752  -0.009  0.00  0.00     0.036 A 
ATOM     12  C   UNL d   1      -2.435   0.643  -0.028  0.00  0.00     0.025 A 
ATOM     13 CL   UNL d   1      -3.848  -1.656  -0.038  0.00  0.00    -0.084 Cl
ATOM     14  H   UNL d   1       3.263   1.149   0.021  0.00  0.00     0.169 HD
ENDROOT
TORSDOF 0
