REMARK  4 active torsions:
REMARK  status: ('A' for Active; 'I' for Inactive)
REMARK    1  A    between atoms: C_4  and  C_1 
REMARK    2  A    between atoms: C_19  and  C_9 
REMARK    3  A    between atoms: C_18  and  N_10 
REMARK    4  A    between atoms: C_16  and  C_13 
ROOT
ATOM      1  C   UNL d   1      -0.337   1.174  -0.027  0.00  0.00     0.015 A 
ATOM      2  N   UNL d   1       0.262  -0.941   0.640  0.00  0.00    -0.293 N 
ATOM      3  HN  UNL d   1       0.569  -1.733   1.204  1.00  0.00     0.187 HD
ATOM      4  C   UNL d   1       0.265   0.349   0.990  0.00  0.00     0.069 A 
ATOM      5  N   UNL d   1      -0.237  -0.976  -0.621  0.00  0.00    -0.267 N 
ATOM      6  C   UNL d   1      -0.635   0.277  -1.035  0.00  0.00     0.128 A 
ENDROOT
BRANCH   1   7
ATOM      7  C   UNL d   1      -0.590   2.662   0.103  0.00  0.00     0.157 C 
ATOM      8  N   UNL d   1      -1.039   3.341  -1.099  0.00  0.00    -0.284 N 
ATOM      9  C   UNL d   1      -1.932   4.371  -0.970  0.00  0.00     0.151 C 
ATOM     10  C   UNL d   1      -0.244   3.393  -2.223  0.00  0.00     0.236 C 
ATOM     11  S   UNL d   1      -2.038   5.335  -2.413  0.00  0.00    -0.084 SA
ATOM     12  N   UNL d   1      -2.635   4.672   0.068  0.00  0.00    -0.336 N 
ATOM     13  C   UNL d   1      -0.701   4.435  -3.210  0.00  0.00     0.185 C 
ATOM     14  C   UNL d   1      -2.490   3.870   1.168  0.00  0.00     0.043 C 
ATOM     15  HN  UNL d   1      -3.270   5.470   0.070  1.00  0.00     0.168 HD
ATOM     16  C   UNL d   1      -1.543   2.928   1.224  0.00  0.00     0.034 C 
ATOM     17  O   UNL d   1       0.772   2.731  -2.408  0.00  0.00    -0.272 OA
BRANCH  14  18
ATOM     18  C   UNL d   1      -3.322   4.109   2.374  0.00  0.00    -0.010 A 
ATOM     19  C   UNL d   1      -3.660   5.414   2.758  0.00  0.00     0.014 A 
ATOM     20  C   UNL d   1      -4.399   5.650   3.925  0.00  0.00     0.007 A 
ATOM     21  C   UNL d   1      -4.820   4.585   4.731  0.00  0.00    -0.062 A 
ATOM     22  C   UNL d   1      -4.501   3.282   4.349  0.00  0.00     0.007 A 
ATOM     23  C   UNL d   1      -5.620   4.847   5.971  0.00  0.00     0.048 C 
ATOM     24  C   UNL d   1      -3.769   3.048   3.182  0.00  0.00     0.014 A 
ENDBRANCH  14  18
ENDBRANCH   1   7
BRANCH   4  25
ATOM     25  C   UNL d   1       0.703   0.775   2.326  0.00  0.00    -0.007 A 
ATOM     26  C   UNL d   1       1.493   1.922   2.491  0.00  0.00     0.014 A 
ATOM     27  C   UNL d   1       1.664   2.491   3.752  0.00  0.00     0.001 A 
ATOM     28  C   UNL d   1       1.095   1.885   4.871  0.00  0.00     0.000 A 
ATOM     29  C   UNL d   1       0.383   0.695   4.730  0.00  0.00     0.001 A 
ATOM     30  C   UNL d   1       0.185   0.141   3.463  0.00  0.00     0.014 A 
ENDBRANCH   4  25
BRANCH   5  31
ATOM     31  C   UNL d   1      -0.317  -2.211  -1.328  0.00  0.00     0.056 A 
ATOM     32  C   UNL d   1      -0.704  -2.257  -2.677  0.00  0.00     0.031 A 
ATOM     33  C   UNL d   1      -0.757  -3.487  -3.345  0.00  0.00     0.002 A 
ATOM     34  C   UNL d   1      -0.439  -4.667  -2.680  0.00  0.00     0.000 A 
ATOM     35  C   UNL d   1      -0.060  -4.632  -1.340  0.00  0.00     0.002 A 
ATOM     36  C   UNL d   1       0.004  -3.407  -0.667  0.00  0.00     0.031 A 
ENDBRANCH   5  31
TORSDOF 4
