REMARK  4 active torsions:
REMARK  status: ('A' for Active; 'I' for Inactive)
REMARK    1  A    between atoms: N_5  and  C_1 
REMARK    2  A    between atoms: N_6  and  C_2 
REMARK    3  A    between atoms: N_4  and  C_3 
REMARK    4  A    between atoms: C_7  and  C_8 
ROOT
ATOM      1  C   UNL d   1       1.765  -0.124   0.838  0.00  0.00     0.132 A 
ATOM      2  C   UNL d   1       0.255  -0.988  -0.753  0.00  0.00     0.132 A 
ATOM      3  C   UNL d   1       1.466  -1.189  -0.044  0.00  0.00     0.097 A 
ATOM      4  C   UNL d   1      -0.203   1.193   0.241  0.00  0.00     0.052 A 
ATOM      5  C   UNL d   1      -0.568   0.159  -0.623  0.00  0.00     0.054 A 
ATOM      6  C   UNL d   1       0.977   1.043   0.969  0.00  0.00     0.054 A 
ENDROOT
BRANCH   3   7
ATOM      7  N   UNL d   1       2.242  -2.351  -0.258  0.00  0.00    -0.372 N 
ATOM      8  C   UNL d   1       3.717  -2.218  -0.256  0.00  0.00     0.162 C 
ATOM      9  C   UNL d   1       4.470  -3.512  -0.456  0.00  0.00    -0.034 A 
ATOM     10  C   UNL d   1       5.865  -3.454  -0.639  0.00  0.00     0.009 A 
ATOM     11  C   UNL d   1       3.849  -4.760  -0.316  0.00  0.00    -0.049 A 
ATOM     12  C   UNL d   1       6.628  -4.618  -0.687  0.00  0.00     0.001 A 
ATOM     13  C   UNL d   1       6.007  -5.856  -0.556  0.00  0.00     0.001 A 
ATOM     14  C   UNL d   1       4.623  -5.928  -0.383  0.00  0.00     0.008 A 
ATOM     15  C   UNL d   1       2.356  -4.840  -0.150  0.00  0.00     0.059 C 
ATOM     16  C   UNL d   1       1.738  -3.559   0.432  0.00  0.00     0.128 C 
ENDBRANCH   3   7
BRANCH   2  17
ATOM     17  N   UNL d   1      -0.218  -1.984  -1.697  0.00  0.00    -0.113 N 
ATOM     18  O   UNL d   1       0.330  -2.023  -2.806  0.00  0.00    -0.532 OA
ATOM     19  O   UNL d   1      -1.196  -2.660  -1.345  0.00  0.00    -0.532 OA
ENDBRANCH   2  17
BRANCH   1  20
ATOM     20  N   UNL d   1       2.861  -0.181   1.783  0.00  0.00    -0.113 N 
ATOM     21  O   UNL d   1       2.725  -0.937   2.753  0.00  0.00    -0.532 OA
ATOM     22  O   UNL d   1       3.822   0.564   1.564  0.00  0.00    -0.532 OA
ENDBRANCH   1  20
BRANCH   4  23
ATOM     23  C   UNL d   1      -1.033   2.445   0.407  0.00  0.00     0.417 C 
ATOM     24  F   UNL d   1      -2.256   2.362  -0.180  0.00  0.00    -0.166 F 
ATOM     25  F   UNL d   1      -1.258   2.740   1.715  0.00  0.00    -0.166 F 
ATOM     26  F   UNL d   1      -0.424   3.536  -0.127  0.00  0.00    -0.166 F 
ENDBRANCH   4  23
TORSDOF 4
