REMARK  2 active torsions:
REMARK  status: ('A' for Active; 'I' for Inactive)
REMARK    1  A    between atoms: C_2  and  S_1 
REMARK    2  A    between atoms: N_5  and  S_1 
ROOT
ATOM      1  C   UNL d   1       0.497  -0.314  -1.838  0.00  0.00     0.116 A 
ATOM      2  S   UNL d   1       1.008  -1.726  -2.654  0.00  0.00    -0.074 SA
ATOM      3  C   UNL d   1       0.254  -1.250  -4.117  0.00  0.00     0.042 A 
ATOM      4  C   UNL d   1       0.351  -2.025  -5.325  0.00  0.00     0.117 A 
ATOM      5  C   UNL d   1      -0.294   0.479  -2.646  0.00  0.00     0.034 A 
ATOM      6  C   UNL d   1      -0.424  -0.056  -3.962  0.00  0.00     0.024 A 
ATOM      7  N   UNL d   1       0.009  -2.549  -7.500  0.00  0.00    -0.272 N 
ATOM      8  HN  UNL d   1      -0.315  -2.515  -8.467  1.00  0.00     0.194 HD
ATOM      9  O   UNL d   1      -0.262  -1.641  -6.492  0.00  0.00    -0.237 OA
ATOM     10  C   UNL d   1       1.023  -3.205  -5.581  0.00  0.00     0.059 A 
ATOM     11  C   UNL d   1       0.784  -3.475  -6.939  0.00  0.00     0.117 A 
ENDROOT
BRANCH   1  12
ATOM     12  S   UNL d   1       1.063  -0.127  -0.162  0.00  0.00     0.250 S 
ATOM     13  O   UNL d   1       0.502   1.129   0.283  0.00  0.00    -0.205 OA
ATOM     14  O   UNL d   1       2.494  -0.335  -0.215  0.00  0.00    -0.205 OA
BRANCH  12  15
ATOM     15  N   UNL d   1       0.371  -1.381   0.769  0.00  0.00    -0.206 NA
ATOM     16  C   UNL d   1      -1.091  -1.294   0.996  0.00  0.00     0.107 C 
ATOM     17  C   UNL d   1      -1.224  -0.573   2.325  0.00  0.00     0.017 C 
ATOM     18  C   UNL d   1      -0.014  -1.026   3.125  0.00  0.00     0.017 C 
ATOM     19  C   UNL d   1       0.984  -1.575   2.110  0.00  0.00     0.107 C 
ENDBRANCH  12  15
ENDBRANCH   1  12
TORSDOF 2
