REMARK  2 active torsions:
REMARK  status: ('A' for Active; 'I' for Inactive)
REMARK    1  A    between atoms: N_2  and  C_1 
REMARK    2  A    between atoms: C_4  and  C_6 
ROOT
ATOM      1  C   UNL d   1      -0.478  -2.807   0.348  0.00  0.00     0.246 C 
ATOM      2  N   UNL d   1       0.094  -3.270   1.629  0.00  0.00    -0.259 NA
ATOM      3  O   UNL d   1      -0.223  -3.765  -0.716  0.00  0.00    -0.324 OA
ATOM      4  C   UNL d   1       0.228  -4.643   1.335  0.00  0.00     0.046 A 
ATOM      5  C   UNL d   1       0.009  -4.915  -0.005  0.00  0.00     0.092 A 
ATOM      6  C   UNL d   1       0.604  -5.633   2.218  0.00  0.00     0.050 A 
ATOM      7  C   UNL d   1       0.058  -6.199  -0.505  0.00  0.00     0.040 A 
ATOM      8  C   UNL d   1       0.660  -6.941   1.736  0.00  0.00     0.035 A 
ATOM      9  C   UNL d   1       0.369  -7.229   0.392  0.00  0.00     0.026 A 
ATOM     10 CL   UNL d   1       1.089  -8.216   2.810  0.00  0.00    -0.084 Cl
ATOM     11  H   UNL d   1       1.025  -2.881   1.757  0.00  0.00     0.130 HD
ENDROOT
BRANCH   1  12
ATOM     12  C   UNL d   1       0.046  -1.448  -0.036  0.00  0.00     0.029 A 
ATOM     13  S   UNL d   1      -0.870  -0.066   0.434  0.00  0.00    -0.067 SA
ATOM     14  C   UNL d   1       0.395   0.989   0.033  0.00  0.00     0.144 A 
ATOM     15  C   UNL d   1       1.466   0.340  -0.551  0.00  0.00     0.045 A 
ATOM     16  C   UNL d   1       1.251  -1.076  -0.609  0.00  0.00     0.021 A 
BRANCH  14  17
ATOM     17  N   UNL d   1       0.288   2.391   0.340  0.00  0.00    -0.108 N 
ATOM     18  O   UNL d   1       1.293   3.079   0.106  0.00  0.00    -0.531 OA
ATOM     19  O   UNL d   1      -0.774   2.815   0.816  0.00  0.00    -0.531 OA
ENDBRANCH  14  17
ENDBRANCH   1  12
TORSDOF 2
