REMARK  5 active torsions:
REMARK  status: ('A' for Active; 'I' for Inactive)
REMARK    1  A    between atoms: C_11  and  N_1 
REMARK    2  A    between atoms: S_10  and  C_2 
REMARK    3  A    between atoms: O_15  and  C_3 
REMARK    4  A    between atoms: C_8  and  C_12 
REMARK       I    between atoms: N_9  and  C_8 
REMARK    5  A    between atoms: C_12  and  S_10 
ROOT
ATOM      1  N   UNL d   1       0.529   0.475  -0.248  0.00  0.00    -0.255 N 
ATOM      2  C   UNL d   1       1.040  -0.775   0.072  0.00  0.00     0.169 A 
ATOM      3  C   UNL d   1      -0.547   0.611   0.620  0.00  0.00     0.245 A 
ATOM      4  N   UNL d   1       0.313  -1.342   1.008  0.00  0.00    -0.276 N 
ATOM      5  HN  UNL d   1       0.459  -2.271   1.401  1.00  0.00     0.189 HD
ATOM      6  N   UNL d   1      -0.678  -0.464   1.362  0.00  0.00    -0.263 N 
ATOM      7  HN  UNL d   1      -1.391  -0.618   2.075  1.00  0.00     0.190 HD
ENDROOT
BRANCH   2   8
ATOM      8  S   UNL d   1       2.568  -1.394  -0.472  0.00  0.00    -0.083 SA
BRANCH   8   9
ATOM      9  C   UNL d   1       2.478  -3.101   0.141  0.00  0.00     0.185 C 
BRANCH   9  10
ATOM     10  C   UNL d   1       3.761  -3.826  -0.231  0.00  0.00     0.229 C 
ATOM     11  N   UNL d   1       4.813  -3.830   0.672  0.00  0.00    -0.347 N 
ATOM     12  C   UNL d   1       6.052  -4.536   0.334  0.00  0.00     0.152 C 
ATOM     13  C   UNL d   1       4.926  -3.017   1.889  0.00  0.00     0.152 C 
ATOM     14  C   UNL d   1       7.219  -3.546   0.270  0.00  0.00     0.187 C 
ATOM     15  O   UNL d   1       7.346  -2.828   1.510  0.00  0.00    -0.388 OA
ATOM     16  C   UNL d   1       6.146  -2.090   1.797  0.00  0.00     0.187 C 
ATOM     17  O   UNL d   1       3.847  -4.393  -1.324  0.00  0.00    -0.273 OA
ENDBRANCH   9  10
ENDBRANCH   8   9
ENDBRANCH   2   8
BRANCH   1  18
ATOM     18  C   UNL d   1       0.980   1.417  -1.212  0.00  0.00     0.045 A 
ATOM     19  C   UNL d   1       1.460   0.985  -2.456  0.00  0.00     0.030 A 
ATOM     20  C   UNL d   1       1.911   1.915  -3.394  0.00  0.00     0.002 A 
ATOM     21  C   UNL d   1       1.883   3.276  -3.100  0.00  0.00     0.000 A 
ATOM     22  C   UNL d   1       1.398   3.713  -1.868  0.00  0.00     0.002 A 
ATOM     23  C   UNL d   1       0.943   2.790  -0.924  0.00  0.00     0.030 A 
ENDBRANCH   1  18
BRANCH   3  24
ATOM     24  O   UNL d   1      -1.415   1.614   0.668  0.00  0.00    -0.331 OA
ATOM     25  H   UNL d   1      -1.377   2.097  -0.174  0.00  0.00     0.221 HD
ENDBRANCH   3  24
TORSDOF 5
