REMARK  4 active torsions:
REMARK  status: ('A' for Active; 'I' for Inactive)
REMARK    1  A    between atoms: N_2  and  S_1 
REMARK    2  A    between atoms: C_3  and  S_1 
REMARK    3  A    between atoms: N_5  and  C_4 
REMARK    4  A    between atoms: C_7  and  C_6 
ROOT
ATOM      1  C   UNL d   1      -1.764   1.202   1.764  0.00  0.00     0.064 C 
ATOM      2  C   UNL d   1      -2.789   1.584   2.557  0.00  0.00     0.126 C 
ATOM      3  N   UNL d   1      -3.233   3.951   3.492  0.00  0.00    -0.191 NA
ATOM      4  N   UNL d   1      -4.538  -0.235   3.131  0.00  0.00    -0.191 NA
ATOM      5  C   UNL d   1      -3.759   0.593   2.898  0.00  0.00     0.111 C 
ATOM      6  C   UNL d   1      -3.010   2.894   3.070  0.00  0.00     0.111 C 
ENDROOT
BRANCH   1   7
ATOM      7  C   UNL d   1      -0.703   2.013   1.251  0.00  0.00     0.052 A 
ATOM      8  N   UNL d   1       0.409   1.474   0.589  0.00  0.00    -0.247 N 
ATOM      9  C   UNL d   1       1.212   2.486   0.106  0.00  0.00     0.110 A 
ATOM     10  C   UNL d   1       0.688   3.683   0.517  0.00  0.00     0.021 A 
ATOM     11  C   UNL d   1      -0.490   3.391   1.246  0.00  0.00     0.032 A 
BRANCH   8  12
ATOM     12  S   UNL d   1       0.750  -0.164   0.152  0.00  0.00     0.271 S 
ATOM     13  O   UNL d   1       0.084  -0.996   1.131  0.00  0.00    -0.200 OA
ATOM     14  O   UNL d   1       2.183  -0.185  -0.049  0.00  0.00    -0.200 OA
BRANCH  12  15
ATOM     15  C   UNL d   1      -0.008  -0.458  -1.420  0.00  0.00     0.113 A 
ATOM     16  C   UNL d   1       0.035  -1.735  -1.992  0.00  0.00     0.126 A 
ATOM     17  C   UNL d   1      -0.485  -1.977  -3.273  0.00  0.00     0.038 A 
ATOM     18  C   UNL d   1      -1.052  -0.927  -3.992  0.00  0.00     0.003 A 
ATOM     19  C   UNL d   1      -1.127   0.342  -3.421  0.00  0.00     0.002 A 
ATOM     20  C   UNL d   1      -0.619   0.579  -2.138  0.00  0.00     0.028 A 
BRANCH  16  21
ATOM     21  N   UNL d   1       0.620  -2.874  -1.307  0.00  0.00    -0.114 N 
ATOM     22  O   UNL d   1       1.835  -2.844  -1.096  0.00  0.00    -0.532 OA
ATOM     23  O   UNL d   1      -0.138  -3.821  -1.062  0.00  0.00    -0.532 OA
ENDBRANCH  16  21
ENDBRANCH  12  15
ENDBRANCH   8  12
ENDBRANCH   1   7
TORSDOF 4
