REMARK  3 active torsions:
REMARK  status: ('A' for Active; 'I' for Inactive)
REMARK    1  A    between atoms: C_3  and  C_1 
REMARK    2  A    between atoms: C_10  and  C_2 
REMARK       I    between atoms: N_6  and  C_3 
REMARK    3  A    between atoms: C_11  and  N_6 
ROOT
ATOM      1  C   UNL d   1      -0.691  -0.997  -0.134  0.00  0.00     0.137 A 
ATOM      2  C   UNL d   1       0.680  -0.843  -0.274  0.00  0.00     0.119 A 
ATOM      3  N   UNL d   1      -1.292   0.256  -0.009  0.00  0.00    -0.340 N 
ATOM      4  HN  UNL d   1      -2.285   0.476   0.062  1.00  0.00     0.167 HD
ATOM      5  C   UNL d   1      -0.272   1.082  -0.007  0.00  0.00     0.234 A 
ATOM      6  O   UNL d   1       0.944   0.503  -0.170  0.00  0.00    -0.303 OA
ENDROOT
BRANCH   1   7
ATOM      7  C   UNL d   1      -1.460  -2.239  -0.096  0.00  0.00     0.275 C 
ATOM      8  N   UNL d   1      -2.809  -2.026  -0.317  0.00  0.00    -0.322 N 
ATOM      9  H   UNL d   1      -3.064  -1.059  -0.492  0.00  0.00     0.169 HD
ATOM     10  O   UNL d   1      -0.928  -3.325   0.092  0.00  0.00    -0.266 OA
BRANCH   8  11
ATOM     11  C   UNL d   1      -3.826  -3.000  -0.392  0.00  0.00     0.035 A 
ATOM     12  C   UNL d   1      -3.635  -4.345  -0.062  0.00  0.00     0.029 A 
ATOM     13  C   UNL d   1      -4.681  -5.264  -0.180  0.00  0.00     0.002 A 
ATOM     14  C   UNL d   1      -5.930  -4.849  -0.633  0.00  0.00     0.000 A 
ATOM     15  C   UNL d   1      -6.136  -3.511  -0.955  0.00  0.00     0.002 A 
ATOM     16  C   UNL d   1      -5.091  -2.588  -0.828  0.00  0.00     0.029 A 
ENDBRANCH   8  11
ENDBRANCH   1   7
BRANCH   2  17
ATOM     17  C   UNL d   1       1.843  -1.693  -0.513  0.00  0.00     0.000 A 
ATOM     18  C   UNL d   1       1.743  -2.880  -1.253  0.00  0.00     0.014 A 
ATOM     19  C   UNL d   1       2.859  -3.696  -1.462  0.00  0.00     0.001 A 
ATOM     20  C   UNL d   1       4.099  -3.328  -0.949  0.00  0.00     0.000 A 
ATOM     21  C   UNL d   1       4.225  -2.141  -0.233  0.00  0.00     0.001 A 
ATOM     22  C   UNL d   1       3.106  -1.329  -0.019  0.00  0.00     0.014 A 
ENDBRANCH   2  17
TORSDOF 3
