REMARK  7 active torsions:
REMARK  status: ('A' for Active; 'I' for Inactive)
REMARK    1  A    between atoms: C_9  and  C_1 
REMARK    2  A    between atoms: O_16  and  C_2 
REMARK    3  A    between atoms: O_18  and  C_3 
REMARK    4  A    between atoms: O_19  and  C_5 
REMARK    5  A    between atoms: C_20  and  N_7 
REMARK    6  A    between atoms: C_13  and  C_21 
REMARK    7  A    between atoms: C_21  and  C_20 
ROOT
ATOM      1  N   UNL d   1      -4.090  -2.409  -0.061  0.00  0.00    -0.398 N 
ATOM      2  HN  UNL d   1      -4.630  -1.544  -0.097  1.00  0.00     0.158 HD
ATOM      3  C   UNL d   1      -2.798  -2.425  -0.047  0.00  0.00     0.097 C 
ENDROOT
BRANCH   1   4
ATOM      4  C   UNL d   1      -4.720  -3.736  -0.021  0.00  0.00     0.123 C 
BRANCH   4   5
ATOM      5  C   UNL d   1      -6.239  -3.524  -0.050  0.00  0.00     0.058 C 
BRANCH   5   6
ATOM      6  C   UNL d   1      -7.025  -4.808   0.029  0.00  0.00    -0.054 A 
ATOM      7  C   UNL d   1      -7.393  -5.337   1.277  0.00  0.00     0.046 A 
ATOM      8  C   UNL d   1      -8.138  -6.523   1.381  0.00  0.00     0.102 A 
ATOM      9  C   UNL d   1      -8.534  -7.177   0.201  0.00  0.00     0.101 A 
ATOM     10  C   UNL d   1      -8.144  -6.662  -1.042  0.00  0.00     0.040 A 
ATOM     11  C   UNL d   1      -7.397  -5.487  -1.132  0.00  0.00     0.010 A 
BRANCH   8  12
ATOM     12  O   UNL d   1      -8.476  -7.097   2.578  0.00  0.00    -0.353 OA
ATOM     13  C   UNL d   1      -8.061  -6.448   3.772  0.00  0.00     0.210 C 
ENDBRANCH   8  12
BRANCH   9  14
ATOM     14  O   UNL d   1      -9.246  -8.346   0.099  0.00  0.00    -0.353 OA
ATOM     15  C   UNL d   1     -10.224  -8.589   1.103  0.00  0.00     0.210 C 
ENDBRANCH   9  14
ENDBRANCH   5   6
ENDBRANCH   4   5
ENDBRANCH   1   4
BRANCH   3  16
ATOM     16  C   UNL d   1      -2.037  -1.157  -0.082  0.00  0.00     0.013 A 
ATOM     17  C   UNL d   1      -2.685   0.086  -0.129  0.00  0.00     0.077 A 
ATOM     18  C   UNL d   1      -1.950   1.267  -0.161  0.00  0.00     0.039 A 
ATOM     19  C   UNL d   1      -0.556   1.215  -0.146  0.00  0.00     0.022 A 
ATOM     20  C   UNL d   1       0.089  -0.023  -0.098  0.00  0.00     0.011 A 
ATOM     21  C   UNL d   1      -0.641  -1.212  -0.066  0.00  0.00     0.034 A 
ATOM     22 BR   UNL d   1       1.979  -0.085  -0.077  0.00  0.00    -0.051 Br
BRANCH  17  23
ATOM     23  O   UNL d   1      -4.048   0.212  -0.147  0.00  0.00    -0.360 OA
ATOM     24  H   UNL d   1      -4.418  -0.700  -0.124  0.00  0.00     0.217 HD
ENDBRANCH  17  23
ENDBRANCH   3  16
TORSDOF 7
