REMARK  3 active torsions:
REMARK  status: ('A' for Active; 'I' for Inactive)
REMARK    1  A    between atoms: S_6  and  C_1 
REMARK    2  A    between atoms: C_4  and  S_6 
REMARK    3  A    between atoms: N_21  and  C_7 
ROOT
ATOM      1  C   UNL d   1      -0.017   1.473  -0.065  0.00  0.00     0.099 A 
ATOM      2  C   UNL d   1       0.828   0.351  -0.044  0.00  0.00     0.084 A 
ATOM      3  N   UNL d   1      -1.371   1.357  -0.050  0.00  0.00    -0.353 N 
ATOM      4  HN  UNL d   1      -1.965   2.186  -0.064  1.00  0.00     0.166 HD
ATOM      5  C   UNL d   1       0.253  -0.933  -0.014  0.00  0.00    -0.037 A 
ATOM      6  C   UNL d   1       2.255   0.507  -0.051  0.00  0.00     0.103 C 
ATOM      7  N   UNL d   1       3.411   0.600  -0.053  0.00  0.00    -0.191 NA
ATOM      8  C   UNL d   1      -1.913   0.117  -0.017  0.00  0.00     0.006 A 
ATOM      9  C   UNL d   1      -1.141  -1.038  -0.002  0.00  0.00     0.033 A 
ATOM     10  C   UNL d   1       1.056  -2.208  -0.001  0.00  0.00     0.050 C 
ATOM     11  C   UNL d   1      -3.410   0.011  -0.001  0.00  0.00     0.068 C 
ENDROOT
BRANCH   1  12
ATOM     12  S   UNL d   1       0.675   3.124  -0.108  0.00  0.00    -0.035 SA
BRANCH  12  13
ATOM     13  C   UNL d   1      -0.737   4.183  -0.178  0.00  0.00     0.151 A 
ATOM     14  N   UNL d   1      -1.188   4.541  -1.397  0.00  0.00    -0.326 N 
ATOM     15  C   UNL d   1      -2.128   5.499  -1.452  0.00  0.00     0.102 A 
ATOM     16  HN  UNL d   1      -0.830   4.101  -2.245  1.00  0.00     0.169 HD
ATOM     17  C   UNL d   1      -2.608   6.133  -0.320  0.00  0.00     0.098 A 
ATOM     18  C   UNL d   1      -2.072   5.711   0.876  0.00  0.00     0.116 A 
ATOM     19  C   UNL d   1      -3.590   7.161  -0.356  0.00  0.00     0.104 C 
ATOM     20  N   UNL d   1      -1.134   4.749   0.976  0.00  0.00    -0.345 N 
ATOM     21  HN  UNL d   1      -0.747   4.466   1.876  1.00  0.00     0.167 HD
ATOM     22  N   UNL d   1      -4.412   7.982  -0.365  0.00  0.00    -0.191 NA
BRANCH  15  23
ATOM     23  N   UNL d   1      -2.508   5.879  -2.740  0.00  0.00    -0.287 NA
ATOM     24  H   UNL d   1      -2.070   5.246  -3.406  0.00  0.00     0.125 HD
ATOM     25  H   UNL d   1      -3.509   5.956  -2.881  0.00  0.00     0.125 HD
ENDBRANCH  15  23
ENDBRANCH  12  13
ENDBRANCH   1  12
TORSDOF 3
