REMARK  8 active torsions:
REMARK  status: ('A' for Active; 'I' for Inactive)
REMARK    1  A    between atoms: S_11  and  C_1 
REMARK       I    between atoms: N_3  and  C_6 
REMARK    2  A    between atoms: C_7  and  N_3 
REMARK    3  A    between atoms: C_12  and  N_3 
REMARK    4  A    between atoms: C_6  and  C_15 
REMARK    5  A    between atoms: C_15  and  S_11 
REMARK    6  A    between atoms: C_13  and  C_12 
REMARK    7  A    between atoms: O_20  and  C_13 
REMARK    8  A    between atoms: C_26  and  O_20 
ROOT
ATOM      1  C   UNL d   1      -2.965   2.611  -0.231  0.00  0.00     0.091 A 
ATOM      2  C   UNL d   1      -4.357   2.411  -0.332  0.00  0.00     0.084 A 
ATOM      3  N   UNL d   1      -2.098   1.611   0.077  0.00  0.00    -0.353 N 
ATOM      4  HN  UNL d   1      -1.095   1.781   0.147  1.00  0.00     0.166 HD
ATOM      5  C   UNL d   1      -4.885   1.127  -0.103  0.00  0.00    -0.037 A 
ATOM      6  C   UNL d   1      -5.233   3.491  -0.684  0.00  0.00     0.103 C 
ATOM      7  N   UNL d   1      -5.994   4.321  -0.945  0.00  0.00    -0.191 NA
ATOM      8  C   UNL d   1      -2.623   0.375   0.287  0.00  0.00     0.006 A 
ATOM      9  C   UNL d   1      -3.990   0.100   0.213  0.00  0.00     0.033 A 
ATOM     10  C   UNL d   1      -6.355   0.806  -0.165  0.00  0.00     0.050 C 
ATOM     11  C   UNL d   1      -1.688  -0.750   0.627  0.00  0.00     0.068 C 
ENDROOT
BRANCH   1  12
ATOM     12  S   UNL d   1      -2.316   4.254  -0.516  0.00  0.00    -0.101 SA
BRANCH  12  13
ATOM     13  C   UNL d   1      -0.498   4.185  -0.235  0.00  0.00     0.184 C 
BRANCH  13  14
ATOM     14  C   UNL d   1       0.069   5.625  -0.389  0.00  0.00     0.234 C 
ATOM     15  N   UNL d   1       1.443   5.837  -0.198  0.00  0.00    -0.307 N 
ATOM     16  O   UNL d   1      -0.677   6.566  -0.688  0.00  0.00    -0.272 OA
BRANCH  15  17
ATOM     17  C   UNL d   1       1.948   7.188  -0.258  0.00  0.00     0.043 A 
ATOM     18  C   UNL d   1       1.479   8.203   0.606  0.00  0.00    -0.035 A 
ATOM     19  C   UNL d   1       0.410   8.005   1.647  0.00  0.00     0.050 C 
ATOM     20  C   UNL d   1       2.049   9.490   0.525  0.00  0.00     0.009 A 
ATOM     21  C   UNL d   1       3.071   9.773  -0.378  0.00  0.00     0.001 A 
ATOM     22  C   UNL d   1       3.527   8.778  -1.232  0.00  0.00     0.002 A 
ATOM     23  C   UNL d   1       2.972   7.498  -1.171  0.00  0.00     0.030 A 
ENDBRANCH  15  17
BRANCH  15  24
ATOM     24  C   UNL d   1       2.455   4.766  -0.144  0.00  0.00     0.243 C 
BRANCH  24  25
ATOM     25  C   UNL d   1       3.432   4.755   1.041  0.00  0.00     0.277 C 
ATOM     26  O   UNL d   1       4.359   3.953   1.108  0.00  0.00    -0.263 OA
BRANCH  25  27
ATOM     27  O   UNL d   1       3.090   5.619   2.032  0.00  0.00    -0.321 OA
BRANCH  27  28
ATOM     28  C   UNL d   1       3.706   5.417   3.314  0.00  0.00     0.174 C 
ATOM     29  C   UNL d   1       4.779   6.448   3.612  0.00  0.00     0.034 C 
ENDBRANCH  27  28
ENDBRANCH  25  27
ENDBRANCH  24  25
ENDBRANCH  15  24
ENDBRANCH  13  14
ENDBRANCH  12  13
ENDBRANCH   1  12
TORSDOF 8
