REMARK  3 active torsions:
REMARK  status: ('A' for Active; 'I' for Inactive)
REMARK    1  A    between atoms: N_8  and  C_2 
REMARK    2  A    between atoms: C_6  and  C_9 
REMARK    3  A    between atoms: C_16  and  N_8 
ROOT
ATOM      1  C   UNL d   1       4.368  -4.737  -0.139  0.00  0.00     0.048 A 
ATOM      2  C   UNL d   1       3.590  -4.198  -1.169  0.00  0.00     0.018 A 
ATOM      3  C   UNL d   1       4.771  -3.894   0.905  0.00  0.00     0.018 A 
ATOM      4  C   UNL d   1       3.612  -2.001  -0.111  0.00  0.00     0.034 A 
ATOM      5  C   UNL d   1       4.396  -2.546   0.917  0.00  0.00     0.030 A 
ATOM      6  C   UNL d   1       3.228  -2.846  -1.157  0.00  0.00     0.030 A 
ENDROOT
BRANCH   4   7
ATOM      7  N   UNL d   1       3.319  -0.630  -0.084  0.00  0.00    -0.336 N 
ATOM      8  H   UNL d   1       3.353  -0.188   0.824  0.00  0.00     0.168 HD
BRANCH   7   9
ATOM      9  C   UNL d   1       2.988   0.183  -1.130  0.00  0.00     0.166 A 
ATOM     10  S   UNL d   1       2.520   1.817  -0.678  0.00  0.00    -0.022 SA
ATOM     11  C   UNL d   1       2.319   2.179  -2.368  0.00  0.00     0.160 A 
ATOM     12  N   UNL d   1       2.615   1.058  -3.090  0.00  0.00    -0.282 N 
ATOM     13  S   UNL d   1       1.854   3.622  -3.030  0.00  0.00    -0.051 SA
ATOM     14  N   UNL d   1       2.989  -0.056  -2.403  0.00  0.00    -0.278 N 
ATOM     15  H   UNL d   1       2.592   1.032  -4.104  0.00  0.00     0.188 HD
ATOM     16  HN  UNL d   1       3.235  -0.950  -2.829  1.00  0.00     0.189 HD
ENDBRANCH   7   9
ENDBRANCH   4   7
BRANCH   1  17
ATOM     17  C   UNL d   1       4.782  -6.188  -0.147  0.00  0.00     0.417 C 
ATOM     18  F   UNL d   1       4.261  -6.900  -1.185  0.00  0.00    -0.166 F 
ATOM     19  F   UNL d   1       6.133  -6.342  -0.228  0.00  0.00    -0.166 F 
ATOM     20  F   UNL d   1       4.399  -6.844   0.983  0.00  0.00    -0.166 F 
ENDBRANCH   1  17
TORSDOF 3
