REMARK  1 active torsions:
REMARK  status: ('A' for Active; 'I' for Inactive)
REMARK    1  A    between atoms: C_8  and  C_1 
REMARK       I    between atoms: C_6  and  N_4 
ROOT
ATOM      1  C   UNL d   1      -1.567  -1.255  -0.122  0.00  0.00    -0.026 A 
ATOM      2  C   UNL d   1      -1.821  -0.526   1.022  0.00  0.00     0.096 A 
ATOM      3  N   UNL d   1      -1.582   0.798   0.753  0.00  0.00    -0.365 N 
ATOM      4  C   UNL d   1      -1.153  -0.313  -1.125  0.00  0.00    -0.001 A 
ATOM      5  C   UNL d   1      -1.190   0.957  -0.555  0.00  0.00     0.042 A 
ATOM      6  C   UNL d   1      -0.771  -0.434  -2.477  0.00  0.00     0.014 A 
ATOM      7  C   UNL d   1      -0.873   2.116  -1.273  0.00  0.00     0.030 A 
ATOM      8  C   UNL d   1      -0.453   0.714  -3.211  0.00  0.00     0.001 A 
ATOM      9  C   UNL d   1      -0.507   1.970  -2.615  0.00  0.00     0.002 A 
ATOM     10  H   UNL d   1      -1.694   1.555   1.413  0.00  0.00     0.165 HD
ENDROOT
BRANCH   1  11
ATOM     11  C   UNL d   1      -1.720  -2.736  -0.351  0.00  0.00     0.024 C 
ATOM     12  C   UNL d   1      -1.695  -3.589   0.921  0.00  0.00     0.029 C 
ATOM     13  C   UNL d   1      -1.792  -5.071   0.565  0.00  0.00     0.126 C 
ATOM     14  N   UNL d   1      -2.939  -5.377  -0.295  0.00  0.00    -0.352 N 
ATOM     15  C   UNL d   1      -3.120  -4.511  -1.459  0.00  0.00     0.126 C 
ATOM     16  C   UNL d   1      -3.438  -6.676  -0.233  0.00  0.00     0.215 C 
ATOM     17  C   UNL d   1      -3.016  -3.034  -1.114  0.00  0.00     0.029 C 
ATOM     18  O   UNL d   1      -3.045  -7.493   0.606  0.00  0.00    -0.274 OA
ATOM     19  C   UNL d   1      -4.538  -7.075  -1.187  0.00  0.00     0.117 C 
ENDBRANCH   1  11
TORSDOF 1
