REMARK  2 active torsions:
REMARK  status: ('A' for Active; 'I' for Inactive)
REMARK    1  A    between atoms: N_2  and  S_1 
REMARK    2  A    between atoms: C_4  and  S_1 
ROOT
ATOM      1  S   UNL d   1       1.222  -0.057   0.022  0.00  0.00     0.261 S 
ATOM      2  O   UNL d   1       1.327   1.245   0.641  0.00  0.00    -0.200 OA
ATOM      3  O   UNL d   1       2.394  -0.888  -0.176  0.00  0.00    -0.200 OA
ENDROOT
BRANCH   1   4
ATOM      4  N   UNL d   1       0.481   0.138  -1.482  0.00  0.00    -0.302 N 
ATOM      5  C   UNL d   1      -0.158  -1.013  -2.273  0.00  0.00     0.096 C 
ATOM      6  C   UNL d   1      -0.831   0.014  -3.242  0.00  0.00     0.032 C 
ATOM      7  C   UNL d   1       0.222  -2.042  -3.406  0.00  0.00     0.026 C 
ATOM      8  C   UNL d   1       0.363   0.838  -3.717  0.00  0.00     0.006 C 
ATOM      9  C   UNL d   1       0.993   1.199  -2.372  0.00  0.00     0.140 C 
ATOM     10  C   UNL d   1       1.320  -0.017  -4.568  0.00  0.00     0.006 C 
ATOM     11  C   UNL d   1       0.902  -1.483  -4.667  0.00  0.00     0.002 C 
ENDBRANCH   1   4
BRANCH   1  12
ATOM     12  C   UNL d   1       0.029  -0.991   0.948  0.00  0.00     0.079 A 
ATOM     13  C   UNL d   1       0.419  -2.171   1.584  0.00  0.00     0.026 A 
ATOM     14  C   UNL d   1      -0.536  -2.942   2.247  0.00  0.00     0.008 A 
ATOM     15  C   UNL d   1      -1.880  -2.542   2.273  0.00  0.00    -0.062 A 
ATOM     16  C   UNL d   1      -2.249  -1.334   1.665  0.00  0.00     0.008 A 
ATOM     17  C   UNL d   1      -2.904  -3.423   2.928  0.00  0.00     0.048 C 
ATOM     18  C   UNL d   1      -1.296  -0.554   1.004  0.00  0.00     0.026 A 
ENDBRANCH   1  12
TORSDOF 2
