REMARK  3 active torsions:
REMARK  status: ('A' for Active; 'I' for Inactive)
REMARK    1  A    between atoms: N_2  and  C_1 
REMARK    2  A    between atoms: C_6  and  C_1 
REMARK    3  A    between atoms: C_9  and  C_6 
ROOT
ATOM      1  C   UNL d   1       2.521   0.035  -0.039  0.00  0.00     0.109 C 
ENDROOT
BRANCH   1   2
ATOM      2  C   UNL d   1       0.988   0.063   0.031  0.00  0.00     0.080 C 
ATOM      3  S   UNL d   1       0.294   0.192   1.569  0.00  0.00    -0.065 SA
BRANCH   2   4
ATOM      4  N   UNL d   1       0.262  -0.062  -1.162  0.00  0.00    -0.371 N 
ATOM      5  C   UNL d   1      -1.217  -0.018  -1.197  0.00  0.00     0.149 C 
ATOM      6  C   UNL d   1      -1.783  -0.902  -2.313  0.00  0.00     0.187 C 
ATOM      7  O   UNL d   1      -1.216  -0.563  -3.584  0.00  0.00    -0.388 OA
ATOM      8  C   UNL d   1       0.205  -0.743  -3.558  0.00  0.00     0.187 C 
ATOM      9  C   UNL d   1       0.858   0.147  -2.496  0.00  0.00     0.149 C 
ENDBRANCH   2   4
ENDBRANCH   1   2
BRANCH   1  10
ATOM     10  C   UNL d   1       3.197   1.321  -0.455  0.00  0.00    -0.036 A 
ATOM     11  C   UNL d   1       2.538   2.533  -0.618  0.00  0.00     0.095 A 
ATOM     12  N   UNL d   1       3.128   3.671  -1.047  0.00  0.00    -0.369 N 
ATOM     13  C   UNL d   1       4.457   3.630  -1.298  0.00  0.00     0.005 A 
ATOM     14  HN  UNL d   1       2.592   4.529  -1.178  1.00  0.00     0.165 HD
ATOM     15  C   UNL d   1       5.211   2.476  -1.132  0.00  0.00     0.025 A 
ATOM     16  C   UNL d   1       5.082   4.879  -1.849  0.00  0.00     0.068 C 
ATOM     17  C   UNL d   1       4.575   1.315  -0.703  0.00  0.00     0.011 A 
ENDBRANCH   1  10
TORSDOF 3
