REMARK  4 active torsions:
REMARK  status: ('A' for Active; 'I' for Inactive)
REMARK    1  A    between atoms: C_20  and  N_1 
REMARK    2  A    between atoms: S_12  and  C_5 
REMARK       I    between atoms: N_8  and  C_10 
REMARK    3  A    between atoms: C_10  and  C_14 
REMARK    4  A    between atoms: C_14  and  S_12 
ROOT
ATOM      1  N   UNL d   1      -0.217   0.695   0.324  0.00  0.00    -0.311 N 
ATOM      2  C   UNL d   1       0.931   0.229  -0.288  0.00  0.00     0.141 A 
ATOM      3  N   UNL d   1       0.670  -0.954  -0.817  0.00  0.00    -0.282 N 
ATOM      4  HN  UNL d   1       1.343  -1.554  -1.293  1.00  0.00     0.188 HD
ATOM      5  C   UNL d   1      -1.181  -0.248   0.057  0.00  0.00     0.163 A 
ATOM      6  N   UNL d   1      -0.656  -1.242  -0.618  0.00  0.00    -0.278 N 
ATOM      7  HN  UNL d   1      -1.145  -2.078  -0.937  1.00  0.00     0.189 HD
ATOM      8  C   UNL d   1       2.238   0.832  -0.369  0.00  0.00     0.050 A 
ATOM      9  S   UNL d   1       2.510   2.520  -0.482  0.00  0.00    -0.098 SA
ATOM     10  C   UNL d   1       3.438   0.145  -0.462  0.00  0.00     0.023 A 
ATOM     11  C   UNL d   1       4.202   2.333  -0.585  0.00  0.00     0.050 A 
ATOM     12  C   UNL d   1       4.569   1.009  -0.572  0.00  0.00     0.009 A 
ENDROOT
BRANCH   5  13
ATOM     13  S   UNL d   1      -2.841  -0.122   0.540  0.00  0.00    -0.083 SA
BRANCH  13  14
ATOM     14  C   UNL d   1      -3.503  -1.659  -0.177  0.00  0.00     0.185 C 
BRANCH  14  15
ATOM     15  C   UNL d   1      -5.000  -1.809   0.086  0.00  0.00     0.234 C 
ATOM     16  N   UNL d   1      -5.909  -1.024  -0.654  0.00  0.00    -0.317 N 
ATOM     17  C   UNL d   1      -7.345  -1.071  -0.439  0.00  0.00     0.043 A 
ATOM     18  C   UNL d   1      -5.462  -0.052  -1.665  0.00  0.00     0.132 C 
ATOM     19  C   UNL d   1      -8.226  -0.474  -1.374  0.00  0.00    -0.031 A 
ATOM     20  C   UNL d   1      -7.928  -1.683   0.683  0.00  0.00     0.030 A 
ATOM     21  C   UNL d   1      -9.619  -0.512  -1.173  0.00  0.00     0.009 A 
ATOM     22  C   UNL d   1      -7.734   0.247  -2.601  0.00  0.00     0.042 C 
ATOM     23  C   UNL d   1     -10.164  -1.140  -0.059  0.00  0.00     0.001 A 
ATOM     24  C   UNL d   1      -9.316  -1.722   0.869  0.00  0.00     0.002 A 
ATOM     25  C   UNL d   1      -6.301  -0.107  -2.928  0.00  0.00     0.025 C 
ATOM     26  O   UNL d   1      -5.332  -2.677   0.901  0.00  0.00    -0.272 OA
ENDBRANCH  14  15
ENDBRANCH  13  14
ENDBRANCH   5  13
BRANCH   1  27
ATOM     27  C   UNL d   1      -0.358   1.844   1.194  0.00  0.00     0.128 C 
ATOM     28  C   UNL d   1      -0.885   3.082   0.487  0.00  0.00     0.027 C 
ENDBRANCH   1  27
TORSDOF 4
