REMARK  2 active torsions:
REMARK  status: ('A' for Active; 'I' for Inactive)
REMARK    1  A    between atoms: C_11  and  C_1 
REMARK    2  A    between atoms: N_7  and  C_10 
ROOT
ATOM      1  C   UNL d   1       1.655  -1.567  -0.005  0.00  0.00     0.162 A 
ATOM      2  C   UNL d   1      -0.147   0.458  -0.004  0.00  0.00     0.069 A 
ATOM      3  N   UNL d   1       0.407  -1.899  -0.019  0.00  0.00    -0.335 N 
ATOM      4  HN  UNL d   1       0.120  -2.878  -0.030  1.00  0.00     0.168 HD
ATOM      5  C   UNL d   1       1.294   0.744   0.003  0.00  0.00     0.302 A 
ATOM      6  O   UNL d   1       2.146  -0.309   0.002  0.00  0.00    -0.257 OA
ATOM      7  C   UNL d   1      -0.530  -0.875  -0.018  0.00  0.00     0.050 A 
ATOM      8  C   UNL d   1      -1.098   1.486   0.005  0.00  0.00     0.056 A 
ATOM      9  C   UNL d   1      -2.458   1.149   0.001  0.00  0.00     0.104 A 
ATOM     10  O   UNL d   1       1.695   1.901   0.011  0.00  0.00    -0.259 OA
ATOM     11  C   UNL d   1      -1.888  -1.200  -0.022  0.00  0.00     0.033 A 
ATOM     12  C   UNL d   1      -2.858  -0.194  -0.013  0.00  0.00     0.038 A 
ENDROOT
BRANCH   1  13
ATOM     13  C   UNL d   1       2.743  -2.578   0.016  0.00  0.00     0.018 A 
ATOM     14  C   UNL d   1       4.095  -2.218   0.037  0.00  0.00     0.058 A 
ATOM     15  C   UNL d   1       5.065  -3.214   0.085  0.00  0.00     0.117 A 
ATOM     16  F   UNL d   1       6.359  -2.869   0.113  0.00  0.00    -0.206 F 
ATOM     17  C   UNL d   1       4.720  -4.562   0.108  0.00  0.00     0.042 A 
ATOM     18  C   UNL d   1       3.377  -4.928   0.079  0.00  0.00     0.004 A 
ATOM     19  C   UNL d   1       2.392  -3.939   0.032  0.00  0.00     0.016 A 
ENDBRANCH   1  13
BRANCH   9  20
ATOM     20  N   UNL d   1      -3.476   2.207   0.011  0.00  0.00    -0.116 N 
ATOM     21  O   UNL d   1      -3.084   3.380   0.026  0.00  0.00    -0.532 OA
ATOM     22  O   UNL d   1      -4.665   1.860   0.005  0.00  0.00    -0.532 OA
ENDBRANCH   9  20
TORSDOF 2
