REMARK  1 active torsions:
REMARK  status: ('A' for Active; 'I' for Inactive)
REMARK    1  A    between atoms: C_9  and  C_3 
ROOT
ATOM      1  C   UNL d   1       1.259  -0.630  -0.044  0.00  0.00     0.023 C 
ATOM      2  C   UNL d   1      -1.280  -0.636  -0.010  0.00  0.00     0.023 C 
ATOM      3  C   UNL d   1      -0.010  -1.450  -0.275  0.00  0.00     0.096 C 
ATOM      4  C   UNL d   1       1.214   0.702   0.187  0.00  0.00     0.021 C 
ATOM      5  C   UNL d   1      -1.232   0.700   0.188  0.00  0.00     0.021 C 
ATOM      6  N   UNL d   1      -0.008   1.346   0.257  0.00  0.00    -0.362 N 
ATOM      7  C   UNL d   1       2.591  -1.294  -0.125  0.00  0.00     0.159 C 
ATOM      8  C   UNL d   1      -2.613  -1.311  -0.022  0.00  0.00     0.159 C 
ATOM      9  C   UNL d   1      -2.462   1.577   0.315  0.00  0.00     0.067 C 
ATOM     10  C   UNL d   1       2.446   1.568   0.365  0.00  0.00     0.067 C 
ATOM     11  C   UNL d   1      -3.774   0.896  -0.135  0.00  0.00    -0.036 C 
ATOM     12  C   UNL d   1       3.775   0.899  -0.057  0.00  0.00    -0.036 C 
ATOM     13  C   UNL d   1      -3.806  -0.515   0.463  0.00  0.00     0.092 C 
ATOM     14  C   UNL d   1       3.776  -0.549   0.448  0.00  0.00     0.092 C 
ATOM     15  O   UNL d   1       2.730  -2.400  -0.638  0.00  0.00    -0.293 OA
ATOM     16  O   UNL d   1      -2.746  -2.473  -0.396  0.00  0.00    -0.293 OA
ATOM     17  C   UNL d   1       3.944   0.928  -1.591  0.00  0.00     0.015 C 
ATOM     18  C   UNL d   1       4.957   1.660   0.567  0.00  0.00     0.015 C 
ATOM     19  C   UNL d   1      -3.869   0.823  -1.675  0.00  0.00     0.015 C 
ATOM     20  C   UNL d   1      -4.979   1.705   0.375  0.00  0.00     0.015 C 
ATOM     21  H   UNL d   1      -0.008   2.349   0.419  0.00  0.00     0.165 HD
ENDROOT
BRANCH   3  22
ATOM     22  C   UNL d   1       0.015  -2.789   0.462  0.00  0.00    -0.043 A 
ATOM     23  C   UNL d   1      -0.014  -2.881   1.860  0.00  0.00     0.033 A 
ATOM     24  C   UNL d   1       0.011  -4.135   2.486  0.00  0.00     0.056 A 
ATOM     25 CL   UNL d   1      -0.035  -4.164   4.214  0.00  0.00    -0.083 Cl
ATOM     26  C   UNL d   1       0.071  -5.304   1.721  0.00  0.00     0.055 A 
ATOM     27  C   UNL d   1       0.104  -5.223   0.329  0.00  0.00     0.026 A 
ATOM     28 CL   UNL d   1       0.111  -6.881   2.430  0.00  0.00    -0.083 Cl
ATOM     29  C   UNL d   1       0.073  -3.976  -0.293  0.00  0.00     0.010 A 
ENDBRANCH   3  22
TORSDOF 1
