REMARK  7 active torsions:
REMARK  status: ('A' for Active; 'I' for Inactive)
REMARK    1  A    between atoms: S_2  and  C_11 
REMARK    2  A    between atoms: N_12  and  S_2 
REMARK       I    between atoms: C_8  and  N_4 
REMARK    3  A    between atoms: C_16  and  C_8 
REMARK    4  A    between atoms: C_25  and  N_12 
REMARK    5  A    between atoms: C_26  and  N_12 
REMARK    6  A    between atoms: C_27  and  C_25 
REMARK    7  A    between atoms: C_28  and  C_26 
ROOT
ATOM      1  C   UNL d   1       4.190  -4.679  -0.125  0.00  0.00     0.074 A 
ATOM      2  C   UNL d   1       2.020  -4.218   1.584  0.00  0.00     0.032 A 
ATOM      3  C   UNL d   1       4.040  -3.433   0.501  0.00  0.00     0.026 A 
ATOM      4  C   UNL d   1       3.298  -5.714   0.149  0.00  0.00     0.026 A 
ATOM      5  C   UNL d   1       2.961  -3.209   1.369  0.00  0.00     0.018 A 
ATOM      6  C   UNL d   1       2.224  -5.486   1.019  0.00  0.00     0.018 A 
ENDROOT
BRANCH   2   7
ATOM      7  C   UNL d   1       0.806  -4.047   2.424  0.00  0.00     0.255 C 
ATOM      8  N   UNL d   1      -0.043  -2.944   2.290  0.00  0.00    -0.331 N 
ATOM      9  C   UNL d   1       0.095  -1.861   1.309  0.00  0.00     0.256 C 
ATOM     10  C   UNL d   1      -1.260  -2.997   3.096  0.00  0.00     0.130 C 
ATOM     11  N   UNL d   1      -1.171  -1.313   0.879  0.00  0.00    -0.323 N 
ATOM     12  C   UNL d   1      -1.626  -1.552  -0.412  0.00  0.00     0.256 C 
ATOM     13  C   UNL d   1      -2.275  -1.141   1.810  0.00  0.00     0.124 C 
ATOM     14  C   UNL d   1      -3.065  -1.823  -0.302  0.00  0.00     0.040 A 
ATOM     15  O   UNL d   1      -0.974  -1.667  -1.430  0.00  0.00    -0.267 OA
ATOM     16  C   UNL d   1      -3.918  -2.300  -1.279  0.00  0.00     0.017 A 
ATOM     17  C   UNL d   1      -3.421  -1.736   1.047  0.00  0.00    -0.019 A 
ATOM     18  C   UNL d   1      -5.174  -2.742  -0.866  0.00  0.00     0.001 A 
ATOM     19  C   UNL d   1      -5.536  -2.698   0.494  0.00  0.00     0.001 A 
ATOM     20  C   UNL d   1      -4.666  -2.177   1.461  0.00  0.00     0.010 A 
ATOM     21  C   UNL d   1      -1.970  -1.664   3.198  0.00  0.00     0.050 C 
ATOM     22  O   UNL d   1       0.563  -4.964   3.212  0.00  0.00    -0.267 OA
ENDBRANCH   2   7
BRANCH   1  23
ATOM     23  S   UNL d   1       5.244  -4.812  -1.567  0.00  0.00     0.243 S 
ATOM     24  O   UNL d   1       4.588  -5.726  -2.483  0.00  0.00    -0.206 OA
ATOM     25  O   UNL d   1       5.531  -3.453  -1.972  0.00  0.00    -0.206 OA
BRANCH  23  26
ATOM     26  N   UNL d   1       6.742  -5.573  -1.089  0.00  0.00    -0.206 NA
BRANCH  26  27
ATOM     27  C   UNL d   1       6.517  -6.899  -0.399  0.00  0.00     0.107 C 
BRANCH  27  28
ATOM     28  C   UNL d   1       7.786  -7.691  -0.051  0.00  0.00     0.011 C 
ATOM     29  C   UNL d   1       8.754  -6.949   0.855  0.00  0.00     0.006 C 
ENDBRANCH  27  28
ENDBRANCH  26  27
BRANCH  26  30
ATOM     30  C   UNL d   1       7.670  -5.730  -2.282  0.00  0.00     0.107 C 
BRANCH  30  31
ATOM     31  C   UNL d   1       8.145  -4.428  -2.926  0.00  0.00     0.011 C 
ATOM     32  C   UNL d   1       8.897  -3.524  -1.964  0.00  0.00     0.006 C 
ENDBRANCH  30  31
ENDBRANCH  26  30
ENDBRANCH  23  26
ENDBRANCH   1  23
TORSDOF 7
