REMARK  4 active torsions:
REMARK  status: ('A' for Active; 'I' for Inactive)
REMARK    1  A    between atoms: C_9  and  C_1 
REMARK    2  A    between atoms: C_5  and  C_2 
REMARK    3  A    between atoms: N_6  and  C_3 
REMARK       I    between atoms: C_8  and  N_6 
REMARK    4  A    between atoms: C_14  and  C_8 
ROOT
ATOM      1  C   UNL d   1       1.502   0.754  -0.143  0.00  0.00     0.023 A 
ATOM      2  C   UNL d   1       0.208   1.252   0.008  0.00  0.00     0.102 A 
ATOM      3  C   UNL d   1       1.534  -0.684   0.040  0.00  0.00     0.053 A 
ATOM      4  S   UNL d   1      -0.940  -0.020   0.177  0.00  0.00    -0.094 SA
ATOM      5  C   UNL d   1       0.274  -1.206   0.222  0.00  0.00     0.081 A 
ENDROOT
BRANCH   3   6
ATOM      6  N   UNL d   1       2.698  -1.454   0.016  0.00  0.00    -0.326 N 
ATOM      7  C   UNL d   1       2.867  -2.598   0.781  0.00  0.00     0.225 C 
ATOM      8  O   UNL d   1       2.022  -3.062   1.544  0.00  0.00    -0.273 OA
ATOM      9  H   UNL d   1       3.519  -1.003  -0.364  0.00  0.00     0.169 HD
BRANCH   7  10
ATOM     10  C   UNL d   1       4.199  -3.315   0.601  0.00  0.00     0.070 C 
ATOM     11  C   UNL d   1       4.140  -4.180  -0.650  0.00  0.00     0.019 C 
ATOM     12  C   UNL d   1       5.414  -2.390   0.593  0.00  0.00     0.019 C 
ENDBRANCH   7  10
ENDBRANCH   3   6
BRANCH   1  13
ATOM     13  C   UNL d   1       2.673   1.628  -0.294  0.00  0.00    -0.022 A 
ATOM     14  C   UNL d   1       3.782   1.458   0.550  0.00  0.00     0.012 A 
ATOM     15  C   UNL d   1       4.924   2.248   0.403  0.00  0.00     0.001 A 
ATOM     16  C   UNL d   1       4.955   3.246  -0.566  0.00  0.00     0.000 A 
ATOM     17  C   UNL d   1       3.853   3.442  -1.396  0.00  0.00     0.001 A 
ATOM     18  C   UNL d   1       2.724   2.626  -1.276  0.00  0.00     0.012 A 
ENDBRANCH   1  13
BRANCH   2  19
ATOM     19  C   UNL d   1      -0.317   2.654   0.034  0.00  0.00     0.424 C 
ATOM     20  F   UNL d   1       0.604   3.566   0.438  0.00  0.00    -0.166 F 
ATOM     21  F   UNL d   1      -0.740   3.047  -1.197  0.00  0.00    -0.166 F 
ATOM     22  F   UNL d   1      -1.377   2.803   0.875  0.00  0.00    -0.166 F 
ENDBRANCH   2  19
TORSDOF 4
