REMARK  7 active torsions:
REMARK  status: ('A' for Active; 'I' for Inactive)
REMARK    1  A    between atoms: C_6  and  C_1 
REMARK    2  A    between atoms: C_11  and  N_3 
REMARK    3  A    between atoms: O_20  and  C_6 
REMARK    4  A    between atoms: C_7  and  O_9 
REMARK    5  A    between atoms: C_12  and  C_7 
REMARK    6  A    between atoms: O_9  and  C_13 
REMARK    7  A    between atoms: C_26  and  O_20 
ROOT
ATOM      1  C   UNL d   1       1.671  -1.131  -0.021  0.00  0.00     0.074 A 
ATOM      2  C   UNL d   1       2.510  -0.010   0.011  0.00  0.00     0.030 A 
ATOM      3  N   UNL d   1       1.712   1.134   0.098  0.00  0.00    -0.314 N 
ATOM      4  C   UNL d   1       0.320  -0.647   0.059  0.00  0.00     0.012 A 
ATOM      5  C   UNL d   1       0.374   0.741   0.195  0.00  0.00     0.051 A 
ATOM      6  C   UNL d   1      -0.809   1.494   0.332  0.00  0.00     0.034 A 
ATOM      7  C   UNL d   1      -0.952  -1.283   0.054  0.00  0.00     0.052 A 
ATOM      8  C   UNL d   1      -2.123  -0.527   0.198  0.00  0.00     0.080 A 
ATOM      9  C   UNL d   1      -2.044   0.845   0.364  0.00  0.00     0.040 A 
ATOM     10  C   UNL d   1       4.007   0.060   0.069  0.00  0.00     0.070 C 
ENDROOT
BRANCH   8  11
ATOM     11  O   UNL d   1      -3.345  -1.249   0.134  0.00  0.00    -0.275 OA
BRANCH  11  12
ATOM     12  C   UNL d   1      -4.612  -0.669   0.171  0.00  0.00     0.298 C 
ATOM     13  O   UNL d   1      -4.880   0.512   0.315  0.00  0.00    -0.259 OA
BRANCH  12  14
ATOM     14  C   UNL d   1      -5.679  -1.695   0.020  0.00  0.00     0.040 A 
ATOM     15  C   UNL d   1      -7.008  -1.264   0.143  0.00  0.00     0.018 A 
ATOM     16  C   UNL d   1      -8.063  -2.172   0.054  0.00  0.00     0.007 A 
ATOM     17  C   UNL d   1      -7.807  -3.529  -0.166  0.00  0.00    -0.062 A 
ATOM     18  C   UNL d   1      -6.481  -3.957  -0.316  0.00  0.00     0.007 A 
ATOM     19  C   UNL d   1      -8.945  -4.507  -0.178  0.00  0.00     0.048 C 
ATOM     20  C   UNL d   1      -5.420  -3.047  -0.226  0.00  0.00     0.018 A 
ENDBRANCH  12  14
ENDBRANCH  11  12
ENDBRANCH   8  11
BRANCH   1  21
ATOM     21  C   UNL d   1       2.055  -2.548  -0.026  0.00  0.00     0.296 C 
ATOM     22  O   UNL d   1       1.250  -3.464   0.089  0.00  0.00    -0.259 OA
BRANCH  21  23
ATOM     23  O   UNL d   1       3.405  -2.739  -0.062  0.00  0.00    -0.318 OA
BRANCH  23  24
ATOM     24  C   UNL d   1       3.875  -3.970   0.502  0.00  0.00     0.174 C 
ATOM     25  C   UNL d   1       3.968  -3.805   2.011  0.00  0.00     0.034 C 
ENDBRANCH  23  24
ENDBRANCH  21  23
ENDBRANCH   1  21
BRANCH   3  26
ATOM     26  C   UNL d   1       2.179   2.490   0.108  0.00  0.00     0.039 A 
ATOM     27  C   UNL d   1       3.199   2.896  -0.763  0.00  0.00     0.030 A 
ATOM     28  C   UNL d   1       3.656   4.218  -0.747  0.00  0.00     0.002 A 
ATOM     29  C   UNL d   1       3.084   5.145   0.121  0.00  0.00     0.000 A 
ATOM     30  C   UNL d   1       2.064   4.751   0.984  0.00  0.00     0.002 A 
ATOM     31  C   UNL d   1       1.621   3.426   0.989  0.00  0.00     0.030 A 
ENDBRANCH   3  26
TORSDOF 7
