REMARK  6 active torsions:
REMARK  status: ('A' for Active; 'I' for Inactive)
REMARK    1  A    between atoms: C_8  and  N_1 
REMARK    2  A    between atoms: C_11  and  C_5 
REMARK    3  A    between atoms: C_12  and  C_6 
REMARK    4  A    between atoms: C_10  and  C_8 
REMARK    5  A    between atoms: O_17  and  C_10 
REMARK    6  A    between atoms: C_22  and  O_17 
ROOT
ATOM      1  N   UNL d   1      -0.254  -1.096   0.063  0.00  0.00    -0.320 N 
ATOM      2  C   UNL d   1       0.987  -0.485   0.080  0.00  0.00     0.126 A 
ATOM      3  N   UNL d   1       0.854   0.821   0.089  0.00  0.00    -0.339 N 
ATOM      4  HN  UNL d   1       1.607   1.509   0.104  1.00  0.00     0.167 HD
ATOM      5  C   UNL d   1      -0.489   1.079   0.074  0.00  0.00     0.072 A 
ATOM      6  C   UNL d   1      -1.235  -0.097   0.045  0.00  0.00     0.074 A 
ATOM      7  C   UNL d   1       2.282  -1.112   0.024  0.00  0.00     0.049 A 
ATOM      8  S   UNL d   1       3.512  -0.437  -0.975  0.00  0.00    -0.098 SA
ATOM      9  C   UNL d   1       2.755  -2.216   0.707  0.00  0.00     0.023 A 
ATOM     10  C   UNL d   1       4.652  -1.614  -0.499  0.00  0.00     0.050 A 
ATOM     11  C   UNL d   1       4.119  -2.511   0.397  0.00  0.00     0.009 A 
ENDROOT
BRANCH   1  12
ATOM     12  C   UNL d   1      -0.483  -2.526  -0.107  0.00  0.00     0.241 C 
BRANCH  12  13
ATOM     13  C   UNL d   1      -0.857  -3.253   1.161  0.00  0.00     0.277 C 
ATOM     14  O   UNL d   1      -1.459  -4.321   1.158  0.00  0.00    -0.263 OA
BRANCH  13  15
ATOM     15  O   UNL d   1      -0.474  -2.596   2.289  0.00  0.00    -0.321 OA
BRANCH  15  16
ATOM     16  C   UNL d   1      -1.066  -3.046   3.520  0.00  0.00     0.174 C 
ATOM     17  C   UNL d   1      -0.308  -4.216   4.116  0.00  0.00     0.034 C 
ENDBRANCH  15  16
ENDBRANCH  13  15
ENDBRANCH  12  13
ENDBRANCH   1  12
BRANCH   6  18
ATOM     18  C   UNL d   1      -2.688  -0.308  -0.096  0.00  0.00    -0.007 A 
ATOM     19  C   UNL d   1      -3.418   0.425  -1.043  0.00  0.00     0.014 A 
ATOM     20  C   UNL d   1      -4.804   0.281  -1.160  0.00  0.00     0.001 A 
ATOM     21  C   UNL d   1      -5.481  -0.632  -0.357  0.00  0.00     0.000 A 
ATOM     22  C   UNL d   1      -4.774  -1.377   0.581  0.00  0.00     0.001 A 
ATOM     23  C   UNL d   1      -3.394  -1.195   0.726  0.00  0.00     0.014 A 
ENDBRANCH   6  18
BRANCH   5  24
ATOM     24  C   UNL d   1      -0.970   2.451   0.005  0.00  0.00    -0.007 A 
ATOM     25  C   UNL d   1      -2.059   2.901   0.761  0.00  0.00     0.014 A 
ATOM     26  C   UNL d   1      -2.494   4.222   0.649  0.00  0.00     0.001 A 
ATOM     27  C   UNL d   1      -1.838   5.109  -0.205  0.00  0.00     0.000 A 
ATOM     28  C   UNL d   1      -0.739   4.678  -0.945  0.00  0.00     0.001 A 
ATOM     29  C   UNL d   1      -0.306   3.355  -0.833  0.00  0.00     0.014 A 
ENDBRANCH   5  24
TORSDOF 6
