REMARK  8 active torsions:
REMARK  status: ('A' for Active; 'I' for Inactive)
REMARK    1  A    between atoms: C_9  and  N_1 
REMARK    2  A    between atoms: S_12  and  C_2 
REMARK    3  A    between atoms: C_21  and  C_7 
REMARK    4  A    between atoms: C_8  and  O_11 
REMARK    5  A    between atoms: O_11  and  C_22 
REMARK    6  A    between atoms: C_13  and  C_25 
REMARK    7  A    between atoms: S_19  and  C_21 
REMARK    8  A    between atoms: C_25  and  S_19 
ROOT
ATOM      1  N   UNL d   1      -0.484   0.599  -0.181  0.00  0.00    -0.279 N 
ATOM      2  C   UNL d   1       0.746  -0.044  -0.279  0.00  0.00     0.164 A 
ATOM      3  N   UNL d   1       0.585  -1.344  -0.301  0.00  0.00    -0.278 N 
ATOM      4  HN  UNL d   1       1.325  -2.040  -0.394  1.00  0.00     0.189 HD
ATOM      5  N   UNL d   1      -0.745  -1.602  -0.178  0.00  0.00    -0.286 N 
ATOM      6  HN  UNL d   1      -1.168  -2.529  -0.150  1.00  0.00     0.188 HD
ATOM      7  C   UNL d   1      -1.401  -0.457  -0.102  0.00  0.00     0.114 A 
ENDROOT
BRANCH   7   8
ATOM      8  C   UNL d   1      -2.890  -0.329  -0.019  0.00  0.00     0.152 C 
BRANCH   8   9
ATOM      9  S   UNL d   1      -3.813  -1.821  -0.555  0.00  0.00    -0.157 SA
BRANCH   9  10
ATOM     10  C   UNL d   1      -3.516  -2.888   0.890  0.00  0.00     0.113 C 
BRANCH  10  11
ATOM     11  C   UNL d   1      -4.023  -4.309   0.723  0.00  0.00    -0.038 A 
ATOM     12  C   UNL d   1      -5.259  -4.766   1.268  0.00  0.00    -0.019 A 
ATOM     13  C   UNL d   1      -5.548  -6.157   1.225  0.00  0.00    -0.025 A 
ATOM     14  C   UNL d   1      -6.225  -3.923   1.862  0.00  0.00     0.013 A 
ATOM     15  C   UNL d   1      -6.720  -6.655   1.819  0.00  0.00     0.012 A 
ATOM     16  C   UNL d   1      -4.661  -7.042   0.598  0.00  0.00     0.012 A 
ATOM     17  C   UNL d   1      -7.635  -5.799   2.426  0.00  0.00     0.001 A 
ATOM     18  C   UNL d   1      -7.397  -4.431   2.432  0.00  0.00     0.001 A 
ATOM     19  C   UNL d   1      -3.492  -6.576   0.004  0.00  0.00     0.001 A 
ATOM     20  C   UNL d   1      -3.174  -5.223   0.072  0.00  0.00     0.009 A 
ENDBRANCH  10  11
ENDBRANCH   9  10
ENDBRANCH   8   9
ENDBRANCH   7   8
BRANCH   1  21
ATOM     21  C   UNL d   1      -0.729   2.005  -0.118  0.00  0.00     0.043 A 
ATOM     22  C   UNL d   1       0.039   2.897  -0.884  0.00  0.00     0.033 A 
ATOM     23  C   UNL d   1      -0.084   4.284  -0.715  0.00  0.00     0.039 A 
ATOM     24  C   UNL d   1      -0.979   4.795   0.220  0.00  0.00     0.078 A 
ATOM     25  C   UNL d   1      -1.810   3.910   0.914  0.00  0.00     0.039 A 
ATOM     26  C   UNL d   1      -1.688   2.525   0.755  0.00  0.00     0.033 A 
BRANCH  24  27
ATOM     27  O   UNL d   1      -1.143   6.109   0.546  0.00  0.00    -0.255 OA
BRANCH  27  28
ATOM     28  C   UNL d   1      -0.052   6.987   0.302  0.00  0.00     0.530 C 
ATOM     29  F   UNL d   1       1.137   6.417   0.594  0.00  0.00    -0.144 F 
ATOM     30  F   UNL d   1      -0.053   7.386  -0.987  0.00  0.00    -0.144 F 
ATOM     31  F   UNL d   1      -0.194   8.077   1.086  0.00  0.00    -0.144 F 
ENDBRANCH  27  28
ENDBRANCH  24  27
ENDBRANCH   1  21
BRANCH   2  32
ATOM     32  S   UNL d   1       2.318   0.684  -0.146  0.00  0.00    -0.105 SA
ATOM     33  H   UNL d   1       1.992   1.773   0.563  0.00  0.00     0.110 HD
ENDBRANCH   2  32
TORSDOF 8
