REMARK  3 active torsions:
REMARK  status: ('A' for Active; 'I' for Inactive)
REMARK    1  A    between atoms: C_9  and  N_1 
REMARK    2  A    between atoms: C_10  and  C_2 
REMARK    3  A    between atoms: C_11  and  C_12 
ROOT
ATOM      1  N   UNL d   1      -0.227  -1.318   0.091  0.00  0.00    -0.221 N 
ATOM      2  C   UNL d   1       1.027  -0.694  -0.002  0.00  0.00     0.155 A 
ATOM      3  N   UNL d   1      -1.172  -0.354   0.005  0.00  0.00    -0.219 N 
ATOM      4  HN  UNL d   1      -2.183  -0.489   0.031  1.00  0.00     0.210 HD
ATOM      5  N   UNL d   1      -0.533   0.793  -0.118  0.00  0.00    -0.226 N 
ATOM      6  HN  UNL d   1      -0.988   1.703  -0.185  1.00  0.00     0.210 HD
ATOM      7  N   UNL d   1       0.815   0.602  -0.145  0.00  0.00    -0.268 N 
ATOM      8  HN  UNL d   1       1.527   1.324  -0.255  1.00  0.00     0.190 HD
ENDROOT
BRANCH   2   9
ATOM      9  C   UNL d   1       2.352  -1.323  -0.093  0.00  0.00     0.026 A 
ATOM     10  C   UNL d   1       3.501  -0.805   0.538  0.00  0.00     0.061 A 
ATOM     11  C   UNL d   1       4.741  -1.474   0.363  0.00  0.00     0.017 A 
ATOM     12  C   UNL d   1       4.844  -2.636  -0.395  0.00  0.00     0.001 A 
ATOM     13  C   UNL d   1       3.719  -3.140  -1.028  0.00  0.00     0.001 A 
ATOM     14  C   UNL d   1       2.497  -2.475  -0.902  0.00  0.00     0.016 A 
BRANCH  10  15
ATOM     15  C   UNL d   1       3.551   0.447   1.394  0.00  0.00     0.418 C 
ATOM     16  F   UNL d   1       2.360   0.930   1.823  0.00  0.00    -0.166 F 
ATOM     17  F   UNL d   1       4.261   0.223   2.543  0.00  0.00    -0.166 F 
ATOM     18  F   UNL d   1       4.192   1.471   0.772  0.00  0.00    -0.166 F 
ENDBRANCH  10  15
ENDBRANCH   2   9
BRANCH   1  19
ATOM     19  C   UNL d   1      -0.582  -2.680   0.297  0.00  0.00     0.082 A 
ATOM     20  C   UNL d   1      -1.739  -3.244  -0.280  0.00  0.00     0.064 A 
ATOM     21  C   UNL d   1      -2.032  -4.600  -0.087  0.00  0.00     0.050 A 
ATOM     22 CL   UNL d   1      -2.793  -2.411  -1.372  0.00  0.00    -0.082 Cl
ATOM     23  C   UNL d   1      -1.184  -5.400   0.674  0.00  0.00     0.035 A 
ATOM     24  C   UNL d   1      -0.049  -4.854   1.263  0.00  0.00     0.026 A 
ATOM     25 CL   UNL d   1      -1.532  -7.072   0.869  0.00  0.00    -0.084 Cl
ATOM     26  C   UNL d   1       0.248  -3.498   1.087  0.00  0.00     0.035 A 
ENDBRANCH   1  19
TORSDOF 3
