REMARK  5 active torsions:
REMARK  status: ('A' for Active; 'I' for Inactive)
REMARK    1  A    between atoms: N_4  and  C_1 
REMARK    2  A    between atoms: N_16  and  C_9 
REMARK    3  A    between atoms: C_10  and  C_11 
REMARK    4  A    between atoms: O_17  and  C_10 
REMARK    5  A    between atoms: C_20  and  O_17 
ROOT
ATOM      1  C   UNL d   1      -2.015  -0.913  -0.010  0.00  0.00     0.150 A 
ATOM      2  N   UNL d   1      -0.927  -1.656   0.009  0.00  0.00    -0.335 N 
ATOM      3  HN  UNL d   1      -0.923  -2.676   0.006  1.00  0.00     0.168 HD
ATOM      4  S   UNL d   1      -1.713   0.789   0.003  0.00  0.00    -0.052 SA
ATOM      5  C   UNL d   1      -0.019   0.506   0.031  0.00  0.00     0.036 A 
ATOM      6  C   UNL d   1       0.206  -0.868   0.032  0.00  0.00     0.051 A 
ATOM      7  C   UNL d   1       2.353   0.948   0.038  0.00  0.00     0.041 A 
ATOM      8  C   UNL d   1       1.035   1.435   0.039  0.00  0.00     0.038 A 
ATOM      9  C   UNL d   1       1.533  -1.340   0.048  0.00  0.00     0.032 A 
ATOM     10  C   UNL d   1       2.596  -0.429   0.052  0.00  0.00     0.020 A 
ENDROOT
BRANCH   1  11
ATOM     11  N   UNL d   1      -3.311  -1.316  -0.037  0.00  0.00    -0.333 N 
ATOM     12  C   UNL d   1      -3.500  -2.595  -0.050  0.00  0.00     0.179 C 
ATOM     13  HN  UNL d   1      -4.086  -0.652  -0.046  1.00  0.00     0.168 HD
BRANCH  12  14
ATOM     14  N   UNL d   1      -4.723  -3.229  -0.079  0.00  0.00    -0.386 N 
ATOM     15  C   UNL d   1      -5.972  -2.487  -0.084  0.00  0.00     0.149 C 
ATOM     16  C   UNL d   1      -4.838  -4.677  -0.074  0.00  0.00     0.149 C 
ENDBRANCH  12  14
ENDBRANCH   1  11
BRANCH   7  17
ATOM     17  C   UNL d   1       3.456   1.943  -0.062  0.00  0.00     0.293 C 
ATOM     18  O   UNL d   1       3.273   3.147  -0.133  0.00  0.00    -0.259 OA
BRANCH  17  19
ATOM     19  O   UNL d   1       4.645   1.303  -0.178  0.00  0.00    -0.318 OA
BRANCH  19  20
ATOM     20  C   UNL d   1       5.723   2.088  -0.705  0.00  0.00     0.174 C 
ATOM     21  C   UNL d   1       5.706   1.951  -2.217  0.00  0.00     0.034 C 
ENDBRANCH  19  20
ENDBRANCH  17  19
ENDBRANCH   7  17
TORSDOF 5
