REMARK  5 active torsions:
REMARK  status: ('A' for Active; 'I' for Inactive)
REMARK    1  A    between atoms: C_2  and  C_1 
REMARK       I    between atoms: N_7  and  C_2 
REMARK       I    between atoms: C_3  and  N_6 
REMARK    2  A    between atoms: C_4  and  C_3 
REMARK    3  A    between atoms: N_6  and  C_14 
REMARK    4  A    between atoms: C_13  and  N_7 
REMARK    5  A    between atoms: O_19  and  C_10 
ROOT
ATOM      1  C   UNL d   1       1.378  -4.024   0.089  0.00  0.00     0.035 A 
ATOM      2  C   UNL d   1      -0.947  -5.617  -0.153  0.00  0.00     0.035 A 
ATOM      3  C   UNL d   1       0.072  -5.990   0.721  0.00  0.00     0.032 A 
ATOM      4  C   UNL d   1       0.370  -3.685  -0.811  0.00  0.00     0.032 A 
ATOM      5  C   UNL d   1      -0.778  -4.471  -0.931  0.00  0.00     0.032 A 
ATOM      6  C   UNL d   1       1.232  -5.202   0.834  0.00  0.00     0.032 A 
ENDROOT
BRANCH   1   7
ATOM      7  N   UNL d   1       2.529  -3.227   0.302  0.00  0.00    -0.323 N 
ATOM      8  C   UNL d   1       2.767  -1.973  -0.240  0.00  0.00     0.259 C 
ATOM      9  O   UNL d   1       2.025  -1.379  -1.019  0.00  0.00    -0.267 OA
ATOM     10  H   UNL d   1       3.206  -3.591   0.964  0.00  0.00     0.169 HD
BRANCH   8  11
ATOM     11  C   UNL d   1       4.018  -1.266   0.158  0.00  0.00     0.071 A 
ATOM     12  C   UNL d   1       4.938  -1.775   1.077  0.00  0.00     0.135 A 
ATOM     13  C   UNL d   1       6.088  -1.062   1.411  0.00  0.00     0.085 A 
ATOM     14  F   UNL d   1       4.736  -2.962   1.669  0.00  0.00    -0.205 F 
ATOM     15  C   UNL d   1       6.320   0.173   0.819  0.00  0.00     0.119 A 
ATOM     16  C   UNL d   1       5.423   0.709  -0.094  0.00  0.00     0.043 A 
ATOM     17  F   UNL d   1       7.425   0.859   1.136  0.00  0.00    -0.206 F 
ATOM     18  C   UNL d   1       4.272  -0.009  -0.425  0.00  0.00     0.023 A 
ENDBRANCH   8  11
ENDBRANCH   1   7
BRANCH   2  19
ATOM     19  N   UNL d   1      -2.166  -6.297  -0.320  0.00  0.00    -0.323 N 
ATOM     20  C   UNL d   1      -2.614  -7.435   0.315  0.00  0.00     0.259 C 
ATOM     21  O   UNL d   1      -1.990  -8.125   1.115  0.00  0.00    -0.267 OA
ATOM     22  H   UNL d   1      -2.764  -5.911  -1.039  0.00  0.00     0.169 HD
BRANCH  20  23
ATOM     23  C   UNL d   1      -3.980  -7.885  -0.093  0.00  0.00     0.065 A 
ATOM     24  C   UNL d   1      -4.291  -9.251  -0.080  0.00  0.00     0.081 A 
ATOM     25  C   UNL d   1      -5.522  -9.704  -0.553  0.00  0.00     0.037 A 
ATOM     26  C   UNL d   1      -6.468  -8.790  -1.019  0.00  0.00     0.003 A 
ATOM     27  C   UNL d   1      -6.194  -7.425  -0.988  0.00  0.00     0.001 A 
ATOM     28  C   UNL d   1      -4.959  -6.970  -0.519  0.00  0.00     0.020 A 
BRANCH  24  29
ATOM     29  O   UNL d   1      -3.425 -10.209   0.377  0.00  0.00    -0.360 OA
ATOM     30  H   UNL d   1      -2.681  -9.750   0.828  0.00  0.00     0.217 HD
ENDBRANCH  24  29
ENDBRANCH  20  23
ENDBRANCH   2  19
TORSDOF 5
