REMARK  3 active torsions:
REMARK  status: ('A' for Active; 'I' for Inactive)
REMARK    1  A    between atoms: S_13  and  C_5 
REMARK       I    between atoms: N_8  and  C_11 
REMARK       I    between atoms: C_10  and  N_8 
REMARK       I    between atoms: N_19  and  C_10 
REMARK    2  A    between atoms: C_11  and  C_20 
REMARK    3  A    between atoms: C_20  and  S_13 
ROOT
ATOM      1  C   UNL d   1      -2.164   3.088   4.525  0.00  0.00     0.199 A 
ATOM      2  O   UNL d   1      -2.042   2.188   3.490  0.00  0.00    -0.265 OA
ATOM      3  N   UNL d   1      -1.610   4.251   4.232  0.00  0.00    -0.275 N 
ATOM      4  HN  UNL d   1      -1.578   5.077   4.830  1.00  0.00     0.189 HD
ATOM      5  C   UNL d   1      -1.368   2.921   2.559  0.00  0.00     0.204 A 
ATOM      6  N   UNL d   1      -1.086   4.136   2.971  0.00  0.00    -0.272 N 
ATOM      7  HN  UNL d   1      -0.577   4.853   2.453  1.00  0.00     0.189 HD
ATOM      8  C   UNL d   1      -2.853   2.829   5.750  0.00  0.00     0.127 A 
ATOM      9  O   UNL d   1      -3.332   1.593   6.104  0.00  0.00    -0.318 OA
ATOM     10  C   UNL d   1      -3.168   3.730   6.755  0.00  0.00     0.043 A 
ATOM     11  C   UNL d   1      -3.929   1.718   7.317  0.00  0.00     0.142 A 
ATOM     12  C   UNL d   1      -3.861   3.015   7.760  0.00  0.00     0.027 A 
ENDROOT
BRANCH   5  13
ATOM     13  S   UNL d   1      -1.064   2.418   0.932  0.00  0.00    -0.075 SA
BRANCH  13  14
ATOM     14  C   UNL d   1      -2.635   2.897   0.179  0.00  0.00     0.186 C 
BRANCH  14  15
ATOM     15  C   UNL d   1      -2.877   4.383  -0.059  0.00  0.00     0.235 C 
ATOM     16  N   UNL d   1      -2.036   5.300   0.536  0.00  0.00    -0.279 N 
ATOM     17  C   UNL d   1      -2.148   6.669   0.595  0.00  0.00     0.322 C 
ATOM     18  H   UNL d   1      -1.279   4.977   1.127  0.00  0.00     0.173 HD
ATOM     19  O   UNL d   1      -1.332   7.325   1.232  0.00  0.00    -0.247 OA
ATOM     20  N   UNL d   1      -3.208   7.210  -0.065  0.00  0.00    -0.347 N 
ATOM     21  C   UNL d   1      -3.472   8.624  -0.105  0.00  0.00     0.151 C 
ATOM     22  H   UNL d   1      -3.760   6.583  -0.646  0.00  0.00     0.163 HD
ATOM     23  O   UNL d   1      -3.828   4.726  -0.772  0.00  0.00    -0.272 OA
ENDBRANCH  14  15
ENDBRANCH  13  14
ENDBRANCH   5  13
TORSDOF 3
