REMARK  2 active torsions:
REMARK  status: ('A' for Active; 'I' for Inactive)
REMARK    1  A    between atoms: S_17  and  C_3 
REMARK    2  A    between atoms: C_9  and  C_5 
ROOT
ATOM      1  N   UNL d   1      -1.027   1.411   1.270  0.00  0.00    -0.349 N 
ATOM      2  HN  UNL d   1      -1.748   2.121   1.140  1.00  0.00     0.166 HD
ATOM      3  C   UNL d   1      -1.259   0.333   2.057  0.00  0.00     0.088 A 
ATOM      4  C   UNL d   1      -0.303  -0.650   2.280  0.00  0.00     0.077 A 
ATOM      5  C   UNL d   1       0.179   1.534   0.658  0.00  0.00     0.043 A 
ATOM      6  C   UNL d   1      -0.532  -1.763   3.146  0.00  0.00     0.102 C 
ATOM      7  N   UNL d   1      -0.672  -2.673   3.844  0.00  0.00    -0.191 NA
ATOM      8  C   UNL d   1       0.929  -0.527   1.633  0.00  0.00     0.028 A 
ATOM      9  C   UNL d   1       1.172   0.571   0.810  0.00  0.00     0.032 A 
ENDROOT
BRANCH   3  10
ATOM     10  S   UNL d   1      -2.890   0.299   2.762  0.00  0.00    -0.124 SA
ATOM     11  H   UNL d   1      -3.300   1.398   2.114  0.00  0.00     0.108 HD
ENDBRANCH   3  10
BRANCH   5  12
ATOM     12  C   UNL d   1       0.343   2.737  -0.176  0.00  0.00    -0.007 A 
ATOM     13  C   UNL d   1       1.071   2.714  -1.377  0.00  0.00     0.053 A 
ATOM     14  C   UNL d   1       1.085   3.827  -2.218  0.00  0.00     0.103 A 
ATOM     15  O   UNL d   1       1.721   3.684  -3.425  0.00  0.00    -0.346 OA
ATOM     16  C   UNL d   1       0.423   5.001  -1.861  0.00  0.00     0.102 A 
ATOM     17  C   UNL d   1       1.003   4.446  -4.398  0.00  0.00     0.202 C 
ATOM     18  C   UNL d   1       0.905   5.905  -3.974  0.00  0.00     0.202 C 
ATOM     19  O   UNL d   1       0.320   6.092  -2.679  0.00  0.00    -0.346 OA
ATOM     20  C   UNL d   1      -0.232   5.074  -0.639  0.00  0.00     0.040 A 
ATOM     21  C   UNL d   1      -0.286   3.946   0.185  0.00  0.00     0.016 A 
ENDBRANCH   5  12
TORSDOF 2
