REMARK  7 active torsions:
REMARK  status: ('A' for Active; 'I' for Inactive)
REMARK    1  A    between atoms: C_9  and  N_1 
REMARK    2  A    between atoms: S_18  and  C_2 
REMARK    3  A    between atoms: O_20  and  C_3 
REMARK    4  A    between atoms: S_4  and  C_13 
REMARK    5  A    between atoms: C_12  and  S_4 
REMARK    6  A    between atoms: C_13  and  C_23 
REMARK    7  A    between atoms: C_23  and  S_18 
ROOT
ATOM      1  N   UNL d   1      -0.165  -1.273  -0.013  0.00  0.00    -0.254 N 
ATOM      2  C   UNL d   1       1.070  -0.698  -0.276  0.00  0.00     0.169 A 
ATOM      3  C   UNL d   1      -0.967  -0.157   0.228  0.00  0.00     0.245 A 
ATOM      4  N   UNL d   1       0.980   0.613  -0.261  0.00  0.00    -0.276 N 
ATOM      5  HN  UNL d   1       1.743   1.264  -0.446  1.00  0.00     0.189 HD
ATOM      6  N   UNL d   1      -0.301   0.954   0.044  0.00  0.00    -0.263 N 
ATOM      7  HN  UNL d   1      -0.673   1.901   0.116  1.00  0.00     0.190 HD
ENDROOT
BRANCH   2   8
ATOM      8  S   UNL d   1       2.530  -1.519  -0.704  0.00  0.00    -0.091 SA
BRANCH   8   9
ATOM      9  C   UNL d   1       3.763  -0.481   0.174  0.00  0.00     0.098 C 
BRANCH   9  10
ATOM     10  C   UNL d   1       4.027   0.896  -0.413  0.00  0.00     0.156 C 
BRANCH  10  11
ATOM     11  S   UNL d   1       4.702   0.831  -2.058  0.00  0.00     0.176 S 
ATOM     12  O   UNL d   1       6.049   0.311  -1.964  0.00  0.00    -0.223 OA
ATOM     13  O   UNL d   1       3.743   0.250  -2.982  0.00  0.00    -0.223 OA
BRANCH  11  14
ATOM     14  C   UNL d   1       4.817   2.549  -2.503  0.00  0.00     0.059 A 
ATOM     15  C   UNL d   1       6.049   3.204  -2.422  0.00  0.00     0.026 A 
ATOM     16  C   UNL d   1       6.138   4.532  -2.838  0.00  0.00     0.044 A 
ATOM     17  C   UNL d   1       5.007   5.178  -3.332  0.00  0.00     0.116 A 
ATOM     18  C   UNL d   1       3.780   4.525  -3.414  0.00  0.00     0.044 A 
ATOM     19  F   UNL d   1       5.105   6.450  -3.743  0.00  0.00    -0.206 F 
ATOM     20  C   UNL d   1       3.681   3.199  -3.001  0.00  0.00     0.026 A 
ENDBRANCH  11  14
ENDBRANCH  10  11
ENDBRANCH   9  10
ENDBRANCH   8   9
ENDBRANCH   2   8
BRANCH   1  21
ATOM     21  C   UNL d   1      -0.589  -2.637   0.084  0.00  0.00     0.057 A 
ATOM     22  C   UNL d   1       0.107  -3.580   0.882  0.00  0.00    -0.034 A 
ATOM     23  C   UNL d   1      -0.449  -4.864   1.059  0.00  0.00     0.015 A 
ATOM     24  C   UNL d   1       1.397  -3.361   1.627  0.00  0.00     0.050 C 
ATOM     25  C   UNL d   1      -1.698  -5.207   0.549  0.00  0.00    -0.061 A 
ATOM     26  C   UNL d   1      -2.361  -4.291  -0.262  0.00  0.00     0.015 A 
ATOM     27  C   UNL d   1      -2.288  -6.550   0.861  0.00  0.00     0.048 C 
ATOM     28  C   UNL d   1      -1.812  -3.024  -0.538  0.00  0.00    -0.034 A 
ATOM     29  C   UNL d   1      -2.592  -2.179  -1.521  0.00  0.00     0.050 C 
ENDBRANCH   1  21
BRANCH   3  30
ATOM     30  O   UNL d   1      -2.215  -0.155   0.683  0.00  0.00    -0.331 OA
ATOM     31  H   UNL d   1      -2.441  -1.056   0.972  0.00  0.00     0.221 HD
ENDBRANCH   3  30
TORSDOF 7
