REMARK  5 active torsions:
REMARK  status: ('A' for Active; 'I' for Inactive)
REMARK    1  A    between atoms: C_17  and  C_1 
REMARK    2  A    between atoms: N_11  and  C_2 
REMARK    3  A    between atoms: C_20  and  C_4 
REMARK    4  A    between atoms: C_7  and  C_9 
REMARK       I    between atoms: C_9  and  N_11 
REMARK    5  A    between atoms: O_25  and  C_17 
ROOT
ATOM      1  C   UNL d   1       0.237   1.354  -0.485  0.00  0.00     0.107 A 
ATOM      2  C   UNL d   1       1.500   0.839  -0.237  0.00  0.00     0.059 A 
ATOM      3  S   UNL d   1      -0.975   0.132  -0.321  0.00  0.00    -0.081 SA
ATOM      4  C   UNL d   1       0.174  -1.117  -0.110  0.00  0.00     0.018 A 
ATOM      5  C   UNL d   1       1.445  -0.581  -0.058  0.00  0.00     0.051 A 
ENDROOT
BRANCH   2   6
ATOM      6  N   UNL d   1       2.743   1.470  -0.205  0.00  0.00    -0.321 N 
ATOM      7  C   UNL d   1       3.000   2.814  -0.022  0.00  0.00     0.256 C 
ATOM      8  O   UNL d   1       2.196   3.645   0.379  0.00  0.00    -0.267 OA
ATOM      9  H   UNL d   1       3.531   0.840  -0.161  0.00  0.00     0.169 HD
BRANCH   7  10
ATOM     10  C   UNL d   1       4.422   3.231  -0.291  0.00  0.00     0.034 A 
ATOM     11  C   UNL d   1       5.263   2.431  -1.098  0.00  0.00     0.049 A 
ATOM     12  C   UNL d   1       6.573   2.920  -1.322  0.00  0.00     0.067 A 
ATOM     13  N   UNL d   1       7.519   2.307  -2.050  0.00  0.00    -0.310 N 
ATOM     14  C   UNL d   1       7.026   4.230  -0.739  0.00  0.00     0.067 A 
ATOM     15  S   UNL d   1       8.854   3.299  -2.012  0.00  0.00     0.068 SA
ATOM     16  HN  UNL d   1       7.437   1.411  -2.530  1.00  0.00     0.176 HD
ATOM     17  N   UNL d   1       8.290   4.541  -1.061  0.00  0.00    -0.310 N 
ATOM     18  HN  UNL d   1       8.805   5.375  -0.778  1.00  0.00     0.176 HD
ATOM     19  C   UNL d   1       6.151   5.006   0.056  0.00  0.00     0.033 A 
ATOM     20  C   UNL d   1       4.859   4.473   0.253  0.00  0.00     0.019 A 
ENDBRANCH   7  10
ENDBRANCH   2   6
BRANCH   1  21
ATOM     21  C   UNL d   1      -0.208   2.668  -0.915  0.00  0.00     0.302 C 
ATOM     22  O   UNL d   1      -1.259   3.213  -0.600  0.00  0.00    -0.259 OA
BRANCH  21  23
ATOM     23  O   UNL d   1       0.676   3.163  -1.833  0.00  0.00    -0.322 OA
ATOM     24  C   UNL d   1       0.457   4.506  -2.270  0.00  0.00     0.213 C 
ENDBRANCH  21  23
ENDBRANCH   1  21
BRANCH   4  25
ATOM     25  C   UNL d   1      -0.198  -2.543  -0.031  0.00  0.00    -0.019 A 
ATOM     26  C   UNL d   1       0.684  -3.509  -0.554  0.00  0.00     0.014 A 
ATOM     27  C   UNL d   1       0.406  -4.876  -0.464  0.00  0.00     0.024 A 
ATOM     28  C   UNL d   1      -0.769  -5.297   0.146  0.00  0.00     0.034 A 
ATOM     29  C   UNL d   1      -1.664  -4.363   0.663  0.00  0.00     0.024 A 
ATOM     30 CL   UNL d   1      -1.111  -6.979   0.266  0.00  0.00    -0.084 Cl
ATOM     31  C   UNL d   1      -1.380  -2.992   0.576  0.00  0.00     0.014 A 
ENDBRANCH   4  25
TORSDOF 5
