REMARK  4 active torsions:
REMARK  status: ('A' for Active; 'I' for Inactive)
REMARK    1  A    between atoms: C_2  and  S_1 
REMARK    2  A    between atoms: N_4  and  S_1 
REMARK    3  A    between atoms: C_10  and  N_4 
REMARK    4  A    between atoms: N_9  and  C_8 
ROOT
ATOM      1  C   UNL d   1       0.698   1.102   1.583  0.00  0.00     0.090 A 
ATOM      2  C   UNL d   1      -0.035   2.322   1.624  0.00  0.00    -0.001 A 
ATOM      3  C   UNL d   1      -0.359   2.870   2.907  0.00  0.00    -0.003 A 
ATOM      4  C   UNL d   1      -1.143   4.057   3.005  0.00  0.00     0.017 A 
ATOM      5  C   UNL d   1       1.176   0.506   2.767  0.00  0.00     0.026 A 
ATOM      6  C   UNL d   1      -0.462   3.053   0.491  0.00  0.00     0.014 A 
ATOM      7  C   UNL d   1       0.131   2.221   4.064  0.00  0.00     0.014 A 
ATOM      8  C   UNL d   1       0.909   1.072   3.999  0.00  0.00     0.002 A 
ATOM      9  C   UNL d   1      -1.272   4.183   0.595  0.00  0.00     0.003 A 
ATOM     10  C   UNL d   1      -1.644   4.652   1.843  0.00  0.00     0.024 A 
ENDROOT
BRANCH   1  11
ATOM     11  S   UNL d   1       1.124   0.175   0.118  0.00  0.00     0.260 S 
ATOM     12  O   UNL d   1       1.010  -1.229   0.440  0.00  0.00    -0.200 OA
ATOM     13  O   UNL d   1       2.385   0.720  -0.337  0.00  0.00    -0.200 OA
BRANCH  11  14
ATOM     14  N   UNL d   1       0.062   0.499  -1.123  0.00  0.00    -0.311 N 
ATOM     15  H   UNL d   1       0.556   0.788  -1.968  0.00  0.00     0.172 HD
BRANCH  14  16
ATOM     16  C   UNL d   1      -1.353   0.122  -1.229  0.00  0.00     0.093 C 
ATOM     17  C   UNL d   1      -1.645  -1.353  -0.969  0.00  0.00     0.026 C 
ATOM     18  C   UNL d   1      -1.011  -2.270  -2.011  0.00  0.00     0.002 C 
ATOM     19  C   UNL d   1      -1.474  -1.911  -3.419  0.00  0.00     0.000 C 
ATOM     20  C   UNL d   1      -1.253  -0.434  -3.735  0.00  0.00     0.002 C 
ATOM     21  C   UNL d   1      -1.828   0.490  -2.653  0.00  0.00     0.026 C 
ENDBRANCH  14  16
ENDBRANCH  11  14
ENDBRANCH   1  11
BRANCH   4  22
ATOM     22  N   UNL d   1      -1.630   4.545   4.239  0.00  0.00    -0.302 NA
ATOM     23  H   UNL d   1      -1.000   4.402   5.019  0.00  0.00     0.124 HD
ATOM     24  H   UNL d   1      -1.945   5.510   4.197  0.00  0.00     0.124 HD
ENDBRANCH   4  22
TORSDOF 4
