REMARK  6 active torsions:
REMARK  status: ('A' for Active; 'I' for Inactive)
REMARK    1  A    between atoms: C_15  and  C_3 
REMARK    2  A    between atoms: C_9  and  C_4 
REMARK    3  A    between atoms: C_14  and  C_5 
REMARK    4  A    between atoms: C_13  and  C_6 
REMARK    5  A    between atoms: O_22  and  C_7 
REMARK    6  A    between atoms: C_16  and  C_17 
ROOT
ATOM      1  N   UNL d   1       0.758   0.336  -1.174  0.00  0.00    -0.349 N 
ATOM      2  HN  UNL d   1       1.123   0.516  -2.110  1.00  0.00     0.166 HD
ATOM      3  C   UNL d   1      -0.301  -0.407  -0.910  0.00  0.00     0.084 A 
ATOM      4  C   UNL d   1       1.308   0.839  -0.001  0.00  0.00     0.050 A 
ATOM      5  S   UNL d   1      -0.633  -0.606   0.772  0.00  0.00    -0.081 SA
ATOM      6  C   UNL d   1       0.685   0.411   1.155  0.00  0.00     0.082 A 
ENDROOT
BRANCH   4   7
ATOM      7  C   UNL d   1       2.487   1.702  -0.018  0.00  0.00    -0.008 A 
ATOM      8  C   UNL d   1       2.748   2.618   1.009  0.00  0.00     0.024 A 
ATOM      9  C   UNL d   1       3.909   3.416   1.031  0.00  0.00    -0.016 A 
ATOM     10  C   UNL d   1       4.833   3.205  -0.021  0.00  0.00     0.079 A 
ATOM     11  C   UNL d   1       4.582   2.354  -1.127  0.00  0.00    -0.016 A 
ATOM     12  C   UNL d   1       3.386   1.613  -1.085  0.00  0.00     0.024 A 
BRANCH   9  13
ATOM     13  C   UNL d   1       4.121   4.416   2.199  0.00  0.00    -0.021 C 
ATOM     14  C   UNL d   1       4.842   3.685   3.347  0.00  0.00     0.019 C 
ATOM     15  C   UNL d   1       4.936   5.675   1.815  0.00  0.00     0.019 C 
ATOM     16  C   UNL d   1       2.781   4.975   2.756  0.00  0.00     0.019 C 
ENDBRANCH   9  13
BRANCH  10  17
ATOM     17  O   UNL d   1       6.056   3.807   0.068  0.00  0.00    -0.360 OA
ATOM     18  H   UNL d   1       6.011   4.598  -0.491  0.00  0.00     0.217 HD
ENDBRANCH  10  17
BRANCH  11  19
ATOM     19  C   UNL d   1       5.529   2.229  -2.348  0.00  0.00    -0.021 C 
ATOM     20  C   UNL d   1       5.032   1.216  -3.416  0.00  0.00     0.019 C 
ATOM     21  C   UNL d   1       5.627   3.588  -3.078  0.00  0.00     0.019 C 
ATOM     22  C   UNL d   1       6.941   1.755  -1.942  0.00  0.00     0.019 C 
ENDBRANCH  11  19
ENDBRANCH   4   7
BRANCH   3  23
ATOM     23  C   UNL d   1      -1.143  -1.065  -1.927  0.00  0.00    -0.002 A 
ATOM     24  C   UNL d   1      -0.591  -1.466  -3.148  0.00  0.00     0.015 A 
ATOM     25  C   UNL d   1      -1.380  -2.083  -4.132  0.00  0.00     0.009 A 
ATOM     26  C   UNL d   1      -2.756  -2.309  -3.936  0.00  0.00    -0.051 A 
ATOM     27  C   UNL d   1      -3.297  -1.900  -2.712  0.00  0.00     0.009 A 
ATOM     28  C   UNL d   1      -2.510  -1.287  -1.728  0.00  0.00     0.015 A 
BRANCH  26  29
ATOM     29  C   UNL d   1      -3.615  -2.950  -5.041  0.00  0.00    -0.024 C 
ATOM     30  C   UNL d   1      -5.108  -3.089  -4.659  0.00  0.00     0.019 C 
ATOM     31  C   UNL d   1      -3.552  -2.082  -6.316  0.00  0.00     0.019 C 
ATOM     32  C   UNL d   1      -3.098  -4.367  -5.369  0.00  0.00     0.019 C 
ENDBRANCH  26  29
ENDBRANCH   3  23
TORSDOF 6
