REMARK  8 active torsions:
REMARK  status: ('A' for Active; 'I' for Inactive)
REMARK    1  A    between atoms: O_5  and  N_1 
REMARK    2  A    between atoms: C_7  and  C_3 
REMARK    3  A    between atoms: N_14  and  C_3 
REMARK    4  A    between atoms: C_4  and  O_5 
REMARK    5  A    between atoms: C_6  and  C_4 
REMARK    6  A    between atoms: C_8  and  C_6 
REMARK    7  A    between atoms: C_18  and  C_15 
REMARK    8  A    between atoms: C_23  and  C_18 
ROOT
ATOM      1  C   UNL d   1       2.938   0.356  -0.953  0.00  0.00     0.289 C 
ATOM      2  O   UNL d   1       3.716  -0.550  -1.241  0.00  0.00    -0.262 OA
ENDROOT
BRANCH   1   3
ATOM      3  O   UNL d   1       2.470   0.639   0.307  0.00  0.00    -0.198 OA
BRANCH   3   4
ATOM      4  N   UNL d   1       2.312  -0.563   1.031  0.00  0.00    -0.246 N 
ATOM      5  C   UNL d   1       2.124  -0.327   2.296  0.00  0.00     0.109 C 
ATOM      6  HN  UNL d   1       2.342  -1.494   0.616  1.00  0.00     0.196 HD
BRANCH   5   7
ATOM      7  C   UNL d   1       1.761  -1.474   3.187  0.00  0.00     0.004 A 
ATOM      8  C   UNL d   1       2.131  -2.781   2.856  0.00  0.00     0.015 A 
ATOM      9  C   UNL d   1       1.757  -3.845   3.683  0.00  0.00     0.007 A 
ATOM     10  C   UNL d   1       1.000  -3.617   4.841  0.00  0.00    -0.062 A 
ATOM     11  C   UNL d   1       0.621  -2.308   5.160  0.00  0.00     0.007 A 
ATOM     12  C   UNL d   1       0.595  -4.769   5.714  0.00  0.00     0.048 C 
ATOM     13  C   UNL d   1       0.999  -1.242   4.339  0.00  0.00     0.015 A 
ENDBRANCH   5   7
BRANCH   5  14
ATOM     14  N   UNL d   1       2.244   0.928   2.853  0.00  0.00    -0.286 NA
ATOM     15  H   UNL d   1       2.740   1.563   2.236  0.00  0.00     0.125 HD
ATOM     16  H   UNL d   1       2.638   0.937   3.789  0.00  0.00     0.125 HD
ENDBRANCH   5  14
ENDBRANCH   3   4
ENDBRANCH   1   3
BRANCH   1  17
ATOM     17  C   UNL d   1       2.273   1.281  -1.962  0.00  0.00     0.116 C 
ATOM     18  C   UNL d   1       2.597   0.836  -3.394  0.00  0.00     0.025 C 
BRANCH  17  19
ATOM     19  C   UNL d   1       2.584   2.757  -1.767  0.00  0.00    -0.045 A 
ATOM     20  C   UNL d   1       3.886   3.253  -1.908  0.00  0.00     0.008 A 
ATOM     21  C   UNL d   1       4.136   4.628  -1.844  0.00  0.00     0.007 A 
ATOM     22  C   UNL d   1       3.096   5.541  -1.627  0.00  0.00    -0.058 A 
ATOM     23  C   UNL d   1       1.800   5.045  -1.450  0.00  0.00     0.007 A 
ATOM     24  C   UNL d   1       1.547   3.668  -1.515  0.00  0.00     0.008 A 
BRANCH  22  25
ATOM     25  C   UNL d   1       3.373   7.029  -1.668  0.00  0.00     0.042 C 
BRANCH  25  26
ATOM     26  C   UNL d   1       2.986   7.820  -0.404  0.00  0.00    -0.019 C 
ATOM     27  C   UNL d   1       3.767   7.359   0.828  0.00  0.00     0.010 C 
ATOM     28  C   UNL d   1       3.236   9.316  -0.634  0.00  0.00     0.010 C 
ENDBRANCH  25  26
ENDBRANCH  22  25
ENDBRANCH  17  19
ENDBRANCH   1  17
TORSDOF 8
