REMARK  3 active torsions:
REMARK  status: ('A' for Active; 'I' for Inactive)
REMARK    1  A    between atoms: C_8  and  C_2 
REMARK    2  A    between atoms: N_13  and  N_3 
REMARK    3  A    between atoms: C_7  and  C_5 
ROOT
ATOM      1  C   UNL d   1      -0.693   1.243   0.001  0.00  0.00     0.129 A 
ATOM      2  C   UNL d   1       0.672  -1.282  -0.078  0.00  0.00     0.072 A 
ATOM      3  N   UNL d   1      -0.713  -1.258  -0.091  0.00  0.00    -0.242 N 
ATOM      4  C   UNL d   1      -1.466  -0.064  -0.028  0.00  0.00     0.284 A 
ATOM      5  C   UNL d   1       0.665   1.159   0.002  0.00  0.00     0.076 A 
ATOM      6  C   UNL d   1       1.357  -0.130  -0.022  0.00  0.00     0.050 A 
ATOM      7  C   UNL d   1      -1.424   2.524   0.005  0.00  0.00     0.106 C 
ATOM      8  N   UNL d   1      -1.969   3.548   0.007  0.00  0.00    -0.191 NA
ATOM      9  O   UNL d   1      -2.697  -0.057   0.008  0.00  0.00    -0.265 OA
ENDROOT
BRANCH   5  10
ATOM     10  C   UNL d   1       1.526   2.389   0.009  0.00  0.00     0.419 C 
ATOM     11  F   UNL d   1       2.856   2.113   0.016  0.00  0.00    -0.166 F 
ATOM     12  F   UNL d   1       1.298   3.152  -1.087  0.00  0.00    -0.166 F 
ATOM     13  F   UNL d   1       1.286   3.156   1.099  0.00  0.00    -0.166 F 
ENDBRANCH   5  10
BRANCH   3  14
ATOM     14  N   UNL d   1      -1.425  -2.484  -0.222  0.00  0.00    -0.239 NA
ATOM     15  H   UNL d   1      -2.413  -2.278  -0.029  0.00  0.00     0.143 HD
ATOM     16  H   UNL d   1      -1.126  -3.110   0.527  0.00  0.00     0.143 HD
ENDBRANCH   3  14
BRANCH   2  17
ATOM     17  C   UNL d   1       1.406  -2.506  -0.121  0.00  0.00     0.033 A 
ATOM     18  S   UNL d   1       1.859  -3.305   1.337  0.00  0.00    -0.100 SA
ATOM     19  C   UNL d   1       2.642  -4.565   0.489  0.00  0.00     0.050 A 
ATOM     20  C   UNL d   1       2.570  -4.393  -0.874  0.00  0.00     0.008 A 
ATOM     21  C   UNL d   1       1.861  -3.207  -1.225  0.00  0.00     0.021 A 
ENDBRANCH   2  17
TORSDOF 3
