REMARK  3 active torsions:
REMARK  status: ('A' for Active; 'I' for Inactive)
REMARK    1  A    between atoms: N_10  and  C_3 
REMARK       I    between atoms: C_4  and  N_9 
REMARK    2  A    between atoms: C_15  and  C_4 
REMARK    3  A    between atoms: N_9  and  N_10 
ROOT
ATOM      1  N   UNL d   1       1.902   2.758  -0.430  0.00  0.00    -0.187 NA
ATOM      2  H   UNL d   1       1.318   3.595  -0.513  0.00  0.00     0.154 HD
ENDROOT
BRANCH   1   3
ATOM      3  N   UNL d   1       3.207   3.067  -0.022  0.00  0.00    -0.281 N 
ATOM      4  C   UNL d   1       3.534   4.410   0.032  0.00  0.00     0.266 C 
ATOM      5  O   UNL d   1       2.720   5.289  -0.250  0.00  0.00    -0.266 OA
ATOM      6  H   UNL d   1       3.750   2.294   0.355  0.00  0.00     0.184 HD
BRANCH   4   7
ATOM      7  C   UNL d   1       4.915   4.770   0.461  0.00  0.00     0.033 A 
ATOM      8  C   UNL d   1       5.972   3.849   0.473  0.00  0.00     0.018 A 
ATOM      9  C   UNL d   1       7.252   4.256   0.869  0.00  0.00     0.025 A 
ATOM     10  C   UNL d   1       7.480   5.580   1.244  0.00  0.00     0.034 A 
ATOM     11  C   UNL d   1       6.441   6.506   1.225  0.00  0.00     0.025 A 
ATOM     12 CL   UNL d   1       9.056   6.072   1.726  0.00  0.00    -0.084 Cl
ATOM     13  C   UNL d   1       5.162   6.102   0.830  0.00  0.00     0.018 A 
ENDBRANCH   4   7
ENDBRANCH   1   3
BRANCH   1  14
ATOM     14  C   UNL d   1       1.299   1.721   0.303  0.00  0.00     0.112 A 
ATOM     15  C   UNL d   1      -0.100   1.633   0.446  0.00  0.00     0.038 A 
ATOM     16  C   UNL d   1      -0.580   0.524   1.122  0.00  0.00     0.088 A 
ATOM     17  C   UNL d   1      -1.187   2.474   0.016  0.00  0.00     0.025 A 
ATOM     18  N   UNL d   1       0.156  -0.460   1.664  0.00  0.00    -0.346 N 
ATOM     19  S   UNL d   1      -2.283   0.491   1.216  0.00  0.00    -0.083 SA
ATOM     20  C   UNL d   1       1.465  -0.268   1.488  0.00  0.00     0.182 A 
ATOM     21  HN  UNL d   1      -0.240  -1.262   2.154  1.00  0.00     0.167 HD
ATOM     22  N   UNL d   1       2.072   0.750   0.857  0.00  0.00    -0.341 N 
ATOM     23  HN  UNL d   1       3.090   0.793   0.794  1.00  0.00     0.167 HD
ATOM     24  C   UNL d   1      -2.419   1.970   0.370  0.00  0.00     0.053 A 
ENDBRANCH   1  14
TORSDOF 3
