REMARK  7 active torsions:
REMARK  status: ('A' for Active; 'I' for Inactive)
REMARK    1  A    between atoms: C_14  and  C_2 
REMARK    2  A    between atoms: S_5  and  C_9 
REMARK    3  A    between atoms: N_16  and  S_5 
REMARK    4  A    between atoms: S_10  and  C_6 
REMARK    5  A    between atoms: C_22  and  S_10 
REMARK    6  A    between atoms: C_13  and  C_22 
REMARK       I    between atoms: N_15  and  C_13 
REMARK    7  A    between atoms: C_24  and  N_15 
ROOT
ATOM      1  C   UNL d   1       2.301  -2.768  -0.023  0.00  0.00     0.185 C 
ENDROOT
BRANCH   1   2
ATOM      2  C   UNL d   1       2.776  -4.210  -0.130  0.00  0.00     0.231 C 
ATOM      3  N   UNL d   1       2.073  -5.169   0.576  0.00  0.00    -0.327 N 
ATOM      4  H   UNL d   1       1.202  -4.866   0.999  0.00  0.00     0.169 HD
ATOM      5  O   UNL d   1       3.743  -4.448  -0.858  0.00  0.00    -0.272 OA
BRANCH   3   6
ATOM      6  C   UNL d   1       2.431  -6.527   0.742  0.00  0.00     0.034 A 
ATOM      7  C   UNL d   1       3.675  -7.038   0.354  0.00  0.00     0.031 A 
ATOM      8  C   UNL d   1       4.004  -8.379   0.568  0.00  0.00     0.027 A 
ATOM      9  C   UNL d   1       3.078  -9.227   1.169  0.00  0.00     0.074 A 
ATOM     10  C   UNL d   1       1.833  -8.738   1.575  0.00  0.00     0.027 A 
ATOM     11  C   UNL d   1       1.513  -7.388   1.359  0.00  0.00     0.031 A 
BRANCH   9  12
ATOM     12  S   UNL d   1       3.529 -10.911   1.471  0.00  0.00     0.239 S 
ATOM     13  O   UNL d   1       4.966 -11.020   1.526  0.00  0.00    -0.206 OA
ATOM     14  O   UNL d   1       2.664 -11.449   2.500  0.00  0.00    -0.206 OA
BRANCH  12  15
ATOM     15  N   UNL d   1       3.059 -11.652   0.039  0.00  0.00    -0.225 NA
ATOM     16  H   UNL d   1       3.879 -12.020  -0.448  0.00  0.00     0.136 HD
ATOM     17  H   UNL d   1       2.340 -12.351   0.226  0.00  0.00     0.136 HD
ENDBRANCH  12  15
ENDBRANCH   9  12
ENDBRANCH   3   6
ENDBRANCH   1   2
BRANCH   1  18
ATOM     18  S   UNL d   1       0.990  -2.470   1.191  0.00  0.00    -0.083 SA
BRANCH  18  19
ATOM     19  C   UNL d   1       0.645  -0.802   0.857  0.00  0.00     0.163 A 
ATOM     20  N   UNL d   1      -0.313  -0.071   1.510  0.00  0.00    -0.315 N 
ATOM     21  C   UNL d   1      -0.367   1.149   0.859  0.00  0.00     0.134 A 
ATOM     22  C   UNL d   1      -1.121  -0.530   2.610  0.00  0.00     0.160 C 
ATOM     23  N   UNL d   1       0.572   1.149  -0.075  0.00  0.00    -0.283 N 
ATOM     24  N   UNL d   1       1.206  -0.067  -0.071  0.00  0.00    -0.278 N 
ATOM     25  HN  UNL d   1       0.788   1.927  -0.697  1.00  0.00     0.188 HD
ATOM     26  HN  UNL d   1       1.975  -0.348  -0.679  1.00  0.00     0.189 HD
BRANCH  21  27
ATOM     27  C   UNL d   1      -1.356   2.219   1.039  0.00  0.00     0.012 A 
ATOM     28  C   UNL d   1      -1.879   2.584   2.281  0.00  0.00     0.032 A 
ATOM     29  C   UNL d   1      -2.905   3.516   2.324  0.00  0.00     0.088 A 
ATOM     30  N   UNL d   1      -3.406   4.132   1.235  0.00  0.00    -0.375 N 
ATOM     31  C   UNL d   1      -2.839   3.825   0.051  0.00  0.00     0.088 A 
ATOM     32  HN  UNL d   1      -4.176   4.798   1.304  1.00  0.00     0.164 HD
ATOM     33  C   UNL d   1      -1.825   2.894  -0.094  0.00  0.00     0.032 A 
ENDBRANCH  21  27
ENDBRANCH  18  19
ENDBRANCH   1  18
TORSDOF 7
