REMARK  4 active torsions:
REMARK  status: ('A' for Active; 'I' for Inactive)
REMARK    1  A    between atoms: S_14  and  C_3 
REMARK    2  A    between atoms: C_12  and  C_11 
REMARK    3  A    between atoms: C_16  and  C_12 
REMARK    4  A    between atoms: C_13  and  S_14 
ROOT
ATOM      1  N   UNL d   1      -1.730  -1.252  -0.044  0.00  0.00    -0.335 N 
ATOM      2  HN  UNL d   1      -2.036  -2.225  -0.044  1.00  0.00     0.168 HD
ATOM      3  C   UNL d   1      -2.483  -0.177  -0.041  0.00  0.00     0.149 A 
ATOM      4  N   UNL d   1      -1.738   0.967  -0.042  0.00  0.00    -0.335 N 
ATOM      5  C   UNL d   1      -0.436  -0.779  -0.047  0.00  0.00     0.062 A 
ATOM      6  C   UNL d   1      -0.414   0.615  -0.048  0.00  0.00     0.064 A 
ATOM      7  C   UNL d   1       0.781  -1.480  -0.050  0.00  0.00     0.058 A 
ATOM      8  C   UNL d   1       0.758   1.370  -0.056  0.00  0.00     0.075 A 
ATOM      9  C   UNL d   1       1.956   0.653  -0.061  0.00  0.00     0.140 A 
ATOM     10  C   UNL d   1       1.975  -0.743  -0.058  0.00  0.00     0.074 A 
ATOM     11 CL   UNL d   1       3.479  -1.587  -0.065  0.00  0.00    -0.081 Cl
ATOM     12  F   UNL d   1       3.105   1.347  -0.071  0.00  0.00    -0.204 F 
ATOM     13  H   UNL d   1      -2.117   1.902  -0.041  0.00  0.00     0.168 HD
ENDROOT
BRANCH   3  14
ATOM     14  S   UNL d   1      -4.201  -0.013  -0.044  0.00  0.00    -0.066 SA
BRANCH  14  15
ATOM     15  C   UNL d   1      -4.719  -1.668  -0.015  0.00  0.00     0.057 C 
ATOM     16  C   UNL d   1      -6.033  -1.940  -0.053  0.00  0.00     0.063 C 
BRANCH  16  17
ATOM     17  C   UNL d   1      -6.541  -3.337  -0.019  0.00  0.00     0.182 C 
ATOM     18  O   UNL d   1      -5.835  -4.276   0.327  0.00  0.00    -0.288 OA
BRANCH  17  19
ATOM     19  C   UNL d   1      -7.976  -3.554  -0.369  0.00  0.00     0.014 A 
ATOM     20  C   UNL d   1      -8.649  -2.742  -1.293  0.00  0.00     0.015 A 
ATOM     21  C   UNL d   1      -9.994  -2.980  -1.589  0.00  0.00     0.001 A 
ATOM     22  C   UNL d   1     -10.670  -4.032  -0.973  0.00  0.00     0.000 A 
ATOM     23  C   UNL d   1     -10.001  -4.856  -0.068  0.00  0.00     0.001 A 
ATOM     24  C   UNL d   1      -8.656  -4.622   0.229  0.00  0.00     0.015 A 
ENDBRANCH  17  19
ENDBRANCH  16  17
ENDBRANCH  14  15
ENDBRANCH   3  14
TORSDOF 4
