REMARK  3 active torsions:
REMARK  status: ('A' for Active; 'I' for Inactive)
REMARK    1  A    between atoms: N_2  and  S_1 
REMARK    2  A    between atoms: C_4  and  S_1 
REMARK    3  A    between atoms: C_3  and  N_2 
ROOT
ATOM      1  C   UNL d   1       2.468   0.042   3.106  0.00  0.00     0.080 A 
ATOM      2  N   UNL d   1       7.658  -0.514   4.458  0.00  0.00    -0.191 NA
ATOM      3  C   UNL d   1       6.541  -0.387   4.178  0.00  0.00     0.099 C 
ATOM      4  C   UNL d   1       3.420   0.924   2.582  0.00  0.00     0.027 A 
ATOM      5  C   UNL d   1       2.848  -0.955   4.011  0.00  0.00     0.027 A 
ATOM      6  C   UNL d   1       5.158  -0.235   3.821  0.00  0.00     0.044 A 
ATOM      7  C   UNL d   1       4.195  -1.101   4.356  0.00  0.00     0.024 A 
ATOM      8  C   UNL d   1       4.765   0.780   2.939  0.00  0.00     0.024 A 
ENDROOT
BRANCH   1   9
ATOM      9  S   UNL d   1       0.746   0.226   2.675  0.00  0.00     0.263 S 
ATOM     10  O   UNL d   1      -0.038  -0.253   3.790  0.00  0.00    -0.200 OA
ATOM     11  O   UNL d   1       0.578   1.573   2.165  0.00  0.00    -0.200 OA
BRANCH   9  12
ATOM     12  N   UNL d   1       0.536  -0.794   1.353  0.00  0.00    -0.280 N 
ATOM     13  H   UNL d   1       0.638  -0.344   0.446  0.00  0.00     0.179 HD
BRANCH  12  14
ATOM     14  C   UNL d   1       0.828  -2.186   1.463  0.00  0.00     0.053 A 
ATOM     15  C   UNL d   1      -0.167  -3.118   1.851  0.00  0.00     0.001 A 
ATOM     16  C   UNL d   1       0.199  -4.483   1.964  0.00  0.00    -0.024 A 
ATOM     17  C   UNL d   1      -1.512  -2.771   2.113  0.00  0.00     0.014 A 
ATOM     18  C   UNL d   1      -0.761  -5.438   2.335  0.00  0.00     0.012 A 
ATOM     19  C   UNL d   1       1.521  -4.875   1.701  0.00  0.00     0.012 A 
ATOM     20  C   UNL d   1      -2.079  -5.067   2.593  0.00  0.00     0.001 A 
ATOM     21  C   UNL d   1      -2.456  -3.734   2.481  0.00  0.00     0.001 A 
ATOM     22  C   UNL d   1       2.481  -3.943   1.311  0.00  0.00     0.003 A 
ATOM     23  C   UNL d   1       2.131  -2.605   1.176  0.00  0.00     0.031 A 
ENDBRANCH  12  14
ENDBRANCH   9  12
ENDBRANCH   1   9
TORSDOF 3
