REMARK  3 active torsions:
REMARK  status: ('A' for Active; 'I' for Inactive)
REMARK    1  A    between atoms: N_2  and  S_1 
REMARK    2  A    between atoms: C_3  and  S_1 
REMARK    3  A    between atoms: C_4  and  N_2 
ROOT
ATOM      1  S   UNL d   1       1.111  -0.107  -0.004  0.00  0.00     0.242 S 
ATOM      2  O   UNL d   1       2.350   0.637  -0.119  0.00  0.00    -0.206 OA
ATOM      3  O   UNL d   1       1.079  -1.411   0.612  0.00  0.00    -0.206 OA
ENDROOT
BRANCH   1   4
ATOM      4  N   UNL d   1       0.462  -0.251  -1.582  0.00  0.00    -0.202 NA
ATOM      5  H   UNL d   1      -0.558  -0.303  -1.526  0.00  0.00     0.141 HD
BRANCH   4   6
ATOM      6  C   UNL d   1       0.852   0.825  -2.545  0.00  0.00     0.163 C 
ATOM      7  C   UNL d   1       0.207   2.157  -2.176  0.00  0.00     0.236 C 
ATOM      8  N   UNL d   1       0.788   3.300  -2.632  0.00  0.00    -0.360 N 
ATOM      9  O   UNL d   1      -0.858   2.224  -1.565  0.00  0.00    -0.272 OA
ATOM     10  C   UNL d   1       1.665   3.354  -3.779  0.00  0.00     0.122 C 
ATOM     11  H   UNL d   1       0.275   4.137  -2.377  0.00  0.00     0.162 HD
ATOM     12  C   UNL d   1       1.008   2.740  -5.016  0.00  0.00     0.020 C 
ATOM     13  C   UNL d   1       1.074   1.208  -5.067  0.00  0.00     0.004 C 
ATOM     14  C   UNL d   1       0.342   0.460  -3.945  0.00  0.00     0.030 C 
ENDBRANCH   4   6
ENDBRANCH   1   4
BRANCH   1  15
ATOM     15  C   UNL d   1      -0.083   0.911   0.852  0.00  0.00     0.083 A 
ATOM     16  C   UNL d   1       0.354   2.175   1.282  0.00  0.00     0.067 A 
ATOM     17  C   UNL d   1      -0.569   3.089   1.767  0.00  0.00     0.117 A 
ATOM     18  F   UNL d   1      -0.162   4.319   2.109  0.00  0.00    -0.206 F 
ATOM     19  C   UNL d   1      -1.914   2.764   1.865  0.00  0.00     0.043 A 
ATOM     20  C   UNL d   1      -2.341   1.488   1.496  0.00  0.00     0.011 A 
ATOM     21  C   UNL d   1      -1.437   0.532   0.995  0.00  0.00    -0.039 A 
ATOM     22  C   UNL d   1      -2.021  -0.789   0.578  0.00  0.00     0.050 C 
ENDBRANCH   1  15
TORSDOF 3
