REMARK  8 active torsions:
REMARK  status: ('A' for Active; 'I' for Inactive)
REMARK    1  A    between atoms: C_15  and  N_1 
REMARK    2  A    between atoms: N_3  and  C_2 
REMARK    3  A    between atoms: C_18  and  C_8 
REMARK    4  A    between atoms: N_9  and  C_13 
REMARK    5  A    between atoms: C_14  and  N_23 
REMARK    6  A    between atoms: C_28  and  C_18 
REMARK    7  A    between atoms: N_23  and  N_21 
REMARK    8  A    between atoms: O_32  and  C_29 
ROOT
ATOM      1  C   UNL d   1      -2.748  -0.298   0.033  0.00  0.00     0.126 C 
ENDROOT
BRANCH   1   2
ATOM      2  C   UNL d   1      -1.278  -0.356  -0.153  0.00  0.00     0.125 A 
ATOM      3  N   UNL d   1      -0.412   0.726  -0.333  0.00  0.00    -0.227 N 
ATOM      4  N   UNL d   1       0.827   0.213  -0.548  0.00  0.00    -0.220 N 
ATOM      5  N   UNL d   1       0.719  -1.100  -0.465  0.00  0.00    -0.226 N 
ATOM      6  HN  UNL d   1       1.678   0.741  -0.738  1.00  0.00     0.210 HD
ATOM      7  N   UNL d   1      -0.567  -1.467  -0.219  0.00  0.00    -0.271 N 
ATOM      8  HN  UNL d   1       1.496  -1.752  -0.571  1.00  0.00     0.210 HD
ATOM      9  HN  UNL d   1      -0.916  -2.419  -0.107  1.00  0.00     0.190 HD
BRANCH   3  10
ATOM     10  C   UNL d   1      -0.602   2.141  -0.323  0.00  0.00     0.059 A 
ATOM     11  C   UNL d   1       0.481   2.978  -0.660  0.00  0.00     0.034 A 
ATOM     12  C   UNL d   1       0.342   4.375  -0.682  0.00  0.00     0.039 A 
ATOM     13  C   UNL d   1      -0.878   4.957  -0.361  0.00  0.00     0.068 A 
ATOM     14  C   UNL d   1      -1.950   4.136  -0.018  0.00  0.00     0.039 A 
ATOM     15  C   UNL d   1      -1.819   2.742   0.009  0.00  0.00     0.034 A 
BRANCH  13  16
ATOM     16  O   UNL d   1      -1.166   6.291  -0.383  0.00  0.00    -0.356 OA
ATOM     17  C   UNL d   1      -0.067   7.182  -0.248  0.00  0.00     0.210 C 
ENDBRANCH  13  16
ENDBRANCH   3  10
ENDBRANCH   1   2
BRANCH   1  18
ATOM     18  C   UNL d   1      -3.312  -1.681   0.234  0.00  0.00     0.087 C 
ATOM     19  N   UNL d   1      -4.263  -2.121  -0.529  0.00  0.00    -0.315 N 
ATOM     20  HN  UNL d   1      -4.646  -1.572  -1.298  1.00  0.00     0.185 HD
BRANCH  19  21
ATOM     21  N   UNL d   1      -4.712  -3.372  -0.225  0.00  0.00    -0.299 N 
ATOM     22  H   UNL d   1      -4.093  -4.020   0.282  0.00  0.00     0.187 HD
BRANCH  21  23
ATOM     23  C   UNL d   1      -5.559  -4.006  -1.170  0.00  0.00     0.081 A 
ATOM     24  C   UNL d   1      -5.735  -5.408  -1.250  0.00  0.00     0.133 A 
ATOM     25  C   UNL d   1      -6.571  -5.984  -2.231  0.00  0.00     0.074 A 
ATOM     26  C   UNL d   1      -7.264  -5.155  -3.120  0.00  0.00     0.105 A 
ATOM     27  C   UNL d   1      -7.161  -3.767  -3.018  0.00  0.00     0.038 A 
ATOM     28  C   UNL d   1      -6.321  -3.209  -2.050  0.00  0.00     0.036 A 
BRANCH  24  29
ATOM     29  N   UNL d   1      -5.037  -6.323  -0.329  0.00  0.00    -0.113 N 
ATOM     30  O   UNL d   1      -5.243  -7.535  -0.458  0.00  0.00    -0.532 OA
ATOM     31  O   UNL d   1      -4.283  -5.830   0.526  0.00  0.00    -0.532 OA
ENDBRANCH  24  29
BRANCH  26  32
ATOM     32  N   UNL d   1      -8.098  -5.745  -4.175  0.00  0.00    -0.116 N 
ATOM     33  O   UNL d   1      -8.131  -6.980  -4.257  0.00  0.00    -0.532 OA
ATOM     34  O   UNL d   1      -8.712  -4.972  -4.924  0.00  0.00    -0.532 OA
ENDBRANCH  26  32
ENDBRANCH  21  23
ENDBRANCH  19  21
ENDBRANCH   1  18
TORSDOF 8
