REMARK  4 active torsions:
REMARK  status: ('A' for Active; 'I' for Inactive)
REMARK    1  A    between atoms: C_3  and  C_1 
REMARK    2  A    between atoms: C_8  and  C_2 
REMARK       I    between atoms: N_9  and  C_3 
REMARK    3  A    between atoms: C_19  and  N_6 
REMARK    4  A    between atoms: C_10  and  N_9 
ROOT
ATOM      1  C   UNL d   1      -1.330  -0.074  -0.223  0.00  0.00     0.063 A 
ATOM      2  C   UNL d   1      -0.451  -1.175   0.184  0.00  0.00     0.070 A 
ATOM      3  C   UNL d   1      -0.787   1.133  -0.455  0.00  0.00     0.112 A 
ATOM      4  C   UNL d   1       0.865  -0.943   0.357  0.00  0.00     0.091 A 
ATOM      5  N   UNL d   1       0.549   1.402  -0.198  0.00  0.00    -0.324 N 
ATOM      6  C   UNL d   1       1.445   0.408   0.176  0.00  0.00     0.248 A 
ATOM      7  O   UNL d   1       2.646   0.577   0.374  0.00  0.00    -0.268 OA
ENDROOT
BRANCH   1   8
ATOM      8  C   UNL d   1      -2.791  -0.315  -0.503  0.00  0.00     0.260 C 
ATOM      9  N   UNL d   1      -3.746   0.581  -0.019  0.00  0.00    -0.318 N 
ATOM     10  C   UNL d   1      -3.483   1.795   0.758  0.00  0.00     0.159 C 
ATOM     11  O   UNL d   1      -3.073  -1.312  -1.169  0.00  0.00    -0.267 OA
BRANCH   9  12
ATOM     12  C   UNL d   1      -5.131   0.296  -0.219  0.00  0.00     0.037 A 
ATOM     13  C   UNL d   1      -5.672  -0.919   0.220  0.00  0.00     0.031 A 
ATOM     14  C   UNL d   1      -7.048  -1.150   0.130  0.00  0.00     0.026 A 
ATOM     15  C   UNL d   1      -7.877  -0.183  -0.434  0.00  0.00     0.034 A 
ATOM     16  C   UNL d   1      -7.345   1.017  -0.902  0.00  0.00     0.026 A 
ATOM     17 CL   UNL d   1      -9.571  -0.465  -0.543  0.00  0.00    -0.084 Cl
ATOM     18  C   UNL d   1      -5.976   1.265  -0.776  0.00  0.00     0.031 A 
ENDBRANCH   9  12
ENDBRANCH   1   8
BRANCH   2  19
ATOM     19  C   UNL d   1      -1.022  -2.545   0.427  0.00  0.00     0.418 C 
ATOM     20  F   UNL d   1      -2.165  -2.509   1.160  0.00  0.00    -0.166 F 
ATOM     21  F   UNL d   1      -1.268  -3.223  -0.718  0.00  0.00    -0.166 F 
ATOM     22  F   UNL d   1      -0.157  -3.321   1.141  0.00  0.00    -0.166 F 
ENDBRANCH   2  19
BRANCH   5  23
ATOM     23  C   UNL d   1       1.035   2.779  -0.300  0.00  0.00     0.127 C 
ATOM     24  C   UNL d   1       1.461   3.147  -1.710  0.00  0.00     0.027 C 
ENDBRANCH   5  23
TORSDOF 4
