REMARK  2 active torsions:
REMARK  status: ('A' for Active; 'I' for Inactive)
REMARK       I    between atoms: N_8  and  C_1 
REMARK       I    between atoms: N_13  and  C_1 
REMARK    1  A    between atoms: N_3  and  N_8 
REMARK    2  A    between atoms: C_15  and  C_14 
ROOT
ATOM      1  N   UNL d   1       0.780   2.574  -0.466  0.00  0.00    -0.307 N 
ATOM      2  HN  UNL d   1       1.574   2.710  -1.092  1.00  0.00     0.186 HD
ATOM      3  C   UNL d   1       0.381   3.487   0.360  0.00  0.00     0.118 C 
ENDROOT
BRANCH   3   4
ATOM      4  C   UNL d   1       1.061   4.795   0.447  0.00  0.00    -0.017 A 
ATOM      5  C   UNL d   1       0.608   5.730   1.384  0.00  0.00     0.052 A 
ATOM      6  C   UNL d   1       1.289   6.928   1.458  0.00  0.00     0.105 A 
ATOM      7  O   UNL d   1       1.011   7.946   2.317  0.00  0.00    -0.323 OA
ATOM      8  C   UNL d   1       2.361   7.211   0.642  0.00  0.00     0.105 A 
ATOM      9  C   UNL d   1       2.068   8.874   1.990  0.00  0.00     0.352 A 
ATOM     10  O   UNL d   1       2.891   8.438   0.888  0.00  0.00    -0.323 OA
ATOM     11  C   UNL d   1       2.816   6.314  -0.299  0.00  0.00     0.040 A 
ATOM     12  C   UNL d   1       2.155   5.086  -0.395  0.00  0.00     0.016 A 
ENDBRANCH   3   4
BRANCH   1  13
ATOM     13  N   UNL d   1       0.058   1.413  -0.438  0.00  0.00    -0.252 N 
ATOM     14  C   UNL d   1       0.363   0.349  -1.249  0.00  0.00     0.332 C 
ATOM     15  O   UNL d   1      -0.238  -0.716  -1.209  0.00  0.00    -0.246 OA
ATOM     16  N   UNL d   1       1.391   0.577  -2.105  0.00  0.00    -0.351 N 
ATOM     17  H   UNL d   1       1.972   1.371  -1.872  0.00  0.00     0.160 HD
ATOM     18  H   UNL d   1       1.774  -0.209  -2.606  0.00  0.00     0.160 HD
ATOM     19  H   UNL d   1      -0.709   1.286   0.212  0.00  0.00     0.191 HD
ENDBRANCH   1  13
TORSDOF 2
