REMARK  6 active torsions:
REMARK  status: ('A' for Active; 'I' for Inactive)
REMARK    1  A    between atoms: O_7  and  C_1 
REMARK    2  A    between atoms: C_10  and  C_2 
REMARK    3  A    between atoms: C_12  and  C_3 
REMARK    4  A    between atoms: C_9  and  N_4 
REMARK    5  A    between atoms: C_8  and  O_7 
REMARK       I    between atoms: N_11  and  C_8 
REMARK    6  A    between atoms: C_15  and  C_9 
ROOT
ATOM      1  C   UNL d   1      -0.908   1.061  -0.547  0.00  0.00     0.110 A 
ATOM      2  C   UNL d   1      -1.553  -0.125  -0.614  0.00  0.00     0.077 A 
ATOM      3  C   UNL d   1       0.532   1.135  -0.353  0.00  0.00     0.025 A 
ATOM      4  N   UNL d   1       0.625  -1.247  -0.304  0.00  0.00    -0.319 N 
ATOM      5  C   UNL d   1      -0.759  -1.390  -0.407  0.00  0.00     0.261 A 
ATOM      6  C   UNL d   1       1.237  -0.007  -0.285  0.00  0.00     0.109 A 
ATOM      7  O   UNL d   1      -1.330  -2.476  -0.306  0.00  0.00    -0.267 OA
ENDROOT
BRANCH   4   8
ATOM      8  C   UNL d   1       1.455  -2.450  -0.191  0.00  0.00     0.170 C 
BRANCH   8   9
ATOM      9  C   UNL d   1       2.001  -2.883  -1.533  0.00  0.00    -0.040 A 
ATOM     10  C   UNL d   1       3.267  -2.462  -1.965  0.00  0.00     0.009 A 
ATOM     11  C   UNL d   1       3.723  -2.788  -3.244  0.00  0.00     0.001 A 
ATOM     12  C   UNL d   1       2.922  -3.543  -4.099  0.00  0.00     0.000 A 
ATOM     13  C   UNL d   1       1.673  -3.988  -3.671  0.00  0.00     0.001 A 
ATOM     14  C   UNL d   1       1.214  -3.659  -2.395  0.00  0.00     0.009 A 
ENDBRANCH   8   9
ENDBRANCH   4   8
BRANCH   3  15
ATOM     15  C   UNL d   1       1.292   2.389  -0.203  0.00  0.00    -0.022 A 
ATOM     16  C   UNL d   1       1.804   3.055  -1.320  0.00  0.00     0.012 A 
ATOM     17  C   UNL d   1       2.557   4.224  -1.146  0.00  0.00     0.001 A 
ATOM     18  C   UNL d   1       2.787   4.726   0.134  0.00  0.00     0.000 A 
ATOM     19  C   UNL d   1       2.267   4.069   1.248  0.00  0.00     0.001 A 
ATOM     20  C   UNL d   1       1.520   2.904   1.079  0.00  0.00     0.012 A 
ENDBRANCH   3  15
BRANCH   2  21
ATOM     21  C   UNL d   1      -3.002  -0.206  -0.866  0.00  0.00    -0.018 A 
ATOM     22  C   UNL d   1      -3.468  -0.275  -2.189  0.00  0.00     0.012 A 
ATOM     23  C   UNL d   1      -4.836  -0.274  -2.462  0.00  0.00     0.001 A 
ATOM     24  C   UNL d   1      -5.751  -0.218  -1.412  0.00  0.00     0.000 A 
ATOM     25  C   UNL d   1      -5.296  -0.189  -0.094  0.00  0.00     0.001 A 
ATOM     26  C   UNL d   1      -3.926  -0.183   0.182  0.00  0.00     0.012 A 
ENDBRANCH   2  21
BRANCH   1  27
ATOM     27  O   UNL d   1      -1.565   2.311  -0.508  0.00  0.00    -0.259 OA
BRANCH  27  28
ATOM     28  C   UNL d   1      -2.027   2.844  -1.684  0.00  0.00     0.367 C 
ATOM     29  N   UNL d   1      -2.657   4.071  -1.496  0.00  0.00    -0.336 N 
ATOM     30  C   UNL d   1      -3.453   4.606  -2.581  0.00  0.00     0.154 C 
ATOM     31  C   UNL d   1      -2.732   4.736  -0.207  0.00  0.00     0.154 C 
ATOM     32  O   UNL d   1      -1.911   2.314  -2.785  0.00  0.00    -0.238 OA
ENDBRANCH  27  28
ENDBRANCH   1  27
TORSDOF 6
