REMARK  5 active torsions:
REMARK  status: ('A' for Active; 'I' for Inactive)
REMARK    1  A    between atoms: C_2  and  C_1 
REMARK       I    between atoms: N_3  and  C_1 
REMARK    2  A    between atoms: C_4  and  N_3 
REMARK    3  A    between atoms: N_6  and  C_4 
REMARK    4  A    between atoms: C_11  and  N_6 
REMARK    5  A    between atoms: O_21  and  C_12 
ROOT
ATOM      1  C   UNL d   1       1.083  -0.049   0.595  0.00  0.00     0.259 C 
ATOM      2  N   UNL d   1       0.061  -0.932   0.967  0.00  0.00    -0.299 N 
ATOM      3  O   UNL d   1       2.257  -0.074   0.912  0.00  0.00    -0.267 OA
ATOM      4  H   UNL d   1      -0.853  -0.676   0.622  0.00  0.00     0.171 HD
ENDROOT
BRANCH   2   5
ATOM      5  C   UNL d   1       0.041  -2.206   1.488  0.00  0.00     0.179 C 
ATOM      6  S   UNL d   1       1.338  -3.244   1.589  0.00  0.00    -0.040 SA
BRANCH   5   7
ATOM      7  N   UNL d   1      -1.204  -2.666   1.870  0.00  0.00    -0.333 N 
ATOM      8  H   UNL d   1      -1.221  -3.674   2.000  0.00  0.00     0.168 HD
BRANCH   7   9
ATOM      9  C   UNL d   1      -2.423  -1.988   2.089  0.00  0.00     0.034 A 
ATOM     10  C   UNL d   1      -2.535  -0.610   2.326  0.00  0.00     0.032 A 
ATOM     11  C   UNL d   1      -3.787  -0.000   2.443  0.00  0.00     0.044 A 
ATOM     12  C   UNL d   1      -4.936  -0.774   2.368  0.00  0.00     0.116 A 
ATOM     13  C   UNL d   1      -4.852  -2.151   2.212  0.00  0.00     0.044 A 
ATOM     14  F   UNL d   1      -6.136  -0.188   2.458  0.00  0.00    -0.206 F 
ATOM     15  C   UNL d   1      -3.599  -2.759   2.084  0.00  0.00     0.032 A 
ENDBRANCH   7   9
ENDBRANCH   5   7
ENDBRANCH   2   5
BRANCH   1  16
ATOM     16  C   UNL d   1       0.490   1.141  -0.073  0.00  0.00     0.052 A 
ATOM     17  C   UNL d   1      -0.316   0.990  -1.206  0.00  0.00     0.026 A 
ATOM     18  C   UNL d   1      -1.296   1.942  -1.474  0.00  0.00     0.023 A 
ATOM     19 BR   UNL d   1      -0.168  -0.504  -2.365  0.00  0.00    -0.050 Br
ATOM     20  C   UNL d   1      -1.415   3.074  -0.658  0.00  0.00     0.038 A 
ATOM     21  C   UNL d   1      -0.503   3.302   0.374  0.00  0.00     0.069 A 
ATOM     22  C   UNL d   1       0.439   2.319   0.680  0.00  0.00     0.055 A 
BRANCH  21  23
ATOM     23  O   UNL d   1      -0.465   4.396   1.187  0.00  0.00    -0.356 OA
ATOM     24  C   UNL d   1      -1.267   5.523   0.851  0.00  0.00     0.210 C 
ENDBRANCH  21  23
ENDBRANCH   1  16
TORSDOF 5
