REMARK  1 active torsions:
REMARK  status: ('A' for Active; 'I' for Inactive)
REMARK    1  A    between atoms: C_4  and  N_1 
ROOT
ATOM      1  N   UNL d   1      -1.210   0.026  -0.269  0.00  0.00    -0.245 N 
ATOM      2  C   UNL d   1      -0.413   1.135  -0.210  0.00  0.00     0.255 A 
ATOM      3  C   UNL d   1      -0.444  -1.094  -0.079  0.00  0.00     0.261 A 
ATOM      4  C   UNL d   1       0.963  -0.651  -0.037  0.00  0.00     0.012 A 
ATOM      5  C   UNL d   1       0.971   0.682  -0.072  0.00  0.00     0.087 A 
ATOM      6  O   UNL d   1      -0.695   2.323  -0.240  0.00  0.00    -0.268 OA
ATOM      7  O   UNL d   1      -0.764  -2.268  -0.012  0.00  0.00    -0.267 OA
ATOM      8  C   UNL d   1       2.120  -1.572  -0.054  0.00  0.00     0.054 C 
ENDROOT
BRANCH   1   9
ATOM      9  C   UNL d   1      -2.597   0.032  -0.574  0.00  0.00     0.049 A 
ATOM     10  C   UNL d   1      -3.154   1.096  -1.304  0.00  0.00     0.075 A 
ATOM     11  C   UNL d   1      -4.490   1.064  -1.698  0.00  0.00     0.157 A 
ATOM     12  F   UNL d   1      -4.973   2.063  -2.449  0.00  0.00    -0.203 F 
ATOM     13  C   UNL d   1      -5.303  -0.002  -1.347  0.00  0.00     0.154 A 
ATOM     14  C   UNL d   1      -4.788  -1.052  -0.601  0.00  0.00     0.048 A 
ATOM     15  F   UNL d   1      -6.585  -0.031  -1.734  0.00  0.00    -0.203 F 
ATOM     16  C   UNL d   1      -3.437  -1.041  -0.226  0.00  0.00     0.033 A 
ENDBRANCH   1   9
TORSDOF 1
