REMARK  3 active torsions:
REMARK  status: ('A' for Active; 'I' for Inactive)
REMARK    1  A    between atoms: C_2  and  C_1 
REMARK    2  A    between atoms: C_15  and  C_5 
REMARK    3  A    between atoms: C_13  and  C_16 
ROOT
ATOM      1  C   UNL d   1       0.207   1.135  -0.202  0.00  0.00     0.158 A 
ATOM      2  N   UNL d   1       1.184   0.199  -0.439  0.00  0.00    -0.317 N 
ATOM      3  HN  UNL d   1       2.140   0.342  -0.765  1.00  0.00     0.169 HD
ATOM      4  C   UNL d   1       0.579  -0.923  -0.140  0.00  0.00     0.183 A 
ATOM      5  N   UNL d   1      -0.992   0.617   0.110  0.00  0.00    -0.241 N 
ATOM      6  HN  UNL d   1      -1.869   1.109   0.280  1.00  0.00     0.196 HD
ATOM      7  O   UNL d   1      -0.749  -0.757   0.144  0.00  0.00    -0.217 OA
ENDROOT
BRANCH   4   8
ATOM      8  C   UNL d   1       1.113  -2.271   0.006  0.00  0.00     0.032 A 
ATOM      9  C   UNL d   1       2.363  -2.537   0.606  0.00  0.00     0.062 A 
ATOM     10  C   UNL d   1       2.799  -3.878   0.698  0.00  0.00     0.017 A 
ATOM     11  C   UNL d   1       2.023  -4.936   0.225  0.00  0.00     0.001 A 
ATOM     12  C   UNL d   1       0.788  -4.671  -0.352  0.00  0.00     0.001 A 
ATOM     13  C   UNL d   1       0.340  -3.354  -0.465  0.00  0.00     0.017 A 
BRANCH   9  14
ATOM     14  C   UNL d   1       3.288  -1.502   1.217  0.00  0.00     0.418 C 
ATOM     15  F   UNL d   1       2.836  -0.227   1.298  0.00  0.00    -0.166 F 
ATOM     16  F   UNL d   1       3.605  -1.832   2.506  0.00  0.00    -0.166 F 
ATOM     17  F   UNL d   1       4.481  -1.441   0.562  0.00  0.00    -0.166 F 
ENDBRANCH   9  14
ENDBRANCH   4   8
BRANCH   1  18
ATOM     18  C   UNL d   1       0.535   2.570  -0.163  0.00  0.00     0.117 A 
ATOM     19  C   UNL d   1       1.639   3.181  -0.811  0.00  0.00     0.083 A 
ATOM     20  C   UNL d   1       1.591   4.502  -0.430  0.00  0.00     0.136 A 
ATOM     21 CL   UNL d   1       2.794   2.487  -1.843  0.00  0.00    -0.080 Cl
ATOM     22  N   UNL d   1       0.516   4.614   0.397  0.00  0.00    -0.305 N 
ATOM     23  N   UNL d   1      -0.165   3.468   0.558  0.00  0.00    -0.294 N 
ATOM     24  C   UNL d   1       0.090   5.812   1.081  0.00  0.00     0.177 C 
ATOM     25  HN  UNL d   1      -1.015   3.312   1.100  1.00  0.00     0.187 HD
ENDBRANCH   1  18
TORSDOF 3
