REMARK  5 active torsions:
REMARK  status: ('A' for Active; 'I' for Inactive)
REMARK    1  A    between atoms: C_3  and  C_1 
REMARK    2  A    between atoms: C_2  and  C_4 
REMARK       I    between atoms: C_5  and  N_8 
REMARK    3  A    between atoms: C_12  and  C_5 
REMARK    4  A    between atoms: N_8  and  C_7 
REMARK    5  A    between atoms: N_9  and  C_12 
ROOT
ATOM      1  C   UNL d   1      -1.147   4.967  -1.770  0.00  0.00     0.050 A 
ATOM      2  C   UNL d   1      -0.263   3.141  -0.422  0.00  0.00     0.050 A 
ATOM      3  C   UNL d   1      -0.578   4.499  -0.580  0.00  0.00     0.032 A 
ATOM      4  C   UNL d   1      -1.082   2.700  -2.690  0.00  0.00     0.036 A 
ATOM      5  C   UNL d   1      -1.391   4.056  -2.809  0.00  0.00     0.045 A 
ATOM      6  C   UNL d   1      -0.526   2.247  -1.484  0.00  0.00     0.045 A 
ENDROOT
BRANCH   4   7
ATOM      7  N   UNL d   1      -1.302   1.768  -3.729  0.00  0.00    -0.326 N 
ATOM      8  C   UNL d   1      -1.835   2.022  -4.985  0.00  0.00     0.250 C 
ATOM      9  O   UNL d   1      -2.171   3.126  -5.419  0.00  0.00    -0.271 OA
ATOM     10  H   UNL d   1      -1.083   0.787  -3.565  0.00  0.00     0.169 HD
BRANCH   8  11
ATOM     11  C   UNL d   1      -1.931   0.797  -5.902  0.00  0.00     0.374 C 
BRANCH  11  12
ATOM     12  N   UNL d   1      -2.016  -0.477  -5.156  0.00  0.00     0.097 N 
ATOM     13  C   UNL d   1      -3.318  -0.628  -4.479  0.00  0.00     0.273 C 
ATOM     14  C   UNL d   1      -3.255  -1.862  -3.579  0.00  0.00     0.030 C 
ATOM     15  C   UNL d   1      -2.919  -3.125  -4.367  0.00  0.00     0.003 C 
ATOM     16  C   UNL d   1      -1.744  -2.915  -5.319  0.00  0.00     0.030 C 
ATOM     17  C   UNL d   1      -1.855  -1.605  -6.098  0.00  0.00     0.273 C 
ENDBRANCH  11  12
ENDBRANCH   8  11
ENDBRANCH   4   7
BRANCH   1  18
ATOM     18  C   UNL d   1      -1.511   6.419  -1.962  0.00  0.00     0.417 C 
ATOM     19  F   UNL d   1      -1.168   7.205  -0.902  0.00  0.00    -0.166 F 
ATOM     20  F   UNL d   1      -2.847   6.602  -2.142  0.00  0.00    -0.166 F 
ATOM     21  F   UNL d   1      -0.902   6.974  -3.046  0.00  0.00    -0.166 F 
ENDBRANCH   1  18
BRANCH   2  22
ATOM     22  C   UNL d   1       0.339   2.647   0.874  0.00  0.00     0.417 C 
ATOM     23  F   UNL d   1       0.669   3.646   1.737  0.00  0.00    -0.166 F 
ATOM     24  F   UNL d   1      -0.507   1.828   1.559  0.00  0.00    -0.166 F 
ATOM     25  F   UNL d   1       1.480   1.929   0.681  0.00  0.00    -0.166 F 
ENDBRANCH   2  22
TORSDOF 5
