REMARK  2 active torsions:
REMARK  status: ('A' for Active; 'I' for Inactive)
REMARK    1  A    between atoms: N_2  and  N_4 
REMARK    2  A    between atoms: C_9  and  C_8 
ROOT
ATOM      1  N   UNL d   1       2.618   1.291   0.080  0.00  0.00    -0.290 N 
ATOM      2  HN  UNL d   1       2.058   2.137   0.185  1.00  0.00     0.187 HD
ATOM      3  C   UNL d   1       3.921   1.306   0.062  0.00  0.00     0.032 C 
ATOM      4  C   UNL d   1       4.779   0.060  -0.083  0.00  0.00     0.070 C 
ENDROOT
BRANCH   1   5
ATOM      5  N   UNL d   1       2.051   0.022  -0.057  0.00  0.00    -0.132 N 
ATOM      6  C   UNL d   1       0.761   0.056  -0.031  0.00  0.00     0.688 C 
ATOM      7  N   UNL d   1      -0.062   1.146   0.123  0.00  0.00    -0.224 N 
ATOM      8  N   UNL d   1      -0.068  -1.022  -0.203  0.00  0.00    -0.224 N 
ATOM      9  C   UNL d   1      -1.429   0.842  -0.243  0.00  0.00     0.158 C 
ATOM     10  H   UNL d   1       0.381   2.026  -0.103  0.00  0.00     0.177 HD
ATOM     11  C   UNL d   1      -1.465  -0.681  -0.022  0.00  0.00     0.158 C 
ATOM     12  H   UNL d   1       0.300  -1.949  -0.046  0.00  0.00     0.177 HD
ATOM     13  HN  UNL d   1       2.595  -0.834  -0.165  1.00  0.00     0.205 HD
ENDBRANCH   1   5
BRANCH   3  14
ATOM     14  C   UNL d   1       4.627   2.628   0.188  0.00  0.00    -0.013 A 
ATOM     15  C   UNL d   1       3.874   3.802   0.331  0.00  0.00     0.014 A 
ATOM     16  C   UNL d   1       4.505   5.044   0.454  0.00  0.00     0.007 A 
ATOM     17  C   UNL d   1       5.900   5.137   0.442  0.00  0.00    -0.062 A 
ATOM     18  C   UNL d   1       6.655   3.969   0.294  0.00  0.00     0.007 A 
ATOM     19  C   UNL d   1       6.565   6.474   0.589  0.00  0.00     0.048 C 
ATOM     20  C   UNL d   1       6.025   2.725   0.169  0.00  0.00     0.014 A 
ENDBRANCH   3  14
TORSDOF 2
