REMARK  3 active torsions:
REMARK  status: ('A' for Active; 'I' for Inactive)
REMARK    1  A    between atoms: N_8  and  C_1 
REMARK    2  A    between atoms: C_13  and  N_8 
REMARK    3  A    between atoms: C_14  and  C_13 
ROOT
ATOM      1  C   UNL d   1       1.519   1.319   0.134  0.00  0.00     0.115 A 
ATOM      2  C   UNL d   1       0.252   0.863  -0.286  0.00  0.00     0.042 A 
ATOM      3  C   UNL d   1       0.005  -0.494  -0.141  0.00  0.00     0.088 A 
ATOM      4  N   UNL d   1       2.378   0.418   0.664  0.00  0.00    -0.338 N 
ATOM      5  HN  UNL d   1       3.299   0.711   0.988  1.00  0.00     0.168 HD
ATOM      6  N   UNL d   1       0.844  -1.409   0.372  0.00  0.00    -0.346 N 
ATOM      7  HN  UNL d   1       0.622  -2.401   0.458  1.00  0.00     0.167 HD
ATOM      8  S   UNL d   1      -1.538  -0.950  -0.705  0.00  0.00    -0.083 SA
ATOM      9  C   UNL d   1       2.001  -0.867   0.756  0.00  0.00     0.182 A 
ATOM     10  C   UNL d   1      -1.922   0.657  -1.142  0.00  0.00     0.053 A 
ATOM     11  C   UNL d   1      -0.888   1.524  -0.865  0.00  0.00     0.025 A 
ENDROOT
BRANCH   1  12
ATOM     12  N   UNL d   1       1.893   2.652   0.009  0.00  0.00    -0.371 N 
ATOM     13  H   UNL d   1       1.300   3.194  -0.606  0.00  0.00     0.161 HD
BRANCH  12  14
ATOM     14  C   UNL d   1       3.313   2.991  -0.037  0.00  0.00     0.078 C 
ATOM     15  C   UNL d   1       3.470   4.382   0.587  0.00  0.00     0.032 C 
BRANCH  14  16
ATOM     16  C   UNL d   1       3.833   3.025  -1.487  0.00  0.00     0.020 C 
ATOM     17  C   UNL d   1       3.780   1.684  -2.207  0.00  0.00     0.007 C 
ENDBRANCH  14  16
ENDBRANCH  12  14
ENDBRANCH   1  12
TORSDOF 3
