REMARK  2 active torsions:
REMARK  status: ('A' for Active; 'I' for Inactive)
REMARK    1  A    between atoms: C_4  and  C_1 
REMARK       I    between atoms: N_2  and  C_4 
REMARK       I    between atoms: C_3  and  N_2 
REMARK       I    between atoms: N_10  and  C_3 
REMARK    2  A    between atoms: C_5  and  N_10 
ROOT
ATOM      1  N   UNL d   1       3.529  -1.111  -0.916  0.00  0.00    -0.273 N 
ATOM      2  C   UNL d   1       4.310  -0.100  -0.449  0.00  0.00     0.328 C 
ATOM      3  C   UNL d   1       2.633  -1.879  -0.199  0.00  0.00     0.278 C 
ATOM      4  N   UNL d   1       3.792   0.735   0.491  0.00  0.00    -0.293 N 
ATOM      5  O   UNL d   1       5.445  -0.037  -0.922  0.00  0.00    -0.247 OA
ATOM      6  O   UNL d   1       1.912  -1.452   0.693  0.00  0.00    -0.265 OA
ATOM      7  H   UNL d   1       4.067  -1.647  -1.589  0.00  0.00     0.173 HD
ATOM      8  H   UNL d   1       2.942   0.488   0.993  0.00  0.00     0.172 HD
ENDROOT
BRANCH   3   9
ATOM      9  C   UNL d   1       2.579  -3.244  -0.720  0.00  0.00     0.124 A 
ATOM     10  N   UNL d   1       3.557  -3.672  -1.626  0.00  0.00    -0.289 N 
ATOM     11  N   UNL d   1       3.368  -4.921  -2.008  0.00  0.00    -0.269 N 
ATOM     12  HN  UNL d   1       4.325  -3.087  -1.953  1.00  0.00     0.188 HD
ATOM     13  S   UNL d   1       2.017  -5.615  -1.310  0.00  0.00    -0.008 SA
ATOM     14  HN  UNL d   1       3.981  -5.411  -2.660  1.00  0.00     0.195 HD
ATOM     15  C   UNL d   1       1.624  -4.199  -0.420  0.00  0.00     0.106 A 
ENDBRANCH   3   9
BRANCH   4  16
ATOM     16  C   UNL d   1       4.494   1.825   0.978  0.00  0.00     0.132 A 
ATOM     17  N   UNL d   1       4.110   2.486   2.077  0.00  0.00    -0.245 N 
ATOM     18  O   UNL d   1       5.121   3.406   2.339  0.00  0.00    -0.241 OA
ATOM     19  HN  UNL d   1       3.254   2.345   2.612  1.00  0.00     0.196 HD
ATOM     20  C   UNL d   1       6.074   3.312   1.374  0.00  0.00     0.076 A 
ATOM     21  C   UNL d   1       5.676   2.388   0.447  0.00  0.00     0.084 A 
ATOM     22  C   UNL d   1       7.293   4.125   1.513  0.00  0.00     0.079 C 
ENDBRANCH   4  16
TORSDOF 2
