REMARK  1 active torsions:
REMARK  status: ('A' for Active; 'I' for Inactive)
REMARK    1  A    between atoms: C_11  and  C_9 
ROOT
ATOM      1  N   UNL d   1      -2.152  -0.727  -1.262  0.00  0.00    -0.338 N 
ATOM      2  C   UNL d   1      -1.553   0.493  -1.374  0.00  0.00     0.093 A 
ATOM      3  C   UNL d   1      -0.598   0.406  -2.360  0.00  0.00    -0.018 A 
ATOM      4  C   UNL d   1      -3.302   0.701   0.156  0.00  0.00     0.013 C 
ATOM      5  C   UNL d   1      -2.147   1.439  -0.479  0.00  0.00     0.207 C 
ATOM      6  C   UNL d   1      -1.718  -1.610  -2.188  0.00  0.00     0.046 A 
ATOM      7  C   UNL d   1      -3.200  -0.754  -0.266  0.00  0.00     0.172 C 
ATOM      8  C   UNL d   1      -0.723  -0.931  -2.906  0.00  0.00    -0.001 A 
ATOM      9  C   UNL d   1      -4.295   1.297   0.831  0.00  0.00     0.024 C 
ATOM     10  O   UNL d   1      -1.852   2.605  -0.280  0.00  0.00    -0.285 OA
ATOM     11  C   UNL d   1       0.323   1.470  -2.831  0.00  0.00     0.052 C 
ATOM     12  C   UNL d   1      -2.113  -2.921  -2.472  0.00  0.00     0.030 A 
ATOM     13  C   UNL d   1      -0.096  -1.615  -3.968  0.00  0.00     0.014 A 
ATOM     14  C   UNL d   1      -0.488  -2.925  -4.274  0.00  0.00     0.001 A 
ATOM     15  C   UNL d   1      -1.479  -3.566  -3.537  0.00  0.00     0.002 A 
ENDROOT
BRANCH   9  16
ATOM     16  C   UNL d   1      -5.466   0.517   1.233  0.00  0.00    -0.036 A 
ATOM     17  C   UNL d   1      -5.501  -0.135   2.469  0.00  0.00     0.011 A 
ATOM     18  C   UNL d   1      -6.565  -0.985   2.781  0.00  0.00     0.001 A 
ATOM     19  C   UNL d   1      -7.594  -1.186   1.862  0.00  0.00     0.000 A 
ATOM     20  C   UNL d   1      -7.570  -0.529   0.633  0.00  0.00     0.001 A 
ATOM     21  C   UNL d   1      -6.511   0.323   0.320  0.00  0.00     0.011 A 
ENDBRANCH   9  16
TORSDOF 1
