REMARK  5 active torsions:
REMARK  status: ('A' for Active; 'I' for Inactive)
REMARK    1  A    between atoms: C_4  and  C_1 
REMARK    2  A    between atoms: C_2  and  C_5 
REMARK    3  A    between atoms: C_3  and  C_6 
REMARK       I    between atoms: N_8  and  C_3 
REMARK    4  A    between atoms: N_7  and  C_12 
REMARK    5  A    between atoms: C_22  and  N_8 
ROOT
ATOM      1  C   UNL d   1       0.834   2.397   5.653  0.00  0.00     0.256 C 
ATOM      2  N   UNL d   1       0.016   2.078   4.580  0.00  0.00    -0.323 N 
ATOM      3  O   UNL d   1       1.453   3.445   5.803  0.00  0.00    -0.267 OA
ATOM      4  H   UNL d   1      -0.613   1.291   4.671  0.00  0.00     0.169 HD
ENDROOT
BRANCH   1   5
ATOM      5  C   UNL d   1       0.962   1.374   6.742  0.00  0.00     0.034 A 
ATOM      6  C   UNL d   1       0.864   0.004   6.488  0.00  0.00     0.033 A 
ATOM      7  C   UNL d   1       1.048  -0.935   7.521  0.00  0.00     0.049 A 
ATOM      8  C   UNL d   1       1.388  -0.480   8.809  0.00  0.00     0.032 A 
ATOM      9  C   UNL d   1       1.573   0.885   9.065  0.00  0.00     0.049 A 
ATOM     10  C   UNL d   1       1.326   1.807   8.030  0.00  0.00     0.033 A 
BRANCH   7  11
ATOM     11  C   UNL d   1       0.918  -2.410   7.229  0.00  0.00     0.417 C 
ATOM     12  F   UNL d   1       1.138  -3.205   8.310  0.00  0.00    -0.166 F 
ATOM     13  F   UNL d   1       1.794  -2.825   6.270  0.00  0.00    -0.166 F 
ATOM     14  F   UNL d   1      -0.321  -2.732   6.769  0.00  0.00    -0.166 F 
ENDBRANCH   7  11
BRANCH   9  15
ATOM     15  C   UNL d   1       2.098   1.361  10.403  0.00  0.00     0.417 C 
ATOM     16  F   UNL d   1       2.379   0.338  11.259  0.00  0.00    -0.166 F 
ATOM     17  F   UNL d   1       3.256   2.066  10.281  0.00  0.00    -0.166 F 
ATOM     18  F   UNL d   1       1.226   2.169  11.060  0.00  0.00    -0.166 F 
ENDBRANCH   9  15
ENDBRANCH   1   5
BRANCH   2  19
ATOM     19  C   UNL d   1      -0.044   2.773   3.342  0.00  0.00     0.035 A 
ATOM     20  C   UNL d   1       0.857   3.768   2.980  0.00  0.00     0.032 A 
ATOM     21  C   UNL d   1       0.830   4.332   1.693  0.00  0.00     0.031 A 
ATOM     22  C   UNL d   1      -0.085   3.932   0.710  0.00  0.00     0.030 A 
ATOM     23  C   UNL d   1      -1.027   2.976   1.113  0.00  0.00     0.031 A 
ATOM     24  C   UNL d   1      -1.010   2.401   2.402  0.00  0.00     0.032 A 
BRANCH  22  25
ATOM     25  N   UNL d   1      -0.039   4.458  -0.570  0.00  0.00    -0.381 N 
ATOM     26  C   UNL d   1      -1.204   4.533  -1.454  0.00  0.00     0.123 C 
ATOM     27  C   UNL d   1      -1.004   3.637  -2.677  0.00  0.00     0.020 C 
ATOM     28  C   UNL d   1       0.320   3.933  -3.383  0.00  0.00     0.003 C 
ATOM     29  C   UNL d   1       1.488   3.897  -2.402  0.00  0.00     0.020 C 
ATOM     30  C   UNL d   1       1.240   4.811  -1.200  0.00  0.00     0.123 C 
ENDBRANCH  22  25
ENDBRANCH   2  19
TORSDOF 5
