REMARK  2 active torsions:
REMARK  status: ('A' for Active; 'I' for Inactive)
REMARK    1  A    between atoms: N_10  and  C_1 
REMARK    2  A    between atoms: N_11  and  C_8 
ROOT
ATOM      1  C   UNL d   1      -1.098  -0.272   0.002  0.00  0.00     0.695 A 
ATOM      2  N   UNL d   1      -1.113   1.058   0.002  0.00  0.00    -0.022 N 
ATOM      3  HN  UNL d   1      -1.987   1.583   0.007  1.00  0.00     0.203 HD
ATOM      4  N   UNL d   1       0.035  -0.969   0.004  0.00  0.00    -0.180 N 
ATOM      5  HN  UNL d   1       0.037  -1.989   0.006  1.00  0.00     0.185 HD
ATOM      6  N   UNL d   1       1.237   1.060  -0.001  0.00  0.00    -0.180 N 
ATOM      7  HN  UNL d   1       2.122   1.567   0.000  1.00  0.00     0.185 HD
ATOM      8  C   UNL d   1       0.064   1.667  -0.006  0.00  0.00     0.691 A 
ATOM      9  C   UNL d   1       1.167  -0.267   0.002  0.00  0.00     0.109 A 
ATOM     10  C   UNL d   1       2.448  -1.040   0.001  0.00  0.00     0.090 C 
ENDROOT
BRANCH   1  11
ATOM     11  N   UNL d   1      -2.294  -0.954   0.004  0.00  0.00    -0.226 N 
ATOM     12  C   UNL d   1      -2.327  -2.402   0.003  0.00  0.00     0.168 C 
ATOM     13  C   UNL d   1      -3.556  -0.244  -0.001  0.00  0.00     0.168 C 
ENDBRANCH   1  11
BRANCH   8  14
ATOM     14  N   UNL d   1       0.065   3.034  -0.027  0.00  0.00    -0.234 N 
ATOM     15  H   UNL d   1      -0.820   3.504   0.019  0.00  0.00     0.174 HD
ATOM     16  H   UNL d   1       0.951   3.506   0.018  0.00  0.00     0.174 HD
ENDBRANCH   8  14
TORSDOF 2
