REMARK  4 active torsions:
REMARK  status: ('A' for Active; 'I' for Inactive)
REMARK    1  A    between atoms: C_3  and  C_1 
REMARK    2  A    between atoms: C_12  and  C_2 
REMARK    3  A    between atoms: C_15  and  C_8 
REMARK    4  A    between atoms: C_14  and  C_9 
ROOT
ATOM      1  C   UNL d   1       1.169   0.666  -0.046  0.00  0.00     0.059 A 
ATOM      2  C   UNL d   1      -0.141   1.103  -0.017  0.00  0.00     0.174 A 
ATOM      3  O   UNL d   1      -0.973   0.011  -0.005  0.00  0.00    -0.304 OA
ATOM      4  C   UNL d   1       1.128  -0.753  -0.093  0.00  0.00     0.056 A 
ATOM      5  C   UNL d   1      -0.202  -1.117  -0.033  0.00  0.00     0.087 A 
ENDROOT
BRANCH   1   6
ATOM      6  C   UNL d   1       2.399   1.499  -0.018  0.00  0.00     0.185 A 
ATOM      7  N   UNL d   1       3.612   0.994  -0.105  0.00  0.00    -0.318 N 
ATOM      8  C   UNL d   1       4.421   2.107  -0.041  0.00  0.00     0.138 A 
ATOM      9  HN  UNL d   1       3.886   0.016  -0.198  1.00  0.00     0.169 HD
ATOM     10  N   UNL d   1       3.744   3.257   0.104  0.00  0.00    -0.242 N 
ATOM     11  O   UNL d   1       2.416   2.859   0.115  0.00  0.00    -0.217 OA
ATOM     12  HN  UNL d   1       4.119   4.202   0.187  1.00  0.00     0.196 HD
BRANCH   8  13
ATOM     13  C   UNL d   1       5.874   2.033  -0.146  0.00  0.00     0.010 A 
ATOM     14  C   UNL d   1       6.511   0.792  -0.299  0.00  0.00     0.017 A 
ATOM     15  C   UNL d   1       7.903   0.721  -0.426  0.00  0.00     0.025 A 
ATOM     16  C   UNL d   1       8.663   1.888  -0.402  0.00  0.00     0.034 A 
ATOM     17  C   UNL d   1       8.048   3.127  -0.243  0.00  0.00     0.025 A 
ATOM     18 CL   UNL d   1      10.373   1.800  -0.574  0.00  0.00    -0.084 Cl
ATOM     19  C   UNL d   1       6.657   3.198  -0.117  0.00  0.00     0.017 A 
ENDBRANCH   8  13
ENDBRANCH   1   6
BRANCH   2  20
ATOM     20  C   UNL d   1      -0.820   2.423   0.016  0.00  0.00     0.440 C 
ATOM     21  F   UNL d   1       0.032   3.467  -0.123  0.00  0.00    -0.164 F 
ATOM     22  F   UNL d   1      -1.734   2.542  -0.981  0.00  0.00    -0.164 F 
ATOM     23  F   UNL d   1      -1.482   2.616   1.185  0.00  0.00    -0.164 F 
ENDBRANCH   2  20
BRANCH   5  24
ATOM     24  C   UNL d   1      -0.911  -2.392   0.048  0.00  0.00    -0.002 A 
ATOM     25  C   UNL d   1      -0.203  -3.604   0.011  0.00  0.00     0.016 A 
ATOM     26  C   UNL d   1      -0.863  -4.829   0.160  0.00  0.00     0.024 A 
ATOM     27  C   UNL d   1      -2.243  -4.854   0.343  0.00  0.00     0.034 A 
ATOM     28  C   UNL d   1      -2.969  -3.667   0.360  0.00  0.00     0.024 A 
ATOM     29 CL   UNL d   1      -3.049  -6.357   0.561  0.00  0.00    -0.084 Cl
ATOM     30  C   UNL d   1      -2.306  -2.444   0.211  0.00  0.00     0.016 A 
ENDBRANCH   5  24
TORSDOF 4
