REMARK  4 active torsions:
REMARK  status: ('A' for Active; 'I' for Inactive)
REMARK    1  A    between atoms: C_8  and  N_1 
REMARK    2  A    between atoms: C_7  and  C_2 
REMARK    3  A    between atoms: N_12  and  C_9 
REMARK    4  A    between atoms: C_13  and  N_12 
ROOT
ATOM      1  N   UNL d   1       0.568  -0.168  -0.999  0.00  0.00    -0.225 N 
ATOM      2  C   UNL d   1       1.189  -0.673   0.147  0.00  0.00     0.139 A 
ATOM      3  N   UNL d   1      -0.768   0.061   0.671  0.00  0.00    -0.007 NA
ATOM      4  N   UNL d   1      -0.687   0.214  -0.638  0.00  0.00     0.001 NA
ATOM      5  N   UNL d   1       0.379  -0.478   1.171  0.00  0.00    -0.270 N 
ATOM      6  HN  UNL d   1       0.574  -0.691   2.149  1.00  0.00     0.185 HD
ENDROOT
BRANCH   2   7
ATOM      7  C   UNL d   1       2.443  -1.323   0.168  0.00  0.00     0.068 C 
ATOM      8  C   UNL d   1       2.559  -2.607  -0.205  0.00  0.00     0.092 C 
BRANCH   8   9
ATOM      9  N   UNL d   1       3.683  -3.387  -0.090  0.00  0.00    -0.366 N 
ATOM     10  H   UNL d   1       4.446  -3.004   0.460  0.00  0.00     0.165 HD
BRANCH   9  11
ATOM     11  C   UNL d   1       3.882  -4.694  -0.571  0.00  0.00     0.032 A 
ATOM     12  C   UNL d   1       3.110  -5.249  -1.599  0.00  0.00     0.031 A 
ATOM     13  C   UNL d   1       3.317  -6.564  -2.027  0.00  0.00     0.026 A 
ATOM     14  C   UNL d   1       4.288  -7.349  -1.414  0.00  0.00     0.034 A 
ATOM     15  C   UNL d   1       5.057  -6.826  -0.378  0.00  0.00     0.026 A 
ATOM     16 CL   UNL d   1       4.539  -8.968  -1.936  0.00  0.00    -0.084 Cl
ATOM     17  C   UNL d   1       4.851  -5.506   0.041  0.00  0.00     0.031 A 
ENDBRANCH   9  11
ENDBRANCH   8   9
ENDBRANCH   2   7
BRANCH   1  18
ATOM     18  C   UNL d   1       1.006   0.040  -2.339  0.00  0.00     0.056 A 
ATOM     19  C   UNL d   1       0.042   0.334  -3.324  0.00  0.00     0.032 A 
ATOM     20  C   UNL d   1       0.422   0.592  -4.645  0.00  0.00     0.021 A 
ATOM     21  C   UNL d   1       1.769   0.573  -4.987  0.00  0.00     0.011 A 
ATOM     22  C   UNL d   1       2.735   0.287  -4.025  0.00  0.00     0.021 A 
ATOM     23 BR   UNL d   1       2.291   0.959  -6.762  0.00  0.00    -0.051 Br
ATOM     24  C   UNL d   1       2.358   0.015  -2.702  0.00  0.00     0.032 A 
ENDBRANCH   1  18
TORSDOF 4
