REMARK  8 active torsions:
REMARK  status: ('A' for Active; 'I' for Inactive)
REMARK    1  A    between atoms: C_3  and  C_1 
REMARK    2  A    between atoms: C_7  and  C_2 
REMARK       I    between atoms: N_6  and  C_3 
REMARK    3  A    between atoms: C_10  and  N_6 
REMARK    4  A    between atoms: C_19  and  N_6 
REMARK    5  A    between atoms: C_12  and  C_10 
REMARK    6  A    between atoms: C_14  and  C_10 
REMARK    7  A    between atoms: C_20  and  C_14 
REMARK    8  A    between atoms: O_24  and  C_18 
ROOT
ATOM      1  C   UNL d   1      -0.392  -2.966  -1.560  0.00  0.00     0.259 C 
ATOM      2  N   UNL d   1      -0.451  -3.888  -0.487  0.00  0.00    -0.339 N 
ATOM      3  O   UNL d   1      -1.115  -1.960  -1.519  0.00  0.00    -0.267 OA
ENDROOT
BRANCH   2   4
ATOM      4  C   UNL d   1      -0.048  -5.328  -0.414  0.00  0.00     0.124 C 
BRANCH   4   5
ATOM      5  C   UNL d   1      -0.888  -6.235  -1.332  0.00  0.00    -0.035 C 
ATOM      6  C   UNL d   1      -0.434  -7.504  -1.750  0.00  0.00     0.012 C 
ATOM      7  C   UNL d   1      -1.095  -8.210  -2.761  0.00  0.00     0.037 C 
ATOM      8  C   UNL d   1      -2.255  -7.686  -3.317  0.00  0.00     0.068 C 
ATOM      9  C   UNL d   1      -2.844  -6.555  -2.768  0.00  0.00     0.037 C 
ATOM     10  C   UNL d   1      -2.163  -5.835  -1.780  0.00  0.00     0.012 C 
BRANCH   8  11
ATOM     11  O   UNL d   1      -2.823  -8.245  -4.429  0.00  0.00    -0.356 OA
ATOM     12  C   UNL d   1      -2.008  -7.970  -5.576  0.00  0.00     0.210 C 
ENDBRANCH   8  11
ENDBRANCH   4   5
BRANCH   4  13
ATOM     13  C   UNL d   1       1.496  -5.514  -0.451  0.00  0.00     0.068 C 
BRANCH  13  14
ATOM     14  C   UNL d   1       2.217  -5.104   0.815  0.00  0.00    -0.056 A 
ATOM     15  C   UNL d   1       2.381  -6.013   1.871  0.00  0.00     0.007 A 
ATOM     16  C   UNL d   1       3.115  -5.656   3.004  0.00  0.00     0.001 A 
ATOM     17  C   UNL d   1       3.681  -4.387   3.099  0.00  0.00     0.000 A 
ATOM     18  C   UNL d   1       3.507  -3.470   2.064  0.00  0.00     0.001 A 
ATOM     19  C   UNL d   1       2.781  -3.827   0.927  0.00  0.00     0.007 A 
ENDBRANCH  13  14
ENDBRANCH   4  13
ENDBRANCH   2   4
BRANCH   2  20
ATOM     20  C   UNL d   1      -0.922  -3.317   0.791  0.00  0.00     0.122 C 
ATOM     21  C   UNL d   1      -2.435  -3.218   0.929  0.00  0.00     0.026 C 
ENDBRANCH   2  20
BRANCH   1  22
ATOM     22  C   UNL d   1       0.593  -3.022  -2.656  0.00  0.00     0.092 C 
ATOM     23  C   UNL d   1       1.230  -1.859  -3.255  0.00  0.00     0.085 C 
ATOM     24  N   UNL d   1       2.154  -2.226  -4.153  0.00  0.00    -0.259 N 
ATOM     25  O   UNL d   1       2.014  -3.566  -4.314  0.00  0.00    -0.241 OA
ATOM     26  HN  UNL d   1       2.827  -1.620  -4.622  1.00  0.00     0.195 HD
ATOM     27  C   UNL d   1       1.006  -4.019  -3.523  0.00  0.00     0.090 C 
ATOM     28  C   UNL d   1       0.615  -5.379  -3.910  0.00  0.00     0.080 C 
BRANCH  23  29
ATOM     29  C   UNL d   1       0.972  -0.423  -3.148  0.00  0.00     0.015 A 
ATOM     30  C   UNL d   1       1.254   0.352  -2.020  0.00  0.00     0.046 A 
ATOM     31 CL   UNL d   1       1.823  -0.331  -0.542  0.00  0.00    -0.083 Cl
ATOM     32  C   UNL d   1       1.138   1.750  -2.089  0.00  0.00     0.025 A 
ATOM     33  C   UNL d   1       0.746   2.380  -3.273  0.00  0.00     0.002 A 
ATOM     34  C   UNL d   1       0.449   1.619  -4.397  0.00  0.00     0.001 A 
ATOM     35  C   UNL d   1       0.554   0.230  -4.332  0.00  0.00     0.015 A 
ENDBRANCH  23  29
ENDBRANCH   1  22
TORSDOF 8
