REMARK  7 active torsions:
REMARK  status: ('A' for Active; 'I' for Inactive)
REMARK    1  A    between atoms: C_11  and  N_1 
REMARK    2  A    between atoms: S_14  and  C_2 
REMARK    3  A    between atoms: O_17  and  C_3 
REMARK    4  A    between atoms: S_4  and  C_10 
REMARK    5  A    between atoms: C_9  and  S_4 
REMARK    6  A    between atoms: C_10  and  C_18 
REMARK    7  A    between atoms: C_18  and  S_14 
ROOT
ATOM      1  N   UNL d   1       4.146   0.312  -1.664  0.00  0.00    -0.255 N 
ATOM      2  C   UNL d   1       3.671  -0.964  -1.383  0.00  0.00     0.169 A 
ATOM      3  C   UNL d   1       4.888   0.117  -2.826  0.00  0.00     0.245 A 
ATOM      4  N   UNL d   1       4.097  -1.822  -2.283  0.00  0.00    -0.276 N 
ATOM      5  HN  UNL d   1       3.895  -2.822  -2.300  1.00  0.00     0.189 HD
ATOM      6  N   UNL d   1       4.859  -1.142  -3.191  0.00  0.00    -0.263 N 
ATOM      7  HN  UNL d   1       5.322  -1.542  -4.007  1.00  0.00     0.190 HD
ENDROOT
BRANCH   2   8
ATOM      8  S   UNL d   1       2.506  -1.363  -0.159  0.00  0.00    -0.091 SA
BRANCH   8   9
ATOM      9  C   UNL d   1       2.507  -3.188  -0.173  0.00  0.00     0.098 C 
BRANCH   9  10
ATOM     10  C   UNL d   1       3.834  -3.895   0.069  0.00  0.00     0.156 C 
BRANCH  10  11
ATOM     11  S   UNL d   1       4.515  -3.582   1.681  0.00  0.00     0.176 S 
ATOM     12  O   UNL d   1       4.925  -2.194   1.782  0.00  0.00    -0.223 OA
ATOM     13  O   UNL d   1       3.626  -4.176   2.659  0.00  0.00    -0.223 OA
BRANCH  11  14
ATOM     14  C   UNL d   1       6.031  -4.522   1.697  0.00  0.00     0.059 A 
ATOM     15  C   UNL d   1       7.033  -4.212   0.768  0.00  0.00     0.026 A 
ATOM     16  C   UNL d   1       8.232  -4.926   0.791  0.00  0.00     0.044 A 
ATOM     17  C   UNL d   1       8.419  -5.925   1.741  0.00  0.00     0.116 A 
ATOM     18  C   UNL d   1       7.431  -6.224   2.676  0.00  0.00     0.044 A 
ATOM     19  F   UNL d   1       9.573  -6.604   1.762  0.00  0.00    -0.206 F 
ATOM     20  C   UNL d   1       6.226  -5.519   2.658  0.00  0.00     0.026 A 
ENDBRANCH  11  14
ENDBRANCH  10  11
ENDBRANCH   9  10
ENDBRANCH   8   9
ENDBRANCH   2   8
BRANCH   1  21
ATOM     21  C   UNL d   1       3.944   1.544  -0.977  0.00  0.00     0.045 A 
ATOM     22  C   UNL d   1       3.845   1.582   0.420  0.00  0.00     0.030 A 
ATOM     23  C   UNL d   1       3.639   2.797   1.079  0.00  0.00     0.002 A 
ATOM     24  C   UNL d   1       3.545   3.983   0.354  0.00  0.00     0.000 A 
ATOM     25  C   UNL d   1       3.657   3.958  -1.033  0.00  0.00     0.002 A 
ATOM     26  C   UNL d   1       3.851   2.745  -1.700  0.00  0.00     0.030 A 
ENDBRANCH   1  21
BRANCH   3  27
ATOM     27  O   UNL d   1       5.629   1.016  -3.465  0.00  0.00    -0.331 OA
ATOM     28  H   UNL d   1       5.831   1.744  -2.855  0.00  0.00     0.221 HD
ENDBRANCH   3  27
TORSDOF 7
