REMARK  4 active torsions:
REMARK  status: ('A' for Active; 'I' for Inactive)
REMARK    1  A    between atoms: C_2  and  S_1 
REMARK    2  A    between atoms: N_4  and  S_1 
REMARK    3  A    between atoms: C_13  and  N_4 
REMARK    4  A    between atoms: C_10  and  C_5 
ROOT
ATOM      1  C   UNL d   1       1.120  -2.009   0.298  0.00  0.00     0.121 A 
ATOM      2  S   UNL d   1       1.865  -2.910  -0.962  0.00  0.00    -0.074 SA
ATOM      3  C   UNL d   1       1.513  -4.412  -0.214  0.00  0.00     0.033 A 
ATOM      4  C   UNL d   1       0.615  -2.846   1.271  0.00  0.00     0.034 A 
ATOM      5  C   UNL d   1       0.901  -4.215   1.010  0.00  0.00     0.023 A 
ENDROOT
BRANCH   1   6
ATOM      6  S   UNL d   1       1.169  -0.232   0.090  0.00  0.00     0.267 S 
ATOM      7  O   UNL d   1       0.423   0.010  -1.119  0.00  0.00    -0.200 OA
ATOM      8  O   UNL d   1       2.583   0.089   0.176  0.00  0.00    -0.200 OA
BRANCH   6   9
ATOM      9  N   UNL d   1       0.403   0.531   1.437  0.00  0.00    -0.306 N 
ATOM     10  C   UNL d   1       1.050   0.191   2.733  0.00  0.00     0.163 C 
BRANCH   9  11
ATOM     11  C   UNL d   1      -1.100   0.665   1.457  0.00  0.00     0.095 C 
ATOM     12  C   UNL d   1      -1.640   1.574   0.331  0.00  0.00     0.026 C 
ATOM     13  C   UNL d   1      -1.222   3.036   0.484  0.00  0.00     0.002 C 
ATOM     14  C   UNL d   1      -1.704   3.605   1.813  0.00  0.00     0.000 C 
ATOM     15  C   UNL d   1      -1.245   2.740   2.981  0.00  0.00     0.002 C 
ATOM     16  C   UNL d   1      -1.627   1.266   2.786  0.00  0.00     0.026 C 
ENDBRANCH   9  11
ENDBRANCH   6   9
ENDBRANCH   1   6
BRANCH   3  17
ATOM     17  C   UNL d   1       1.834  -5.699  -0.846  0.00  0.00     0.049 A 
ATOM     18  N   UNL d   1       2.092  -6.697   0.038  0.00  0.00    -0.365 N 
ATOM     19  C   UNL d   1       2.265  -7.940  -0.461  0.00  0.00     0.088 A 
ATOM     20  HN  UNL d   1       2.154  -6.515   1.040  1.00  0.00     0.165 HD
ATOM     21  C   UNL d   1       2.173  -8.249  -1.807  0.00  0.00     0.017 A 
ATOM     22  C   UNL d   1       1.911  -7.216  -2.699  0.00  0.00     0.004 A 
ATOM     23  C   UNL d   1       1.746  -5.919  -2.217  0.00  0.00     0.031 A 
ENDBRANCH   3  17
TORSDOF 4
