REMARK  3 active torsions:
REMARK  status: ('A' for Active; 'I' for Inactive)
REMARK    1  A    between atoms: N_7  and  C_1 
REMARK       I    between atoms: C_8  and  N_7 
REMARK       I    between atoms: N_12  and  C_8 
REMARK    2  A    between atoms: C_19  and  N_12 
REMARK    3  A    between atoms: C_18  and  C_19 
ROOT
ATOM      1  N   UNL d   1       0.592   4.420  -0.035  0.00  0.00    -0.305 N 
ATOM      2  C   UNL d   1       1.142   3.208  -0.195  0.00  0.00     0.321 C 
ATOM      3  N   UNL d   1       2.469   3.031  -0.417  0.00  0.00    -0.339 N 
ATOM      4  O   UNL d   1       0.359   2.252  -0.126  0.00  0.00    -0.247 OA
ATOM      5  H   UNL d   1      -0.395   4.281   0.149  0.00  0.00     0.171 HD
ATOM      6  H   UNL d   1       3.072   3.692   0.046  0.00  0.00     0.164 HD
ENDROOT
BRANCH   1   7
ATOM      7  C   UNL d   1       0.974   5.746  -0.059  0.00  0.00     0.092 A 
ATOM      8  C   UNL d   1       2.154   6.412  -0.307  0.00  0.00     0.101 A 
ATOM      9  O   UNL d   1       1.945   7.755  -0.164  0.00  0.00    -0.240 OA
ATOM     10  C   UNL d   1       3.537   6.080  -0.692  0.00  0.00     0.081 C 
ATOM     11  N   UNL d   1       0.627   8.005   0.135  0.00  0.00    -0.263 N 
ATOM     12  C   UNL d   1       0.039   6.809   0.175  0.00  0.00     0.058 A 
ATOM     13  HN  UNL d   1       0.191   8.914   0.292  1.00  0.00     0.194 HD
ATOM     14  C   UNL d   1      -1.423   6.713   0.423  0.00  0.00     0.072 C 
ENDBRANCH   1   7
BRANCH   3  15
ATOM     15  C   UNL d   1       2.913   1.644  -0.401  0.00  0.00     0.163 C 
BRANCH  15  16
ATOM     16  C   UNL d   1       4.290   1.337  -0.936  0.00  0.00    -0.038 A 
ATOM     17  C   UNL d   1       4.926   0.170  -0.461  0.00  0.00     0.048 A 
ATOM     18  C   UNL d   1       6.109  -0.227  -1.043  0.00  0.00     0.105 A 
ATOM     19  O   UNL d   1       6.820  -1.340  -0.718  0.00  0.00    -0.323 OA
ATOM     20  C   UNL d   1       6.680   0.482  -2.069  0.00  0.00     0.105 A 
ATOM     21  C   UNL d   1       7.913  -1.246  -1.656  0.00  0.00     0.352 A 
ATOM     22  O   UNL d   1       7.829  -0.090  -2.518  0.00  0.00    -0.323 OA
ATOM     23  C   UNL d   1       6.093   1.627  -2.566  0.00  0.00     0.040 A 
ATOM     24  C   UNL d   1       4.881   2.052  -1.998  0.00  0.00     0.012 A 
ENDBRANCH  15  16
ENDBRANCH   3  15
TORSDOF 3
