REMARK  10 active torsions:
REMARK  status: ('A' for Active; 'I' for Inactive)
REMARK    1  A    between atoms: C_23  and  C_7 
REMARK    2  A    between atoms: C_24  and  C_8 
REMARK    3  A    between atoms: C_9  and  C_14 
REMARK    4  A    between atoms: O_19  and  C_9 
REMARK    5  A    between atoms: C_10  and  O_20 
REMARK    6  A    between atoms: C_13  and  C_10 
REMARK    7  A    between atoms: C_17  and  C_25 
REMARK    8  A    between atoms: C_26  and  C_18 
REMARK    9  A    between atoms: C_25  and  O_19 
REMARK   10  A    between atoms: O_20  and  C_26 
ROOT
ATOM      1  N   UNL d   1      -1.998  -4.359   4.469  0.00  0.00    -0.346 N 
ATOM      2  HN  UNL d   1      -1.191  -4.971   4.592  1.00  0.00     0.166 HD
ATOM      3  C   UNL d   1      -2.329  -3.838   3.249  0.00  0.00     0.108 A 
ATOM      4  C   UNL d   1      -2.804  -4.018   5.511  0.00  0.00     0.108 A 
ATOM      5  C   UNL d   1      -3.418  -2.998   3.035  0.00  0.00     0.036 A 
ATOM      6  C   UNL d   1      -3.912  -3.178   5.372  0.00  0.00     0.036 A 
ATOM      7  C   UNL d   1      -4.221  -2.663   4.116  0.00  0.00     0.005 A 
ENDROOT
BRANCH   3   8
ATOM      8  C   UNL d   1      -1.478  -4.167   2.060  0.00  0.00     0.310 C 
ATOM      9  O   UNL d   1      -1.664  -3.707   0.946  0.00  0.00    -0.258 OA
BRANCH   8  10
ATOM     10  O   UNL d   1      -0.500  -5.031   2.416  0.00  0.00    -0.314 OA
BRANCH  10  11
ATOM     11  C   UNL d   1       0.242  -5.636   1.343  0.00  0.00     0.213 C 
BRANCH  11  12
ATOM     12  C   UNL d   1      -0.243  -7.070   1.103  0.00  0.00     0.182 C 
ATOM     13  O   UNL d   1      -1.483  -7.055   0.378  0.00  0.00    -0.272 OA
ATOM     14  N   UNL d   1      -2.525  -7.492   1.226  0.00  0.00    -0.270 N 
ATOM     15  C   UNL d   1      -1.987  -7.894   2.332  0.00  0.00     0.045 C 
ATOM     16  HN  UNL d   1      -3.521  -7.490   1.006  1.00  0.00     0.194 HD
ATOM     17  C   UNL d   1      -0.501  -7.845   2.376  0.00  0.00     0.096 C 
BRANCH  15  18
ATOM     18  C   UNL d   1      -2.775  -8.431   3.455  0.00  0.00    -0.012 A 
ATOM     19  C   UNL d   1      -4.003  -9.057   3.205  0.00  0.00     0.013 A 
ATOM     20  C   UNL d   1      -4.758  -9.578   4.258  0.00  0.00     0.001 A 
ATOM     21  C   UNL d   1      -4.301  -9.445   5.562  0.00  0.00     0.000 A 
ATOM     22  C   UNL d   1      -3.094  -8.797   5.801  0.00  0.00     0.001 A 
ATOM     23  C   UNL d   1      -2.317  -8.299   4.763  0.00  0.00     0.013 A 
ENDBRANCH  15  18
ENDBRANCH  11  12
ENDBRANCH  10  11
ENDBRANCH   8  10
ENDBRANCH   3   8
BRANCH   4  24
ATOM     24  C   UNL d   1      -2.455  -4.481   6.899  0.00  0.00     0.310 C 
ATOM     25  O   UNL d   1      -3.088  -4.129   7.886  0.00  0.00    -0.258 OA
BRANCH  24  26
ATOM     26  O   UNL d   1      -1.332  -5.247   6.938  0.00  0.00    -0.314 OA
BRANCH  26  27
ATOM     27  C   UNL d   1      -0.652  -5.292   8.213  0.00  0.00     0.213 C 
BRANCH  27  28
ATOM     28  C   UNL d   1      -0.644  -6.655   8.910  0.00  0.00     0.182 C 
ATOM     29  O   UNL d   1       0.048  -7.622   8.107  0.00  0.00    -0.272 OA
ATOM     30  N   UNL d   1      -0.487  -8.897   8.403  0.00  0.00    -0.270 N 
ATOM     31  C   UNL d   1      -1.620  -8.710   9.004  0.00  0.00     0.045 C 
ATOM     32  HN  UNL d   1      -0.059  -9.797   8.185  1.00  0.00     0.194 HD
ATOM     33  C   UNL d   1      -1.988  -7.277   9.212  0.00  0.00     0.096 C 
BRANCH  31  34
ATOM     34  C   UNL d   1      -2.572  -9.817   9.281  0.00  0.00    -0.012 A 
ATOM     35  C   UNL d   1      -2.469 -10.987   8.513  0.00  0.00     0.013 A 
ATOM     36  C   UNL d   1      -3.461 -11.966   8.578  0.00  0.00     0.001 A 
ATOM     37  C   UNL d   1      -4.543 -11.798   9.438  0.00  0.00     0.000 A 
ATOM     38  C   UNL d   1      -4.627 -10.659  10.241  0.00  0.00     0.001 A 
ATOM     39  C   UNL d   1      -3.647  -9.664  10.159  0.00  0.00     0.013 A 
ENDBRANCH  31  34
ENDBRANCH  27  28
ENDBRANCH  26  27
ENDBRANCH  24  26
ENDBRANCH   4  24
TORSDOF 10
