REMARK  1 active torsions:
REMARK  status: ('A' for Active; 'I' for Inactive)
REMARK    1  A    between atoms: C_7  and  C_3 
ROOT
ATOM      1  C   UNL d   1      -0.722   0.361  -0.035  0.00  0.00     0.050 C 
ATOM      2  C   UNL d   1      -1.375  -0.818  -0.050  0.00  0.00    -0.025 C 
ATOM      3  C   UNL d   1      -2.885  -0.874  -0.135  0.00  0.00     0.150 C 
ATOM      4  C   UNL d   1      -2.811   1.578   0.092  0.00  0.00     0.173 C 
ATOM      5  N   UNL d   1      -1.463   1.518  -0.064  0.00  0.00    -0.332 N 
ATOM      6  N   UNL d   1      -3.461   0.399   0.255  0.00  0.00    -0.354 N 
ATOM      7  C   UNL d   1       0.759   0.417   0.012  0.00  0.00    -0.003 A 
ATOM      8  C   UNL d   1      -0.676  -2.147   0.041  0.00  0.00     0.043 C 
ATOM      9  S   UNL d   1      -3.626   3.025   0.107  0.00  0.00    -0.041 SA
ATOM     10  C   UNL d   1       1.507  -0.775   0.000  0.00  0.00    -0.045 A 
ATOM     11  C   UNL d   1       0.849  -2.127  -0.078  0.00  0.00     0.044 C 
ATOM     12  C   UNL d   1       1.465   1.634   0.072  0.00  0.00     0.014 A 
ATOM     13  C   UNL d   1       2.914  -0.731   0.026  0.00  0.00     0.008 A 
ATOM     14  C   UNL d   1       2.863   1.669   0.098  0.00  0.00     0.001 A 
ATOM     15  C   UNL d   1       3.588   0.486   0.073  0.00  0.00     0.001 A 
ATOM     16  H   UNL d   1      -1.003   2.416  -0.127  0.00  0.00     0.168 HD
ATOM     17  H   UNL d   1      -4.468   0.457   0.332  0.00  0.00     0.163 HD
ENDROOT
BRANCH   3  18
ATOM     18  C   UNL d   1      -3.406  -1.260  -1.515  0.00  0.00    -0.009 A 
ATOM     19  C   UNL d   1      -4.184  -2.408  -1.746  0.00  0.00     0.044 A 
ATOM     20  C   UNL d   1      -4.728  -2.665  -3.010  0.00  0.00     0.048 A 
ATOM     21 CL   UNL d   1      -4.522  -3.559  -0.503  0.00  0.00    -0.084 Cl
ATOM     22  C   UNL d   1      -4.496  -1.782  -4.062  0.00  0.00     0.035 A 
ATOM     23  C   UNL d   1      -3.701  -0.660  -3.873  0.00  0.00     0.024 A 
ATOM     24 CL   UNL d   1      -5.203  -2.076  -5.601  0.00  0.00    -0.084 Cl
ATOM     25  C   UNL d   1      -3.156  -0.406  -2.614  0.00  0.00     0.013 A 
ENDBRANCH   3  18
TORSDOF 1
