REMARK  4 active torsions:
REMARK  status: ('A' for Active; 'I' for Inactive)
REMARK    1  A    between atoms: C_7  and  C_1 
REMARK    2  A    between atoms: C_8  and  C_3 
REMARK       I    between atoms: N_9  and  C_7 
REMARK       I    between atoms: N_10  and  C_8 
REMARK    3  A    between atoms: C_13  and  N_9 
REMARK    4  A    between atoms: C_14  and  N_10 
ROOT
ATOM      1  C   UNL d   1      -0.185  -1.115  -0.289  0.00  0.00     0.097 A 
ATOM      2  S   UNL d   1       1.339  -0.364  -0.495  0.00  0.00    -0.059 SA
ATOM      3  C   UNL d   1       0.608   1.178  -0.317  0.00  0.00     0.144 A 
ATOM      4  N   UNL d   1      -0.697   1.176  -0.123  0.00  0.00    -0.348 N 
ATOM      5  HN  UNL d   1      -1.274   2.005   0.020  1.00  0.00     0.166 HD
ATOM      6  C   UNL d   1      -1.163  -0.136  -0.146  0.00  0.00     0.029 A 
ATOM      7  C   UNL d   1      -2.629  -0.369   0.001  0.00  0.00     0.070 C 
ENDROOT
BRANCH   1   8
ATOM      8  C   UNL d   1      -0.376  -2.562  -0.272  0.00  0.00     0.265 C 
ATOM      9  N   UNL d   1       0.781  -3.332  -0.332  0.00  0.00    -0.322 N 
ATOM     10  H   UNL d   1       1.658  -2.826  -0.344  0.00  0.00     0.169 HD
ATOM     11  O   UNL d   1      -1.502  -3.039  -0.161  0.00  0.00    -0.267 OA
BRANCH   9  12
ATOM     12  C   UNL d   1       0.863  -4.741  -0.229  0.00  0.00     0.035 A 
ATOM     13  C   UNL d   1      -0.247  -5.589  -0.283  0.00  0.00     0.029 A 
ATOM     14  C   UNL d   1      -0.109  -6.968  -0.099  0.00  0.00     0.002 A 
ATOM     15  C   UNL d   1       1.146  -7.518   0.133  0.00  0.00     0.000 A 
ATOM     16  C   UNL d   1       2.267  -6.692   0.153  0.00  0.00     0.002 A 
ATOM     17  C   UNL d   1       2.129  -5.311  -0.037  0.00  0.00     0.029 A 
ENDBRANCH   9  12
ENDBRANCH   1   8
BRANCH   3  18
ATOM     18  C   UNL d   1       1.424   2.396  -0.351  0.00  0.00     0.280 C 
ATOM     19  N   UNL d   1       0.745   3.527   0.092  0.00  0.00    -0.321 N 
ATOM     20  H   UNL d   1      -0.204   3.358   0.418  0.00  0.00     0.169 HD
ATOM     21  O   UNL d   1       2.606   2.387  -0.696  0.00  0.00    -0.265 OA
BRANCH  19  22
ATOM     22  C   UNL d   1       1.279   4.824   0.267  0.00  0.00     0.035 A 
ATOM     23  C   UNL d   1       2.519   5.222  -0.242  0.00  0.00     0.029 A 
ATOM     24  C   UNL d   1       3.025   6.500   0.015  0.00  0.00     0.002 A 
ATOM     25  C   UNL d   1       2.292   7.401   0.782  0.00  0.00     0.000 A 
ATOM     26  C   UNL d   1       1.042   7.030   1.271  0.00  0.00     0.002 A 
ATOM     27  C   UNL d   1       0.532   5.753   1.005  0.00  0.00     0.029 A 
ENDBRANCH  19  22
ENDBRANCH   3  18
TORSDOF 4
