REMARK  5 active torsions:
REMARK  status: ('A' for Active; 'I' for Inactive)
REMARK    1  A    between atoms: N_2  and  C_1 
REMARK    2  A    between atoms: N_12  and  C_1 
REMARK    3  A    between atoms: C_3  and  N_2 
REMARK    4  A    between atoms: N_6  and  N_12 
REMARK    5  A    between atoms: C_21  and  C_20 
ROOT
ATOM      1  N   UNL d   1       2.637   0.203   0.110  0.00  0.00    -0.277 N 
ATOM      2  H   UNL d   1       3.176   0.629  -0.639  0.00  0.00     0.189 HD
ENDROOT
BRANCH   1   3
ATOM      3  N   UNL d   1       3.264  -0.353   1.188  0.00  0.00    -0.309 N 
ATOM      4  C   UNL d   1       4.561  -0.302   1.147  0.00  0.00     0.118 C 
ATOM      5  HN  UNL d   1       2.754  -0.776   1.964  1.00  0.00     0.186 HD
BRANCH   4   6
ATOM      6  C   UNL d   1       5.391  -0.834   2.245  0.00  0.00    -0.017 A 
ATOM      7  C   UNL d   1       6.786  -0.730   2.160  0.00  0.00     0.052 A 
ATOM      8  C   UNL d   1       7.521  -1.205   3.227  0.00  0.00     0.105 A 
ATOM      9  O   UNL d   1       8.877  -1.178   3.336  0.00  0.00    -0.323 OA
ATOM     10  C   UNL d   1       6.922  -1.766   4.333  0.00  0.00     0.105 A 
ATOM     11  C   UNL d   1       9.060  -1.762   4.644  0.00  0.00     0.352 A 
ATOM     12  O   UNL d   1       7.824  -2.156   5.272  0.00  0.00    -0.323 OA
ATOM     13  C   UNL d   1       5.554  -1.893   4.433  0.00  0.00     0.040 A 
ATOM     14  C   UNL d   1       4.779  -1.420   3.373  0.00  0.00     0.016 A 
ENDBRANCH   4   6
ENDBRANCH   1   3
BRANCH   1  15
ATOM     15  C   UNL d   1       1.275   0.107  -0.068  0.00  0.00     0.186 C 
ATOM     16  S   UNL d   1       0.595   0.708  -1.468  0.00  0.00    -0.040 SA
BRANCH  15  17
ATOM     17  N   UNL d   1       0.623  -0.513   0.967  0.00  0.00    -0.361 N 
ATOM     18  H   UNL d   1       1.279  -0.834   1.674  0.00  0.00     0.162 HD
BRANCH  17  19
ATOM     19  C   UNL d   1      -0.714  -1.079   0.928  0.00  0.00     0.088 C 
ATOM     20  C   UNL d   1      -0.816  -2.373   0.079  0.00  0.00     0.009 C 
ATOM     21  C   UNL d   1      -2.116  -2.976   0.611  0.00  0.00     0.011 C 
ATOM     22  C   UNL d   1       0.215  -3.417   0.546  0.00  0.00     0.007 C 
ATOM     23  C   UNL d   1      -1.612  -3.017   2.054  0.00  0.00    -0.012 C 
ATOM     24  C   UNL d   1      -1.229  -1.545   2.306  0.00  0.00     0.030 C 
ATOM     25  C   UNL d   1      -0.326  -3.847   1.917  0.00  0.00     0.005 C 
ENDBRANCH  17  19
ENDBRANCH  15  17
ENDBRANCH   1  15
TORSDOF 5
