REMARK  4 active torsions:
REMARK  status: ('A' for Active; 'I' for Inactive)
REMARK    1  A    between atoms: C_6  and  C_1 
REMARK    2  A    between atoms: C_7  and  C_1 
REMARK    3  A    between atoms: C_8  and  C_6 
REMARK    4  A    between atoms: C_9  and  C_7 
ROOT
ATOM      1  C   UNL d   1       0.065  -0.912  -0.030  0.00  0.00     0.145 C 
ATOM      2  N   UNL d   1      -1.918   0.821  -0.128  0.00  0.00    -0.195 NA
ATOM      3  N   UNL d   1       2.468   0.159  -0.101  0.00  0.00    -0.195 NA
ATOM      4  C   UNL d   1      -1.022   0.082  -0.086  0.00  0.00     0.085 C 
ATOM      5  C   UNL d   1       1.395  -0.280  -0.071  0.00  0.00     0.085 C 
ENDROOT
BRANCH   1   6
ATOM      6  C   UNL d   1      -0.057  -1.752   1.275  0.00  0.00     0.078 C 
BRANCH   6   7
ATOM      7  C   UNL d   1       0.102  -1.002   2.583  0.00  0.00    -0.056 A 
ATOM      8  C   UNL d   1      -1.008  -0.421   3.212  0.00  0.00     0.007 A 
ATOM      9  C   UNL d   1      -0.866   0.231   4.438  0.00  0.00     0.001 A 
ATOM     10  C   UNL d   1       0.383   0.311   5.048  0.00  0.00     0.000 A 
ATOM     11  C   UNL d   1       1.497  -0.243   4.422  0.00  0.00     0.001 A 
ATOM     12  C   UNL d   1       1.360  -0.893   3.195  0.00  0.00     0.007 A 
ENDBRANCH   6   7
ENDBRANCH   1   6
BRANCH   1  13
ATOM     13  C   UNL d   1      -0.082  -1.897  -1.227  0.00  0.00     0.078 C 
BRANCH  13  14
ATOM     14  C   UNL d   1       0.086  -1.313  -2.616  0.00  0.00    -0.056 A 
ATOM     15  C   UNL d   1       1.358  -1.226  -3.200  0.00  0.00     0.007 A 
ATOM     16  C   UNL d   1       1.513  -0.729  -4.496  0.00  0.00     0.001 A 
ATOM     17  C   UNL d   1       0.398  -0.322  -5.223  0.00  0.00     0.000 A 
ATOM     18  C   UNL d   1      -0.869  -0.383  -4.646  0.00  0.00     0.001 A 
ATOM     19  C   UNL d   1      -1.025  -0.869  -3.346  0.00  0.00     0.007 A 
ENDBRANCH  13  14
ENDBRANCH   1  13
TORSDOF 4
