REMARK  3 active torsions:
REMARK  status: ('A' for Active; 'I' for Inactive)
REMARK    1  A    between atoms: C_2  and  C_1 
REMARK    2  A    between atoms: N_6  and  C_3 
REMARK       I    between atoms: C_8  and  N_6 
REMARK       I    between atoms: N_13  and  C_8 
REMARK    3  A    between atoms: C_16  and  N_13 
ROOT
ATOM      1  C   UNL d   1      -4.048  -1.063   0.253  0.00  0.00     0.032 A 
ATOM      2  C   UNL d   1      -4.426  -1.059  -1.085  0.00  0.00     0.090 A 
ATOM      3  S   UNL d   1      -5.794  -2.057  -1.331  0.00  0.00    -0.083 SA
ATOM      4  C   UNL d   1      -4.910  -1.909   1.038  0.00  0.00     0.024 A 
ATOM      5  C   UNL d   1      -5.900  -2.500   0.299  0.00  0.00     0.053 A 
ENDROOT
BRANCH   2   6
ATOM      6  N   UNL d   1      -3.824  -0.396  -2.152  0.00  0.00    -0.302 N 
ATOM      7  C   UNL d   1      -4.075  -0.386  -3.510  0.00  0.00     0.325 C 
ATOM      8  N   UNL d   1      -5.206  -1.019  -3.944  0.00  0.00    -0.309 N 
ATOM      9  O   UNL d   1      -3.275   0.195  -4.243  0.00  0.00    -0.247 OA
ATOM     10  H   UNL d   1      -5.823  -1.305  -3.201  0.00  0.00     0.170 HD
ATOM     11  H   UNL d   1      -2.989   0.137  -1.910  0.00  0.00     0.171 HD
BRANCH   8  12
ATOM     12  C   UNL d   1      -5.649  -1.315  -5.247  0.00  0.00     0.036 A 
ATOM     13  C   UNL d   1      -4.929  -1.030  -6.409  0.00  0.00     0.032 A 
ATOM     14  C   UNL d   1      -5.437  -1.402  -7.661  0.00  0.00     0.044 A 
ATOM     15  C   UNL d   1      -6.660  -2.057  -7.748  0.00  0.00     0.116 A 
ATOM     16  C   UNL d   1      -7.391  -2.347  -6.606  0.00  0.00     0.044 A 
ATOM     17  F   UNL d   1      -7.137  -2.418  -8.947  0.00  0.00    -0.206 F 
ATOM     18  C   UNL d   1      -6.885  -1.976  -5.359  0.00  0.00     0.032 A 
ENDBRANCH   8  12
ENDBRANCH   2   6
BRANCH   1  19
ATOM     19  C   UNL d   1      -2.889  -0.299   0.860  0.00  0.00     0.088 A 
ATOM     20  N   UNL d   1      -2.128   0.546   0.195  0.00  0.00    -0.349 N 
ATOM     21  C   UNL d   1      -1.187   1.118   1.058  0.00  0.00     0.050 A 
ATOM     22  HN  UNL d   1      -2.213   0.752  -0.801  1.00  0.00     0.166 HD
ATOM     23  C   UNL d   1      -0.220   2.094   0.732  0.00  0.00     0.031 A 
ATOM     24  C   UNL d   1      -1.232   0.665   2.378  0.00  0.00     0.033 A 
ATOM     25  C   UNL d   1       0.654   2.576   1.719  0.00  0.00     0.002 A 
ATOM     26  C   UNL d   1       0.586   2.099   3.024  0.00  0.00     0.002 A 
ATOM     27  C   UNL d   1      -0.358   1.133   3.374  0.00  0.00     0.021 A 
ATOM     28  S   UNL d   1      -2.484  -0.487   2.529  0.00  0.00    -0.069 SA
ENDBRANCH   1  19
TORSDOF 3
