REMARK  2 active torsions:
REMARK  status: ('A' for Active; 'I' for Inactive)
REMARK    1  A    between atoms: C_3  and  C_1 
REMARK       I    between atoms: N_7  and  C_3 
REMARK    2  A    between atoms: C_13  and  N_11 
ROOT
ATOM      1  C   UNL d   1      -1.332  -2.927   0.005  0.00  0.00     0.256 C 
ATOM      2  N   UNL d   1      -0.086  -3.563  -0.069  0.00  0.00    -0.345 N 
ATOM      3  N   UNL d   1       2.424  -4.885  -0.485  0.00  0.00    -0.378 N 
ATOM      4  O   UNL d   1      -2.194  -3.094  -0.856  0.00  0.00    -0.267 OA
ATOM      5  C   UNL d   1       0.961  -3.549   0.970  0.00  0.00     0.146 C 
ATOM      6  C   UNL d   1       0.073  -4.613  -1.095  0.00  0.00     0.146 C 
ATOM      7  C   UNL d   1       2.389  -3.730   0.427  0.00  0.00     0.143 C 
ATOM      8  C   UNL d   1       1.515  -4.720  -1.631  0.00  0.00     0.143 C 
ENDROOT
BRANCH   1   9
ATOM      9  C   UNL d   1      -1.666  -2.041   1.141  0.00  0.00     0.061 A 
ATOM     10  C   UNL d   1      -2.352  -0.809   0.940  0.00  0.00     0.082 A 
ATOM     11  N   UNL d   1      -2.746  -0.252  -0.219  0.00  0.00    -0.310 N 
ATOM     12  C   UNL d   1      -2.706   0.061   2.131  0.00  0.00     0.068 A 
ATOM     13  S   UNL d   1      -3.557   1.144   0.153  0.00  0.00     0.068 SA
ATOM     14  HN  UNL d   1      -2.577  -0.621  -1.155  1.00  0.00     0.176 HD
ATOM     15  N   UNL d   1      -3.368   1.180   1.801  0.00  0.00    -0.310 N 
ATOM     16  HN  UNL d   1      -3.691   1.909   2.437  1.00  0.00     0.176 HD
ATOM     17  C   UNL d   1      -2.351  -0.315   3.448  0.00  0.00     0.032 A 
ATOM     18  C   UNL d   1      -1.719  -1.558   3.589  0.00  0.00     0.003 A 
ATOM     19  C   UNL d   1      -1.427  -2.398   2.490  0.00  0.00     0.019 A 
ENDBRANCH   1   9
BRANCH   3  20
ATOM     20  C   UNL d   1       3.648  -5.522  -0.620  0.00  0.00     0.030 A 
ATOM     21  C   UNL d   1       4.348  -5.612  -1.835  0.00  0.00     0.032 A 
ATOM     22  C   UNL d   1       5.559  -6.300  -1.920  0.00  0.00     0.044 A 
ATOM     23  C   UNL d   1       6.081  -6.921  -0.791  0.00  0.00     0.116 A 
ATOM     24  C   UNL d   1       5.414  -6.856   0.422  0.00  0.00     0.044 A 
ATOM     25  F   UNL d   1       7.232  -7.597  -0.877  0.00  0.00    -0.206 F 
ATOM     26  C   UNL d   1       4.209  -6.157   0.501  0.00  0.00     0.032 A 
ENDBRANCH   3  20
TORSDOF 2
