REMARK  5 active torsions:
REMARK  status: ('A' for Active; 'I' for Inactive)
REMARK    1  A    between atoms: O_6  and  S_1 
REMARK    2  A    between atoms: C_7  and  S_1 
REMARK    3  A    between atoms: N_2  and  C_9 
REMARK    4  A    between atoms: C_3  and  C_8 
REMARK    5  A    between atoms: C_15  and  O_6 
ROOT
ATOM      1  S   UNL d   1       1.062  -0.075   0.151  0.00  0.00     0.303 S 
ATOM      2  O   UNL d   1       0.571   0.711   1.270  0.00  0.00    -0.193 OA
ATOM      3  O   UNL d   1       2.486  -0.246  -0.063  0.00  0.00    -0.193 OA
ENDROOT
BRANCH   1   4
ATOM      4  O   UNL d   1       0.372   0.479  -1.225  0.00  0.00    -0.229 OA
BRANCH   4   5
ATOM      5  C   UNL d   1       0.623   1.756  -1.670  0.00  0.00     0.090 A 
ATOM      6  C   UNL d   1       1.828   2.430  -1.460  0.00  0.00     0.054 A 
ATOM      7  C   UNL d   1       2.020   3.733  -1.948  0.00  0.00     0.050 A 
ATOM      8  C   UNL d   1       0.987   4.346  -2.669  0.00  0.00     0.016 A 
ATOM      9  C   UNL d   1      -0.211   3.667  -2.900  0.00  0.00     0.004 A 
ATOM     10  C   UNL d   1      -0.390   2.373  -2.405  0.00  0.00     0.038 A 
BRANCH   7  11
ATOM     11  C   UNL d   1       3.320   4.461  -1.700  0.00  0.00     0.417 C 
ATOM     12  F   UNL d   1       4.222   3.739  -0.979  0.00  0.00    -0.166 F 
ATOM     13  F   UNL d   1       3.954   4.800  -2.856  0.00  0.00    -0.166 F 
ATOM     14  F   UNL d   1       3.142   5.624  -1.015  0.00  0.00    -0.166 F 
ENDBRANCH   7  11
ENDBRANCH   4   5
ENDBRANCH   1   4
BRANCH   1  15
ATOM     15  C   UNL d   1       0.400  -1.718   0.338  0.00  0.00     0.086 A 
ATOM     16  C   UNL d   1       1.068  -2.790  -0.251  0.00  0.00     0.028 A 
ATOM     17  C   UNL d   1       0.650  -4.099   0.015  0.00  0.00     0.032 A 
ATOM     18  C   UNL d   1      -0.438  -4.366   0.865  0.00  0.00     0.045 A 
ATOM     19  C   UNL d   1      -1.104  -3.261   1.427  0.00  0.00     0.032 A 
ATOM     20  C   UNL d   1      -0.686  -1.946   1.179  0.00  0.00     0.028 A 
BRANCH  18  21
ATOM     21  N   UNL d   1      -0.838  -5.707   1.155  0.00  0.00    -0.252 N 
ATOM     22  C   UNL d   1      -0.021  -6.808   1.017  0.00  0.00     0.231 A 
ATOM     23  C   UNL d   1      -0.767  -8.039   1.431  0.00  0.00     0.113 A 
ATOM     24  O   UNL d   1       1.153  -6.862   0.675  0.00  0.00    -0.273 OA
ATOM     25  C   UNL d   1      -2.151  -7.552   1.774  0.00  0.00     0.113 A 
ATOM     26  C   UNL d   1      -2.083  -6.063   1.623  0.00  0.00     0.231 A 
ATOM     27  O   UNL d   1      -3.055  -5.355   1.851  0.00  0.00    -0.273 OA
ENDBRANCH  18  21
ENDBRANCH   1  15
TORSDOF 5
