REMARK  6 active torsions:
REMARK  status: ('A' for Active; 'I' for Inactive)
REMARK    1  A    between atoms: C_7  and  C_2 
REMARK    2  A    between atoms: O_14  and  C_3 
REMARK    3  A    between atoms: O_15  and  C_7 
REMARK    4  A    between atoms: C_17  and  C_13 
REMARK    5  A    between atoms: C_18  and  C_17 
REMARK    6  A    between atoms: C_19  and  C_18 
ROOT
ATOM      1  C   UNL d   1       0.040  -0.719   0.005  0.00  0.00     0.026 A 
ATOM      2  C   UNL d   1       2.488  -0.725   0.000  0.00  0.00     0.087 A 
ATOM      3  C   UNL d   1       1.270  -1.413   0.002  0.00  0.00     0.096 A 
ATOM      4  C   UNL d   1       0.074   0.692   0.004  0.00  0.00     0.051 A 
ATOM      5  N   UNL d   1       1.248   1.357  -0.001  0.00  0.00    -0.364 N 
ATOM      6  HN  UNL d   1       1.262   2.377  -0.003  1.00  0.00     0.165 HD
ATOM      7  C   UNL d   1       2.408   0.653  -0.002  0.00  0.00     0.109 A 
ATOM      8  C   UNL d   1      -1.141   1.389   0.010  0.00  0.00    -0.034 A 
ATOM      9  C   UNL d   1      -1.198  -1.394   0.007  0.00  0.00     0.023 A 
ATOM     10  C   UNL d   1      -2.365   0.696   0.021  0.00  0.00     0.016 A 
ATOM     11  C   UNL d   1      -2.407  -0.697   0.012  0.00  0.00    -0.057 A 
ATOM     12  C   UNL d   1      -1.199   2.894   0.002  0.00  0.00     0.050 C 
ENDROOT
BRANCH   2  13
ATOM     13  C   UNL d   1       3.767  -1.475  -0.000  0.00  0.00     0.180 C 
ATOM     14  O   UNL d   1       3.765  -2.699  -0.001  0.00  0.00    -0.646 OA
BRANCH  13  15
ATOM     15  O   UNL d   1       4.918  -0.777   0.000  0.00  0.00    -0.773 OA
ATOM     16  H   UNL d   1       4.899   0.194   0.002  0.00  0.00     0.167 HD
ENDBRANCH  13  15
ENDBRANCH   2  13
BRANCH   3  17
ATOM     17  O   UNL d   1       1.213  -2.792   0.002  0.00  0.00    -0.359 OA
ATOM     18  H   UNL d   1       2.127  -3.157   0.001  0.00  0.00     0.217 HD
ENDBRANCH   3  17
BRANCH  11  19
ATOM     19  C   UNL d   1      -3.720  -1.439   0.007  0.00  0.00     0.038 C 
BRANCH  19  20
ATOM     20  C   UNL d   1      -4.548  -1.112  -1.236  0.00  0.00     0.004 C 
BRANCH  20  21
ATOM     21  C   UNL d   1      -5.873  -1.867  -1.250  0.00  0.00    -0.004 C 
ATOM     22  C   UNL d   1      -6.675  -1.504  -2.490  0.00  0.00     0.005 C 
ENDBRANCH  20  21
ENDBRANCH  19  20
ENDBRANCH  11  19
TORSDOF 6
