REMARK  6 active torsions:
REMARK  status: ('A' for Active; 'I' for Inactive)
REMARK    1  A    between atoms: S_2  and  N_1 
REMARK    2  A    between atoms: C_11  and  S_2 
REMARK    3  A    between atoms: C_6  and  C_3 
REMARK    4  A    between atoms: C_15  and  C_18 
REMARK    5  A    between atoms: C_16  and  C_19 
REMARK    6  A    between atoms: C_32  and  N_25 
ROOT
ATOM      1  N   UNL d   1      -0.374   0.992  -0.082  0.00  0.00    -0.187 N 
ATOM      2  C   UNL d   1      -0.393  -1.206   0.018  0.00  0.00     0.050 A 
ATOM      3  N   UNL d   1       0.943   0.644  -0.133  0.00  0.00    -0.288 N 
ATOM      4  HN  UNL d   1       1.752   1.259  -0.220  1.00  0.00     0.188 HD
ATOM      5  C   UNL d   1      -1.206  -0.095  -0.019  0.00  0.00     0.146 A 
ATOM      6  C   UNL d   1       0.930  -0.697  -0.041  0.00  0.00     0.038 A 
ATOM      7  C   UNL d   1       2.214  -1.445  -0.011  0.00  0.00     0.071 C 
ENDROOT
BRANCH   1   8
ATOM      8  S   UNL d   1      -0.981   2.611  -0.004  0.00  0.00     0.282 S 
ATOM      9  O   UNL d   1      -2.420   2.509  -0.172  0.00  0.00    -0.198 OA
ATOM     10  O   UNL d   1      -0.388   3.205   1.179  0.00  0.00    -0.198 OA
BRANCH   8  11
ATOM     11  C   UNL d   1      -0.315   3.442  -1.428  0.00  0.00     0.083 A 
ATOM     12  C   UNL d   1      -1.187   3.931  -2.408  0.00  0.00     0.041 A 
ATOM     13  C   UNL d   1      -0.694   4.706  -3.472  0.00  0.00     0.050 A 
ATOM     14  C   UNL d   1       0.687   4.972  -3.531  0.00  0.00     0.032 A 
ATOM     15  C   UNL d   1       1.568   4.495  -2.543  0.00  0.00     0.050 A 
ATOM     16  C   UNL d   1       1.056   3.722  -1.488  0.00  0.00     0.041 A 
BRANCH  13  17
ATOM     17  C   UNL d   1      -1.617   5.289  -4.518  0.00  0.00     0.417 C 
ATOM     18  F   UNL d   1      -2.930   4.995  -4.308  0.00  0.00    -0.166 F 
ATOM     19  F   UNL d   1      -1.541   6.646  -4.574  0.00  0.00    -0.166 F 
ATOM     20  F   UNL d   1      -1.328   4.843  -5.770  0.00  0.00    -0.166 F 
ENDBRANCH  13  17
BRANCH  15  21
ATOM     21  C   UNL d   1       3.036   4.862  -2.607  0.00  0.00     0.417 C 
ATOM     22  F   UNL d   1       3.767   4.379  -1.568  0.00  0.00    -0.166 F 
ATOM     23  F   UNL d   1       3.633   4.404  -3.739  0.00  0.00    -0.166 F 
ATOM     24  F   UNL d   1       3.224   6.212  -2.604  0.00  0.00    -0.166 F 
ENDBRANCH  15  21
ENDBRANCH   8  11
ENDBRANCH   1   8
BRANCH   2  25
ATOM     25  C   UNL d   1      -0.810  -2.610   0.103  0.00  0.00     0.127 A 
ATOM     26  N   UNL d   1       0.155  -3.602   0.196  0.00  0.00    -0.320 N 
ATOM     27  C   UNL d   1      -0.431  -4.781   0.222  0.00  0.00     0.167 A 
ATOM     28  HN  UNL d   1       1.162  -3.444   0.237  1.00  0.00     0.169 HD
ATOM     29  N   UNL d   1       0.130  -6.013   0.282  0.00  0.00    -0.335 N 
ATOM     30  S   UNL d   1      -2.156  -4.609   0.131  0.00  0.00     0.024 SA
ATOM     31  H   UNL d   1      -0.502  -6.802   0.210  0.00  0.00     0.168 HD
ATOM     32  N   UNL d   1      -2.101  -2.947   0.076  0.00  0.00    -0.309 N 
ATOM     33  HN  UNL d   1      -2.897  -2.311   0.030  1.00  0.00     0.176 HD
BRANCH  29  34
ATOM     34  C   UNL d   1       1.412  -6.378   0.736  0.00  0.00     0.034 A 
ATOM     35  C   UNL d   1       2.356  -5.474   1.233  0.00  0.00     0.029 A 
ATOM     36  C   UNL d   1       3.613  -5.905   1.671  0.00  0.00     0.002 A 
ATOM     37  C   UNL d   1       3.957  -7.252   1.600  0.00  0.00     0.000 A 
ATOM     38  C   UNL d   1       3.047  -8.165   1.079  0.00  0.00     0.002 A 
ATOM     39  C   UNL d   1       1.792  -7.729   0.644  0.00  0.00     0.029 A 
ENDBRANCH  29  34
ENDBRANCH   2  25
TORSDOF 6
