REMARK  10 active torsions:
REMARK  status: ('A' for Active; 'I' for Inactive)
REMARK    1  A    between atoms: C_2  and  C_1 
REMARK    2  A    between atoms: C_4  and  C_1 
REMARK    3  A    between atoms: C_6  and  C_2 
REMARK    4  A    between atoms: C_3  and  C_4 
REMARK    5  A    between atoms: O_12  and  C_3 
REMARK    6  A    between atoms: S_5  and  C_4 
REMARK    7  A    between atoms: C_11  and  S_5 
REMARK    8  A    between atoms: C_14  and  C_11 
REMARK    9  A    between atoms: O_23  and  C_15 
REMARK   10  A    between atoms: C_24  and  O_23 
ROOT
ATOM      1  C   UNL d   1       2.526   0.045   0.223  0.00  0.00     0.152 C 
ENDROOT
BRANCH   1   2
ATOM      2  C   UNL d   1       3.450   0.652  -0.859  0.00  0.00     0.154 C 
ATOM      3  O   UNL d   1       4.664   0.737  -0.706  0.00  0.00    -0.649 OA
BRANCH   2   4
ATOM      4  O   UNL d   1       2.895   1.071  -2.016  0.00  0.00    -0.775 OA
ATOM      5  H   UNL d   1       1.959   0.854  -2.223  0.00  0.00     0.167 HD
ENDBRANCH   2   4
ENDBRANCH   1   2
BRANCH   1   6
ATOM      6  C   UNL d   1       1.027   0.003  -0.056  0.00  0.00     0.110 C 
BRANCH   6   7
ATOM      7  C   UNL d   1       0.680  -0.810  -1.281  0.00  0.00     0.161 C 
ATOM      8  O   UNL d   1       0.714  -0.251  -2.377  0.00  0.00    -0.292 OA
BRANCH   7   9
ATOM      9  C   UNL d   1       0.345  -2.259  -1.181  0.00  0.00     0.010 A 
ATOM     10  C   UNL d   1       0.601  -3.011  -0.031  0.00  0.00     0.018 A 
ATOM     11  C   UNL d   1       0.365  -4.389  -0.025  0.00  0.00     0.037 A 
ATOM     12  C   UNL d   1      -0.128  -5.030  -1.164  0.00  0.00     0.068 A 
ATOM     13  C   UNL d   1      -0.452  -4.269  -2.287  0.00  0.00     0.037 A 
ATOM     14  C   UNL d   1      -0.207  -2.893  -2.302  0.00  0.00     0.018 A 
BRANCH  12  15
ATOM     15  O   UNL d   1      -0.354  -6.377  -1.254  0.00  0.00    -0.352 OA
BRANCH  15  16
ATOM     16  C   UNL d   1       0.605  -7.186  -0.565  0.00  0.00     0.171 C 
ATOM     17  C   UNL d   1       0.320  -8.648  -0.858  0.00  0.00     0.034 C 
ENDBRANCH  15  16
ENDBRANCH  12  15
ENDBRANCH   7   9
ENDBRANCH   6   7
ENDBRANCH   1   6
BRANCH   1  18
ATOM     18  S   UNL d   1       2.817   1.045   1.777  0.00  0.00    -0.148 SA
BRANCH  18  19
ATOM     19  C   UNL d   1       1.936   0.053   3.018  0.00  0.00     0.113 C 
BRANCH  19  20
ATOM     20  C   UNL d   1       1.958   0.703   4.381  0.00  0.00    -0.049 A 
ATOM     21  C   UNL d   1       0.975   1.640   4.732  0.00  0.00     0.009 A 
ATOM     22  C   UNL d   1       0.966   2.225   6.001  0.00  0.00     0.024 A 
ATOM     23  C   UNL d   1       1.952   1.884   6.924  0.00  0.00     0.034 A 
ATOM     24  C   UNL d   1       2.948   0.969   6.583  0.00  0.00     0.024 A 
ATOM     25 CL   UNL d   1       1.938   2.591   8.490  0.00  0.00    -0.084 Cl
ATOM     26  C   UNL d   1       2.954   0.383   5.314  0.00  0.00     0.009 A 
ENDBRANCH  19  20
ENDBRANCH  18  19
ENDBRANCH   1  18
TORSDOF 10
