REMARK  3 active torsions:
REMARK  status: ('A' for Active; 'I' for Inactive)
REMARK    1  A    between atoms: N_2  and  C_1 
REMARK    2  A    between atoms: C_13  and  C_8 
REMARK    3  A    between atoms: C_12  and  C_13 
ROOT
ATOM      1  C   UNL d   1      -0.763   0.251   0.036  0.00  0.00     0.162 A 
ATOM      2  C   UNL d   1      -1.210  -1.072   0.041  0.00  0.00     0.134 A 
ATOM      3  N   UNL d   1       1.066  -1.078   0.176  0.00  0.00    -0.263 N 
ATOM      4  HN  UNL d   1       2.029  -1.408   0.238  1.00  0.00     0.194 HD
ATOM      5  C   UNL d   1       0.654   0.189   0.131  0.00  0.00     0.064 A 
ATOM      6  O   UNL d   1      -0.066  -1.846   0.121  0.00  0.00    -0.235 OA
ATOM      7  C   UNL d   1      -2.511  -1.676  -0.023  0.00  0.00     0.044 C 
ATOM      8  C   UNL d   1       1.659   1.279   0.190  0.00  0.00     0.073 C 
ENDROOT
BRANCH   1   9
ATOM      9  N   UNL d   1      -1.553   1.442  -0.045  0.00  0.00    -0.111 N 
ATOM     10  O   UNL d   1      -2.781   1.318  -0.113  0.00  0.00    -0.532 OA
ATOM     11  O   UNL d   1      -0.949   2.521  -0.043  0.00  0.00    -0.532 OA
ENDBRANCH   1   9
BRANCH   7  12
ATOM     12  C   UNL d   1      -2.628  -3.017  -0.015  0.00  0.00     0.034 C 
BRANCH  12  13
ATOM     13  C   UNL d   1      -3.878  -3.678  -0.120  0.00  0.00     0.049 A 
ATOM     14  N   UNL d   1      -3.895  -5.052  -0.071  0.00  0.00    -0.301 N 
ATOM     15  N   UNL d   1      -5.116  -5.590  -0.233  0.00  0.00    -0.311 N 
ATOM     16  H   UNL d   1      -3.113  -5.685   0.059  0.00  0.00     0.187 HD
ATOM     17  C   UNL d   1      -5.909  -4.527  -0.373  0.00  0.00     0.109 A 
ATOM     18  HN  UNL d   1      -5.374  -6.576  -0.246  1.00  0.00     0.186 HD
ATOM     19  C   UNL d   1      -5.197  -3.313  -0.290  0.00  0.00     0.049 A 
ENDBRANCH  12  13
ENDBRANCH   7  12
TORSDOF 3
