REMARK  2 active torsions:
REMARK  status: ('A' for Active; 'I' for Inactive)
REMARK       I    between atoms: N_2  and  C_1 
REMARK       I    between atoms: N_4  and  C_1 
REMARK    1  A    between atoms: C_9  and  N_4 
REMARK    2  A    between atoms: C_10  and  C_9 
ROOT
ATOM      1  N   UNL d   1      -4.076   0.212  -7.340  0.00  0.00    -0.191 NA
ATOM      2  C   UNL d   1      -3.594   0.306  -6.290  0.00  0.00     0.099 C 
ATOM      3  C   UNL d   1      -2.995   0.422  -4.991  0.00  0.00     0.044 A 
ATOM      4  C   UNL d   1      -1.837   0.645  -2.436  0.00  0.00    -0.040 A 
ATOM      5  C   UNL d   1      -2.366  -0.681  -4.410  0.00  0.00     0.023 A 
ATOM      6  C   UNL d   1      -3.043   1.636  -4.299  0.00  0.00     0.023 A 
ATOM      7  C   UNL d   1      -1.792  -0.569  -3.141  0.00  0.00     0.010 A 
ATOM      8  C   UNL d   1      -2.467   1.748  -3.028  0.00  0.00     0.010 A 
ENDROOT
BRANCH   4   9
ATOM      9  C   UNL d   1      -1.250   0.724  -1.048  0.00  0.00     0.162 C 
BRANCH   9  10
ATOM     10  N   UNL d   1       0.172   0.458  -1.072  0.00  0.00    -0.339 N 
ATOM     11  C   UNL d   1       0.804  -0.075   0.019  0.00  0.00     0.318 C 
ATOM     12  N   UNL d   1       2.164  -0.261  -0.118  0.00  0.00    -0.330 N 
ATOM     13  O   UNL d   1       0.192  -0.370   1.042  0.00  0.00    -0.247 OA
ATOM     14  C   UNL d   1       2.970  -0.064  -1.329  0.00  0.00     0.153 C 
ATOM     15  C   UNL d   1       2.939  -0.784   1.013  0.00  0.00     0.153 C 
ATOM     16  C   UNL d   1       4.193   0.799  -1.001  0.00  0.00     0.187 C 
ATOM     17  O   UNL d   1       4.964   0.221   0.064  0.00  0.00    -0.388 OA
ATOM     18  C   UNL d   1       4.169   0.098   1.257  0.00  0.00     0.187 C 
ATOM     19  H   UNL d   1       0.709   1.108  -1.618  0.00  0.00     0.164 HD
ENDBRANCH   9  10
ENDBRANCH   4   9
TORSDOF 2
