REMARK  3 active torsions:
REMARK  status: ('A' for Active; 'I' for Inactive)
REMARK    1  A    between atoms: C_3  and  C_1 
REMARK       I    between atoms: N_4  and  C_1 
REMARK       I    between atoms: C_2  and  N_4 
REMARK    2  A    between atoms: C_5  and  C_2 
REMARK    3  A    between atoms: O_16  and  C_9 
ROOT
ATOM      1  C   UNL d   1       0.897  -0.117   0.070  0.00  0.00     0.261 C 
ATOM      2  C   UNL d   1      -1.231  -0.059  -1.179  0.00  0.00     0.261 C 
ATOM      3  N   UNL d   1       0.130  -0.276  -1.069  0.00  0.00    -0.289 N 
ATOM      4  O   UNL d   1       0.466   0.048   1.205  0.00  0.00    -0.267 OA
ATOM      5  O   UNL d   1      -2.065  -0.170  -0.288  0.00  0.00    -0.267 OA
ATOM      6  H   UNL d   1       0.629  -0.400  -1.937  0.00  0.00     0.172 HD
ENDROOT
BRANCH   2   7
ATOM      7  C   UNL d   1      -1.702   0.165  -2.574  0.00  0.00     0.065 A 
ATOM      8  C   UNL d   1      -2.942  -0.343  -2.981  0.00  0.00     0.081 A 
ATOM      9  C   UNL d   1      -3.350  -0.218  -4.307  0.00  0.00     0.037 A 
ATOM     10  C   UNL d   1      -2.536   0.443  -5.229  0.00  0.00     0.003 A 
ATOM     11  C   UNL d   1      -1.323   0.996  -4.823  0.00  0.00     0.001 A 
ATOM     12  C   UNL d   1      -0.907   0.865  -3.497  0.00  0.00     0.020 A 
BRANCH   8  13
ATOM     13  O   UNL d   1      -3.799  -0.986  -2.130  0.00  0.00    -0.360 OA
ATOM     14  H   UNL d   1      -3.483  -0.839  -1.209  0.00  0.00     0.217 HD
ENDBRANCH   8  13
ENDBRANCH   2   7
BRANCH   1  15
ATOM     15  C   UNL d   1       2.376  -0.113  -0.148  0.00  0.00     0.071 A 
ATOM     16  C   UNL d   1       2.960  -0.557  -1.341  0.00  0.00     0.135 A 
ATOM     17  C   UNL d   1       4.332  -0.477  -1.553  0.00  0.00     0.085 A 
ATOM     18  F   UNL d   1       2.201  -1.046  -2.335  0.00  0.00    -0.205 F 
ATOM     19  C   UNL d   1       5.134   0.057  -0.555  0.00  0.00     0.119 A 
ATOM     20  C   UNL d   1       4.588   0.492   0.648  0.00  0.00     0.043 A 
ATOM     21  F   UNL d   1       6.452   0.165  -0.760  0.00  0.00    -0.206 F 
ATOM     22  C   UNL d   1       3.208   0.401   0.858  0.00  0.00     0.023 A 
ENDBRANCH   1  15
TORSDOF 3
