REMARK  5 active torsions:
REMARK  status: ('A' for Active; 'I' for Inactive)
REMARK    1  A    between atoms: S_11  and  C_4 
REMARK    2  A    between atoms: S_13  and  C_4 
REMARK    3  A    between atoms: C_6  and  C_7 
REMARK    4  A    between atoms: C_7  and  C_8 
REMARK    5  A    between atoms: C_9  and  S_11 
ROOT
ATOM      1  N   UNL d   1       1.149   0.066   0.028  0.00  0.00    -0.282 N 
ATOM      2  HN  UNL d   1       0.702   0.973  -0.107  1.00  0.00     0.179 HD
ATOM      3  C   UNL d   1       0.457  -0.957   0.535  0.00  0.00     0.183 C 
ATOM      4  C   UNL d   1       2.389  -0.102  -0.290  0.00  0.00     0.120 C 
ATOM      5  N   UNL d   1      -0.157  -1.836   0.973  0.00  0.00    -0.172 NA
ENDROOT
BRANCH   4   6
ATOM      6  S   UNL d   1       3.344   1.258  -0.880  0.00  0.00    -0.076 SA
BRANCH   6   7
ATOM      7  C   UNL d   1       2.187   2.368  -1.540  0.00  0.00     0.056 C 
ATOM      8  C   UNL d   1       2.593   3.556  -2.013  0.00  0.00     0.063 C 
BRANCH   8   9
ATOM      9  C   UNL d   1       1.605   4.508  -2.581  0.00  0.00     0.185 C 
ATOM     10  O   UNL d   1       0.512   4.128  -2.991  0.00  0.00    -0.287 OA
BRANCH   9  11
ATOM     11  C   UNL d   1       1.987   5.936  -2.698  0.00  0.00     0.052 A 
ATOM     12  C   UNL d   1       2.835   6.562  -1.782  0.00  0.00     0.130 A 
ATOM     13  F   UNL d   1       3.369   5.886  -0.755  0.00  0.00    -0.205 F 
ATOM     14  C   UNL d   1       3.128   7.921  -1.889  0.00  0.00     0.043 A 
ATOM     15  C   UNL d   1       2.568   8.673  -2.921  0.00  0.00     0.003 A 
ATOM     16  C   UNL d   1       1.718   8.062  -3.844  0.00  0.00     0.001 A 
ATOM     17  C   UNL d   1       1.423   6.700  -3.731  0.00  0.00     0.018 A 
ENDBRANCH   9  11
ENDBRANCH   8   9
ENDBRANCH   6   7
ENDBRANCH   4   6
BRANCH   4  18
ATOM     18  S   UNL d   1       3.310  -1.591  -0.111  0.00  0.00    -0.109 SA
ATOM     19  C   UNL d   1       3.634  -1.971  -1.847  0.00  0.00     0.097 C 
ENDBRANCH   4  18
TORSDOF 5
