REMARK  2 active torsions:
REMARK  status: ('A' for Active; 'I' for Inactive)
REMARK    1  A    between atoms: C_2  and  C_1 
REMARK       I    between atoms: N_5  and  C_2 
REMARK    2  A    between atoms: C_10  and  N_5 
ROOT
ATOM      1  C   UNL d   1       0.552   1.639  -0.154  0.00  0.00     0.069 A 
ATOM      2  C   UNL d   1      -0.405   0.637  -0.399  0.00  0.00     0.096 A 
ATOM      3  C   UNL d   1      -0.055  -0.722  -0.272  0.00  0.00     0.003 A 
ATOM      4  C   UNL d   1       1.867   1.258   0.166  0.00  0.00     0.062 A 
ATOM      5  O   UNL d   1      -1.682   0.994  -0.755  0.00  0.00    -0.325 OA
ATOM      6  C   UNL d   1       1.263  -1.075   0.043  0.00  0.00     0.054 A 
ATOM      7  C   UNL d   1       2.208  -0.084   0.254  0.00  0.00     0.118 A 
ATOM      8  O   UNL d   1      -2.390  -1.253  -0.485  0.00  0.00    -0.362 OA
ATOM      9  C   UNL d   1      -2.435  -0.093  -1.300  0.00  0.00     0.345 C 
ATOM     10  C   UNL d   1      -1.077  -1.796  -0.497  0.00  0.00     0.212 C 
ATOM     11  F   UNL d   1       3.468  -0.427   0.553  0.00  0.00    -0.206 F 
ENDROOT
BRANCH   1  12
ATOM     12  C   UNL d   1       0.296   3.117  -0.211  0.00  0.00     0.259 C 
ATOM     13  N   UNL d   1      -1.023   3.533  -0.203  0.00  0.00    -0.323 N 
ATOM     14  H   UNL d   1      -1.725   2.800  -0.180  0.00  0.00     0.169 HD
ATOM     15  O   UNL d   1       1.273   3.859  -0.221  0.00  0.00    -0.267 OA
BRANCH  13  16
ATOM     16  C   UNL d   1      -1.492   4.866  -0.140  0.00  0.00     0.036 A 
ATOM     17  C   UNL d   1      -0.661   5.989  -0.200  0.00  0.00     0.053 A 
ATOM     18  C   UNL d   1      -1.197   7.272  -0.080  0.00  0.00     0.036 A 
ATOM     19 CL   UNL d   1      -0.156   8.644  -0.143  0.00  0.00    -0.084 Cl
ATOM     20  C   UNL d   1      -2.565   7.457   0.096  0.00  0.00     0.024 A 
ATOM     21  C   UNL d   1      -3.405   6.348   0.138  0.00  0.00     0.004 A 
ATOM     22  C   UNL d   1      -2.872   5.060   0.013  0.00  0.00     0.029 A 
ENDBRANCH  13  16
ENDBRANCH   1  12
TORSDOF 2
