REMARK  3 active torsions:
REMARK  status: ('A' for Active; 'I' for Inactive)
REMARK    1  A    between atoms: O_4  and  N_1 
REMARK    2  A    between atoms: N_6  and  C_2 
REMARK    3  A    between atoms: C_3  and  O_4 
REMARK       I    between atoms: C_8  and  N_6 
ROOT
ATOM      1  C   UNL d   1       1.407  -4.590  -1.395  0.00  0.00     0.036 C 
ATOM      2  C   UNL d   1       1.218  -2.053  -0.966  0.00  0.00     0.098 C 
ATOM      3  C   UNL d   1       0.515  -3.442  -0.855  0.00  0.00     0.072 C 
ATOM      4  C   UNL d   1       2.458  -2.933  -2.994  0.00  0.00    -0.009 C 
ATOM      5  C   UNL d   1       3.437  -3.242  -0.689  0.00  0.00    -0.009 C 
ATOM      6  C   UNL d   1       1.784  -4.307  -2.867  0.00  0.00     0.036 C 
ATOM      7  C   UNL d   1       2.718  -4.593  -0.570  0.00  0.00     0.036 C 
ATOM      8  C   UNL d   1       2.521  -2.144  -0.135  0.00  0.00     0.045 C 
ATOM      9  C   UNL d   1       1.505  -1.845  -2.472  0.00  0.00     0.045 C 
ATOM     10  C   UNL d   1       3.749  -2.931  -2.162  0.00  0.00     0.009 C 
ENDROOT
BRANCH   1  11
ATOM     11  N   UNL d   1       0.754  -5.898  -1.254  0.00  0.00    -0.352 N 
ATOM     12  C   UNL d   1      -0.444  -6.233  -1.849  0.00  0.00     0.214 C 
ATOM     13  O   UNL d   1      -1.102  -5.475  -2.549  0.00  0.00    -0.274 OA
ATOM     14  C   UNL d   1      -0.905  -7.640  -1.571  0.00  0.00     0.117 C 
ATOM     15  H   UNL d   1       1.265  -6.631  -0.776  0.00  0.00     0.163 HD
ENDBRANCH   1  11
BRANCH   2  16
ATOM     16  O   UNL d   1       0.268  -1.127  -0.429  0.00  0.00    -0.210 OA
BRANCH  16  17
ATOM     17  N   UNL d   1       0.630   0.242  -0.399  0.00  0.00     0.005 N 
ATOM     18  O   UNL d   1      -0.253   0.952   0.080  0.00  0.00    -0.511 OA
ATOM     19  O   UNL d   1       1.738   0.561  -0.824  0.00  0.00    -0.511 OA
ENDBRANCH  16  17
ENDBRANCH   2  16
TORSDOF 3
