REMARK  2 active torsions:
REMARK  status: ('A' for Active; 'I' for Inactive)
REMARK    1  A    between atoms: N_4  and  C_1 
REMARK    2  A    between atoms: C_12  and  C_6 
ROOT
ATOM      1  C   UNL d   1      -0.287   1.379   0.176  0.00  0.00     0.129 A 
ATOM      2  N   UNL d   1      -1.635   1.288   0.126  0.00  0.00    -0.325 N 
ATOM      3  HN  UNL d   1      -2.206   2.132   0.163  1.00  0.00     0.169 HD
ATOM      4  C   UNL d   1       0.489   0.212   0.151  0.00  0.00     0.100 A 
ATOM      5  C   UNL d   1      -2.223   0.079   0.027  0.00  0.00     0.134 A 
ATOM      6  N   UNL d   1      -1.537  -1.075  -0.054  0.00  0.00    -0.343 N 
ATOM      7  HN  UNL d   1      -2.013  -1.970  -0.164  1.00  0.00     0.167 HD
ATOM      8  C   UNL d   1      -0.190  -0.997   0.017  0.00  0.00     0.032 A 
ATOM      9 CL   UNL d   1       2.204   0.209   0.400  0.00  0.00    -0.078 Cl
ATOM     10  C   UNL d   1       0.523  -2.318  -0.033  0.00  0.00     0.070 C 
ENDROOT
BRANCH   1  11
ATOM     11  N   UNL d   1       0.280   2.667   0.313  0.00  0.00    -0.361 N 
ATOM     12  C   UNL d   1      -0.668   3.692   0.815  0.00  0.00     0.163 C 
ATOM     13  C   UNL d   1      -0.369   5.114   0.364  0.00  0.00    -0.034 A 
ATOM     14  C   UNL d   1      -1.357   6.101   0.496  0.00  0.00     0.009 A 
ATOM     15  C   UNL d   1       0.876   5.465  -0.183  0.00  0.00    -0.049 A 
ATOM     16  C   UNL d   1      -1.109   7.413   0.091  0.00  0.00     0.001 A 
ATOM     17  C   UNL d   1       0.139   7.759  -0.424  0.00  0.00     0.001 A 
ATOM     18  C   UNL d   1       1.134   6.790  -0.554  0.00  0.00     0.008 A 
ATOM     19  C   UNL d   1       1.891   4.377  -0.388  0.00  0.00     0.059 C 
ATOM     20  C   UNL d   1       1.151   3.096  -0.794  0.00  0.00     0.129 C 
ENDBRANCH   1  11
BRANCH   5  21
ATOM     21  C   UNL d   1      -3.710  -0.008   0.064  0.00  0.00     0.076 A 
ATOM     22  N   UNL d   1      -4.420   1.161   0.073  0.00  0.00    -0.363 N 
ATOM     23  C   UNL d   1      -5.767   1.084   0.136  0.00  0.00     0.088 A 
ATOM     24  HN  UNL d   1      -3.946   2.063   0.034  1.00  0.00     0.165 HD
ATOM     25  C   UNL d   1      -6.476  -0.102   0.196  0.00  0.00     0.017 A 
ATOM     26  C   UNL d   1      -5.761  -1.289   0.186  0.00  0.00     0.004 A 
ATOM     27  C   UNL d   1      -4.368  -1.244   0.116  0.00  0.00     0.033 A 
ENDBRANCH   5  21
TORSDOF 2
