REMARK  6 active torsions:
REMARK  status: ('A' for Active; 'I' for Inactive)
REMARK    1  A    between atoms: C_2  and  C_1 
REMARK    2  A    between atoms: C_3  and  C_1 
REMARK    3  A    between atoms: C_4  and  C_1 
REMARK    4  A    between atoms: O_5  and  C_1 
REMARK    5  A    between atoms: N_6  and  C_2 
REMARK    6  A    between atoms: C_7  and  C_2 
ROOT
ATOM      1  C   UNL d   1       0.978   0.112   0.153  0.00  0.00     0.143 C 
ENDROOT
BRANCH   1   2
ATOM      2  C   UNL d   1       0.422   0.433  -1.332  0.00  0.00     0.264 C 
BRANCH   2   3
ATOM      3  N   UNL d   1      -1.047   0.305  -1.492  0.00  0.00     0.086 N 
ATOM      4  H   UNL d   1      -1.509   1.122  -1.098  0.00  0.00     0.313 HD
ATOM      5  H   UNL d   1      -1.384  -0.512  -0.984  0.00  0.00     0.313 HD
ENDBRANCH   2   3
BRANCH   2   6
ATOM      6  C   UNL d   1       0.907   1.776  -1.982  0.00  0.00     0.014 C 
ATOM      7  C   UNL d   1       2.432   1.846  -2.156  0.00  0.00     0.012 C 
ATOM      8  C   UNL d   1       0.289   1.986  -3.380  0.00  0.00     0.012 C 
ENDBRANCH   2   6
ENDBRANCH   1   2
BRANCH   1   9
ATOM      9  C   UNL d   1       0.538  -1.315   0.590  0.00  0.00    -0.017 A 
ATOM     10  C   UNL d   1       0.916  -2.436  -0.188  0.00  0.00     0.010 A 
ATOM     11  C   UNL d   1       0.597  -3.742   0.192  0.00  0.00     0.001 A 
ATOM     12  C   UNL d   1      -0.136  -3.966   1.348  0.00  0.00     0.000 A 
ATOM     13  C   UNL d   1      -0.553  -2.883   2.117  0.00  0.00     0.001 A 
ATOM     14  C   UNL d   1      -0.214  -1.574   1.748  0.00  0.00     0.010 A 
ENDBRANCH   1   9
BRANCH   1  15
ATOM     15  C   UNL d   1       0.691   1.236   1.185  0.00  0.00    -0.017 A 
ATOM     16  C   UNL d   1      -0.600   1.735   1.431  0.00  0.00     0.010 A 
ATOM     17  C   UNL d   1      -0.827   2.767   2.353  0.00  0.00     0.001 A 
ATOM     18  C   UNL d   1       0.235   3.314   3.070  0.00  0.00     0.000 A 
ATOM     19  C   UNL d   1       1.516   2.820   2.875  0.00  0.00     0.001 A 
ATOM     20  C   UNL d   1       1.739   1.792   1.951  0.00  0.00     0.010 A 
ENDBRANCH   1  15
BRANCH   1  21
ATOM     21  O   UNL d   1       2.419   0.018   0.068  0.00  0.00    -0.378 OA
ATOM     22  H   UNL d   1       2.649  -0.703  -0.533  0.00  0.00     0.211 HD
ENDBRANCH   1  21
TORSDOF 6
