REMARK  7 active torsions:
REMARK  status: ('A' for Active; 'I' for Inactive)
REMARK    1  A    between atoms: N_2  and  S_1 
REMARK    2  A    between atoms: C_6  and  S_1 
REMARK    3  A    between atoms: C_8  and  C_3 
REMARK    4  A    between atoms: C_9  and  C_4 
REMARK    5  A    between atoms: C_5  and  N_11 
REMARK    6  A    between atoms: C_10  and  C_8 
REMARK    7  A    between atoms: O_26  and  C_9 
REMARK       I    between atoms: N_11  and  C_10 
ROOT
ATOM      1  C   UNL d   1       2.582  -0.777   0.940  0.00  0.00     0.100 A 
ATOM      2  N   UNL d   1       5.160   1.164  -0.670  0.00  0.00    -0.191 NA
ATOM      3  C   UNL d   1       3.969  -0.630   0.773  0.00  0.00     0.068 A 
ATOM      4  C   UNL d   1       4.591   0.409   0.005  0.00  0.00     0.101 C 
ATOM      5  C   UNL d   1       2.078  -1.861   1.676  0.00  0.00     0.027 A 
ATOM      6  C   UNL d   1       4.827  -1.599   1.326  0.00  0.00     0.024 A 
ATOM      7  C   UNL d   1       2.944  -2.822   2.203  0.00  0.00     0.002 A 
ATOM      8  C   UNL d   1       4.318  -2.689   2.031  0.00  0.00     0.002 A 
ENDROOT
BRANCH   1   9
ATOM      9  S   UNL d   1       1.420   0.459   0.387  0.00  0.00     0.263 S 
ATOM     10  O   UNL d   1       0.369   0.494   1.375  0.00  0.00    -0.200 OA
ATOM     11  O   UNL d   1       2.169   1.662   0.102  0.00  0.00    -0.200 OA
BRANCH   9  12
ATOM     12  N   UNL d   1       0.790  -0.091  -1.088  0.00  0.00    -0.291 N 
ATOM     13  C   UNL d   1      -0.357  -1.061  -1.179  0.00  0.00     0.196 C 
ATOM     14  C   UNL d   1       0.196  -2.474  -1.020  0.00  0.00     0.241 C 
ATOM     15  O   UNL d   1      -0.353  -3.338  -0.341  0.00  0.00    -0.271 OA
ATOM     16  N   UNL d   1       1.321  -2.766  -1.752  0.00  0.00    -0.358 N 
ATOM     17  C   UNL d   1       2.252  -1.759  -2.245  0.00  0.00     0.143 C 
ATOM     18  H   UNL d   1       1.651  -3.719  -1.637  0.00  0.00     0.162 HD
ATOM     19  C   UNL d   1       1.734  -0.308  -2.222  0.00  0.00     0.156 C 
BRANCH  13  20
ATOM     20  C   UNL d   1      -1.516  -0.764  -0.240  0.00  0.00     0.138 C 
BRANCH  20  21
ATOM     21  C   UNL d   1      -2.849  -1.269  -0.761  0.00  0.00     0.224 C 
ATOM     22  N   UNL d   1      -3.044  -2.632  -0.647  0.00  0.00    -0.326 N 
ATOM     23  H   UNL d   1      -2.231  -3.252  -0.578  0.00  0.00     0.169 HD
ATOM     24  O   UNL d   1      -3.668  -0.480  -1.229  0.00  0.00    -0.273 OA
BRANCH  22  25
ATOM     25  C   UNL d   1      -4.299  -3.244  -0.712  0.00  0.00     0.058 A 
ATOM     26  C   UNL d   1      -4.477  -4.598  -0.971  0.00  0.00     0.106 A 
ATOM     27  S   UNL d   1      -6.138  -5.040  -0.880  0.00  0.00    -0.094 SA
ATOM     28  C   UNL d   1      -6.624  -3.447  -0.534  0.00  0.00     0.053 A 
ATOM     29  C   UNL d   1      -5.552  -2.588  -0.484  0.00  0.00     0.038 A 
BRANCH  26  30
ATOM     30  C   UNL d   1      -3.460  -5.570  -1.343  0.00  0.00     0.302 C 
ATOM     31  O   UNL d   1      -2.279  -5.298  -1.531  0.00  0.00    -0.259 OA
BRANCH  30  32
ATOM     32  O   UNL d   1      -3.983  -6.822  -1.491  0.00  0.00    -0.322 OA
ATOM     33  C   UNL d   1      -3.074  -7.832  -1.930  0.00  0.00     0.213 C 
ENDBRANCH  30  32
ENDBRANCH  26  30
ENDBRANCH  22  25
ENDBRANCH  20  21
ENDBRANCH  13  20
ENDBRANCH   9  12
ENDBRANCH   1   9
TORSDOF 7
