REMARK  4 active torsions:
REMARK  status: ('A' for Active; 'I' for Inactive)
REMARK    1  A    between atoms: N_6  and  C_1 
REMARK    2  A    between atoms: N_10  and  C_1 
REMARK    3  A    between atoms: C_2  and  C_8 
REMARK    4  A    between atoms: N_3  and  N_6 
ROOT
ATOM      1  N   UNL d   1      -1.210  -0.908  -0.636  0.00  0.00    -0.309 N 
ATOM      2  HN  UNL d   1      -1.742  -0.049  -0.497  1.00  0.00     0.186 HD
ATOM      3  C   UNL d   1      -1.793  -2.039  -0.871  0.00  0.00     0.120 C 
ENDROOT
BRANCH   1   4
ATOM      4  N   UNL d   1       0.151  -0.926  -0.583  0.00  0.00    -0.277 N 
ATOM      5  H   UNL d   1       0.673  -1.790  -0.701  0.00  0.00     0.189 HD
BRANCH   4   6
ATOM      6  C   UNL d   1       0.848   0.263  -0.453  0.00  0.00     0.186 C 
ATOM      7  S   UNL d   1       2.511   0.268  -0.461  0.00  0.00    -0.040 SA
BRANCH   6   8
ATOM      8  N   UNL d   1       0.015   1.342  -0.335  0.00  0.00    -0.370 N 
ATOM      9  C   UNL d   1       0.325   2.747  -0.214  0.00  0.00     0.148 C 
ATOM     10  H   UNL d   1      -0.960   1.054  -0.350  0.00  0.00     0.161 HD
ENDBRANCH   6   8
ENDBRANCH   4   6
ENDBRANCH   1   4
BRANCH   3  11
ATOM     11  C   UNL d   1      -3.270  -2.113  -0.971  0.00  0.00     0.008 A 
ATOM     12  C   UNL d   1      -3.925  -3.260  -0.492  0.00  0.00     0.046 A 
ATOM     13 CL   UNL d   1      -3.079  -4.625   0.153  0.00  0.00    -0.083 Cl
ATOM     14  C   UNL d   1      -5.322  -3.324  -0.492  0.00  0.00     0.025 A 
ATOM     15  C   UNL d   1      -6.073  -2.251  -0.966  0.00  0.00     0.002 A 
ATOM     16  C   UNL d   1      -5.430  -1.124  -1.470  0.00  0.00     0.007 A 
ATOM     17  C   UNL d   1      -4.027  -1.045  -1.508  0.00  0.00    -0.049 A 
ATOM     18  C   UNL d   1      -3.426   0.202  -2.104  0.00  0.00     0.049 C 
ENDBRANCH   3  11
TORSDOF 4
