REMARK  5 active torsions:
REMARK  status: ('A' for Active; 'I' for Inactive)
REMARK    1  A    between atoms: S_14  and  C_3 
REMARK    2  A    between atoms: C_18  and  C_9 
REMARK    3  A    between atoms: N_10  and  C_15 
REMARK    4  A    between atoms: C_21  and  S_14 
REMARK    5  A    between atoms: C_22  and  C_21 
ROOT
ATOM      1  N   UNL d   1       0.251  -0.774   0.010  0.00  0.00    -0.079 N 
ATOM      2  C   UNL d   1       0.210   0.625  -0.102  0.00  0.00     0.706 A 
ATOM      3  C   UNL d   1      -0.937  -1.528   0.074  0.00  0.00     0.113 A 
ATOM      4  N   UNL d   1      -0.966   1.312  -0.128  0.00  0.00    -0.189 N 
ATOM      5  HN  UNL d   1      -0.985   2.328  -0.220  1.00  0.00     0.184 HD
ATOM      6  C   UNL d   1      -2.115  -0.879   0.045  0.00  0.00     0.070 A 
ATOM      7  N   UNL d   1       1.437   1.096  -0.141  0.00  0.00    -0.185 N 
ATOM      8  HN  UNL d   1       1.738   2.067  -0.225  1.00  0.00     0.185 HD
ATOM      9  C   UNL d   1      -2.063   0.619  -0.032  0.00  0.00     0.062 A 
ATOM     10  N   UNL d   1       1.554  -1.174   0.036  0.00  0.00    -0.274 N 
ATOM     11  HN  UNL d   1       1.932  -2.119   0.101  1.00  0.00     0.189 HD
ATOM     12  C   UNL d   1       2.207  -0.018  -0.045  0.00  0.00     0.215 A 
ENDROOT
BRANCH   3  13
ATOM     13  S   UNL d   1      -0.815  -3.259   0.276  0.00  0.00    -0.105 SA
BRANCH  13  14
ATOM     14  C   UNL d   1      -2.237  -3.924  -0.631  0.00  0.00     0.119 C 
BRANCH  14  15
ATOM     15  C   UNL d   1      -2.256  -5.435  -0.597  0.00  0.00    -0.048 A 
ATOM     16  C   UNL d   1      -2.881  -6.114   0.465  0.00  0.00     0.010 A 
ATOM     17  C   UNL d   1      -2.900  -7.511   0.505  0.00  0.00     0.036 A 
ATOM     18  C   UNL d   1      -2.284  -8.238  -0.519  0.00  0.00     0.102 A 
ATOM     19  C   UNL d   1      -1.646  -7.578  -1.576  0.00  0.00     0.036 A 
ATOM     20  C   UNL d   1      -1.631  -6.180  -1.609  0.00  0.00     0.010 A 
BRANCH  18  21
ATOM     21  N   UNL d   1      -2.311  -9.707  -0.486  0.00  0.00    -0.116 N 
ATOM     22  O   UNL d   1      -2.895 -10.252   0.460  0.00  0.00    -0.532 OA
ATOM     23  O   UNL d   1      -1.754 -10.315  -1.412  0.00  0.00    -0.532 OA
ENDBRANCH  18  21
ENDBRANCH  14  15
ENDBRANCH  13  14
ENDBRANCH   3  13
BRANCH   9  24
ATOM     24  C   UNL d   1      -3.370   1.347   0.010  0.00  0.00    -0.009 A 
ATOM     25  C   UNL d   1      -4.483   0.841   0.696  0.00  0.00     0.014 A 
ATOM     26  C   UNL d   1      -5.676   1.567   0.736  0.00  0.00     0.001 A 
ATOM     27  C   UNL d   1      -5.762   2.807   0.107  0.00  0.00     0.000 A 
ATOM     28  C   UNL d   1      -4.655   3.327  -0.562  0.00  0.00     0.001 A 
ATOM     29  C   UNL d   1      -3.462   2.601  -0.609  0.00  0.00     0.014 A 
ENDBRANCH   9  24
TORSDOF 5
