REMARK  2 active torsions:
REMARK  status: ('A' for Active; 'I' for Inactive)
REMARK    1  A    between atoms: C_13  and  N_3 
REMARK    2  A    between atoms: C_14  and  C_13 
ROOT
ATOM      1  C   UNL d   1       0.311  -0.447   0.053  0.00  0.00     0.133 A 
ATOM      2  C   UNL d   1       0.189   0.882   0.064  0.00  0.00     0.120 A 
ATOM      3  N   UNL d   1       1.635  -0.863   0.053  0.00  0.00    -0.314 N 
ATOM      4  C   UNL d   1       2.562   0.187   0.062  0.00  0.00     0.147 A 
ATOM      5  S   UNL d   1       1.671   1.730   0.083  0.00  0.00    -0.051 SA
ATOM      6  N   UNL d   1      -0.737  -1.328   0.030  0.00  0.00    -0.331 N 
ATOM      7  HN  UNL d   1      -0.593  -2.337   0.020  1.00  0.00     0.168 HD
ATOM      8  C   UNL d   1      -1.147   1.480   0.036  0.00  0.00     0.267 A 
ATOM      9  N   UNL d   1      -2.156   0.551   0.024  0.00  0.00    -0.312 N 
ATOM     10  C   UNL d   1      -1.923  -0.802   0.021  0.00  0.00     0.081 A 
ATOM     11  S   UNL d   1       4.227   0.118   0.042  0.00  0.00    -0.052 SA
ATOM     12  O   UNL d   1      -1.370   2.682   0.019  0.00  0.00    -0.267 OA
ATOM     13  C   UNL d   1      -3.148  -1.672   0.009  0.00  0.00     0.089 C 
ATOM     14  H   UNL d   1      -3.094   0.926   0.002  0.00  0.00     0.170 HD
ENDROOT
BRANCH   3  15
ATOM     15  C   UNL d   1       1.992  -2.276  -0.026  0.00  0.00     0.158 C 
BRANCH  15  16
ATOM     16  C   UNL d   1       2.178  -2.933   1.316  0.00  0.00    -0.017 C 
ATOM     17  C   UNL d   1       2.066  -2.401   2.542  0.00  0.00     0.008 C 
ENDBRANCH  15  16
ENDBRANCH   3  15
TORSDOF 2
