REMARK  5 active torsions:
REMARK  status: ('A' for Active; 'I' for Inactive)
REMARK    1  A    between atoms: N_17  and  C_8 
REMARK    2  A    between atoms: S_15  and  C_11 
REMARK    3  A    between atoms: C_20  and  S_15 
REMARK    4  A    between atoms: C_16  and  C_20 
REMARK       I    between atoms: N_21  and  C_16 
REMARK    5  A    between atoms: C_23  and  N_17 
ROOT
ATOM      1  C   UNL d   1       1.313  -0.824  -0.022  0.00  0.00     0.091 A 
ATOM      2  C   UNL d   1       0.786   0.455  -0.039  0.00  0.00     0.049 A 
ATOM      3  C   UNL d   1      -1.128  -0.887  -0.011  0.00  0.00     0.020 A 
ATOM      4  N   UNL d   1       2.610  -1.150  -0.029  0.00  0.00    -0.330 N 
ATOM      5  HN  UNL d   1       2.951  -2.110   0.001  1.00  0.00     0.168 HD
ATOM      6  N   UNL d   1       3.031   1.213  -0.103  0.00  0.00    -0.322 N 
ATOM      7  HN  UNL d   1       3.728   1.957  -0.141  1.00  0.00     0.169 HD
ATOM      8  C   UNL d   1       1.716   1.510  -0.074  0.00  0.00     0.116 A 
ATOM      9  C   UNL d   1      -0.650   0.410  -0.058  0.00  0.00    -0.025 A 
ATOM     10  S   UNL d   1       0.118  -2.040  -0.002  0.00  0.00    -0.074 SA
ATOM     11  C   UNL d   1       3.413  -0.079  -0.081  0.00  0.00     0.147 A 
ATOM     12  N   UNL d   1      -3.437  -0.129   0.426  0.00  0.00     0.089 N 
ATOM     13  C   UNL d   1      -2.581  -1.263   0.006  0.00  0.00     0.318 C 
ATOM     14  C   UNL d   1      -1.604   1.572  -0.088  0.00  0.00     0.071 C 
ATOM     15  C   UNL d   1      -3.059   1.100  -0.309  0.00  0.00     0.277 C 
ATOM     16  C   UNL d   1      -3.386   0.067   1.877  0.00  0.00     0.310 C 
ENDROOT
BRANCH  11  17
ATOM     17  S   UNL d   1       5.163  -0.401  -0.070  0.00  0.00    -0.085 SA
BRANCH  17  18
ATOM     18  C   UNL d   1       5.174  -2.015  -0.919  0.00  0.00     0.184 C 
BRANCH  18  19
ATOM     19  C   UNL d   1       4.649  -1.886  -2.336  0.00  0.00     0.225 C 
ATOM     20  O   UNL d   1       5.116  -1.114  -3.174  0.00  0.00    -0.273 OA
ATOM     21  N   UNL d   1       3.618  -2.713  -2.677  0.00  0.00    -0.369 N 
ATOM     22  H   UNL d   1       3.035  -3.135  -1.965  0.00  0.00     0.159 HD
ATOM     23  H   UNL d   1       3.200  -2.545  -3.583  0.00  0.00     0.159 HD
ENDBRANCH  18  19
ENDBRANCH  17  18
ENDBRANCH  11  17
BRANCH   8  24
ATOM     24  N   UNL d   1       1.254   2.818  -0.106  0.00  0.00    -0.376 N 
ATOM     25  H   UNL d   1       0.722   3.044   0.728  0.00  0.00     0.161 HD
BRANCH  24  26
ATOM     26  C   UNL d   1       2.117   3.880  -0.578  0.00  0.00     0.116 C 
ATOM     27  C   UNL d   1       1.209   5.005  -1.065  0.00  0.00     0.026 C 
ENDBRANCH  24  26
ENDBRANCH   8  24
TORSDOF 5
