REMARK  1 active torsions:
REMARK  status: ('A' for Active; 'I' for Inactive)
REMARK    1  A    between atoms: O_12  and  C_5 
ROOT
ATOM      1  C   UNL d   1      -1.522   0.307   0.111  0.00  0.00     0.085 C 
ATOM      2  C   UNL d   1      -0.722   1.013   1.195  0.00  0.00     0.137 C 
ATOM      3  C   UNL d   1       0.775   0.749   1.150  0.00  0.00     0.057 C 
ATOM      4  C   UNL d   1       0.532   0.509  -1.347  0.00  0.00     0.016 C 
ATOM      5  C   UNL d   1      -0.984   0.782  -1.247  0.00  0.00     0.133 C 
ATOM      6  C   UNL d   1       1.282   1.239  -0.212  0.00  0.00     0.019 C 
ATOM      7  C   UNL d   1      -1.269  -1.200   0.270  0.00  0.00     0.019 C 
ATOM      8  C   UNL d   1       0.241  -1.502   0.155  0.00  0.00    -0.013 C 
ATOM      9  C   UNL d   1       0.982  -0.763   1.287  0.00  0.00     0.017 C 
ATOM     10  C   UNL d   1       0.767  -1.007  -1.205  0.00  0.00     0.012 C 
ATOM     11  O   UNL d   1      -1.234   1.776   2.006  0.00  0.00    -0.297 OA
ENDROOT
BRANCH   5  12
ATOM     12  O   UNL d   1      -1.275   2.154  -1.494  0.00  0.00    -0.394 OA
ATOM     13  H   UNL d   1      -1.026   2.695  -0.724  0.00  0.00     0.210 HD
ENDBRANCH   5  12
TORSDOF 1
