REMARK  5 active torsions:
REMARK  status: ('A' for Active; 'I' for Inactive)
REMARK    1  A    between atoms: C_6  and  C_1 
REMARK    2  A    between atoms: N_2  and  C_9 
REMARK    3  A    between atoms: C_13  and  C_6 
REMARK    4  A    between atoms: C_7  and  O_14 
REMARK    5  A    between atoms: O_14  and  C_23 
ROOT
ATOM      1  C   UNL d   1      -3.760  -0.089  -0.200  0.00  0.00     0.215 C 
ATOM      2  O   UNL d   1      -4.336   0.978  -0.399  0.00  0.00    -0.284 OA
ENDROOT
BRANCH   1   3
ATOM      3  C   UNL d   1      -2.322  -0.201  -0.064  0.00  0.00     0.127 A 
ATOM      4  O   UNL d   1      -1.786  -1.217   0.678  0.00  0.00    -0.306 OA
ATOM      5  C   UNL d   1      -0.435  -1.084   0.640  0.00  0.00     0.086 A 
ATOM      6  C   UNL d   1       0.475  -1.929   1.272  0.00  0.00     0.040 A 
ATOM      7  C   UNL d   1      -0.081   0.018  -0.128  0.00  0.00     0.003 A 
ATOM      8  C   UNL d   1       1.832  -1.631   1.097  0.00  0.00     0.039 A 
ATOM      9  C   UNL d   1       2.228  -0.533   0.316  0.00  0.00     0.103 A 
ATOM     10  C   UNL d   1       1.284   0.308  -0.309  0.00  0.00     0.050 A 
ATOM     11  C   UNL d   1      -1.305   0.599  -0.554  0.00  0.00     0.055 A 
BRANCH   9  12
ATOM     12  N   UNL d   1       3.662  -0.251   0.142  0.00  0.00    -0.116 N 
ATOM     13  O   UNL d   1       3.975   0.711  -0.569  0.00  0.00    -0.532 OA
ATOM     14  O   UNL d   1       4.468  -0.995   0.720  0.00  0.00    -0.532 OA
ENDBRANCH   9  12
ENDBRANCH   1   3
BRANCH   1  15
ATOM     15  C   UNL d   1      -4.587  -1.330  -0.124  0.00  0.00     0.017 A 
ATOM     16  C   UNL d   1      -4.112  -2.556  -0.613  0.00  0.00     0.018 A 
ATOM     17  C   UNL d   1      -4.909  -3.705  -0.553  0.00  0.00     0.038 A 
ATOM     18  C   UNL d   1      -6.178  -3.646   0.019  0.00  0.00     0.078 A 
ATOM     19  C   UNL d   1      -6.673  -2.410   0.454  0.00  0.00     0.038 A 
ATOM     20  C   UNL d   1      -5.887  -1.256   0.383  0.00  0.00     0.018 A 
BRANCH  18  21
ATOM     21  O   UNL d   1      -7.041  -4.686   0.177  0.00  0.00    -0.255 OA
BRANCH  21  22
ATOM     22  C   UNL d   1      -6.535  -6.010   0.280  0.00  0.00     0.530 C 
ATOM     23  F   UNL d   1      -5.222  -6.072   0.584  0.00  0.00    -0.144 F 
ATOM     24  F   UNL d   1      -7.212  -6.647   1.262  0.00  0.00    -0.144 F 
ATOM     25  F   UNL d   1      -6.751  -6.668  -0.878  0.00  0.00    -0.144 F 
ENDBRANCH  21  22
ENDBRANCH  18  21
ENDBRANCH   1  15
TORSDOF 5
