REMARK  6 active torsions:
REMARK  status: ('A' for Active; 'I' for Inactive)
REMARK    1  A    between atoms: N_4  and  C_2 
REMARK       I    between atoms: C_6  and  N_4 
REMARK    2  A    between atoms: C_14  and  C_6 
REMARK    3  A    between atoms: C_8  and  C_15 
REMARK    4  A    between atoms: O_13  and  C_8 
REMARK    5  A    between atoms: S_11  and  C_14 
REMARK    6  A    between atoms: C_15  and  S_11 
ROOT
ATOM      1  C   UNL d   1      -0.414   0.205   0.178  0.00  0.00     0.109 A 
ATOM      2  C   UNL d   1       0.227   1.454   0.059  0.00  0.00     0.058 A 
ATOM      3  C   UNL d   1      -1.797   0.004   0.483  0.00  0.00     0.105 C 
ATOM      4  N   UNL d   1      -2.903  -0.222   0.767  0.00  0.00    -0.191 NA
ATOM      5  C   UNL d   1       0.357  -0.966   0.101  0.00  0.00     0.139 A 
ATOM      6  F   UNL d   1      -0.230  -2.168   0.207  0.00  0.00    -0.204 F 
ATOM      7  C   UNL d   1       1.633   1.472  -0.072  0.00  0.00     0.031 A 
ATOM      8  C   UNL d   1       2.381   0.293  -0.137  0.00  0.00     0.005 A 
ATOM      9  C   UNL d   1       1.737  -0.932  -0.060  0.00  0.00     0.044 A 
ENDROOT
BRANCH   2  10
ATOM     10  N   UNL d   1      -0.373   2.744   0.063  0.00  0.00    -0.325 N 
ATOM     11  C   UNL d   1      -1.675   3.072  -0.257  0.00  0.00     0.231 C 
ATOM     12  O   UNL d   1      -2.537   2.290  -0.654  0.00  0.00    -0.272 OA
ATOM     13  H   UNL d   1       0.272   3.529   0.084  0.00  0.00     0.169 HD
BRANCH  11  14
ATOM     14  C   UNL d   1      -1.972   4.563  -0.246  0.00  0.00     0.177 C 
BRANCH  14  15
ATOM     15  S   UNL d   1      -1.775   5.242  -1.930  0.00  0.00    -0.149 SA
BRANCH  15  16
ATOM     16  C   UNL d   1      -2.904   4.167  -2.893  0.00  0.00     0.184 C 
BRANCH  16  17
ATOM     17  C   UNL d   1      -4.345   4.276  -2.445  0.00  0.00     0.149 C 
ATOM     18  O   UNL d   1      -5.115   5.136  -2.851  0.00  0.00    -0.649 OA
BRANCH  17  19
ATOM     19  O   UNL d   1      -4.726   3.353  -1.533  0.00  0.00    -0.776 OA
ATOM     20  H   UNL d   1      -4.027   2.708  -1.260  0.00  0.00     0.167 HD
ENDBRANCH  17  19
ENDBRANCH  16  17
ENDBRANCH  15  16
ENDBRANCH  14  15
ENDBRANCH  11  14
ENDBRANCH   2  10
TORSDOF 6
