REMARK  5 active torsions:
REMARK  status: ('A' for Active; 'I' for Inactive)
REMARK    1  A    between atoms: C_2  and  C_1 
REMARK    2  A    between atoms: O_6  and  C_2 
REMARK    3  A    between atoms: C_3  and  C_4 
REMARK    4  A    between atoms: C_15  and  O_6 
REMARK    5  A    between atoms: C_22  and  C_16 
ROOT
ATOM      1  N   UNL d   1      -6.077   2.317  -1.812  0.00  0.00    -0.197 NA
ATOM      2  C   UNL d   1      -5.649   2.948  -0.937  0.00  0.00     0.063 C 
ATOM      3  C   UNL d   1      -5.143   3.759   0.181  0.00  0.00     0.162 C 
ENDROOT
BRANCH   3   4
ATOM      4  C   UNL d   1      -3.632   3.807   0.234  0.00  0.00    -0.045 A 
ATOM      5  C   UNL d   1      -2.924   4.780  -0.488  0.00  0.00     0.011 A 
ATOM      6  C   UNL d   1      -1.526   4.773  -0.507  0.00  0.00     0.038 A 
ATOM      7  C   UNL d   1      -0.826   3.777   0.177  0.00  0.00     0.079 A 
ATOM      8  C   UNL d   1      -1.513   2.835   0.941  0.00  0.00     0.038 A 
ATOM      9  C   UNL d   1      -2.914   2.840   0.953  0.00  0.00     0.011 A 
BRANCH   7  10
ATOM     10  O   UNL d   1       0.579   3.808   0.073  0.00  0.00    -0.275 OA
BRANCH  10  11
ATOM     11  C   UNL d   1       1.216   2.621  -0.246  0.00  0.00     0.300 C 
ATOM     12  O   UNL d   1       0.745   1.496  -0.278  0.00  0.00    -0.259 OA
BRANCH  11  13
ATOM     13  C   UNL d   1       2.658   2.863  -0.458  0.00  0.00     0.070 A 
ATOM     14  C   UNL d   1       3.214   3.870  -1.260  0.00  0.00     0.066 A 
ATOM     15  C   UNL d   1       4.619   3.960  -1.331  0.00  0.00     0.034 A 
ATOM     16  C   UNL d   1       5.397   3.030  -0.664  0.00  0.00     0.088 A 
ATOM     17  N   UNL d   1       4.877   2.026   0.067  0.00  0.00    -0.374 N 
ATOM     18  C   UNL d   1       3.525   1.959   0.146  0.00  0.00     0.106 A 
ATOM     19  HN  UNL d   1       5.473   1.346   0.539  1.00  0.00     0.164 HD
BRANCH  14  20
ATOM     20  C   UNL d   1       2.408   4.837  -2.080  0.00  0.00     0.418 C 
ATOM     21  F   UNL d   1       1.133   4.450  -2.333  0.00  0.00    -0.166 F 
ATOM     22  F   UNL d   1       2.333   6.064  -1.499  0.00  0.00    -0.166 F 
ATOM     23  F   UNL d   1       2.964   5.045  -3.308  0.00  0.00    -0.166 F 
ENDBRANCH  14  20
ENDBRANCH  11  13
ENDBRANCH  10  11
ENDBRANCH   7  10
ENDBRANCH   3   4
TORSDOF 5
