REMARK  7 active torsions:
REMARK  status: ('A' for Active; 'I' for Inactive)
REMARK    1  A    between atoms: C_3  and  C_1 
REMARK    2  A    between atoms: C_4  and  C_2 
REMARK       I    between atoms: N_6  and  C_3 
REMARK    3  A    between atoms: C_18  and  N_6 
REMARK    4  A    between atoms: S_13  and  C_9 
REMARK    5  A    between atoms: C_11  and  C_19 
REMARK    6  A    between atoms: O_21  and  C_11 
REMARK    7  A    between atoms: C_19  and  S_13 
ROOT
ATOM      1  C   UNL d   1       0.823   1.199  -0.217  0.00  0.00     0.062 A 
ATOM      2  C   UNL d   1       1.579   0.041  -0.003  0.00  0.00     0.067 A 
ATOM      3  C   UNL d   1      -0.546   1.016  -0.444  0.00  0.00     0.106 A 
ATOM      4  N   UNL d   1      -1.200  -0.172  -0.398  0.00  0.00    -0.360 N 
ATOM      5  HN  UNL d   1      -2.203  -0.233  -0.573  1.00  0.00     0.166 HD
ATOM      6  C   UNL d   1      -0.474  -1.263  -0.114  0.00  0.00     0.070 A 
ATOM      7  C   UNL d   1       0.898  -1.200   0.075  0.00  0.00     0.054 A 
ENDROOT
BRANCH   1   8
ATOM      8  C   UNL d   1       1.250   2.635  -0.209  0.00  0.00     0.258 C 
ATOM      9  N   UNL d   1       2.282   3.011   0.630  0.00  0.00    -0.323 N 
ATOM     10  H   UNL d   1       2.906   2.301   0.989  0.00  0.00     0.169 HD
ATOM     11  O   UNL d   1       0.602   3.405  -0.911  0.00  0.00    -0.267 OA
BRANCH   9  12
ATOM     12  C   UNL d   1       2.637   4.335   0.985  0.00  0.00     0.035 A 
ATOM     13  C   UNL d   1       1.822   5.447   0.747  0.00  0.00     0.031 A 
ATOM     14  C   UNL d   1       2.195   6.717   1.203  0.00  0.00     0.026 A 
ATOM     15  C   UNL d   1       3.392   6.884   1.892  0.00  0.00     0.034 A 
ATOM     16  C   UNL d   1       4.228   5.793   2.115  0.00  0.00     0.026 A 
ATOM     17 CL   UNL d   1       3.831   8.438   2.485  0.00  0.00    -0.084 Cl
ATOM     18  C   UNL d   1       3.848   4.522   1.667  0.00  0.00     0.031 A 
ENDBRANCH   9  12
ENDBRANCH   1   8
BRANCH   2  19
ATOM     19  C   UNL d   1       3.071  -0.023   0.132  0.00  0.00     0.418 C 
ATOM     20  F   UNL d   1       3.721   1.141  -0.116  0.00  0.00    -0.166 F 
ATOM     21  F   UNL d   1       3.445  -0.379   1.391  0.00  0.00    -0.166 F 
ATOM     22  F   UNL d   1       3.633  -0.941  -0.700  0.00  0.00    -0.166 F 
ENDBRANCH   2  19
BRANCH   6  23
ATOM     23  S   UNL d   1      -1.335  -2.806   0.093  0.00  0.00    -0.102 SA
BRANCH  23  24
ATOM     24  C   UNL d   1      -2.735  -2.533  -1.047  0.00  0.00     0.191 C 
BRANCH  24  25
ATOM     25  C   UNL d   1      -2.258  -2.396  -2.475  0.00  0.00     0.268 C 
ATOM     26  O   UNL d   1      -1.238  -2.891  -2.942  0.00  0.00    -0.264 OA
BRANCH  25  27
ATOM     27  O   UNL d   1      -3.164  -1.677  -3.206  0.00  0.00    -0.326 OA
ATOM     28  C   UNL d   1      -2.770  -1.482  -4.568  0.00  0.00     0.213 C 
ENDBRANCH  25  27
ENDBRANCH  24  25
ENDBRANCH  23  24
ENDBRANCH   6  23
TORSDOF 7
