REMARK  8 active torsions:
REMARK  status: ('A' for Active; 'I' for Inactive)
REMARK    1  A    between atoms: C_3  and  N_1 
REMARK    2  A    between atoms: C_16  and  N_2 
REMARK    3  A    between atoms: C_4  and  C_17 
REMARK    4  A    between atoms: O_15  and  C_4 
REMARK    5  A    between atoms: C_20  and  C_16 
REMARK    6  A    between atoms: C_17  and  C_21 
REMARK    7  A    between atoms: C_22  and  C_20 
REMARK    8  A    between atoms: C_21  and  C_22 
ROOT
ATOM      1  N   UNL d   1      -1.542   0.050   0.155  0.00  0.00    -0.378 N 
ATOM      2  N   UNL d   1       1.384  -0.040  -0.206  0.00  0.00     0.091 N 
ATOM      3  C   UNL d   1      -0.877  -1.220  -0.174  0.00  0.00     0.153 C 
ATOM      4  C   UNL d   1      -0.806   1.279  -0.188  0.00  0.00     0.153 C 
ATOM      5  C   UNL d   1       0.671   1.175   0.261  0.00  0.00     0.292 C 
ATOM      6  C   UNL d   1       0.605  -1.213   0.267  0.00  0.00     0.292 C 
ENDROOT
BRANCH   2   7
ATOM      7  C   UNL d   1       1.546  -0.085  -1.670  0.00  0.00     0.272 C 
BRANCH   7   8
ATOM      8  C   UNL d   1       2.382   1.059  -2.249  0.00  0.00     0.030 C 
BRANCH   8   9
ATOM      9  C   UNL d   1       3.797   1.113  -1.674  0.00  0.00     0.002 C 
BRANCH   9  10
ATOM     10  C   UNL d   1       4.545   2.310  -2.248  0.00  0.00     0.010 C 
BRANCH  10  11
ATOM     11  C   UNL d   1       5.973   2.396  -1.722  0.00  0.00     0.111 C 
BRANCH  11  12
ATOM     12  C   UNL d   1       6.683   3.592  -2.309  0.00  0.00     0.258 C 
ATOM     13  O   UNL d   1       6.190   4.395  -3.087  0.00  0.00    -0.265 OA
BRANCH  12  14
ATOM     14  O   UNL d   1       7.962   3.643  -1.841  0.00  0.00    -0.326 OA
ATOM     15  C   UNL d   1       8.705   4.749  -2.352  0.00  0.00     0.213 C 
ENDBRANCH  12  14
ENDBRANCH  11  12
ENDBRANCH  10  11
ENDBRANCH   9  10
ENDBRANCH   8   9
ENDBRANCH   7   8
ENDBRANCH   2   7
BRANCH   1  16
ATOM     16  C   UNL d   1      -2.632   0.119   1.002  0.00  0.00     0.030 A 
ATOM     17  C   UNL d   1      -2.854  -0.818   2.018  0.00  0.00     0.030 A 
ATOM     18  C   UNL d   1      -3.967  -0.740   2.862  0.00  0.00     0.009 A 
ATOM     19  C   UNL d   1      -4.903   0.286   2.711  0.00  0.00    -0.062 A 
ATOM     20  C   UNL d   1      -4.702   1.230   1.704  0.00  0.00     0.009 A 
ATOM     21  C   UNL d   1      -6.086   0.361   3.624  0.00  0.00     0.048 C 
ATOM     22  C   UNL d   1      -3.584   1.140   0.866  0.00  0.00     0.030 A 
ENDBRANCH   1  16
TORSDOF 8
