REMARK  3 active torsions:
REMARK  status: ('A' for Active; 'I' for Inactive)
REMARK    1  A    between atoms: C_8  and  C_3 
REMARK    2  A    between atoms: O_13  and  C_8 
REMARK    3  A    between atoms: C_15  and  O_13 
ROOT
ATOM      1  N   UNL d   1      -0.116  -0.717   0.067  0.00  0.00    -0.293 N 
ATOM      2  C   UNL d   1       1.101  -1.354   0.010  0.00  0.00     0.267 A 
ATOM      3  C   UNL d   1       2.281  -0.454   0.041  0.00  0.00     0.122 A 
ATOM      4  C   UNL d   1      -0.206   0.644   0.045  0.00  0.00     0.149 A 
ATOM      5  N   UNL d   1       0.796   1.454   0.051  0.00  0.00    -0.345 N 
ATOM      6  HN  UNL d   1       0.675   2.467   0.054  1.00  0.00     0.167 HD
ATOM      7  C   UNL d   1       2.039   0.868   0.053  0.00  0.00     0.113 A 
ATOM      8  S   UNL d   1      -1.855   1.173  -0.014  0.00  0.00    -0.092 SA
ATOM      9  O   UNL d   1       1.190  -2.572  -0.114  0.00  0.00    -0.267 OA
ATOM     10  C   UNL d   1      -1.353  -1.453  -0.031  0.00  0.00     0.145 C 
ATOM     11  C   UNL d   1      -2.534  -0.504   0.065  0.00  0.00     0.103 C 
ENDROOT
BRANCH   3  12
ATOM     12  C   UNL d   1       3.676  -0.916  -0.060  0.00  0.00     0.300 C 
ATOM     13  O   UNL d   1       4.596  -0.223  -0.470  0.00  0.00    -0.259 OA
BRANCH  12  14
ATOM     14  O   UNL d   1       3.774  -2.214   0.308  0.00  0.00    -0.318 OA
BRANCH  14  15
ATOM     15  C   UNL d   1       4.918  -2.924  -0.180  0.00  0.00     0.174 C 
ATOM     16  C   UNL d   1       4.595  -3.452  -1.569  0.00  0.00     0.034 C 
ENDBRANCH  14  15
ENDBRANCH  12  14
ENDBRANCH   3  12
TORSDOF 3
