REMARK  3 active torsions:
REMARK  status: ('A' for Active; 'I' for Inactive)
REMARK    1  A    between atoms: C_2  and  N_1 
REMARK    2  A    between atoms: N_6  and  C_2 
REMARK    3  A    between atoms: C_11  and  N_6 
ROOT
ATOM      1  C   UNL d   1       2.865   1.099   1.300  0.00  0.00     0.175 C 
ATOM      2  S   UNL d   1       2.069   1.561   2.700  0.00  0.00    -0.041 SA
ENDROOT
BRANCH   1   3
ATOM      3  N   UNL d   1       2.234   0.816   0.076  0.00  0.00    -0.349 N 
ATOM      4  C   UNL d   1       1.025   1.551  -0.381  0.00  0.00     0.116 C 
ATOM      5  C   UNL d   1      -0.185   0.655  -0.269  0.00  0.00    -0.022 A 
ATOM      6  C   UNL d   1       1.233   2.035  -1.820  0.00  0.00     0.037 C 
ATOM      7  C   UNL d   1      -1.554   1.068  -0.334  0.00  0.00     0.017 A 
ATOM      8  C   UNL d   1      -0.092  -0.714  -0.093  0.00  0.00    -0.008 A 
ATOM      9  C   UNL d   1      -2.425   0.009  -0.213  0.00  0.00     0.051 A 
ATOM     10  S   UNL d   1      -1.605  -1.482  -0.019  0.00  0.00    -0.106 SA
ATOM     11  C   UNL d   1       1.199  -1.457   0.068  0.00  0.00     0.066 C 
ATOM     12  C   UNL d   1       2.364  -0.573  -0.417  0.00  0.00     0.131 C 
ENDBRANCH   1   3
BRANCH   1  13
ATOM     13  N   UNL d   1       4.242   1.021   1.142  0.00  0.00    -0.332 N 
ATOM     14  H   UNL d   1       4.556   1.429   0.267  0.00  0.00     0.168 HD
BRANCH  13  15
ATOM     15  C   UNL d   1       5.253   0.816   2.104  0.00  0.00     0.056 A 
ATOM     16  C   UNL d   1       6.521   1.388   1.905  0.00  0.00     0.060 A 
ATOM     17 CL   UNL d   1       6.818   2.461   0.579  0.00  0.00    -0.082 Cl
ATOM     18  C   UNL d   1       7.571   1.121   2.787  0.00  0.00     0.026 A 
ATOM     19  C   UNL d   1       7.371   0.252   3.858  0.00  0.00     0.002 A 
ATOM     20  C   UNL d   1       6.122  -0.335   4.054  0.00  0.00     0.002 A 
ATOM     21  C   UNL d   1       5.064  -0.050   3.185  0.00  0.00     0.031 A 
ENDBRANCH  13  15
ENDBRANCH   1  13
TORSDOF 3
