REMARK  5 active torsions:
REMARK  status: ('A' for Active; 'I' for Inactive)
REMARK    1  A    between atoms: C_8  and  N_2 
REMARK    2  A    between atoms: C_7  and  C_6 
REMARK    3  A    between atoms: C_9  and  C_7 
REMARK    4  A    between atoms: C_11  and  C_8 
REMARK    5  A    between atoms: C_10  and  N_14 
REMARK       I    between atoms: N_14  and  C_11 
ROOT
ATOM      1  C   UNL d   1       1.973  -3.267  -0.118  0.00  0.00     0.241 C 
ATOM      2  N   UNL d   1       0.905  -4.116   0.140  0.00  0.00    -0.325 N 
ATOM      3  O   UNL d   1       1.867  -2.084  -0.433  0.00  0.00    -0.271 OA
ATOM      4  H   UNL d   1       1.092  -4.772   0.889  0.00  0.00     0.169 HD
ENDROOT
BRANCH   2   5
ATOM      5  C   UNL d   1      -0.453  -3.775  -0.032  0.00  0.00     0.049 C 
ATOM      6  C   UNL d   1      -1.082  -3.477  -1.259  0.00  0.00     0.043 C 
ATOM      7  C   UNL d   1      -2.494  -3.458  -1.298  0.00  0.00     0.041 C 
ATOM      8  C   UNL d   1      -3.247  -3.570  -0.132  0.00  0.00     0.035 C 
ATOM      9  C   UNL d   1      -2.618  -3.749   1.090  0.00  0.00     0.026 C 
ATOM     10 CL   UNL d   1      -4.962  -3.484  -0.208  0.00  0.00    -0.084 Cl
ATOM     11  C   UNL d   1      -1.233  -3.894   1.131  0.00  0.00     0.032 C 
BRANCH   6  12
ATOM     12  C   UNL d   1      -0.359  -3.270  -2.561  0.00  0.00     0.196 C 
ATOM     13  O   UNL d   1       0.685  -3.869  -2.785  0.00  0.00    -0.287 OA
BRANCH  12  14
ATOM     14  C   UNL d   1      -0.958  -2.344  -3.590  0.00  0.00     0.037 A 
ATOM     15  C   UNL d   1      -0.972  -2.636  -4.962  0.00  0.00     0.048 A 
ATOM     16 CL   UNL d   1      -0.259  -4.056  -5.643  0.00  0.00    -0.083 Cl
ATOM     17  C   UNL d   1      -1.645  -1.786  -5.856  0.00  0.00     0.025 A 
ATOM     18  C   UNL d   1      -2.319  -0.654  -5.395  0.00  0.00     0.002 A 
ATOM     19  C   UNL d   1      -2.292  -0.343  -4.040  0.00  0.00     0.001 A 
ATOM     20  C   UNL d   1      -1.596  -1.166  -3.150  0.00  0.00     0.017 A 
ENDBRANCH  12  14
ENDBRANCH   6  12
ENDBRANCH   2   5
BRANCH   1  21
ATOM     21  C   UNL d   1       3.313  -3.969   0.074  0.00  0.00     0.248 C 
BRANCH  21  22
ATOM     22  N   UNL d   1       4.169  -3.517   1.170  0.00  0.00    -0.228 N 
ATOM     23  S   UNL d   1       5.734  -4.154   1.202  0.00  0.00     0.269 S 
ATOM     24  C   UNL d   1       6.175  -3.280   2.633  0.00  0.00     0.095 A 
ATOM     25  O   UNL d   1       5.653  -5.554   1.528  0.00  0.00    -0.200 OA
ATOM     26  O   UNL d   1       6.484  -3.633   0.086  0.00  0.00    -0.200 OA
ATOM     27  C   UNL d   1       5.074  -2.605   3.147  0.00  0.00     0.056 A 
ATOM     28  C   UNL d   1       7.441  -3.199   3.194  0.00  0.00     0.026 A 
ATOM     29  C   UNL d   1       5.219  -1.812   4.279  0.00  0.00     0.018 A 
ATOM     30  C   UNL d   1       3.840  -2.819   2.352  0.00  0.00     0.269 C 
ATOM     31  C   UNL d   1       6.490  -1.709   4.865  0.00  0.00     0.001 A 
ATOM     32  C   UNL d   1       7.591  -2.404   4.325  0.00  0.00     0.002 A 
ATOM     33  O   UNL d   1       2.721  -2.481   2.689  0.00  0.00    -0.266 OA
ENDBRANCH  21  22
ENDBRANCH   1  21
TORSDOF 5
