REMARK  3 active torsions:
REMARK  status: ('A' for Active; 'I' for Inactive)
REMARK    1  A    between atoms: C_6  and  N_2 
REMARK    2  A    between atoms: O_12  and  C_7 
REMARK    3  A    between atoms: C_15  and  O_12 
ROOT
ATOM      1  C   UNL d   1       3.085   1.197   0.111  0.00  0.00     0.034 A 
ATOM      2  C   UNL d   1       4.693   3.474   0.540  0.00  0.00     0.068 A 
ATOM      3  C   UNL d   1       2.771   2.121   1.112  0.00  0.00     0.032 A 
ATOM      4  C   UNL d   1       4.257   1.394  -0.624  0.00  0.00     0.032 A 
ATOM      5  C   UNL d   1       5.042   2.534  -0.427  0.00  0.00     0.039 A 
ATOM      6  C   UNL d   1       3.570   3.256   1.330  0.00  0.00     0.039 A 
ENDROOT
BRANCH   1   7
ATOM      7  N   UNL d   1       2.281   0.053  -0.017  0.00  0.00    -0.337 N 
ATOM      8  C   UNL d   1       1.828  -0.377  -1.150  0.00  0.00     0.140 C 
ATOM      9  N   UNL d   1       1.078  -1.518  -1.248  0.00  0.00    -0.370 N 
ATOM     10  S   UNL d   1       2.015   0.342  -2.748  0.00  0.00    -0.093 SA
ATOM     11  C   UNL d   1       0.449  -1.754  -2.528  0.00  0.00     0.132 C 
ATOM     12  H   UNL d   1       0.616  -1.807  -0.395  0.00  0.00     0.161 HD
ATOM     13  C   UNL d   1       1.395  -1.160  -3.565  0.00  0.00     0.102 C 
ATOM     14  HN  UNL d   1       2.042  -0.467   0.827  1.00  0.00     0.168 HD
ENDBRANCH   1   7
BRANCH   2  15
ATOM     15  O   UNL d   1       5.553   4.532   0.648  0.00  0.00    -0.352 OA
BRANCH  15  16
ATOM     16  C   UNL d   1       5.026   5.719   1.236  0.00  0.00     0.171 C 
ATOM     17  C   UNL d   1       6.075   6.808   1.090  0.00  0.00     0.034 C 
ENDBRANCH  15  16
ENDBRANCH   2  15
TORSDOF 3
