REMARK  3 active torsions:
REMARK  status: ('A' for Active; 'I' for Inactive)
REMARK    1  A    between atoms: N_14  and  N_9 
REMARK    2  A    between atoms: C_23  and  C_16 
REMARK    3  A    between atoms: C_18  and  C_19 
ROOT
ATOM      1  C   UNL d   1       1.055   0.771  -0.008  0.00  0.00     0.175 A 
ATOM      2  C   UNL d   1       0.733  -0.553  -0.019  0.00  0.00     0.088 A 
ATOM      3  C   UNL d   1       2.399   1.273  -0.004  0.00  0.00     0.303 A 
ATOM      4  C   UNL d   1      -0.670  -0.660  -0.006  0.00  0.00     0.051 A 
ATOM      5  C   UNL d   1      -1.129   0.663   0.006  0.00  0.00     0.162 A 
ATOM      6  O   UNL d   1      -0.067   1.537   0.001  0.00  0.00    -0.285 OA
ATOM      7  N   UNL d   1       1.684  -1.575  -0.040  0.00  0.00    -0.347 N 
ATOM      8  HN  UNL d   1       1.447  -2.566  -0.086  1.00  0.00     0.167 HD
ATOM      9  N   UNL d   1       3.324   0.203   0.083  0.00  0.00    -0.214 N 
ATOM     10  N   UNL d   1      -2.411   1.077   0.028  0.00  0.00    -0.335 N 
ATOM     11  HN  UNL d   1      -2.675   2.062   0.040  1.00  0.00     0.168 HD
ATOM     12  C   UNL d   1       2.904  -1.127   0.007  0.00  0.00     0.211 A 
ATOM     13  C   UNL d   1      -1.620  -1.694   0.004  0.00  0.00    -0.043 A 
ATOM     14  C   UNL d   1      -3.319   0.071   0.032  0.00  0.00     0.044 A 
ATOM     15  C   UNL d   1      -2.962  -1.285   0.031  0.00  0.00     0.038 A 
ATOM     16  O   UNL d   1       2.692   2.462  -0.100  0.00  0.00    -0.263 OA
ATOM     17  C   UNL d   1      -1.302  -3.159  -0.001  0.00  0.00     0.049 C 
ENDROOT
BRANCH   9  18
ATOM     18  N   UNL d   1       4.703   0.367   0.077  0.00  0.00    -0.301 N 
ATOM     19  C   UNL d   1       5.210   1.426   0.629  0.00  0.00     0.120 C 
ATOM     20  HN  UNL d   1       5.307  -0.333  -0.353  1.00  0.00     0.186 HD
BRANCH  19  21
ATOM     21  C   UNL d   1       6.673   1.674   0.606  0.00  0.00     0.003 A 
ATOM     22  C   UNL d   1       7.238   2.804   1.216  0.00  0.00     0.047 A 
ATOM     23  C   UNL d   1       8.620   3.014   1.162  0.00  0.00     0.048 A 
ATOM     24 CL   UNL d   1       6.300   3.984   2.061  0.00  0.00    -0.083 Cl
ATOM     25  C   UNL d   1       9.439   2.097   0.507  0.00  0.00     0.035 A 
ATOM     26  C   UNL d   1       8.892   0.966  -0.095  0.00  0.00     0.025 A 
ATOM     27 CL   UNL d   1      11.136   2.363   0.439  0.00  0.00    -0.084 Cl
ATOM     28  C   UNL d   1       7.511   0.754  -0.046  0.00  0.00     0.016 A 
ENDBRANCH  19  21
ENDBRANCH   9  18
BRANCH  14  29
ATOM     29  C   UNL d   1      -4.747   0.475   0.075  0.00  0.00    -0.009 A 
ATOM     30  C   UNL d   1      -5.754  -0.302  -0.533  0.00  0.00     0.013 A 
ATOM     31  C   UNL d   1      -7.108   0.030  -0.421  0.00  0.00     0.001 A 
ATOM     32  C   UNL d   1      -7.487   1.164   0.289  0.00  0.00     0.000 A 
ATOM     33  C   UNL d   1      -6.512   1.971   0.870  0.00  0.00     0.001 A 
ATOM     34  C   UNL d   1      -5.158   1.633   0.759  0.00  0.00     0.013 A 
ENDBRANCH  14  29
TORSDOF 3
