REMARK  1 active torsions:
REMARK  status: ('A' for Active; 'I' for Inactive)
REMARK    1  A    between atoms: C_13  and  C_4 
ROOT
ATOM      1  C   UNL d   1       1.342   0.899  -0.035  0.00  0.00    -0.008 A 
ATOM      2  C   UNL d   1       0.690  -0.285  -0.057  0.00  0.00     0.054 A 
ATOM      3  C   UNL d   1       3.585  -0.220  -0.006  0.00  0.00     0.124 A 
ATOM      4  C   UNL d   1       2.840   0.917  -0.009  0.00  0.00     0.010 A 
ATOM      5  N   UNL d   1       1.447  -1.442  -0.055  0.00  0.00    -0.321 N 
ATOM      6  C   UNL d   1       2.826  -1.511  -0.026  0.00  0.00     0.267 A 
ATOM      7  C   UNL d   1      -0.805  -0.388  -0.045  0.00  0.00     0.008 A 
ATOM      8  C   UNL d   1       0.703   2.268  -0.008  0.00  0.00     0.121 C 
ATOM      9  S   UNL d   1      -1.050   2.411  -0.341  0.00  0.00    -0.124 SA
ATOM     10  C   UNL d   1       5.046  -0.236   0.002  0.00  0.00     0.106 C 
ATOM     11  N   UNL d   1       6.204  -0.170   0.003  0.00  0.00    -0.191 NA
ATOM     12  C   UNL d   1      -1.630   0.751  -0.116  0.00  0.00     0.013 A 
ATOM     13  O   UNL d   1       3.388  -2.602  -0.019  0.00  0.00    -0.266 OA
ATOM     14  C   UNL d   1      -1.460  -1.637   0.035  0.00  0.00     0.015 A 
ATOM     15  C   UNL d   1      -3.034   0.630  -0.073  0.00  0.00     0.019 A 
ATOM     16  C   UNL d   1      -2.857  -1.749   0.058  0.00  0.00     0.001 A 
ATOM     17  C   UNL d   1      -3.646  -0.613   0.015  0.00  0.00     0.001 A 
ATOM     18  H   UNL d   1       1.002  -2.348  -0.075  0.00  0.00     0.169 HD
ENDROOT
BRANCH   4  19
ATOM     19  C   UNL d   1       3.591   2.194   0.015  0.00  0.00    -0.023 A 
ATOM     20  C   UNL d   1       4.006   2.793  -1.186  0.00  0.00     0.015 A 
ATOM     21  C   UNL d   1       4.732   3.986  -1.154  0.00  0.00     0.043 A 
ATOM     22  C   UNL d   1       5.033   4.577   0.068  0.00  0.00     0.116 A 
ATOM     23  C   UNL d   1       4.623   3.998   1.263  0.00  0.00     0.043 A 
ATOM     24  F   UNL d   1       5.724   5.724   0.094  0.00  0.00    -0.206 F 
ATOM     25  C   UNL d   1       3.898   2.806   1.241  0.00  0.00     0.015 A 
ENDBRANCH   4  19
TORSDOF 1
