REMARK  6 active torsions:
REMARK  status: ('A' for Active; 'I' for Inactive)
REMARK    1  A    between atoms: C_4  and  C_1 
REMARK    2  A    between atoms: O_10  and  C_4 
REMARK    3  A    between atoms: N_7  and  O_10 
REMARK    4  A    between atoms: C_11  and  C_9 
REMARK    5  A    between atoms: N_19  and  C_9 
REMARK    6  A    between atoms: C_12  and  C_13 
ROOT
ATOM      1  N   UNL d   1       2.393   3.685  -0.115  0.00  0.00    -0.246 N 
ATOM      2  HN  UNL d   1       3.180   3.069  -0.318  1.00  0.00     0.196 HD
ATOM      3  C   UNL d   1       2.511   4.964   0.081  0.00  0.00     0.109 C 
ENDROOT
BRANCH   1   4
ATOM      4  O   UNL d   1       1.045   3.236  -0.015  0.00  0.00    -0.192 OA
BRANCH   4   5
ATOM      5  C   UNL d   1       1.021   1.859  -0.148  0.00  0.00     0.339 C 
ATOM      6  O   UNL d   1       2.010   1.156  -0.337  0.00  0.00    -0.255 OA
BRANCH   5   7
ATOM      7  C   UNL d   1      -0.336   1.336  -0.063  0.00  0.00     0.159 A 
ATOM      8  O   UNL d   1      -1.402   2.178   0.161  0.00  0.00    -0.303 OA
ATOM      9  C   UNL d   1      -2.533   1.414   0.183  0.00  0.00     0.087 A 
ATOM     10  C   UNL d   1      -3.836   1.875   0.382  0.00  0.00     0.038 A 
ATOM     11  C   UNL d   1      -2.217   0.079  -0.026  0.00  0.00     0.007 A 
ATOM     12  C   UNL d   1      -4.858   0.913   0.356  0.00  0.00     0.003 A 
ATOM     13  C   UNL d   1      -4.576  -0.436   0.142  0.00  0.00     0.001 A 
ATOM     14  C   UNL d   1      -3.259  -0.870  -0.048  0.00  0.00     0.015 A 
ATOM     15  C   UNL d   1      -0.799   0.025  -0.176  0.00  0.00    -0.009 A 
ATOM     16  C   UNL d   1      -0.015  -1.216  -0.413  0.00  0.00     0.052 C 
ENDBRANCH   5   7
ENDBRANCH   4   5
ENDBRANCH   1   4
BRANCH   3  17
ATOM     17  C   UNL d   1       3.890   5.563   0.029  0.00  0.00     0.004 A 
ATOM     18  C   UNL d   1       4.903   4.970  -0.726  0.00  0.00     0.015 A 
ATOM     19  C   UNL d   1       6.188   5.536  -0.760  0.00  0.00     0.009 A 
ATOM     20  C   UNL d   1       6.505   6.697  -0.026  0.00  0.00    -0.051 A 
ATOM     21  C   UNL d   1       5.468   7.277   0.727  0.00  0.00     0.009 A 
ATOM     22  C   UNL d   1       4.181   6.720   0.756  0.00  0.00     0.015 A 
BRANCH  20  23
ATOM     23  C   UNL d   1       7.939   7.267  -0.036  0.00  0.00    -0.024 C 
ATOM     24  C   UNL d   1       8.118   8.513   0.863  0.00  0.00     0.019 C 
ATOM     25  C   UNL d   1       8.930   6.197   0.475  0.00  0.00     0.019 C 
ATOM     26  C   UNL d   1       8.346   7.680  -1.467  0.00  0.00     0.019 C 
ENDBRANCH  20  23
ENDBRANCH   3  17
BRANCH   3  27
ATOM     27  N   UNL d   1       1.442   5.797   0.320  0.00  0.00    -0.286 NA
ATOM     28  H   UNL d   1       0.555   5.360   0.092  0.00  0.00     0.125 HD
ATOM     29  H   UNL d   1       1.525   6.728  -0.072  0.00  0.00     0.125 HD
ENDBRANCH   3  27
TORSDOF 6
