REMARK  5 active torsions:
REMARK  status: ('A' for Active; 'I' for Inactive)
REMARK    1  A    between atoms: C_13  and  C_1 
REMARK    2  A    between atoms: C_2  and  C_13 
REMARK    3  A    between atoms: N_19  and  C_3 
REMARK    4  A    between atoms: N_18  and  C_4 
REMARK    5  A    between atoms: C_20  and  C_13 
ROOT
ATOM      1  C   UNL d   1      -1.538   2.462  -0.054  0.00  0.00     0.069 C 
ENDROOT
BRANCH   1   2
ATOM      2  C   UNL d   1      -1.207   3.265  -1.321  0.00  0.00     0.057 A 
ATOM      3  C   UNL d   1      -1.424   2.892  -2.602  0.00  0.00     0.092 A 
ATOM      4  N   UNL d   1      -1.080   3.743  -3.615  0.00  0.00    -0.323 N 
ATOM      5  C   UNL d   1      -0.512   4.966  -3.445  0.00  0.00     0.179 A 
ATOM      6  H   UNL d   1      -1.291   3.468  -4.564  0.00  0.00     0.169 HD
ATOM      7  N   UNL d   1      -0.267   5.350  -2.169  0.00  0.00    -0.300 N 
ATOM      8  S   UNL d   1      -0.148   5.943  -4.741  0.00  0.00    -0.040 SA
ATOM      9  C   UNL d   1      -0.604   4.616  -1.068  0.00  0.00     0.257 A 
ATOM     10  H   UNL d   1       0.131   6.262  -1.999  0.00  0.00     0.171 HD
ATOM     11  O   UNL d   1      -0.462   5.074   0.061  0.00  0.00    -0.267 OA
BRANCH   3  12
ATOM     12  N   UNL d   1      -1.988   1.698  -2.987  0.00  0.00    -0.288 NA
ATOM     13  H   UNL d   1      -2.032   0.986  -2.265  0.00  0.00     0.125 HD
ATOM     14  H   UNL d   1      -1.589   1.336  -3.847  0.00  0.00     0.125 HD
ENDBRANCH   3  12
ENDBRANCH   1   2
BRANCH   1  15
ATOM     15  C   UNL d   1      -0.833   1.078   0.000  0.00  0.00     0.057 C 
ATOM     16  C   UNL d   1      -1.284  -0.080   0.546  0.00  0.00     0.092 C 
ATOM     17  N   UNL d   1      -0.551  -1.229   0.417  0.00  0.00    -0.323 N 
ATOM     18  C   UNL d   1       0.634  -1.335  -0.232  0.00  0.00     0.179 C 
ATOM     19  H   UNL d   1      -0.918  -2.088   0.806  0.00  0.00     0.169 HD
ATOM     20  N   UNL d   1       1.128  -0.196  -0.765  0.00  0.00    -0.300 N 
ATOM     21  S   UNL d   1       1.436  -2.785  -0.348  0.00  0.00    -0.040 SA
ATOM     22  C   UNL d   1       0.561   1.032  -0.584  0.00  0.00     0.257 C 
ATOM     23  H   UNL d   1       2.052  -0.212  -1.172  0.00  0.00     0.171 HD
ATOM     24  O   UNL d   1       1.198   2.038  -0.880  0.00  0.00    -0.267 OA
BRANCH  16  25
ATOM     25  N   UNL d   1      -2.443  -0.223   1.266  0.00  0.00    -0.288 NA
ATOM     26  H   UNL d   1      -2.608   0.561   1.893  0.00  0.00     0.125 HD
ATOM     27  H   UNL d   1      -2.458  -1.077   1.816  0.00  0.00     0.125 HD
ENDBRANCH  16  25
ENDBRANCH   1  15
BRANCH   1  28
ATOM     28  C   UNL d   1      -3.087   2.501   0.119  0.00  0.00     0.010 C 
ATOM     29  C   UNL d   1      -3.687   3.907   0.190  0.00  0.00     0.006 C 
ENDBRANCH   1  28
TORSDOF 5
