REMARK  1 active torsions:
REMARK  status: ('A' for Active; 'I' for Inactive)
REMARK    1  A    between atoms: C_9  and  N_6 
ROOT
ATOM      1  C   UNL d   1      -0.682  -1.158  -0.071  0.00  0.00     0.114 C 
ATOM      2  C   UNL d   1       0.718  -0.569  -0.333  0.00  0.00     0.275 C 
ATOM      3  N   UNL d   1       0.550   0.806  -0.269  0.00  0.00    -0.316 N 
ATOM      4  C   UNL d   1      -1.591  -0.011  -0.063  0.00  0.00     0.023 A 
ATOM      5  C   UNL d   1      -0.806   1.137  -0.151  0.00  0.00     0.049 A 
ATOM      6  N   UNL d   1      -1.069  -2.373   0.167  0.00  0.00    -0.351 N 
ATOM      7  HN  UNL d   1      -2.061  -2.552   0.324  1.00  0.00     0.166 HD
ATOM      8  O   UNL d   1       1.739  -1.186  -0.558  0.00  0.00    -0.265 OA
ATOM      9  C   UNL d   1       1.617   1.761  -0.376  0.00  0.00     0.159 C 
ATOM     10  C   UNL d   1      -2.968   0.035   0.033  0.00  0.00     0.016 A 
ATOM     11  C   UNL d   1      -1.386   2.392  -0.133  0.00  0.00     0.031 A 
ATOM     12  C   UNL d   1      -3.565   1.297   0.036  0.00  0.00     0.001 A 
ATOM     13  C   UNL d   1      -2.781   2.464  -0.040  0.00  0.00     0.002 A 
ENDROOT
BRANCH   6  14
ATOM     14  C   UNL d   1      -0.173  -3.449   0.217  0.00  0.00     0.032 A 
ATOM     15  C   UNL d   1       0.981  -3.456   1.010  0.00  0.00     0.031 A 
ATOM     16  C   UNL d   1       1.839  -4.561   1.020  0.00  0.00     0.026 A 
ATOM     17  C   UNL d   1       1.509  -5.697   0.287  0.00  0.00     0.034 A 
ATOM     18  C   UNL d   1       0.327  -5.738  -0.448  0.00  0.00     0.026 A 
ATOM     19 CL   UNL d   1       2.560  -7.058   0.300  0.00  0.00    -0.084 Cl
ATOM     20  C   UNL d   1      -0.507  -4.615  -0.480  0.00  0.00     0.031 A 
ENDBRANCH   6  14
TORSDOF 1
