REMARK  0 active torsions:
REMARK  status: ('A' for Active; 'I' for Inactive)
ROOT
ATOM      1  C   UNL d   1       1.400   0.843   0.001  0.00  0.00     0.111 A 
ATOM      2  C   UNL d   1       0.756  -0.355   0.000  0.00  0.00    -0.001 A 
ATOM      3  C   UNL d   1       0.636   2.126   0.001  0.00  0.00     0.262 A 
ATOM      4  N   UNL d   1      -0.728   2.042   0.000  0.00  0.00    -0.322 N 
ATOM      5  C   UNL d   1       2.902   0.870   0.001  0.00  0.00     0.261 A 
ATOM      6  C   UNL d   1      -0.736  -0.371   0.001  0.00  0.00     0.002 A 
ATOM      7  C   UNL d   1      -1.435   0.843   0.001  0.00  0.00     0.046 A 
ATOM      8  N   UNL d   1       3.536  -0.351   0.000  0.00  0.00    -0.333 N 
ATOM      9  C   UNL d   1       1.555  -1.584  -0.001  0.00  0.00     0.030 A 
ATOM     10  C   UNL d   1       2.889  -1.548  -0.000  0.00  0.00     0.092 A 
ATOM     11  O   UNL d   1       1.158   3.236   0.001  0.00  0.00    -0.267 OA
ATOM     12  O   UNL d   1       3.579   1.892   0.001  0.00  0.00    -0.267 OA
ATOM     13  C   UNL d   1      -1.493  -1.554   0.002  0.00  0.00     0.014 A 
ATOM     14  C   UNL d   1      -2.833   0.886   0.001  0.00  0.00     0.030 A 
ATOM     15  C   UNL d   1      -2.891  -1.520   0.004  0.00  0.00     0.001 A 
ATOM     16  C   UNL d   1      -3.560  -0.301   0.003  0.00  0.00     0.002 A 
ATOM     17  H   UNL d   1      -1.213   2.930   0.000  0.00  0.00     0.169 HD
ATOM     18  H   UNL d   1       4.548  -0.309   0.001  0.00  0.00     0.168 HD
ENDROOT
TORSDOF 0
