REMARK  2 active torsions:
REMARK  status: ('A' for Active; 'I' for Inactive)
REMARK    1  A    between atoms: N_9  and  N_2 
REMARK    2  A    between atoms: C_11  and  N_9 
ROOT
ATOM      1  C   UNL d   1      -0.997   0.907   0.025  0.00  0.00     0.109 A 
ATOM      2  N   UNL d   1      -1.272   2.181   0.068  0.00  0.00    -0.296 N 
ATOM      3  HN  UNL d   1      -0.525   2.875   0.048  1.00  0.00     0.187 HD
ATOM      4  C   UNL d   1       0.427   0.482  -0.014  0.00  0.00     0.006 A 
ATOM      5  C   UNL d   1      -2.055  -0.197   0.033  0.00  0.00     0.200 A 
ATOM      6  C   UNL d   1      -1.596  -1.601   0.039  0.00  0.00     0.058 A 
ATOM      7  C   UNL d   1      -0.296  -1.908   0.038  0.00  0.00     0.016 A 
ATOM      8  C   UNL d   1       0.746  -0.882   0.017  0.00  0.00    -0.023 A 
ATOM      9  O   UNL d   1      -3.254   0.056   0.041  0.00  0.00    -0.286 OA
ATOM     10  C   UNL d   1       1.446   1.445  -0.055  0.00  0.00     0.015 A 
ATOM     11  C   UNL d   1       2.095  -1.265   0.026  0.00  0.00     0.012 A 
ATOM     12  C   UNL d   1       2.784   1.051  -0.052  0.00  0.00     0.001 A 
ATOM     13  C   UNL d   1       3.107  -0.302  -0.005  0.00  0.00     0.001 A 
ENDROOT
BRANCH   2  14
ATOM     14  N   UNL d   1      -2.565   2.564   0.139  0.00  0.00    -0.300 N 
ATOM     15  H   UNL d   1      -3.328   1.880   0.179  0.00  0.00     0.187 HD
BRANCH  14  16
ATOM     16  C   UNL d   1      -2.895   3.924   0.240  0.00  0.00     0.048 A 
ATOM     17  C   UNL d   1      -1.930   4.936   0.134  0.00  0.00     0.037 A 
ATOM     18  C   UNL d   1      -2.273   6.292   0.238  0.00  0.00    -0.060 A 
ATOM     19  C   UNL d   1      -1.227   7.359   0.108  0.00  0.00     0.048 C 
ATOM     20  C   UNL d   1      -3.607   6.639   0.465  0.00  0.00     0.007 A 
ATOM     21  C   UNL d   1      -4.579   5.646   0.583  0.00  0.00     0.003 A 
ATOM     22  C   UNL d   1      -4.224   4.300   0.469  0.00  0.00     0.031 A 
ENDBRANCH  14  16
ENDBRANCH   2  14
TORSDOF 2
