REMARK  5 active torsions:
REMARK  status: ('A' for Active; 'I' for Inactive)
REMARK    1  A    between atoms: C_2  and  C_1 
REMARK       I    between atoms: N_11  and  C_2 
REMARK    2  A    between atoms: C_3  and  O_12 
REMARK    3  A    between atoms: N_9  and  N_11 
REMARK    4  A    between atoms: O_12  and  C_18 
REMARK    5  A    between atoms: C_19  and  C_17 
ROOT
ATOM      1  N   UNL d   1       5.291  -1.524  -0.848  0.00  0.00    -0.308 N 
ATOM      2  HN  UNL d   1       6.120  -1.353  -1.417  1.00  0.00     0.186 HD
ATOM      3  C   UNL d   1       4.815  -0.620  -0.054  0.00  0.00     0.118 C 
ENDROOT
BRANCH   1   4
ATOM      4  N   UNL d   1       4.634  -2.707  -0.889  0.00  0.00    -0.264 N 
ATOM      5  C   UNL d   1       5.027  -3.781  -1.677  0.00  0.00     0.295 C 
ATOM      6  O   UNL d   1       4.338  -4.806  -1.632  0.00  0.00    -0.264 OA
ATOM      7  H   UNL d   1       3.801  -2.853  -0.330  0.00  0.00     0.190 HD
BRANCH   5   8
ATOM      8  C   UNL d   1       6.206  -3.681  -2.509  0.00  0.00     0.161 A 
ATOM      9  O   UNL d   1       6.990  -2.552  -2.570  0.00  0.00    -0.299 OA
ATOM     10  C   UNL d   1       7.975  -2.869  -3.447  0.00  0.00     0.234 A 
ATOM     11  N   UNL d   1       7.907  -4.077  -3.954  0.00  0.00    -0.354 N 
ATOM     12  C   UNL d   1       6.782  -4.601  -3.361  0.00  0.00     0.132 A 
ATOM     13  HN  UNL d   1       8.535  -4.520  -4.624  1.00  0.00     0.166 HD
ENDBRANCH   5   8
ENDBRANCH   1   4
BRANCH   3  14
ATOM     14  C   UNL d   1       5.470   0.700   0.052  0.00  0.00    -0.019 A 
ATOM     15  C   UNL d   1       6.592   0.997  -0.724  0.00  0.00     0.015 A 
ATOM     16  C   UNL d   1       7.189   2.253  -0.628  0.00  0.00     0.038 A 
ATOM     17  C   UNL d   1       6.667   3.224   0.232  0.00  0.00     0.078 A 
ATOM     18  C   UNL d   1       5.577   2.905   1.042  0.00  0.00     0.038 A 
ATOM     19  C   UNL d   1       4.963   1.650   0.941  0.00  0.00     0.015 A 
BRANCH  17  20
ATOM     20  O   UNL d   1       7.347   4.403   0.234  0.00  0.00    -0.255 OA
BRANCH  20  21
ATOM     21  C   UNL d   1       6.643   5.616   0.464  0.00  0.00     0.530 C 
ATOM     22  F   UNL d   1       5.304   5.474   0.551  0.00  0.00    -0.144 F 
ATOM     23  F   UNL d   1       7.095   6.180   1.604  0.00  0.00    -0.144 F 
ATOM     24  F   UNL d   1       6.902   6.462  -0.558  0.00  0.00    -0.144 F 
ENDBRANCH  20  21
ENDBRANCH  17  20
ENDBRANCH   3  14
TORSDOF 5
