REMARK  7 active torsions:
REMARK  status: ('A' for Active; 'I' for Inactive)
REMARK    1  A    between atoms: C_12  and  N_3 
REMARK    2  A    between atoms: C_8  and  C_4 
REMARK       I    between atoms: N_9  and  C_8 
REMARK    3  A    between atoms: N_11  and  N_9 
REMARK       I    between atoms: C_10  and  N_11 
REMARK    4  A    between atoms: C_20  and  C_10 
REMARK    5  A    between atoms: C_16  and  C_21 
REMARK    6  A    between atoms: S_17  and  C_20 
REMARK    7  A    between atoms: C_21  and  S_17 
ROOT
ATOM      1  C   UNL d   1      -2.614   0.059   0.144  0.00  0.00     0.290 C 
ATOM      2  N   UNL d   1      -3.517   1.031  -0.248  0.00  0.00    -0.262 N 
ATOM      3  O   UNL d   1      -1.461   0.352   0.468  0.00  0.00    -0.264 OA
ATOM      4  H   UNL d   1      -4.501   0.820  -0.412  0.00  0.00     0.190 HD
ENDROOT
BRANCH   2   5
ATOM      5  N   UNL d   1      -3.100   2.375  -0.199  0.00  0.00    -0.267 N 
ATOM      6  C   UNL d   1      -4.024   3.359   0.115  0.00  0.00     0.245 C 
ATOM      7  O   UNL d   1      -5.234   3.143   0.163  0.00  0.00    -0.271 OA
ATOM      8  H   UNL d   1      -2.105   2.506  -0.014  0.00  0.00     0.190 HD
BRANCH   6   9
ATOM      9  C   UNL d   1      -3.385   4.709   0.420  0.00  0.00     0.178 C 
BRANCH   9  10
ATOM     10  S   UNL d   1      -4.057   6.043  -0.612  0.00  0.00    -0.155 SA
BRANCH  10  11
ATOM     11  C   UNL d   1      -5.614   6.388   0.272  0.00  0.00     0.113 C 
BRANCH  11  12
ATOM     12  C   UNL d   1      -5.447   7.072   1.617  0.00  0.00    -0.038 A 
ATOM     13  C   UNL d   1      -5.991   6.547   2.829  0.00  0.00    -0.019 A 
ATOM     14  C   UNL d   1      -5.916   7.338   4.009  0.00  0.00    -0.025 A 
ATOM     15  C   UNL d   1      -6.622   5.285   2.946  0.00  0.00     0.013 A 
ATOM     16  C   UNL d   1      -6.487   6.883   5.209  0.00  0.00     0.012 A 
ATOM     17  C   UNL d   1      -5.281   8.587   3.982  0.00  0.00     0.012 A 
ATOM     18  C   UNL d   1      -7.121   5.646   5.279  0.00  0.00     0.001 A 
ATOM     19  C   UNL d   1      -7.178   4.842   4.150  0.00  0.00     0.001 A 
ATOM     20  C   UNL d   1      -4.725   9.079   2.807  0.00  0.00     0.001 A 
ATOM     21  C   UNL d   1      -4.817   8.335   1.636  0.00  0.00     0.009 A 
ENDBRANCH  11  12
ENDBRANCH  10  11
ENDBRANCH   9  10
ENDBRANCH   6   9
ENDBRANCH   2   5
BRANCH   1  22
ATOM     22  C   UNL d   1      -3.124  -1.313   0.148  0.00  0.00     0.143 A 
ATOM     23  N   UNL d   1      -4.341  -1.653  -0.321  0.00  0.00    -0.272 N 
ATOM     24  N   UNL d   1      -4.352  -3.008  -0.164  0.00  0.00    -0.196 N 
ATOM     25  HN  UNL d   1      -5.071  -1.048  -0.697  1.00  0.00     0.189 HD
ATOM     26  N   UNL d   1      -3.257  -3.543   0.431  0.00  0.00    -0.281 N 
ATOM     27  C   UNL d   1      -2.462  -2.481   0.601  0.00  0.00     0.057 A 
ATOM     28  HN  UNL d   1      -3.082  -4.515   0.686  1.00  0.00     0.189 HD
ATOM     29  C   UNL d   1      -1.109  -2.665   1.175  0.00  0.00     0.072 C 
BRANCH  24  30
ATOM     30  C   UNL d   1      -5.413  -3.832  -0.625  0.00  0.00     0.074 A 
ATOM     31  C   UNL d   1      -6.490  -3.278  -1.330  0.00  0.00     0.033 A 
ATOM     32  C   UNL d   1      -7.507  -4.109  -1.811  0.00  0.00     0.002 A 
ATOM     33  C   UNL d   1      -7.457  -5.486  -1.585  0.00  0.00     0.000 A 
ATOM     34  C   UNL d   1      -6.393  -6.040  -0.875  0.00  0.00     0.002 A 
ATOM     35  C   UNL d   1      -5.372  -5.218  -0.398  0.00  0.00     0.033 A 
ENDBRANCH  24  30
ENDBRANCH   1  22
TORSDOF 7
