REMARK  4 active torsions:
REMARK  status: ('A' for Active; 'I' for Inactive)
REMARK    1  A    between atoms: C_9  and  N_4 
REMARK    2  A    between atoms: S_12  and  C_5 
REMARK    3  A    between atoms: N_13  and  C_6 
REMARK    4  A    between atoms: C_10  and  C_9 
ROOT
ATOM      1  N   UNL d   1      -0.512  -1.039   0.283  0.00  0.00    -0.321 N 
ATOM      2  HN  UNL d   1      -0.885  -1.982   0.388  1.00  0.00     0.169 HD
ATOM      3  C   UNL d   1      -0.385   1.193  -0.059  0.00  0.00     0.162 A 
ATOM      4  N   UNL d   1       0.884   0.687   0.145  0.00  0.00    -0.309 N 
ATOM      5  C   UNL d   1       0.739  -0.657   0.397  0.00  0.00     0.149 A 
ATOM      6  C   UNL d   1      -1.200   0.094  -0.005  0.00  0.00     0.139 A 
ATOM      7  C   UNL d   1      -0.723   2.547  -0.264  0.00  0.00     0.122 C 
ATOM      8  N   UNL d   1      -0.984   3.670  -0.422  0.00  0.00    -0.190 NA
ENDROOT
BRANCH   6   9
ATOM      9  N   UNL d   1      -2.521   0.031  -0.173  0.00  0.00    -0.383 N 
ATOM     10  H   UNL d   1      -3.123   0.843  -0.107  0.00  0.00     0.157 HD
ATOM     11  H   UNL d   1      -2.985  -0.849   0.031  0.00  0.00     0.157 HD
ENDBRANCH   6   9
BRANCH   4  12
ATOM     12  C   UNL d   1       2.122   1.444   0.053  0.00  0.00     0.197 C 
BRANCH  12  13
ATOM     13  C   UNL d   1       2.455   2.139   1.321  0.00  0.00     0.070 A 
ATOM     14  O   UNL d   1       3.556   2.945   1.270  0.00  0.00    -0.325 OA
ATOM     15  C   UNL d   1       3.693   3.517   2.492  0.00  0.00     0.142 A 
ATOM     16  C   UNL d   1       2.697   3.089   3.337  0.00  0.00     0.027 A 
ATOM     17  C   UNL d   1       1.901   2.190   2.586  0.00  0.00     0.036 A 
ENDBRANCH  12  13
ENDBRANCH   4  12
BRANCH   5  18
ATOM     18  S   UNL d   1       2.063  -1.693   0.817  0.00  0.00    -0.098 SA
ATOM     19  C   UNL d   1       1.219  -3.271   1.077  0.00  0.00     0.099 C 
ENDBRANCH   5  18
TORSDOF 4
