REMARK  6 active torsions:
REMARK  status: ('A' for Active; 'I' for Inactive)
REMARK    1  A    between atoms: N_2  and  C_1 
REMARK       I    between atoms: C_4  and  N_3 
REMARK    2  A    between atoms: C_17  and  C_4 
REMARK    3  A    between atoms: C_9  and  C_22 
REMARK    4  A    between atoms: O_16  and  C_9 
REMARK    5  A    between atoms: C_21  and  C_17 
REMARK    6  A    between atoms: C_22  and  C_21 
ROOT
ATOM      1  N   UNL d   1       0.165   2.754  -0.039  0.00  0.00    -0.214 N 
ATOM      2  N   UNL d   1       0.620   5.546   0.172  0.00  0.00    -0.349 N 
ATOM      3  C   UNL d   1       1.229   6.701   0.606  0.00  0.00     0.219 C 
ATOM      4  C   UNL d   1      -0.466   3.494   1.064  0.00  0.00     0.161 C 
ATOM      5  C   UNL d   1       1.444   3.304  -0.500  0.00  0.00     0.161 C 
ATOM      6  C   UNL d   1       1.242   4.772  -0.908  0.00  0.00     0.146 C 
ATOM      7  C   UNL d   1      -0.636   4.977   0.679  0.00  0.00     0.146 C 
ATOM      8  O   UNL d   1       2.300   7.078   0.119  0.00  0.00    -0.273 OA
ENDROOT
BRANCH   3   9
ATOM      9  C   UNL d   1       0.547   7.500   1.703  0.00  0.00     0.103 C 
BRANCH   9  10
ATOM     10  C   UNL d   1       1.300   8.791   2.054  0.00  0.00     0.019 C 
BRANCH  10  11
ATOM     11  C   UNL d   1       1.415   9.790   0.897  0.00  0.00     0.110 C 
BRANCH  11  12
ATOM     12  C   UNL d   1       0.066  10.232   0.385  0.00  0.00     0.139 C 
ATOM     13  O   UNL d   1      -0.932  10.353   1.080  0.00  0.00    -0.650 OA
BRANCH  12  14
ATOM     14  O   UNL d   1       0.063  10.507  -0.937  0.00  0.00    -0.776 OA
ATOM     15  H   UNL d   1       0.923  10.353  -1.374  0.00  0.00     0.167 HD
ENDBRANCH  12  14
ENDBRANCH  11  12
ENDBRANCH  10  11
ENDBRANCH   9  10
ENDBRANCH   3   9
BRANCH   1  16
ATOM     16  C   UNL d   1       0.088   1.373   0.059  0.00  0.00     0.679 A 
ATOM     17  N   UNL d   1      -0.964   0.842   0.706  0.00  0.00    -0.202 N 
ATOM     18  C   UNL d   1      -1.090  -0.498   0.715  0.00  0.00     0.107 A 
ATOM     19  HN  UNL d   1      -1.646   1.437   1.177  1.00  0.00     0.183 HD
ATOM     20  C   UNL d   1      -0.197  -1.340   0.112  0.00  0.00     0.035 A 
ATOM     21  C   UNL d   1       0.857  -0.723  -0.506  0.00  0.00     0.107 A 
ATOM     22  N   UNL d   1       1.016   0.615  -0.548  0.00  0.00    -0.202 N 
ATOM     23  HN  UNL d   1       1.813   1.037  -1.025  1.00  0.00     0.183 HD
ENDBRANCH   1  16
TORSDOF 6
