REMARK  4 active torsions:
REMARK  status: ('A' for Active; 'I' for Inactive)
REMARK    1  A    between atoms: C_2  and  S_1 
REMARK    2  A    between atoms: N_3  and  S_1 
REMARK    3  A    between atoms: C_12  and  N_3 
REMARK    4  A    between atoms: N_4  and  C_8 
ROOT
ATOM      1  C   UNL d   1       1.351   2.790   4.573  0.00  0.00     0.030 A 
ATOM      2  C   UNL d   1       0.798   1.918   1.916  0.00  0.00     0.042 A 
ATOM      3  C   UNL d   1       2.358   2.302   3.724  0.00  0.00     0.031 A 
ATOM      4  C   UNL d   1       0.059   2.846   4.023  0.00  0.00     0.031 A 
ATOM      5  C   UNL d   1      -0.224   2.415   2.712  0.00  0.00     0.032 A 
ATOM      6  C   UNL d   1       2.092   1.877   2.417  0.00  0.00     0.032 A 
ENDROOT
BRANCH   2   7
ATOM      7  N   UNL d   1       0.576   1.395   0.613  0.00  0.00    -0.280 N 
ATOM      8  H   UNL d   1      -0.095   0.629   0.548  0.00  0.00     0.179 HD
BRANCH   7   9
ATOM      9  S   UNL d   1       0.431   2.464  -0.688  0.00  0.00     0.269 S 
ATOM     10  O   UNL d   1       0.143   1.659  -1.852  0.00  0.00    -0.200 OA
ATOM     11  O   UNL d   1      -0.433   3.561  -0.308  0.00  0.00    -0.200 OA
BRANCH   9  12
ATOM     12  C   UNL d   1       2.021   3.194  -0.984  0.00  0.00     0.120 A 
ATOM     13  S   UNL d   1       3.311   2.110  -1.293  0.00  0.00    -0.088 SA
ATOM     14  C   UNL d   1       4.443   3.390  -1.408  0.00  0.00     0.051 A 
ATOM     15  C   UNL d   1       3.846   4.621  -1.246  0.00  0.00     0.009 A 
ATOM     16  C   UNL d   1       2.446   4.508  -1.009  0.00  0.00     0.033 A 
ENDBRANCH   9  12
ENDBRANCH   7   9
ENDBRANCH   2   7
BRANCH   1  17
ATOM     17  N   UNL d   1       1.623   3.199   5.867  0.00  0.00    -0.381 N 
ATOM     18  C   UNL d   1       2.950   3.658   6.291  0.00  0.00     0.123 C 
ATOM     19  C   UNL d   1       3.522   2.703   7.338  0.00  0.00     0.020 C 
ATOM     20  C   UNL d   1       2.557   2.528   8.509  0.00  0.00     0.003 C 
ATOM     21  C   UNL d   1       1.164   2.130   8.023  0.00  0.00     0.020 C 
ATOM     22  C   UNL d   1       0.638   3.086   6.948  0.00  0.00     0.123 C 
ENDBRANCH   1  17
TORSDOF 4
