REMARK  4 active torsions:
REMARK  status: ('A' for Active; 'I' for Inactive)
REMARK    1  A    between atoms: C_2  and  C_1 
REMARK    2  A    between atoms: N_6  and  C_3 
REMARK       I    between atoms: C_4  and  N_5 
REMARK    3  A    between atoms: C_13  and  C_4 
REMARK    4  A    between atoms: N_5  and  N_6 
ROOT
ATOM      1  C   UNL d   1       0.807   3.505  -0.006  0.00  0.00     0.087 A 
ATOM      2  C   UNL d   1       1.354   2.272  -0.365  0.00  0.00     0.113 A 
ATOM      3  N   UNL d   1       0.612   1.131  -0.324  0.00  0.00    -0.355 N 
ATOM      4  HN  UNL d   1       1.023   0.232  -0.578  1.00  0.00     0.166 HD
ATOM      5  C   UNL d   1      -0.548   3.555   0.380  0.00  0.00     0.021 A 
ATOM      6  C   UNL d   1      -0.684   1.215   0.061  0.00  0.00     0.089 A 
ATOM      7  C   UNL d   1      -1.306   2.393   0.417  0.00  0.00     0.018 A 
ENDROOT
BRANCH   2   8
ATOM      8  N   UNL d   1       2.737   2.148  -0.643  0.00  0.00    -0.187 NA
ATOM      9  H   UNL d   1       3.123   2.970  -1.122  0.00  0.00     0.154 HD
BRANCH   8  10
ATOM     10  N   UNL d   1       3.054   0.989  -1.381  0.00  0.00    -0.285 N 
ATOM     11  C   UNL d   1       3.992   1.128  -2.388  0.00  0.00     0.235 C 
ATOM     12  O   UNL d   1       4.480   2.223  -2.668  0.00  0.00    -0.272 OA
ATOM     13  H   UNL d   1       2.598   0.126  -1.093  0.00  0.00     0.184 HD
BRANCH  11  14
ATOM     14  C   UNL d   1       4.362  -0.165  -3.107  0.00  0.00     0.071 C 
ATOM     15  C   UNL d   1       3.182  -0.692  -3.918  0.00  0.00     0.019 C 
ATOM     16  C   UNL d   1       5.571   0.054  -4.019  0.00  0.00     0.019 C 
ENDBRANCH  11  14
ENDBRANCH   8  10
ENDBRANCH   2   8
BRANCH   1  17
ATOM     17  C   UNL d   1       1.579   4.787  -0.040  0.00  0.00     0.420 C 
ATOM     18  F   UNL d   1       2.881   4.670  -0.419  0.00  0.00    -0.166 F 
ATOM     19  F   UNL d   1       1.597   5.418   1.170  0.00  0.00    -0.166 F 
ATOM     20  F   UNL d   1       1.031   5.686  -0.909  0.00  0.00    -0.166 F 
ENDBRANCH   1  17
TORSDOF 4
