REMARK  7 active torsions:
REMARK  status: ('A' for Active; 'I' for Inactive)
REMARK    1  A    between atoms: C_9  and  C_1 
REMARK    2  A    between atoms: N_18  and  C_3 
REMARK    3  A    between atoms: C_12  and  C_6 
REMARK       I    between atoms: N_14  and  C_9 
REMARK    4  A    between atoms: C_22  and  C_10 
REMARK    5  A    between atoms: C_13  and  N_15 
REMARK    6  A    between atoms: N_24  and  C_13 
REMARK    7  A    between atoms: N_15  and  N_14 
ROOT
ATOM      1  C   UNL d   1       2.417   0.070   0.019  0.00  0.00     0.174 A 
ATOM      2  C   UNL d   1       0.294   0.869   0.029  0.00  0.00     0.058 A 
ATOM      3  C   UNL d   1       1.671   1.229   0.077  0.00  0.00     0.081 A 
ATOM      4  C   UNL d   1       0.293  -0.526  -0.027  0.00  0.00     0.162 A 
ATOM      5  O   UNL d   1       1.573  -1.007  -0.035  0.00  0.00    -0.285 OA
ATOM      6  C   UNL d   1      -0.966   1.503   0.046  0.00  0.00     0.017 A 
ATOM      7  N   UNL d   1      -0.776  -1.344  -0.069  0.00  0.00    -0.335 N 
ATOM      8  HN  UNL d   1      -0.692  -2.360  -0.100  1.00  0.00     0.168 HD
ATOM      9  C   UNL d   1      -1.972  -0.710  -0.067  0.00  0.00     0.045 A 
ATOM     10  C   UNL d   1      -2.099   0.678   0.006  0.00  0.00     0.045 A 
ENDROOT
BRANCH   1  11
ATOM     11  C   UNL d   1       3.850  -0.118   0.001  0.00  0.00     0.296 C 
ATOM     12  N   UNL d   1       4.280  -1.432  -0.014  0.00  0.00    -0.262 N 
ATOM     13  H   UNL d   1       3.633  -2.218  -0.016  0.00  0.00     0.190 HD
ATOM     14  O   UNL d   1       4.667   0.810  -0.007  0.00  0.00    -0.264 OA
BRANCH  12  15
ATOM     15  N   UNL d   1       5.658  -1.687  -0.030  0.00  0.00    -0.274 N 
ATOM     16  H   UNL d   1       6.251  -0.860  -0.025  0.00  0.00     0.189 HD
BRANCH  15  17
ATOM     17  C   UNL d   1       6.170  -2.973  -0.052  0.00  0.00     0.186 C 
ATOM     18  S   UNL d   1       5.209  -4.344  -0.064  0.00  0.00    -0.040 SA
BRANCH  17  19
ATOM     19  N   UNL d   1       7.550  -2.961  -0.060  0.00  0.00    -0.370 N 
ATOM     20  C   UNL d   1       8.443  -4.106  -0.080  0.00  0.00     0.148 C 
ATOM     21  H   UNL d   1       8.002  -2.057  -0.047  0.00  0.00     0.161 HD
ENDBRANCH  17  19
ENDBRANCH  15  17
ENDBRANCH  12  15
ENDBRANCH   1  11
BRANCH   3  22
ATOM     22  N   UNL d   1       2.186   2.472   0.161  0.00  0.00    -0.396 N 
ATOM     23  H   UNL d   1       1.601   3.280  -0.049  0.00  0.00     0.156 HD
ATOM     24  H   UNL d   1       3.182   2.636   0.006  0.00  0.00     0.156 HD
ENDBRANCH   3  22
BRANCH   6  25
ATOM     25  C   UNL d   1      -1.108   2.949   0.130  0.00  0.00     0.086 A 
ATOM     26  O   UNL d   1      -0.154   3.712  -0.481  0.00  0.00    -0.322 OA
ATOM     27  C   UNL d   1      -0.482   5.014  -0.283  0.00  0.00     0.142 A 
ATOM     28  C   UNL d   1      -1.654   5.110   0.425  0.00  0.00     0.027 A 
ATOM     29  C   UNL d   1      -2.069   3.780   0.677  0.00  0.00     0.040 A 
ENDBRANCH   6  25
BRANCH   9  30
ATOM     30  C   UNL d   1      -3.170  -1.581  -0.149  0.00  0.00    -0.009 A 
ATOM     31  C   UNL d   1      -3.221  -2.816   0.520  0.00  0.00     0.013 A 
ATOM     32  C   UNL d   1      -4.359  -3.630   0.461  0.00  0.00     0.001 A 
ATOM     33  C   UNL d   1      -5.470  -3.229  -0.276  0.00  0.00     0.000 A 
ATOM     34  C   UNL d   1      -5.443  -2.017  -0.957  0.00  0.00     0.001 A 
ATOM     35  C   UNL d   1      -4.306  -1.205  -0.895  0.00  0.00     0.013 A 
ENDBRANCH   9  30
TORSDOF 7
