REMARK  4 active torsions:
REMARK  status: ('A' for Active; 'I' for Inactive)
REMARK    1  A    between atoms: C_10  and  N_1 
REMARK    2  A    between atoms: N_8  and  C_5 
REMARK       I    between atoms: C_7  and  N_8 
REMARK       I    between atoms: N_11  and  C_7 
REMARK    3  A    between atoms: C_14  and  N_11 
REMARK    4  A    between atoms: O_27  and  C_23 
ROOT
ATOM      1  C   UNL d   1      -2.192   2.591  -0.009  0.00  0.00     0.325 C 
ATOM      2  N   UNL d   1      -0.836   2.361   0.163  0.00  0.00    -0.305 N 
ATOM      3  N   UNL d   1      -2.609   3.730   0.653  0.00  0.00    -0.309 N 
ATOM      4  O   UNL d   1      -2.930   1.869  -0.667  0.00  0.00    -0.247 OA
ATOM      5  H   UNL d   1      -0.252   3.159   0.365  0.00  0.00     0.171 HD
ATOM      6  H   UNL d   1      -1.912   4.429   0.857  0.00  0.00     0.170 HD
ENDROOT
BRANCH   2   7
ATOM      7  C   UNL d   1      -0.181   1.230  -0.310  0.00  0.00     0.077 C 
ATOM      8  C   UNL d   1      -0.669  -0.049  -0.512  0.00  0.00     0.059 C 
ATOM      9  N   UNL d   1       0.316  -0.700  -1.246  0.00  0.00    -0.259 N 
ATOM     10  C   UNL d   1      -1.903  -0.722  -0.021  0.00  0.00     0.073 C 
ATOM     11  N   UNL d   1       1.519  -0.085  -1.076  0.00  0.00    -0.302 N 
ATOM     12  C   UNL d   1       1.195   1.115  -0.593  0.00  0.00     0.139 C 
ATOM     13  HN  UNL d   1       2.449  -0.455  -1.273  1.00  0.00     0.186 HD
BRANCH   9  14
ATOM     14  C   UNL d   1       0.192  -1.808  -2.128  0.00  0.00     0.056 A 
ATOM     15  C   UNL d   1      -1.043  -2.135  -2.703  0.00  0.00     0.034 A 
ATOM     16  C   UNL d   1      -1.144  -3.186  -3.623  0.00  0.00     0.039 A 
ATOM     17  C   UNL d   1      -0.010  -3.915  -3.982  0.00  0.00     0.068 A 
ATOM     18  C   UNL d   1       1.223  -3.577  -3.421  0.00  0.00     0.039 A 
ATOM     19  C   UNL d   1       1.332  -2.526  -2.507  0.00  0.00     0.034 A 
BRANCH  17  20
ATOM     20  O   UNL d   1       0.027  -4.941  -4.885  0.00  0.00    -0.356 OA
ATOM     21  C   UNL d   1      -1.221  -5.524  -5.238  0.00  0.00     0.210 C 
ENDBRANCH  17  20
ENDBRANCH   9  14
ENDBRANCH   2   7
BRANCH   3  22
ATOM     22  C   UNL d   1      -3.948   4.056   0.953  0.00  0.00     0.039 A 
ATOM     23  C   UNL d   1      -4.989   3.123   0.897  0.00  0.00     0.069 A 
ATOM     24  C   UNL d   1      -6.283   3.460   1.305  0.00  0.00     0.104 A 
ATOM     25  O   UNL d   1      -7.199   2.442   1.200  0.00  0.00    -0.348 OA
ATOM     26  C   UNL d   1      -6.534   4.737   1.817  0.00  0.00     0.102 A 
ATOM     27  C   UNL d   1      -8.537   2.878   0.969  0.00  0.00     0.178 C 
ATOM     28  C   UNL d   1      -9.224   3.238   2.276  0.00  0.00     0.053 C 
ATOM     29  C   UNL d   1      -8.345   4.119   3.146  0.00  0.00     0.178 C 
ATOM     30  O   UNL d   1      -7.723   5.146   2.368  0.00  0.00    -0.348 OA
ATOM     31  C   UNL d   1      -5.517   5.694   1.815  0.00  0.00     0.042 A 
ATOM     32  C   UNL d   1      -4.226   5.351   1.398  0.00  0.00     0.032 A 
ENDBRANCH   3  22
TORSDOF 4
