REMARK  10 active torsions:
REMARK  status: ('A' for Active; 'I' for Inactive)
REMARK    1  A    between atoms: C_3  and  N_1 
REMARK    2  A    between atoms: C_8  and  C_3 
REMARK    3  A    between atoms: C_18  and  C_16 
REMARK    4  A    between atoms: O_23  and  C_16 
REMARK    5  A    between atoms: C_17  and  C_19 
REMARK    6  A    between atoms: O_22  and  C_17 
REMARK    7  A    between atoms: C_28  and  C_26 
REMARK    8  A    between atoms: O_32  and  C_26 
REMARK    9  A    between atoms: C_27  and  C_29 
REMARK   10  A    between atoms: O_33  and  C_27 
ROOT
ATOM      1  C   UNL d   2      -1.424   2.946  -1.944  0.00  0.00     0.088 C 
ATOM      2  C   UNL d   2      -0.789   3.835  -1.168  0.00  0.00     0.088 C 
ENDROOT
BRANCH   1   3
ATOM      3  C   UNL d   2      -1.377   1.508  -1.679  0.00  0.00     0.165 C 
ATOM      4  O   UNL d   2      -2.312   0.733  -1.784  0.00  0.00    -0.647 OA
BRANCH   3   5
ATOM      5  O   UNL d   2      -0.139   1.091  -1.417  0.00  0.00    -0.773 OA
ATOM      6  H   UNL d   2      -0.217   0.114  -1.388  0.00  0.00     0.167 HD
ENDBRANCH   3   5
ENDBRANCH   1   3
BRANCH   2   7
ATOM      7  C   UNL d   2      -0.784   5.243  -1.594  0.00  0.00     0.165 C 
ATOM      8  O   UNL d   2      -1.118   5.620  -2.705  0.00  0.00    -0.647 OA
BRANCH   7   9
ATOM      9  O   UNL d   2      -0.343   6.073  -0.634  0.00  0.00    -0.773 OA
ATOM     10  H   UNL d   2      -0.158   5.671   0.234  0.00  0.00     0.167 HD
ENDBRANCH   7   9
ENDBRANCH   2   7
TORSDOF 10
