REMARK  8 active torsions:
REMARK  status: ('A' for Active; 'I' for Inactive)
REMARK    1  A    between atoms: N_6  and  C_1 
REMARK    2  A    between atoms: C_8  and  C_2 
REMARK    3  A    between atoms: C_7  and  N_6 
REMARK    4  A    between atoms: N_12  and  C_7 
REMARK    5  A    between atoms: O_14  and  C_8 
REMARK    6  A    between atoms: C_16  and  N_12 
REMARK    7  A    between atoms: C_19  and  O_14 
REMARK    8  A    between atoms: C_18  and  C_16 
ROOT
ATOM      1  C   UNL d   1       2.456  -0.770   0.096  0.00  0.00     0.093 A 
ATOM      2  C   UNL d   1       1.962   0.525   0.075  0.00  0.00     0.080 A 
ATOM      3  C   UNL d   1       0.506   0.496   0.151  0.00  0.00    -0.026 A 
ATOM      4  C   UNL d   1       0.012  -0.792   0.177  0.00  0.00    -0.008 A 
ATOM      5  S   UNL d   1       1.234  -1.958   0.167  0.00  0.00    -0.075 SA
ATOM      6  C   UNL d   1      -0.414   1.686   0.042  0.00  0.00     0.041 C 
ATOM      7  C   UNL d   1      -1.434  -1.175   0.162  0.00  0.00     0.051 C 
ATOM      8  C   UNL d   1      -1.894   1.313   0.239  0.00  0.00     0.009 C 
ATOM      9  C   UNL d   1      -2.292  -0.028  -0.412  0.00  0.00    -0.014 C 
ATOM     10  C   UNL d   1      -2.209   0.029  -1.941  0.00  0.00     0.010 C 
ENDROOT
BRANCH   1  11
ATOM     11  N   UNL d   1       3.680  -1.384  -0.016  0.00  0.00    -0.327 N 
ATOM     12  H   UNL d   1       3.631  -2.384  -0.173  0.00  0.00     0.169 HD
BRANCH  11  13
ATOM     13  C   UNL d   1       4.923  -0.924   0.312  0.00  0.00     0.172 C 
ATOM     14  S   UNL d   1       5.329   0.131   1.540  0.00  0.00    -0.041 SA
BRANCH  13  15
ATOM     15  N   UNL d   1       5.938  -1.490  -0.424  0.00  0.00    -0.363 N 
ATOM     16  H   UNL d   1       6.857  -1.139  -0.181  0.00  0.00     0.162 HD
BRANCH  15  17
ATOM     17  C   UNL d   1       5.781  -2.001  -1.780  0.00  0.00     0.160 C 
BRANCH  17  18
ATOM     18  C   UNL d   1       5.320  -3.437  -1.865  0.00  0.00    -0.041 A 
ATOM     19  C   UNL d   1       4.467  -3.830  -2.909  0.00  0.00     0.009 A 
ATOM     20  C   UNL d   1       4.081  -5.164  -3.054  0.00  0.00     0.001 A 
ATOM     21  C   UNL d   1       4.546  -6.125  -2.160  0.00  0.00     0.000 A 
ATOM     22  C   UNL d   1       5.397  -5.751  -1.120  0.00  0.00     0.001 A 
ATOM     23  C   UNL d   1       5.786  -4.417  -0.976  0.00  0.00     0.009 A 
ENDBRANCH  17  18
ENDBRANCH  15  17
ENDBRANCH  13  15
ENDBRANCH  11  13
ENDBRANCH   1  11
BRANCH   2  24
ATOM     24  C   UNL d   1       2.711   1.759  -0.151  0.00  0.00     0.296 C 
ATOM     25  O   UNL d   1       2.332   2.853   0.259  0.00  0.00    -0.259 OA
BRANCH  24  26
ATOM     26  O   UNL d   1       3.766   1.590  -1.000  0.00  0.00    -0.318 OA
BRANCH  26  27
ATOM     27  C   UNL d   1       4.374   2.791  -1.492  0.00  0.00     0.174 C 
ATOM     28  C   UNL d   1       3.772   3.096  -2.853  0.00  0.00     0.034 C 
ENDBRANCH  26  27
ENDBRANCH  24  26
ENDBRANCH   2  24
TORSDOF 8
