REMARK  2 active torsions:
REMARK  status: ('A' for Active; 'I' for Inactive)
REMARK    1  A    between atoms: C_6  and  C_1 
REMARK    2  A    between atoms: C_10  and  C_6 
ROOT
ATOM      1  C   UNL d   1      -2.382   0.100   0.005  0.00  0.00     0.128 A 
ATOM      2  O   UNL d   1      -1.571  -1.001   0.005  0.00  0.00    -0.304 OA
ATOM      3  C   UNL d   1      -0.282  -0.565  -0.015  0.00  0.00     0.108 A 
ATOM      4  C   UNL d   1      -0.250   0.826  -0.028  0.00  0.00     0.004 A 
ATOM      5  C   UNL d   1      -1.607   1.244  -0.047  0.00  0.00     0.055 A 
ATOM      6  C   UNL d   1       0.862  -1.363  -0.013  0.00  0.00     0.070 A 
ATOM      7  C   UNL d   1       2.098  -0.714  -0.009  0.00  0.00     0.050 A 
ATOM      8  C   UNL d   1       1.000   1.470  -0.019  0.00  0.00     0.038 A 
ATOM      9  C   UNL d   1       2.160   0.680  -0.007  0.00  0.00     0.036 A 
ATOM     10 CL   UNL d   1       0.768  -3.076  -0.007  0.00  0.00    -0.081 Cl
ATOM     11 CL   UNL d   1       3.699   1.454   0.015  0.00  0.00    -0.084 Cl
ENDROOT
BRANCH   1  12
ATOM     12  C   UNL d   1      -3.819  -0.073   0.033  0.00  0.00     0.215 C 
ATOM     13  O   UNL d   1      -4.603   0.760  -0.418  0.00  0.00    -0.284 OA
BRANCH  12  14
ATOM     14  C   UNL d   1      -4.384  -1.300   0.670  0.00  0.00     0.017 A 
ATOM     15  C   UNL d   1      -5.583  -1.835   0.174  0.00  0.00     0.018 A 
ATOM     16  C   UNL d   1      -6.145  -2.963   0.776  0.00  0.00     0.043 A 
ATOM     17  C   UNL d   1      -5.516  -3.543   1.874  0.00  0.00     0.116 A 
ATOM     18  C   UNL d   1      -4.337  -3.015   2.386  0.00  0.00     0.043 A 
ATOM     19  F   UNL d   1      -6.059  -4.621   2.454  0.00  0.00    -0.206 F 
ATOM     20  C   UNL d   1      -3.771  -1.889   1.788  0.00  0.00     0.018 A 
ENDBRANCH  12  14
ENDBRANCH   1  12
TORSDOF 2
