REMARK  5 active torsions:
REMARK  status: ('A' for Active; 'I' for Inactive)
REMARK    1  A    between atoms: C_7  and  C_1 
REMARK    2  A    between atoms: C_8  and  C_3 
REMARK       I    between atoms: N_16  and  C_7 
REMARK    3  A    between atoms: C_20  and  N_16 
REMARK    4  A    between atoms: C_17  and  C_19 
REMARK    5  A    between atoms: C_19  and  C_20 
ROOT
ATOM      1  C   UNL d   1      -0.257  -1.070  -0.012  0.00  0.00     0.096 A 
ATOM      2  S   UNL d   1      -1.698  -0.131  -0.063  0.00  0.00    -0.063 SA
ATOM      3  C   UNL d   1      -0.778   1.319  -0.092  0.00  0.00     0.103 A 
ATOM      4  N   UNL d   1       0.528   1.136  -0.067  0.00  0.00    -0.351 N 
ATOM      5  HN  UNL d   1       1.219   1.887  -0.080  1.00  0.00     0.166 HD
ATOM      6  C   UNL d   1       0.838  -0.217  -0.018  0.00  0.00     0.029 A 
ATOM      7  C   UNL d   1       2.278  -0.591   0.023  0.00  0.00     0.070 C 
ENDROOT
BRANCH   1   8
ATOM      8  C   UNL d   1      -0.287  -2.523   0.035  0.00  0.00     0.260 C 
ATOM      9  O   UNL d   1       0.724  -3.222   0.086  0.00  0.00    -0.267 OA
ATOM     10  N   UNL d   1      -1.548  -3.086   0.011  0.00  0.00    -0.356 N 
ATOM     11  H   UNL d   1      -2.354  -2.468   0.050  0.00  0.00     0.162 HD
BRANCH  10  12
ATOM     12  C   UNL d   1      -1.803  -4.514   0.069  0.00  0.00     0.129 C 
BRANCH  12  13
ATOM     13  C   UNL d   1      -1.842  -5.066   1.494  0.00  0.00     0.076 C 
BRANCH  13  14
ATOM     14  C   UNL d   1      -2.973  -4.495   2.315  0.00  0.00     0.010 A 
ATOM     15  N   UNL d   1      -4.233  -4.679   1.849  0.00  0.00    -0.369 N 
ATOM     16  C   UNL d   1      -5.251  -4.202   2.602  0.00  0.00     0.088 A 
ATOM     17  HN  UNL d   1      -4.406  -5.158   0.966  1.00  0.00     0.165 HD
ATOM     18  C   UNL d   1      -5.077  -3.542   3.807  0.00  0.00     0.017 A 
ATOM     19  C   UNL d   1      -3.780  -3.362   4.271  0.00  0.00     0.003 A 
ATOM     20  C   UNL d   1      -2.712  -3.847   3.520  0.00  0.00     0.025 A 
ENDBRANCH  13  14
ENDBRANCH  12  13
ENDBRANCH  10  12
ENDBRANCH   1   8
BRANCH   3  21
ATOM     21  C   UNL d   1      -1.431   2.633  -0.130  0.00  0.00     0.081 A 
ATOM     22  N   UNL d   1      -2.791   2.678  -0.170  0.00  0.00    -0.361 N 
ATOM     23  C   UNL d   1      -3.340   3.914  -0.189  0.00  0.00     0.105 A 
ATOM     24  HN  UNL d   1      -3.361   1.832  -0.185  1.00  0.00     0.165 HD
ATOM     25  C   UNL d   1      -2.578   5.069  -0.164  0.00  0.00     0.104 A 
ATOM     26  N   UNL d   1      -1.228   5.042  -0.128  0.00  0.00    -0.372 N 
ATOM     27  C   UNL d   1      -0.675   3.801  -0.114  0.00  0.00     0.120 A 
ATOM     28  HN  UNL d   1      -0.664   5.892  -0.113  1.00  0.00     0.164 HD
ENDBRANCH   3  21
TORSDOF 5
