REMARK  6 active torsions:
REMARK  status: ('A' for Active; 'I' for Inactive)
REMARK    1  A    between atoms: N_4  and  C_2 
REMARK       I    between atoms: C_6  and  N_4 
REMARK    2  A    between atoms: C_15  and  C_6 
REMARK    3  A    between atoms: C_8  and  C_16 
REMARK    4  A    between atoms: O_13  and  C_8 
REMARK    5  A    between atoms: O_12  and  C_15 
REMARK    6  A    between atoms: C_16  and  O_12 
ROOT
ATOM      1  C   UNL d   1      -0.419   0.213   0.266  0.00  0.00     0.109 A 
ATOM      2  C   UNL d   1       0.220   1.448   0.043  0.00  0.00     0.058 A 
ATOM      3  C   UNL d   1      -1.767   0.043   0.722  0.00  0.00     0.105 C 
ATOM      4  N   UNL d   1      -2.824  -0.175   1.156  0.00  0.00    -0.191 NA
ATOM      5  C   UNL d   1       0.337  -0.965   0.166  0.00  0.00     0.139 A 
ATOM      6  F   UNL d   1      -0.242  -2.160   0.366  0.00  0.00    -0.204 F 
ATOM      7  C   UNL d   1       1.612   1.451  -0.196  0.00  0.00     0.031 A 
ATOM      8  C   UNL d   1       2.347   0.267  -0.273  0.00  0.00     0.005 A 
ATOM      9  C   UNL d   1       1.702  -0.949  -0.107  0.00  0.00     0.044 A 
ENDROOT
BRANCH   2  10
ATOM     10  N   UNL d   1      -0.366   2.740   0.041  0.00  0.00    -0.324 N 
ATOM     11  C   UNL d   1      -1.685   3.072  -0.216  0.00  0.00     0.245 C 
ATOM     12  O   UNL d   1      -2.576   2.291  -0.526  0.00  0.00    -0.271 OA
ATOM     13  H   UNL d   1       0.277   3.522  -0.039  0.00  0.00     0.169 HD
BRANCH  11  14
ATOM     14  C   UNL d   1      -1.928   4.579  -0.199  0.00  0.00     0.271 C 
BRANCH  14  15
ATOM     15  O   UNL d   1      -1.659   5.059  -1.515  0.00  0.00    -0.372 OA
BRANCH  15  16
ATOM     16  C   UNL d   1      -2.051   6.407  -1.712  0.00  0.00     0.277 C 
BRANCH  16  17
ATOM     17  C   UNL d   1      -1.129   7.451  -1.081  0.00  0.00     0.164 C 
ATOM     18  O   UNL d   1      -0.185   7.194  -0.347  0.00  0.00    -0.648 OA
BRANCH  17  19
ATOM     19  O   UNL d   1      -1.467   8.723  -1.402  0.00  0.00    -0.775 OA
ATOM     20  H   UNL d   1      -2.229   8.800  -2.008  0.00  0.00     0.167 HD
ENDBRANCH  17  19
ENDBRANCH  16  17
ENDBRANCH  15  16
ENDBRANCH  14  15
ENDBRANCH  11  14
ENDBRANCH   2  10
TORSDOF 6
