REMARK  2 active torsions:
REMARK  status: ('A' for Active; 'I' for Inactive)
REMARK    1  A    between atoms: S_12  and  C_5 
REMARK    2  A    between atoms: S_13  and  C_10 
ROOT
ATOM      1  C   UNL d   1       1.291  -0.796  -0.011  0.00  0.00     0.090 A 
ATOM      2  C   UNL d   1       0.765   0.496  -0.006  0.00  0.00     0.038 A 
ATOM      3  N   UNL d   1       2.583  -1.145  -0.009  0.00  0.00    -0.330 N 
ATOM      4  HN  UNL d   1       2.901  -2.114  -0.015  1.00  0.00     0.168 HD
ATOM      5  C   UNL d   1       1.750   1.502   0.015  0.00  0.00     0.082 A 
ATOM      6  N   UNL d   1       3.062   1.184   0.018  0.00  0.00    -0.331 N 
ATOM      7  HN  UNL d   1       3.773   1.915   0.032  1.00  0.00     0.168 HD
ATOM      8  S   UNL d   1       0.102  -2.012  -0.016  0.00  0.00    -0.075 SA
ATOM      9  C   UNL d   1      -0.690   0.437  -0.034  0.00  0.00    -0.029 A 
ATOM     10  C   UNL d   1       3.413  -0.105   0.004  0.00  0.00     0.143 A 
ATOM     11  C   UNL d   1      -1.149  -0.871  -0.007  0.00  0.00    -0.008 A 
ATOM     12  C   UNL d   1      -1.669   1.582  -0.048  0.00  0.00     0.040 C 
ATOM     13  C   UNL d   1      -2.585  -1.301  -0.009  0.00  0.00     0.047 C 
ATOM     14  C   UNL d   1      -3.104   1.138  -0.378  0.00  0.00     0.005 C 
ATOM     15  C   UNL d   1      -3.493  -0.132   0.385  0.00  0.00     0.005 C 
ENDROOT
BRANCH   5  16
ATOM     16  S   UNL d   1       1.395   3.233   0.026  0.00  0.00    -0.124 SA
ATOM     17  H   UNL d   1       0.149   3.176   0.489  0.00  0.00     0.108 HD
ENDBRANCH   5  16
BRANCH  10  18
ATOM     18  S   UNL d   1       5.148  -0.446   0.005  0.00  0.00    -0.107 SA
ATOM     19  H   UNL d   1       5.489   0.849   0.034  0.00  0.00     0.110 HD
ENDBRANCH  10  18
TORSDOF 2
