REMARK  4 active torsions:
REMARK  status: ('A' for Active; 'I' for Inactive)
REMARK    1  A    between atoms: C_6  and  C_1 
REMARK    2  A    between atoms: C_18  and  C_5 
REMARK    3  A    between atoms: C_7  and  C_8 
REMARK       I    between atoms: C_8  and  N_13 
REMARK    4  A    between atoms: N_13  and  C_18 
ROOT
ATOM      1  C   UNL d   1      -0.318  -0.450  -0.899  0.00  0.00     0.091 A 
ATOM      2  N   UNL d   1       0.742   0.280  -1.198  0.00  0.00    -0.351 N 
ATOM      3  HN  UNL d   1       1.078   0.457  -2.145  1.00  0.00     0.166 HD
ATOM      4  S   UNL d   1      -0.636  -0.596   0.788  0.00  0.00    -0.081 SA
ATOM      5  C   UNL d   1       1.336   0.775  -0.040  0.00  0.00     0.034 A 
ATOM      6  C   UNL d   1       0.719   0.385   1.133  0.00  0.00     0.078 A 
ENDROOT
BRANCH   5   7
ATOM      7  C   UNL d   1       2.537   1.656  -0.147  0.00  0.00     0.180 C 
BRANCH   7   8
ATOM      8  N   UNL d   1       3.731   0.845  -0.083  0.00  0.00    -0.355 N 
ATOM      9  C   UNL d   1       4.399   0.652   1.097  0.00  0.00     0.222 C 
ATOM     10  O   UNL d   1       4.055   1.148   2.163  0.00  0.00    -0.273 OA
ATOM     11  H   UNL d   1       3.980   0.316  -0.903  0.00  0.00     0.162 HD
BRANCH   9  12
ATOM     12  C   UNL d   1       5.620  -0.198   1.052  0.00  0.00     0.078 A 
ATOM     13  C   UNL d   1       6.862   0.368   0.397  0.00  0.00     0.015 A 
ATOM     14  C   UNL d   1       6.212  -0.860  -0.166  0.00  0.00     0.015 A 
ENDBRANCH   9  12
ENDBRANCH   7   8
ENDBRANCH   5   7
BRANCH   1  15
ATOM     15  C   UNL d   1      -1.127  -1.065  -1.930  0.00  0.00     0.038 A 
ATOM     16  S   UNL d   1      -2.533  -2.002  -1.607  0.00  0.00    -0.099 SA
ATOM     17  C   UNL d   1      -2.815  -2.302  -3.265  0.00  0.00     0.050 A 
ATOM     18  C   UNL d   1      -1.867  -1.705  -4.064  0.00  0.00     0.008 A 
ATOM     19  C   UNL d   1      -0.900  -0.992  -3.295  0.00  0.00     0.022 A 
ENDBRANCH   1  15
TORSDOF 4
