REMARK  2 active torsions:
REMARK  status: ('A' for Active; 'I' for Inactive)
REMARK    1  A    between atoms: S_6  and  C_1 
REMARK    2  A    between atoms: S_7  and  C_2 
ROOT
ATOM      1  C   UNL d   1       0.011  -1.411   0.013  0.00  0.00     0.139 A 
ATOM      2  C   UNL d   1       1.048   0.652   0.001  0.00  0.00     0.157 A 
ATOM      3  C   UNL d   1       1.236  -0.769   0.013  0.00  0.00     0.113 A 
ATOM      4  N   UNL d   1      -0.218   1.087   0.004  0.00  0.00    -0.315 N 
ATOM      5  HN  UNL d   1      -0.514   2.063   0.024  1.00  0.00     0.175 HD
ATOM      6  S   UNL d   1      -1.220  -0.230  -0.028  0.00  0.00    -0.000 SA
ATOM      7  C   UNL d   1       2.494  -1.455   0.021  0.00  0.00     0.104 C 
ATOM      8  N   UNL d   1       3.509  -2.013   0.042  0.00  0.00    -0.191 NA
ENDROOT
BRANCH   2   9
ATOM      9  S   UNL d   1       2.379   1.782  -0.004  0.00  0.00     0.189 S 
ATOM     10  O   UNL d   1       3.019   1.557   1.276  0.00  0.00    -0.222 OA
ATOM     11  O   UNL d   1       3.040   1.529  -1.267  0.00  0.00    -0.222 OA
ATOM     12  C   UNL d   1       1.657   3.403  -0.028  0.00  0.00     0.168 C 
ENDBRANCH   2   9
BRANCH   1  13
ATOM     13  S   UNL d   1      -0.528  -3.086  -0.010  0.00  0.00     0.181 S 
ATOM     14  O   UNL d   1      -1.379  -3.197  -1.174  0.00  0.00    -0.222 OA
ATOM     15  O   UNL d   1       0.681  -3.869   0.132  0.00  0.00    -0.222 OA
ATOM     16  C   UNL d   1      -1.504  -3.300   1.454  0.00  0.00     0.167 C 
ENDBRANCH   1  13
TORSDOF 2
