REMARK  5 active torsions:
REMARK  status: ('A' for Active; 'I' for Inactive)
REMARK    1  A    between atoms: N_3  and  S_1 
REMARK    2  A    between atoms: C_4  and  S_1 
REMARK    3  A    between atoms: N_2  and  C_7 
REMARK    4  A    between atoms: N_5  and  N_3 
REMARK    5  A    between atoms: C_17  and  C_16 
ROOT
ATOM      1  N   UNL d   1       0.362  -1.631   0.384  0.00  0.00    -0.223 N 
ATOM      2  H   UNL d   1      -0.274  -1.650   1.181  0.00  0.00     0.200 HD
ENDROOT
BRANCH   1   3
ATOM      3  S   UNL d   1       0.944  -0.086  -0.017  0.00  0.00     0.276 S 
ATOM      4  O   UNL d   1       2.389  -0.141  -0.104  0.00  0.00    -0.199 OA
ATOM      5  O   UNL d   1       0.277   0.845   0.871  0.00  0.00    -0.199 OA
BRANCH   3   6
ATOM      6  C   UNL d   1       0.283   0.172  -1.646  0.00  0.00     0.081 A 
ATOM      7  C   UNL d   1      -1.102   0.239  -1.819  0.00  0.00     0.026 A 
ATOM      8  C   UNL d   1      -1.626   0.439  -3.098  0.00  0.00     0.008 A 
ATOM      9  C   UNL d   1      -0.774   0.584  -4.202  0.00  0.00    -0.062 A 
ATOM     10  C   UNL d   1       0.613   0.542  -4.009  0.00  0.00     0.008 A 
ATOM     11  C   UNL d   1      -1.355   0.777  -5.573  0.00  0.00     0.048 C 
ATOM     12  C   UNL d   1       1.145   0.336  -2.733  0.00  0.00     0.026 A 
ENDBRANCH   3   6
ENDBRANCH   1   3
BRANCH   1  13
ATOM     13  N   UNL d   1       0.736  -2.772  -0.384  0.00  0.00    -0.302 N 
ATOM     14  C   UNL d   1       0.284  -3.906   0.043  0.00  0.00     0.119 C 
ATOM     15  HN  UNL d   1       1.322  -2.699  -1.215  1.00  0.00     0.186 HD
BRANCH  14  16
ATOM     16  C   UNL d   1       0.609  -5.162  -0.666  0.00  0.00    -0.019 A 
ATOM     17  C   UNL d   1       1.429  -5.130  -1.803  0.00  0.00     0.015 A 
ATOM     18  C   UNL d   1       1.744  -6.312  -2.477  0.00  0.00     0.037 A 
ATOM     19  C   UNL d   1       1.232  -7.528  -2.007  0.00  0.00     0.102 A 
ATOM     20  C   UNL d   1       0.411  -7.566  -0.869  0.00  0.00     0.037 A 
ATOM     21  C   UNL d   1       0.100  -6.377  -0.197  0.00  0.00     0.015 A 
BRANCH  19  22
ATOM     22  N   UNL d   1       1.561  -8.773  -2.716  0.00  0.00    -0.116 N 
ATOM     23  O   UNL d   1       2.288  -8.693  -3.716  0.00  0.00    -0.532 OA
ATOM     24  O   UNL d   1       1.088  -9.829  -2.269  0.00  0.00    -0.532 OA
ENDBRANCH  19  22
ENDBRANCH  14  16
ENDBRANCH   1  13
TORSDOF 5
