REMARK  4 active torsions:
REMARK  status: ('A' for Active; 'I' for Inactive)
REMARK    1  A    between atoms: C_2  and  C_1 
REMARK    2  A    between atoms: C_3  and  C_1 
REMARK    3  A    between atoms: C_6  and  C_2 
REMARK    4  A    between atoms: O_7  and  C_3 
ROOT
ATOM      1  N   UNL d   1      -2.431  -1.200  -0.085  0.00  0.00    -0.359 N 
ATOM      2  HN  UNL d   1      -1.910  -2.077  -0.063  1.00  0.00     0.166 HD
ATOM      3  C   UNL d   1      -1.810  -0.003  -0.044  0.00  0.00     0.086 A 
ATOM      4  C   UNL d   1      -3.781  -1.175  -0.155  0.00  0.00     0.089 A 
ATOM      5  C   UNL d   1      -2.471   1.216  -0.072  0.00  0.00     0.039 A 
ATOM      6  C   UNL d   1      -4.531  -0.009  -0.195  0.00  0.00     0.017 A 
ATOM      7  C   UNL d   1      -3.861   1.209  -0.151  0.00  0.00     0.004 A 
ENDROOT
BRANCH   3   8
ATOM      8  C   UNL d   1      -0.383  -0.061  -0.001  0.00  0.00    -0.046 C 
BRANCH   8   9
ATOM      9  C   UNL d   1       0.921  -0.061  -0.001  0.00  0.00    -0.062 C 
BRANCH   9  10
ATOM     10  C   UNL d   1       2.441  -0.061  -0.001  0.00  0.00     0.114 C 
ATOM     11  C   UNL d   1       2.959   0.925  -1.046  0.00  0.00     0.060 C 
ATOM     12  C   UNL d   1       2.960   0.294   1.389  0.00  0.00     0.060 C 
BRANCH  10  13
ATOM     13  O   UNL d   1       2.907  -1.364  -0.334  0.00  0.00    -0.378 OA
ATOM     14  H   UNL d   1       2.424  -1.644  -1.130  0.00  0.00     0.211 HD
ENDBRANCH  10  13
ENDBRANCH   9  10
ENDBRANCH   8   9
ENDBRANCH   3   8
TORSDOF 4
