REMARK  3 active torsions:
REMARK  status: ('A' for Active; 'I' for Inactive)
REMARK    1  A    between atoms: C_11  and  C_3 
REMARK    2  A    between atoms: O_15  and  C_11 
REMARK    3  A    between atoms: C_18  and  O_15 
ROOT
ATOM      1  C   UNL d   1      -1.020   0.921  -0.040  0.00  0.00     0.148 A 
ATOM      2  N   UNL d   1      -1.213  -0.454  -0.049  0.00  0.00    -0.203 N 
ATOM      3  C   UNL d   1      -2.262   1.511  -0.033  0.00  0.00     0.102 A 
ATOM      4  C   UNL d   1      -0.171  -1.407  -0.027  0.00  0.00     0.276 A 
ATOM      5  C   UNL d   1       1.175  -0.787  -0.014  0.00  0.00     0.034 A 
ATOM      6  N   UNL d   1       0.244   1.409  -0.020  0.00  0.00    -0.343 N 
ATOM      7  N   UNL d   1      -2.535  -0.775  -0.065  0.00  0.00    -0.300 N 
ATOM      8  HN  UNL d   1      -2.957  -1.704  -0.082  1.00  0.00     0.186 HD
ATOM      9  C   UNL d   1       1.303   0.542  -0.010  0.00  0.00     0.022 A 
ATOM     10  C   UNL d   1      -3.152   0.411  -0.054  0.00  0.00     0.129 A 
ATOM     11  O   UNL d   1      -0.381  -2.613  -0.021  0.00  0.00    -0.266 OA
ATOM     12  C   UNL d   1       2.464  -1.507  -0.012  0.00  0.00     0.046 A 
ATOM     13  C   UNL d   1       2.728   0.967  -0.006  0.00  0.00     0.058 A 
ATOM     14  C   UNL d   1       3.493  -0.366   0.010  0.00  0.00     0.011 A 
ATOM     15  H   UNL d   1       0.437   2.413   0.004  0.00  0.00     0.167 HD
ENDROOT
BRANCH   3  16
ATOM     16  C   UNL d   1      -2.530   2.924   0.052  0.00  0.00     0.298 C 
ATOM     17  O   UNL d   1      -1.646   3.770   0.147  0.00  0.00    -0.259 OA
BRANCH  16  18
ATOM     18  O   UNL d   1      -3.865   3.186   0.110  0.00  0.00    -0.318 OA
BRANCH  18  19
ATOM     19  C   UNL d   1      -4.206   4.465   0.658  0.00  0.00     0.174 C 
ATOM     20  C   UNL d   1      -4.282   4.317   2.167  0.00  0.00     0.034 C 
ENDBRANCH  18  19
ENDBRANCH  16  18
ENDBRANCH   3  16
TORSDOF 3
