REMARK  4 active torsions:
REMARK  status: ('A' for Active; 'I' for Inactive)
REMARK    1  A    between atoms: C_3  and  C_1 
REMARK    2  A    between atoms: N_6  and  C_2 
REMARK    3  A    between atoms: N_8  and  N_6 
REMARK       I    between atoms: C_7  and  N_8 
REMARK    4  A    between atoms: C_10  and  C_7 
ROOT
ATOM      1  N   UNL d   1      -3.699   0.015   0.087  0.00  0.00    -0.182 NA
ATOM      2  C   UNL d   1      -4.756  -1.007   0.025  0.00  0.00     0.144 C 
ENDROOT
BRANCH   1   3
ATOM      3  C   UNL d   1      -2.560  -0.392   0.825  0.00  0.00     0.115 A 
ATOM      4  C   UNL d   1      -1.412   0.406   0.904  0.00  0.00     0.089 A 
ATOM      5  C   UNL d   1      -0.402   0.052   1.826  0.00  0.00     0.044 A 
ATOM      6  C   UNL d   1      -0.508  -1.115   2.562  0.00  0.00     0.050 A 
ATOM      7  C   UNL d   1      -1.614  -1.906   2.349  0.00  0.00     0.113 A 
ATOM      8 CL   UNL d   1       0.695  -1.554   3.700  0.00  0.00    -0.083 Cl
ATOM      9  N   UNL d   1      -2.629  -1.560   1.521  0.00  0.00    -0.353 N 
ATOM     10  HN  UNL d   1      -3.440  -2.171   1.419  1.00  0.00     0.166 HD
BRANCH   4  11
ATOM     11  C   UNL d   1      -1.207   1.640   0.075  0.00  0.00     0.420 C 
ATOM     12  F   UNL d   1      -1.845   1.681  -1.121  0.00  0.00    -0.166 F 
ATOM     13  F   UNL d   1      -1.571   2.770   0.750  0.00  0.00    -0.166 F 
ATOM     14  F   UNL d   1       0.115   1.826  -0.230  0.00  0.00    -0.166 F 
ENDBRANCH   4  11
ENDBRANCH   1   3
BRANCH   1  15
ATOM     15  N   UNL d   1      -4.176   1.279   0.527  0.00  0.00    -0.280 N 
ATOM     16  C   UNL d   1      -4.903   2.078  -0.342  0.00  0.00     0.266 C 
ATOM     17  O   UNL d   1      -5.218   1.777  -1.491  0.00  0.00    -0.266 OA
ATOM     18  H   UNL d   1      -4.227   1.418   1.535  0.00  0.00     0.184 HD
BRANCH  16  19
ATOM     19  C   UNL d   1      -5.357   3.377   0.226  0.00  0.00     0.033 A 
ATOM     20  C   UNL d   1      -4.604   4.052   1.201  0.00  0.00     0.018 A 
ATOM     21  C   UNL d   1      -5.041   5.285   1.694  0.00  0.00     0.025 A 
ATOM     22  C   UNL d   1      -6.225   5.843   1.214  0.00  0.00     0.034 A 
ATOM     23  C   UNL d   1      -6.976   5.184   0.243  0.00  0.00     0.025 A 
ATOM     24 CL   UNL d   1      -6.750   7.366   1.817  0.00  0.00    -0.084 Cl
ATOM     25  C   UNL d   1      -6.538   3.953  -0.256  0.00  0.00     0.018 A 
ENDBRANCH  16  19
ENDBRANCH   1  15
TORSDOF 4
