REMARK  1 active torsions:
REMARK  status: ('A' for Active; 'I' for Inactive)
REMARK    1  A    between atoms: C_2  and  N_1 
ROOT
ATOM      1  C   UNL d   1       2.891  -3.518  -0.339  0.00  0.00     0.141 C 
ATOM      2  C   UNL d   1       3.317  -4.866  -0.320  0.00  0.00     0.051 A 
ATOM      3  C   UNL d   1       3.987  -5.228   0.848  0.00  0.00     0.090 A 
ATOM      4  S   UNL d   1       4.443  -6.863   0.906  0.00  0.00    -0.075 SA
ATOM      5  C   UNL d   1       3.335  -5.992  -1.252  0.00  0.00    -0.028 A 
ATOM      6  C   UNL d   1       3.937  -7.110  -0.691  0.00  0.00    -0.008 A 
ATOM      7  N   UNL d   1       3.297  -2.675   0.658  0.00  0.00    -0.336 N 
ATOM      8  HN  UNL d   1       3.103  -1.675   0.601  1.00  0.00     0.168 HD
ATOM      9  N   UNL d   1       4.300  -4.442   1.892  0.00  0.00    -0.346 N 
ATOM     10  HN  UNL d   1       4.759  -4.783   2.737  1.00  0.00     0.167 HD
ATOM     11  C   UNL d   1       3.950  -3.177   1.707  0.00  0.00     0.183 C 
ATOM     12  C   UNL d   1       2.933  -6.003  -2.706  0.00  0.00     0.041 C 
ATOM     13  C   UNL d   1       4.171  -8.424  -1.369  0.00  0.00     0.047 C 
ATOM     14  C   UNL d   1       2.895  -7.423  -3.303  0.00  0.00     0.005 C 
ATOM     15  C   UNL d   1       4.108  -8.261  -2.890  0.00  0.00     0.005 C 
ENDROOT
BRANCH   1  16
ATOM     16  N   UNL d   1       1.952  -2.975  -1.264  0.00  0.00    -0.243 N 
ATOM     17  N   UNL d   1       0.900  -3.715  -1.713  0.00  0.00    -0.297 N 
ATOM     18  C   UNL d   1       0.009  -2.815  -2.152  0.00  0.00     0.024 C 
ATOM     19  HN  UNL d   1       0.811  -4.731  -1.714  1.00  0.00     0.187 HD
ATOM     20  C   UNL d   1      -1.361  -3.232  -2.538  0.00  0.00     0.070 C 
ATOM     21  C   UNL d   1       0.534  -1.513  -2.146  0.00  0.00     0.052 C 
ATOM     22  C   UNL d   1       1.792  -1.633  -1.598  0.00  0.00     0.034 C 
ATOM     23  C   UNL d   1       2.817  -0.587  -1.351  0.00  0.00     0.070 C 
ENDBRANCH   1  16
TORSDOF 1
