REMARK  4 active torsions:
REMARK  status: ('A' for Active; 'I' for Inactive)
REMARK    1  A    between atoms: C_4  and  C_1 
REMARK    2  A    between atoms: N_2  and  C_3 
REMARK    3  A    between atoms: O_5  and  C_4 
REMARK    4  A    between atoms: C_6  and  O_5 
ROOT
ATOM      1  C   UNL d   1       3.859  -0.233   0.140  0.00  0.00     0.301 C 
ATOM      2  O   UNL d   1       4.551   0.760   0.280  0.00  0.00    -0.259 OA
ENDROOT
BRANCH   1   3
ATOM      3  C   UNL d   1       2.371  -0.228   0.170  0.00  0.00     0.072 A 
ATOM      4  C   UNL d   1       1.624   0.895  -0.188  0.00  0.00     0.120 A 
ATOM      5  C   UNL d   1       0.237   0.963   0.026  0.00  0.00     0.060 A 
ATOM      6  C   UNL d   1      -0.411  -0.134   0.589  0.00  0.00     0.036 A 
ATOM      7  C   UNL d   1       0.304  -1.284   0.918  0.00  0.00     0.025 A 
ATOM      8 CL   UNL d   1      -2.106  -0.078   0.869  0.00  0.00    -0.084 Cl
ATOM      9  C   UNL d   1       1.685  -1.333   0.717  0.00  0.00     0.022 A 
BRANCH   4  10
ATOM     10  N   UNL d   1       2.237   1.987  -0.914  0.00  0.00    -0.115 N 
ATOM     11  O   UNL d   1       2.746   1.703  -2.006  0.00  0.00    -0.532 OA
ATOM     12  O   UNL d   1       2.109   3.123  -0.440  0.00  0.00    -0.532 OA
ENDBRANCH   4  10
ENDBRANCH   1   3
BRANCH   1  13
ATOM     13  O   UNL d   1       4.282  -1.542   0.012  0.00  0.00    -0.273 OA
BRANCH  13  14
ATOM     14  C   UNL d   1       5.537  -1.833   0.570  0.00  0.00     0.101 A 
ATOM     15  C   UNL d   1       5.734  -1.865   1.958  0.00  0.00     0.069 A 
ATOM     16  C   UNL d   1       6.943  -2.330   2.475  0.00  0.00     0.050 A 
ATOM     17 CL   UNL d   1       4.494  -1.425   3.075  0.00  0.00    -0.081 Cl
ATOM     18  C   UNL d   1       7.937  -2.776   1.605  0.00  0.00     0.035 A 
ATOM     19  C   UNL d   1       7.738  -2.753   0.223  0.00  0.00     0.026 A 
ATOM     20 CL   UNL d   1       9.408  -3.397   2.246  0.00  0.00    -0.084 Cl
ATOM     21  C   UNL d   1       6.531  -2.282  -0.300  0.00  0.00     0.041 A 
ENDBRANCH  13  14
ENDBRANCH   1  13
TORSDOF 4
