REMARK  5 active torsions:
REMARK  status: ('A' for Active; 'I' for Inactive)
REMARK    1  A    between atoms: C_8  and  C_3 
REMARK    2  A    between atoms: C_15  and  N_4 
REMARK    3  A    between atoms: C_18  and  C_8 
REMARK    4  A    between atoms: O_20  and  C_12 
REMARK    5  A    between atoms: O_21  and  C_14 
ROOT
ATOM      1  C   UNL d   1      -0.422   2.457   0.320  0.00  0.00     0.138 C 
ATOM      2  N   UNL d   1      -1.780   2.250   0.854  0.00  0.00    -0.232 NA
ATOM      3  C   UNL d   1      -2.471   3.324   0.278  0.00  0.00     0.151 C 
ATOM      4  N   UNL d   1      -0.672   3.243  -0.919  0.00  0.00    -0.262 N 
ATOM      5  N   UNL d   1      -1.908   3.865  -0.781  0.00  0.00    -0.282 N 
ATOM      6  HN  UNL d   1      -2.299   4.594  -1.379  1.00  0.00     0.188 HD
ATOM      7  C   UNL d   1       0.461   1.234   0.190  0.00  0.00    -0.004 A 
ATOM      8  C   UNL d   1      -0.011  -0.050   0.485  0.00  0.00    -0.044 A 
ATOM      9  C   UNL d   1       1.817   1.402  -0.149  0.00  0.00     0.051 A 
ATOM     10  C   UNL d   1      -2.375   0.928   0.628  0.00  0.00     0.105 C 
ATOM     11  C   UNL d   1       2.714   0.339  -0.102  0.00  0.00     0.102 A 
ATOM     12  C   UNL d   1       0.880  -1.143   0.435  0.00  0.00     0.047 A 
ATOM     13  C   UNL d   1       2.240  -0.954   0.144  0.00  0.00     0.102 A 
ATOM     14  C   UNL d   1      -1.431  -0.238   0.955  0.00  0.00     0.054 C 
ATOM     15  C   UNL d   1       0.261   3.418   1.351  0.00  0.00     0.064 C 
ENDROOT
BRANCH   3  16
ATOM     16  C   UNL d   1      -3.693   3.988   0.896  0.00  0.00     0.221 C 
ATOM     17  O   UNL d   1      -4.553   3.315   1.445  0.00  0.00    -0.284 OA
BRANCH  16  18
ATOM     18  C   UNL d   1      -3.659   5.471   0.959  0.00  0.00     0.017 A 
ATOM     19  C   UNL d   1      -3.568   6.228  -0.216  0.00  0.00     0.015 A 
ATOM     20  C   UNL d   1      -3.358   7.605  -0.144  0.00  0.00     0.001 A 
ATOM     21  C   UNL d   1      -3.253   8.229   1.098  0.00  0.00     0.000 A 
ATOM     22  C   UNL d   1      -3.377   7.481   2.271  0.00  0.00     0.001 A 
ATOM     23  C   UNL d   1      -3.586   6.100   2.205  0.00  0.00     0.015 A 
ENDBRANCH  16  18
ENDBRANCH   3  16
BRANCH   4  24
ATOM     24  C   UNL d   1      -0.458   2.782  -2.224  0.00  0.00     0.053 A 
ATOM     25  C   UNL d   1      -0.833   1.515  -2.689  0.00  0.00     0.031 A 
ATOM     26  C   UNL d   1      -0.645   1.142  -4.024  0.00  0.00     0.002 A 
ATOM     27  C   UNL d   1      -0.077   2.037  -4.924  0.00  0.00     0.000 A 
ATOM     28  C   UNL d   1       0.292   3.306  -4.490  0.00  0.00     0.002 A 
ATOM     29  C   UNL d   1       0.092   3.675  -3.156  0.00  0.00     0.031 A 
ENDBRANCH   4  24
BRANCH  11  30
ATOM     30  O   UNL d   1       4.059   0.519  -0.316  0.00  0.00    -0.353 OA
ATOM     31  C   UNL d   1       4.595   1.663   0.351  0.00  0.00     0.210 C 
ENDBRANCH  11  30
BRANCH  13  32
ATOM     32  O   UNL d   1       3.187  -1.944   0.161  0.00  0.00    -0.353 OA
ATOM     33  C   UNL d   1       2.733  -3.270  -0.060  0.00  0.00     0.210 C 
ENDBRANCH  13  32
TORSDOF 5
