REMARK  5 active torsions:
REMARK  status: ('A' for Active; 'I' for Inactive)
REMARK    1  A    between atoms: C_2  and  C_1 
REMARK       I    between atoms: N_6  and  C_2 
REMARK    2  A    between atoms: O_8  and  C_3 
REMARK    3  A    between atoms: C_4  and  C_5 
REMARK    4  A    between atoms: C_7  and  N_6 
REMARK    5  A    between atoms: C_14  and  O_8 
ROOT
ATOM      1  C   UNL d   1       1.106   1.400   0.014  0.00  0.00     0.098 A 
ATOM      2  C   UNL d   1      -0.236   1.012  -0.115  0.00  0.00     0.164 A 
ATOM      3  C   UNL d   1       2.074   0.378   0.039  0.00  0.00     0.069 A 
ATOM      4  N   UNL d   1      -0.648  -0.285  -0.135  0.00  0.00    -0.346 N 
ATOM      5  HN  UNL d   1      -1.638  -0.520  -0.214  1.00  0.00     0.167 HD
ATOM      6  C   UNL d   1       0.282  -1.243  -0.049  0.00  0.00     0.091 A 
ATOM      7  C   UNL d   1       1.629  -0.962   0.015  0.00  0.00     0.034 A 
ENDROOT
BRANCH   1   8
ATOM      8  C   UNL d   1       1.382   2.840   0.269  0.00  0.00     0.261 C 
ATOM      9  N   UNL d   1       2.321   3.457  -0.528  0.00  0.00    -0.320 N 
ATOM     10  H   UNL d   1       2.718   2.918  -1.287  0.00  0.00     0.169 HD
ATOM     11  O   UNL d   1       0.720   3.362   1.159  0.00  0.00    -0.267 OA
BRANCH   9  12
ATOM     12  C   UNL d   1       2.834   4.778  -0.400  0.00  0.00     0.074 A 
ATOM     13  C   UNL d   1       2.610   5.657   0.675  0.00  0.00     0.146 A 
ATOM     14  C   UNL d   1       3.134   6.950   0.682  0.00  0.00     0.086 A 
ATOM     15  F   UNL d   1       1.950   5.287   1.777  0.00  0.00    -0.204 F 
ATOM     16  C   UNL d   1       3.915   7.375  -0.378  0.00  0.00     0.119 A 
ATOM     17  C   UNL d   1       4.198   6.521  -1.436  0.00  0.00     0.044 A 
ATOM     18  F   UNL d   1       4.418   8.615  -0.378  0.00  0.00    -0.206 F 
ATOM     19  C   UNL d   1       3.665   5.226  -1.444  0.00  0.00     0.036 A 
ENDBRANCH   9  12
ENDBRANCH   1   8
BRANCH   2  20
ATOM     20  O   UNL d   1      -1.217   1.989  -0.274  0.00  0.00    -0.293 OA
BRANCH  20  21
ATOM     21  C   UNL d   1      -2.338   1.589  -0.971  0.00  0.00     0.078 A 
ATOM     22  C   UNL d   1      -3.565   1.554  -0.307  0.00  0.00     0.044 A 
ATOM     23  C   UNL d   1      -4.711   1.107  -0.979  0.00  0.00    -0.059 A 
ATOM     24  C   UNL d   1      -6.037   1.023  -0.282  0.00  0.00     0.048 C 
ATOM     25  C   UNL d   1      -4.610   0.727  -2.325  0.00  0.00     0.007 A 
ATOM     26  C   UNL d   1      -3.387   0.799  -2.995  0.00  0.00     0.003 A 
ATOM     27  C   UNL d   1      -2.251   1.241  -2.321  0.00  0.00     0.037 A 
ENDBRANCH  20  21
ENDBRANCH   2  20
BRANCH   3  28
ATOM     28  C   UNL d   1       3.563   0.558   0.142  0.00  0.00     0.418 C 
ATOM     29  F   UNL d   1       4.039   1.784  -0.176  0.00  0.00    -0.166 F 
ATOM     30  F   UNL d   1       4.045   0.258   1.375  0.00  0.00    -0.166 F 
ATOM     31  F   UNL d   1       4.213  -0.285  -0.719  0.00  0.00    -0.166 F 
ENDBRANCH   3  28
TORSDOF 5
