REMARK  8 active torsions:
REMARK  status: ('A' for Active; 'I' for Inactive)
REMARK    1  A    between atoms: C_11  and  N_7 
REMARK    2  A    between atoms: N_15  and  C_10 
REMARK    3  A    between atoms: C_17  and  C_11 
REMARK    4  A    between atoms: C_26  and  N_15 
REMARK    5  A    between atoms: N_25  and  C_27 
REMARK    6  A    between atoms: C_28  and  N_25 
REMARK    7  A    between atoms: C_29  and  N_25 
REMARK    8  A    between atoms: C_27  and  C_26 
ROOT
ATOM      1  C   UNL d   1      -0.261  -0.775  -0.042  0.00  0.00     0.160 A 
ATOM      2  C   UNL d   1      -0.534   0.560  -0.025  0.00  0.00     0.165 A 
ATOM      3  N   UNL d   1      -1.385  -1.523  -0.074  0.00  0.00    -0.174 N 
ATOM      4  HN  UNL d   1      -1.449  -2.541  -0.083  1.00  0.00     0.186 HD
ATOM      5  N   UNL d   1       1.019  -1.266  -0.014  0.00  0.00    -0.287 N 
ATOM      6  N   UNL d   1       1.785   0.994   0.022  0.00  0.00    -0.269 N 
ATOM      7  N   UNL d   1      -1.908   0.638  -0.052  0.00  0.00    -0.170 N 
ATOM      8  C   UNL d   1       2.092  -0.378   0.018  0.00  0.00     0.332 A 
ATOM      9  C   UNL d   1       0.492   1.544   0.013  0.00  0.00     0.282 A 
ATOM     10  C   UNL d   1      -2.380  -0.663  -0.092  0.00  0.00     0.683 A 
ATOM     11  O   UNL d   1       3.256  -0.788   0.045  0.00  0.00    -0.246 OA
ATOM     12  O   UNL d   1       0.265   2.751   0.044  0.00  0.00    -0.265 OA
ATOM     13  C   UNL d   1       1.287  -2.692  -0.025  0.00  0.00     0.163 C 
ATOM     14  C   UNL d   1       2.890   1.938   0.038  0.00  0.00     0.164 C 
ENDROOT
BRANCH   7  15
ATOM     15  C   UNL d   1      -2.703   1.856  -0.062  0.00  0.00     0.186 C 
BRANCH  15  16
ATOM     16  C   UNL d   1      -3.116   2.337   1.315  0.00  0.00    -0.038 A 
ATOM     17  C   UNL d   1      -4.009   1.594   2.107  0.00  0.00     0.034 A 
ATOM     18  C   UNL d   1      -4.487   2.091   3.325  0.00  0.00     0.056 A 
ATOM     19 CL   UNL d   1      -5.606   1.112   4.207  0.00  0.00    -0.083 Cl
ATOM     20  C   UNL d   1      -4.077   3.347   3.770  0.00  0.00     0.055 A 
ATOM     21  C   UNL d   1      -3.171   4.089   3.008  0.00  0.00     0.026 A 
ATOM     22 CL   UNL d   1      -4.667   4.053   5.234  0.00  0.00    -0.083 Cl
ATOM     23  C   UNL d   1      -2.691   3.585   1.791  0.00  0.00     0.010 A 
ENDBRANCH  15  16
ENDBRANCH   7  15
BRANCH  10  24
ATOM     24  N   UNL d   1      -3.689  -0.989  -0.053  0.00  0.00    -0.224 N 
ATOM     25  H   UNL d   1      -4.399  -0.488  -0.581  0.00  0.00     0.177 HD
BRANCH  24  26
ATOM     26  C   UNL d   1      -3.993  -2.400   0.193  0.00  0.00     0.168 C 
BRANCH  26  27
ATOM     27  C   UNL d   1      -5.468  -2.616   0.587  0.00  0.00     0.292 C 
BRANCH  27  28
ATOM     28  N   UNL d   1      -6.491  -2.513  -0.484  0.00  0.00     0.089 N 
BRANCH  28  29
ATOM     29  C   UNL d   1      -6.243  -3.430  -1.612  0.00  0.00     0.268 C 
ATOM     30  C   UNL d   1      -6.335  -4.927  -1.317  0.00  0.00     0.037 C 
ENDBRANCH  28  29
BRANCH  28  31
ATOM     31  C   UNL d   1      -7.823  -2.697   0.132  0.00  0.00     0.268 C 
ATOM     32  C   UNL d   1      -9.000  -2.556  -0.826  0.00  0.00     0.037 C 
ENDBRANCH  28  31
ENDBRANCH  27  28
ENDBRANCH  26  27
ENDBRANCH  24  26
ENDBRANCH  10  24
TORSDOF 8
