REMARK  3 active torsions:
REMARK  status: ('A' for Active; 'I' for Inactive)
REMARK    1  A    between atoms: C_13  and  N_2 
REMARK    2  A    between atoms: C_12  and  C_8 
REMARK    3  A    between atoms: N_15  and  C_9 
REMARK       I    between atoms: N_16  and  C_12 
ROOT
ATOM      1  C   UNL d   1       0.119  -0.638   0.047  0.00  0.00     0.141 A 
ATOM      2  N   UNL d   1       1.450  -1.060   0.078  0.00  0.00    -0.239 N 
ATOM      3  N   UNL d   1       2.304   0.009   0.120  0.00  0.00    -0.296 N 
ATOM      4  HN  UNL d   1       3.321  -0.014   0.196  1.00  0.00     0.187 HD
ATOM      5  C   UNL d   1       0.154   0.748  -0.013  0.00  0.00     0.035 A 
ATOM      6  N   UNL d   1      -1.004  -1.396   0.086  0.00  0.00    -0.330 N 
ATOM      7  HN  UNL d   1      -0.976  -2.414   0.141  1.00  0.00     0.168 HD
ATOM      8  C   UNL d   1      -2.245   0.689  -0.036  0.00  0.00     0.070 A 
ATOM      9  C   UNL d   1      -2.163  -0.706   0.046  0.00  0.00     0.095 A 
ATOM     10  C   UNL d   1       1.522   1.088   0.040  0.00  0.00     0.036 A 
ATOM     11  C   UNL d   1      -1.062   1.438  -0.084  0.00  0.00     0.037 A 
ATOM     12  C   UNL d   1       2.131   2.442   0.047  0.00  0.00     0.070 C 
ENDROOT
BRANCH   2  13
ATOM     13  C   UNL d   1       1.983  -2.385   0.068  0.00  0.00     0.058 A 
ATOM     14  C   UNL d   1       1.174  -3.506  -0.155  0.00  0.00     0.031 A 
ATOM     15  C   UNL d   1       1.734  -4.789  -0.163  0.00  0.00     0.002 A 
ATOM     16  C   UNL d   1       3.099  -4.963   0.056  0.00  0.00     0.000 A 
ATOM     17  C   UNL d   1       3.913  -3.854   0.274  0.00  0.00     0.002 A 
ATOM     18  C   UNL d   1       3.361  -2.571   0.273  0.00  0.00     0.031 A 
ENDBRANCH   2  13
BRANCH   9  19
ATOM     19  N   UNL d   1      -3.299  -1.525   0.128  0.00  0.00    -0.288 NA
ATOM     20  H   UNL d   1      -3.927  -1.348  -0.652  0.00  0.00     0.125 HD
ATOM     21  H   UNL d   1      -2.966  -2.488   0.125  0.00  0.00     0.125 HD
ENDBRANCH   9  19
BRANCH   8  22
ATOM     22  C   UNL d   1      -3.515   1.456  -0.072  0.00  0.00     0.252 C 
ATOM     23  O   UNL d   1      -3.575   2.560  -0.600  0.00  0.00    -0.268 OA
ATOM     24  N   UNL d   1      -4.605   0.912   0.542  0.00  0.00    -0.366 N 
ATOM     25  H   UNL d   1      -4.539   0.049   1.073  0.00  0.00     0.159 HD
ATOM     26  H   UNL d   1      -5.441   1.476   0.614  0.00  0.00     0.159 HD
ENDBRANCH   8  22
TORSDOF 3
