REMARK  5 active torsions:
REMARK  status: ('A' for Active; 'I' for Inactive)
REMARK    1  A    between atoms: C_17  and  C_2 
REMARK    2  A    between atoms: S_13  and  C_7 
REMARK    3  A    between atoms: C_10  and  N_12 
REMARK    4  A    between atoms: C_11  and  C_22 
REMARK       I    between atoms: N_12  and  C_11 
REMARK    5  A    between atoms: C_22  and  S_13 
ROOT
ATOM      1  C   UNL d   1       0.455  -0.214   0.058  0.00  0.00     0.135 A 
ATOM      2  C   UNL d   1      -0.218  -1.390   0.059  0.00  0.00     0.042 A 
ATOM      3  N   UNL d   1      -1.652   0.831   0.556  0.00  0.00    -0.302 N 
ATOM      4  C   UNL d   1      -0.328   1.016   0.300  0.00  0.00     0.270 A 
ATOM      5  N   UNL d   1      -1.577  -1.495   0.325  0.00  0.00    -0.338 N 
ATOM      6  HN  UNL d   1      -2.050  -2.399   0.329  1.00  0.00     0.168 HD
ATOM      7  C   UNL d   1      -2.216  -0.400   0.567  0.00  0.00     0.147 A 
ATOM      8  C   UNL d   1       1.852  -0.083  -0.188  0.00  0.00     0.107 C 
ATOM      9  N   UNL d   1       2.993  -0.037  -0.390  0.00  0.00    -0.191 NA
ATOM     10  O   UNL d   1       0.166   2.137   0.273  0.00  0.00    -0.266 OA
ATOM     11  H   UNL d   1      -2.215   1.649   0.730  0.00  0.00     0.171 HD
ENDROOT
BRANCH   2  12
ATOM     12  C   UNL d   1       0.533  -2.700  -0.229  0.00  0.00     0.037 C 
ATOM     13  C   UNL d   1      -0.053  -3.990   0.373  0.00  0.00     0.011 C 
ATOM     14  C   UNL d   1       0.929  -5.152   0.163  0.00  0.00     0.001 C 
ATOM     15  C   UNL d   1       1.331  -5.336  -1.302  0.00  0.00     0.000 C 
ATOM     16  C   UNL d   1       1.741  -4.032  -1.983  0.00  0.00     0.001 C 
ATOM     17  C   UNL d   1       0.728  -2.916  -1.741  0.00  0.00     0.011 C 
ENDBRANCH   2  12
BRANCH   7  18
ATOM     18  S   UNL d   1      -3.916  -0.312   0.953  0.00  0.00    -0.085 SA
BRANCH  18  19
ATOM     19  C   UNL d   1      -4.237  -2.048   1.342  0.00  0.00     0.185 C 
BRANCH  19  20
ATOM     20  C   UNL d   1      -5.635  -2.360   1.853  0.00  0.00     0.231 C 
ATOM     21  N   UNL d   1      -6.519  -1.306   2.004  0.00  0.00    -0.326 N 
ATOM     22  H   UNL d   1      -6.200  -0.408   1.654  0.00  0.00     0.169 HD
ATOM     23  O   UNL d   1      -5.917  -3.541   2.085  0.00  0.00    -0.272 OA
BRANCH  21  24
ATOM     24  C   UNL d   1      -7.871  -1.397   2.420  0.00  0.00     0.037 A 
ATOM     25  C   UNL d   1      -8.417  -2.535   3.024  0.00  0.00     0.053 A 
ATOM     26  C   UNL d   1      -9.778  -2.593   3.334  0.00  0.00     0.037 A 
ATOM     27 CL   UNL d   1     -10.428  -4.017   4.053  0.00  0.00    -0.084 Cl
ATOM     28  C   UNL d   1     -10.616  -1.520   3.061  0.00  0.00     0.048 A 
ATOM     29  C   UNL d   1     -10.070  -0.370   2.500  0.00  0.00     0.037 A 
ATOM     30  C   UNL d   1      -8.706  -0.296   2.193  0.00  0.00     0.053 A 
ATOM     31 CL   UNL d   1     -11.096   0.970   2.155  0.00  0.00    -0.084 Cl
ENDBRANCH  21  24
ENDBRANCH  19  20
ENDBRANCH  18  19
ENDBRANCH   7  18
TORSDOF 5
