REMARK  3 active torsions:
REMARK  status: ('A' for Active; 'I' for Inactive)
REMARK    1  A    between atoms: N_17  and  N_8 
REMARK       I    between atoms: C_11  and  N_17 
REMARK       I    between atoms: N_25  and  C_11 
REMARK    2  A    between atoms: C_19  and  O_22 
REMARK    3  A    between atoms: O_22  and  C_23 
ROOT
ATOM      1  C   UNL d   1      -5.040  -0.556   1.784  0.00  0.00    -0.017 C 
ATOM      2  C   UNL d   1      -7.052   0.054  -2.092  0.00  0.00     0.000 C 
ATOM      3  C   UNL d   1      -3.519  -0.652   1.635  0.00  0.00    -0.072 C 
ATOM      4  C   UNL d   1      -5.747  -0.457   0.391  0.00  0.00     0.003 C 
ATOM      5  C   UNL d   1      -5.505  -0.282  -2.079  0.00  0.00     0.004 C 
ATOM      6  C   UNL d   1      -5.063  -1.094  -0.837  0.00  0.00    -0.001 C 
ATOM      7  C   UNL d   1      -6.933   1.592  -2.018  0.00  0.00     0.012 C 
ATOM      8  N   UNL d   1      -7.577   2.300  -1.137  0.00  0.00    -0.304 N 
ATOM      9  HN  UNL d   1      -8.443   1.969  -0.711  1.00  0.00     0.186 HD
ATOM     10  C   UNL d   1      -2.895  -1.011   0.503  0.00  0.00    -0.023 C 
ATOM     11  C   UNL d   1      -7.926  -0.517  -0.944  0.00  0.00     0.016 C 
ATOM     12  C   UNL d   1      -3.544  -1.278  -0.800  0.00  0.00     0.033 C 
ATOM     13  C   UNL d   1      -7.208  -0.927   0.350  0.00  0.00     0.007 C 
ATOM     14  C   UNL d   1      -5.444   0.756   2.557  0.00  0.00     0.016 C 
ATOM     15  C   UNL d   1      -4.759   1.096  -2.210  0.00  0.00     0.012 C 
ATOM     16  C   UNL d   1      -2.665  -0.213   2.808  0.00  0.00     0.067 C 
ATOM     17  C   UNL d   1      -5.758   2.042  -2.841  0.00  0.00     0.055 C 
ATOM     18  C   UNL d   1      -3.073   1.196   3.252  0.00  0.00     0.136 C 
ATOM     19  C   UNL d   1      -4.525   1.149   3.713  0.00  0.00     0.034 C 
ATOM     20  C   UNL d   1      -5.529  -1.771   2.603  0.00  0.00     0.020 C 
ATOM     21  C   UNL d   1      -7.633  -0.408  -3.444  0.00  0.00     0.022 C 
ENDROOT
BRANCH   8  22
ATOM     22  N   UNL d   1      -7.030   3.521  -0.810  0.00  0.00    -0.252 N 
ATOM     23  C   UNL d   1      -7.490   4.277   0.236  0.00  0.00     0.332 C 
ATOM     24  O   UNL d   1      -6.797   5.134   0.774  0.00  0.00    -0.246 OA
ATOM     25  N   UNL d   1      -8.754   4.006   0.631  0.00  0.00    -0.351 N 
ATOM     26  H   UNL d   1      -9.121   3.117   0.327  0.00  0.00     0.160 HD
ATOM     27  H   UNL d   1      -9.072   4.426   1.490  0.00  0.00     0.160 HD
ATOM     28  H   UNL d   1      -6.044   3.678  -0.989  0.00  0.00     0.191 HD
ENDBRANCH   8  22
BRANCH  18  29
ATOM     29  O   UNL d   1      -2.957   2.074   2.102  0.00  0.00    -0.316 OA
BRANCH  29  30
ATOM     30  C   UNL d   1      -2.730   3.386   2.330  0.00  0.00     0.255 C 
ATOM     31  O   UNL d   1      -2.406   3.870   3.413  0.00  0.00    -0.266 OA
ATOM     32  C   UNL d   1      -2.958   4.189   1.083  0.00  0.00     0.126 C 
ENDBRANCH  29  30
ENDBRANCH  18  29
TORSDOF 3
