REMARK  4 active torsions:
REMARK  status: ('A' for Active; 'I' for Inactive)
REMARK    1  A    between atoms: C_9  and  S_1 
REMARK    2  A    between atoms: N_13  and  S_1 
REMARK    3  A    between atoms: C_2  and  C_5 
REMARK       I    between atoms: C_5  and  N_8 
REMARK    4  A    between atoms: N_8  and  C_17 
ROOT
ATOM      1  C   UNL d   1       0.606   0.968  -1.402  0.00  0.00     0.074 A 
ATOM      2  C   UNL d   1       0.006   0.377  -2.515  0.00  0.00     0.027 A 
ATOM      3  C   UNL d   1       0.810   2.346  -1.357  0.00  0.00     0.027 A 
ATOM      4  C   UNL d   1      -0.191   2.567  -3.561  0.00  0.00     0.035 A 
ATOM      5  C   UNL d   1      -0.391   1.180  -3.590  0.00  0.00     0.031 A 
ATOM      6  C   UNL d   1       0.416   3.139  -2.439  0.00  0.00     0.031 A 
ENDROOT
BRANCH   4   7
ATOM      7  N   UNL d   1      -0.659   3.312  -4.660  0.00  0.00    -0.322 N 
ATOM      8  C   UNL d   1      -0.593   4.683  -4.838  0.00  0.00     0.274 C 
ATOM      9  O   UNL d   1       0.025   5.475  -4.134  0.00  0.00    -0.266 OA
ATOM     10  H   UNL d   1      -1.171   2.814  -5.385  0.00  0.00     0.169 HD
BRANCH   8  11
ATOM     11  C   UNL d   1      -1.401   5.161  -5.964  0.00  0.00     0.125 A 
ATOM     12  N   UNL d   1      -2.020   4.325  -6.819  0.00  0.00    -0.256 N 
ATOM     13  O   UNL d   1      -2.757   5.137  -7.668  0.00  0.00    -0.242 OA
ATOM     14  HN  UNL d   1      -1.959   3.307  -6.838  1.00  0.00     0.195 HD
ATOM     15  C   UNL d   1      -2.584   6.439  -7.317  0.00  0.00     0.075 A 
ATOM     16  C   UNL d   1      -1.699   6.511  -6.274  0.00  0.00     0.071 A 
ATOM     17  C   UNL d   1      -3.366   7.440  -8.064  0.00  0.00     0.079 C 
ENDBRANCH   8  11
ENDBRANCH   4   7
BRANCH   1  18
ATOM     18  S   UNL d   1       1.109  -0.023  -0.029  0.00  0.00     0.239 S 
ATOM     19  O   UNL d   1       0.938  -1.419  -0.360  0.00  0.00    -0.206 OA
ATOM     20  O   UNL d   1       0.581   0.559   1.183  0.00  0.00    -0.206 OA
BRANCH  18  21
ATOM     21  N   UNL d   1       2.767   0.228   0.005  0.00  0.00    -0.225 NA
ATOM     22  H   UNL d   1       3.253  -0.637  -0.229  0.00  0.00     0.136 HD
ATOM     23  H   UNL d   1       3.037   0.622   0.906  0.00  0.00     0.136 HD
ENDBRANCH  18  21
ENDBRANCH   1  18
TORSDOF 4
