REMARK  5 active torsions:
REMARK  status: ('A' for Active; 'I' for Inactive)
REMARK    1  A    between atoms: S_13  and  C_3 
REMARK    2  A    between atoms: C_16  and  C_9 
REMARK    3  A    between atoms: C_17  and  S_13 
REMARK    4  A    between atoms: C_14  and  C_17 
REMARK    5  A    between atoms: C_15  and  C_14 
ROOT
ATOM      1  N   UNL d   1       0.230  -0.730  -0.117  0.00  0.00    -0.079 N 
ATOM      2  C   UNL d   1       0.203   0.666   0.011  0.00  0.00     0.706 A 
ATOM      3  C   UNL d   1      -0.966  -1.473  -0.228  0.00  0.00     0.113 A 
ATOM      4  N   UNL d   1      -0.967   1.366   0.054  0.00  0.00    -0.189 N 
ATOM      5  HN  UNL d   1      -0.976   2.382   0.141  1.00  0.00     0.184 HD
ATOM      6  C   UNL d   1      -2.136  -0.809  -0.189  0.00  0.00     0.070 A 
ATOM      7  N   UNL d   1       1.435   1.126   0.077  0.00  0.00    -0.185 N 
ATOM      8  HN  UNL d   1       1.745   2.093   0.166  1.00  0.00     0.185 HD
ATOM      9  C   UNL d   1      -2.069   0.682  -0.020  0.00  0.00     0.062 A 
ATOM     10  N   UNL d   1       1.527  -1.147  -0.112  0.00  0.00    -0.274 N 
ATOM     11  HN  UNL d   1       1.895  -2.097  -0.176  1.00  0.00     0.189 HD
ATOM     12  C   UNL d   1       2.193   0.002  -0.002  0.00  0.00     0.215 A 
ENDROOT
BRANCH   3  13
ATOM     13  S   UNL d   1      -0.843  -3.208  -0.437  0.00  0.00    -0.102 SA
BRANCH  13  14
ATOM     14  C   UNL d   1      -2.548  -3.808  -0.461  0.00  0.00     0.164 C 
BRANCH  14  15
ATOM     15  C   UNL d   1      -2.611  -5.293  -0.752  0.00  0.00     0.169 C 
ATOM     16  O   UNL d   1      -2.741  -5.715  -1.901  0.00  0.00    -0.291 OA
BRANCH  15  17
ATOM     17  C   UNL d   1      -2.599  -6.271   0.375  0.00  0.00     0.011 A 
ATOM     18  C   UNL d   1      -3.272  -7.489   0.195  0.00  0.00     0.016 A 
ATOM     19  C   UNL d   1      -3.243  -8.469   1.190  0.00  0.00     0.020 A 
ATOM     20  C   UNL d   1      -2.529  -8.237   2.363  0.00  0.00     0.011 A 
ATOM     21  C   UNL d   1      -1.870  -7.023   2.560  0.00  0.00     0.020 A 
ATOM     22 BR   UNL d   1      -2.428  -9.585   3.683  0.00  0.00    -0.051 Br
ATOM     23  C   UNL d   1      -1.911  -6.035   1.570  0.00  0.00     0.016 A 
ENDBRANCH  15  17
ENDBRANCH  14  15
ENDBRANCH  13  14
ENDBRANCH   3  13
BRANCH   9  24
ATOM     24  C   UNL d   1      -3.375   1.408   0.039  0.00  0.00    -0.009 A 
ATOM     25  C   UNL d   1      -4.521   0.830   0.603  0.00  0.00     0.014 A 
ATOM     26  C   UNL d   1      -5.722   1.542   0.637  0.00  0.00     0.001 A 
ATOM     27  C   UNL d   1      -5.783   2.837   0.124  0.00  0.00     0.000 A 
ATOM     28  C   UNL d   1      -4.642   3.425  -0.419  0.00  0.00     0.001 A 
ATOM     29  C   UNL d   1      -3.441   2.715  -0.460  0.00  0.00     0.014 A 
ENDBRANCH   9  24
TORSDOF 5
