REMARK  8 active torsions:
REMARK  status: ('A' for Active; 'I' for Inactive)
REMARK    1  A    between atoms: N_6  and  C_1 
REMARK    2  A    between atoms: N_7  and  C_1 
REMARK    3  A    between atoms: O_12  and  C_2 
REMARK    4  A    between atoms: O_13  and  C_4 
REMARK    5  A    between atoms: N_10  and  N_6 
REMARK    6  A    between atoms: C_14  and  N_7 
REMARK    7  A    between atoms: C_9  and  C_15 
REMARK    8  A    between atoms: C_15  and  C_14 
ROOT
ATOM      1  C   UNL d   1       4.656   0.987   0.079  0.00  0.00     0.058 C 
ENDROOT
BRANCH   1   2
ATOM      2  C   UNL d   1       5.470   2.249   0.312  0.00  0.00    -0.054 A 
ATOM      3  C   UNL d   1       6.791   2.137   0.792  0.00  0.00     0.046 A 
ATOM      4  C   UNL d   1       7.580   3.271   1.066  0.00  0.00     0.102 A 
ATOM      5  C   UNL d   1       7.036   4.544   0.836  0.00  0.00     0.101 A 
ATOM      6  C   UNL d   1       5.728   4.662   0.365  0.00  0.00     0.040 A 
ATOM      7  C   UNL d   1       4.955   3.532   0.097  0.00  0.00     0.010 A 
BRANCH   4   8
ATOM      8  O   UNL d   1       8.846   3.211   1.584  0.00  0.00    -0.353 OA
ATOM      9  C   UNL d   1       9.409   1.935   1.847  0.00  0.00     0.210 C 
ENDBRANCH   4   8
BRANCH   5  10
ATOM     10  O   UNL d   1       7.622   5.759   1.080  0.00  0.00    -0.353 OA
ATOM     11  C   UNL d   1       9.026   5.845   0.878  0.00  0.00     0.210 C 
ENDBRANCH   5  10
ENDBRANCH   1   2
BRANCH   1  12
ATOM     12  C   UNL d   1       3.242   1.221  -0.467  0.00  0.00     0.126 C 
BRANCH  12  13
ATOM     13  N   UNL d   1       2.447   0.010  -0.633  0.00  0.00    -0.366 N 
ATOM     14  H   UNL d   1       2.941  -0.858  -0.788  0.00  0.00     0.161 HD
BRANCH  13  15
ATOM     15  C   UNL d   1       1.162   0.010  -1.132  0.00  0.00     0.181 C 
ATOM     16  S   UNL d   1       0.265   1.346  -1.582  0.00  0.00    -0.040 SA
BRANCH  15  17
ATOM     17  N   UNL d   1       0.582  -1.238  -1.227  0.00  0.00    -0.300 N 
ATOM     18  H   UNL d   1      -0.398  -1.240  -1.520  0.00  0.00     0.183 HD
BRANCH  17  19
ATOM     19  N   UNL d   1       1.060  -2.346  -0.507  0.00  0.00    -0.248 NA
ATOM     20  H   UNL d   1       1.511  -2.008   0.347  0.00  0.00     0.143 HD
ATOM     21  H   UNL d   1       1.763  -2.830  -1.065  0.00  0.00     0.143 HD
ENDBRANCH  17  19
ENDBRANCH  15  17
ENDBRANCH  13  15
ENDBRANCH  12  13
ENDBRANCH   1  12
TORSDOF 8
