REMARK  3 active torsions:
REMARK  status: ('A' for Active; 'I' for Inactive)
REMARK    1  A    between atoms: C_9  and  C_1 
REMARK    2  A    between atoms: O_11  and  C_9 
REMARK    3  A    between atoms: C_10  and  O_11 
ROOT
ATOM      1  O   UNL d   1       0.714  -3.540  -0.087  0.00  0.00    -0.344 OA
ENDROOT
BRANCH   1   2
ATOM      2  C   UNL d   1       0.852  -4.903  -0.028  0.00  0.00     0.091 A 
ATOM      3  C   UNL d   1       0.091  -5.672  -0.924  0.00  0.00     0.069 A 
ATOM      4  C   UNL d   1       0.172  -7.067  -0.917  0.00  0.00     0.050 A 
ATOM      5 CL   UNL d   1      -0.986  -4.928  -2.053  0.00  0.00    -0.081 Cl
ATOM      6  C   UNL d   1       1.029  -7.698  -0.019  0.00  0.00     0.035 A 
ATOM      7  C   UNL d   1       1.809  -6.949   0.857  0.00  0.00     0.026 A 
ATOM      8 CL   UNL d   1       1.131  -9.415   0.004  0.00  0.00    -0.084 Cl
ATOM      9  C   UNL d   1       1.727  -5.554   0.850  0.00  0.00     0.040 A 
ENDBRANCH   1   2
BRANCH   1  10
ATOM     10  C   UNL d   1       1.014  -2.825   1.116  0.00  0.00     0.236 C 
BRANCH  10  11
ATOM     11  C   UNL d   1       0.464  -1.442   1.086  0.00  0.00     0.076 A 
ATOM     12  C   UNL d   1      -0.847  -1.059   0.903  0.00  0.00     0.114 A 
ATOM     13  S   UNL d   1      -0.941   0.633   1.011  0.00  0.00     0.014 SA
ATOM     14 CL   UNL d   1      -2.241  -2.010   0.638  0.00  0.00    -0.073 Cl
ATOM     15  N   UNL d   1       0.703   0.791   1.302  0.00  0.00    -0.060 NA
ATOM     16  N   UNL d   1       1.333  -0.374   1.317  0.00  0.00    -0.293 N 
ATOM     17  HN  UNL d   1       2.335  -0.478   1.478  1.00  0.00     0.183 HD
ENDBRANCH  10  11
ENDBRANCH   1  10
TORSDOF 3
