REMARK  5 active torsions:
REMARK  status: ('A' for Active; 'I' for Inactive)
REMARK    1  A    between atoms: C_5  and  N_1 
REMARK    2  A    between atoms: C_16  and  C_7 
REMARK    3  A    between atoms: C_8  and  C_10 
REMARK    4  A    between atoms: C_10  and  O_11 
REMARK    5  A    between atoms: O_11  and  C_16 
ROOT
ATOM      1  N   UNL d   1       0.119  -0.992  -0.312  0.00  0.00    -0.247 N 
ATOM      2  N   UNL d   1      -0.276  -0.913   0.985  0.00  0.00    -0.015 NA
ATOM      3  N   UNL d   1      -0.593   0.346   1.255  0.00  0.00    -0.284 N 
ATOM      4  HN  UNL d   1      -0.873   0.712   2.165  1.00  0.00     0.184 HD
ATOM      5  C   UNL d   1      -0.041   0.236  -0.904  0.00  0.00     0.143 A 
ATOM      6  C   UNL d   1      -0.477   1.069   0.102  0.00  0.00     0.065 A 
ENDROOT
BRANCH   6   7
ATOM      7  C   UNL d   1      -0.851   2.503   0.039  0.00  0.00     0.238 C 
BRANCH   7   8
ATOM      8  O   UNL d   1      -2.268   2.688  -0.113  0.00  0.00    -0.311 OA
BRANCH   8   9
ATOM      9  C   UNL d   1      -2.727   2.663  -1.385  0.00  0.00     0.299 C 
ATOM     10  O   UNL d   1      -2.053   2.463  -2.384  0.00  0.00    -0.259 OA
BRANCH   9  11
ATOM     11  C   UNL d   1      -4.182   2.888  -1.406  0.00  0.00     0.116 A 
ATOM     12  C   UNL d   1      -4.951   2.301  -2.409  0.00  0.00     0.135 A 
ATOM     13  F   UNL d   1      -4.397   1.490  -3.324  0.00  0.00    -0.205 F 
ATOM     14  C   UNL d   1      -6.326   2.527  -2.488  0.00  0.00     0.043 A 
ATOM     15  C   UNL d   1      -6.951   3.348  -1.550  0.00  0.00     0.006 A 
ATOM     16  C   UNL d   1      -6.193   3.940  -0.540  0.00  0.00     0.043 A 
ATOM     17  C   UNL d   1      -4.817   3.712  -0.476  0.00  0.00     0.135 A 
ATOM     18  F   UNL d   1      -4.126   4.339   0.487  0.00  0.00    -0.205 F 
ENDBRANCH   9  11
ENDBRANCH   8   9
ENDBRANCH   7   8
ENDBRANCH   6   7
BRANCH   1  19
ATOM     19  C   UNL d   1       0.501  -2.228  -0.891  0.00  0.00     0.077 A 
ATOM     20  C   UNL d   1       1.385  -2.331  -1.982  0.00  0.00     0.084 A 
ATOM     21  C   UNL d   1       1.622  -3.599  -2.547  0.00  0.00     0.058 A 
ATOM     22 CL   UNL d   1       2.322  -0.980  -2.548  0.00  0.00    -0.080 Cl
ATOM     23 CL   UNL d   1       2.691  -3.839  -3.890  0.00  0.00    -0.082 Cl
ATOM     24  C   UNL d   1       1.001  -4.741  -2.029  0.00  0.00     0.026 A 
ATOM     25  C   UNL d   1       0.164  -4.640  -0.923  0.00  0.00     0.004 A 
ATOM     26  C   UNL d   1      -0.075  -3.394  -0.347  0.00  0.00     0.033 A 
ENDBRANCH   1  19
TORSDOF 5
