REMARK  3 active torsions:
REMARK  status: ('A' for Active; 'I' for Inactive)
REMARK    1  A    between atoms: C_5  and  C_8 
REMARK    2  A    between atoms: C_10  and  C_18 
REMARK    3  A    between atoms: N_13  and  N_15 
ROOT
ATOM      1  N   UNL d   1      -5.189  -1.071   0.130  0.00  0.00    -0.309 N 
ATOM      2  HN  UNL d   1      -4.721  -1.972   0.229  1.00  0.00     0.186 HD
ATOM      3  C   UNL d   1      -6.480  -0.984   0.122  0.00  0.00     0.120 C 
ENDROOT
BRANCH   1   4
ATOM      4  N   UNL d   1      -4.481   0.079   0.001  0.00  0.00    -0.280 N 
ATOM      5  C   UNL d   1      -3.122   0.110  -0.031  0.00  0.00     0.164 A 
ATOM      6  N   UNL d   1      -2.428   1.224  -0.126  0.00  0.00    -0.334 N 
ATOM      7  S   UNL d   1      -2.167  -1.329   0.048  0.00  0.00    -0.051 SA
ATOM      8  C   UNL d   1      -1.070   0.949  -0.139  0.00  0.00     0.051 A 
ATOM      9  HN  UNL d   1      -2.833   2.158  -0.183  1.00  0.00     0.168 HD
ATOM     10  C   UNL d   1      -0.032   1.899  -0.232  0.00  0.00     0.032 A 
ATOM     11  C   UNL d   1      -0.731  -0.401  -0.050  0.00  0.00     0.036 A 
ATOM     12  C   UNL d   1       1.303   1.473  -0.232  0.00  0.00     0.026 A 
ATOM     13  C   UNL d   1       1.607   0.118  -0.140  0.00  0.00     0.035 A 
ATOM     14  C   UNL d   1       0.601  -0.844  -0.048  0.00  0.00     0.045 A 
ATOM     15 CL   UNL d   1       3.253  -0.386  -0.140  0.00  0.00    -0.084 Cl
ATOM     16  H   UNL d   1      -4.946   0.984  -0.031  0.00  0.00     0.189 HD
ENDBRANCH   1   4
BRANCH   3  17
ATOM     17  C   UNL d   1      -7.294  -2.214   0.270  0.00  0.00     0.003 A 
ATOM     18  C   UNL d   1      -8.691  -2.193   0.279  0.00  0.00     0.046 A 
ATOM     19  C   UNL d   1      -9.406  -3.389   0.445  0.00  0.00     0.041 A 
ATOM     20 CL   UNL d   1      -9.607  -0.741   0.094  0.00  0.00    -0.083 Cl
ATOM     21  C   UNL d   1      -8.737  -4.615   0.603  0.00  0.00     0.049 A 
ATOM     22  C   UNL d   1      -7.337  -4.628   0.581  0.00  0.00     0.017 A 
ATOM     23  C   UNL d   1      -6.624  -3.440   0.417  0.00  0.00     0.015 A 
BRANCH  21  24
ATOM     24  C   UNL d   1      -9.493  -5.907   0.796  0.00  0.00     0.417 C 
ATOM     25  F   UNL d   1     -10.845  -5.747   0.817  0.00  0.00    -0.166 F 
ATOM     26  F   UNL d   1      -9.237  -6.810  -0.189  0.00  0.00    -0.166 F 
ATOM     27  F   UNL d   1      -9.170  -6.525   1.966  0.00  0.00    -0.166 F 
ENDBRANCH  21  24
ENDBRANCH   3  17
TORSDOF 3
