REMARK  3 active torsions:
REMARK  status: ('A' for Active; 'I' for Inactive)
REMARK    1  A    between atoms: C_7  and  C_1 
REMARK    2  A    between atoms: C_9  and  C_6 
REMARK       I    between atoms: N_8  and  C_7 
REMARK    3  A    between atoms: C_12  and  N_8 
ROOT
ATOM      1  C   UNL d   1      -0.330  -2.577  -0.072  0.00  0.00     0.274 C 
ATOM      2  N   UNL d   1       0.666  -3.542  -0.139  0.00  0.00    -0.322 N 
ATOM      3  O   UNL d   1      -1.520  -2.847   0.035  0.00  0.00    -0.266 OA
ATOM      4  H   UNL d   1       1.619  -3.225  -0.052  0.00  0.00     0.169 HD
ENDROOT
BRANCH   2   5
ATOM      5  C   UNL d   1       0.481  -4.936  -0.297  0.00  0.00     0.037 A 
ATOM      6  C   UNL d   1      -0.759  -5.528  -0.554  0.00  0.00     0.061 A 
ATOM      7  C   UNL d   1      -0.891  -6.889  -0.785  0.00  0.00     0.061 A 
ATOM      8  N   UNL d   1      -2.111  -7.391  -1.069  0.00  0.00    -0.363 N 
ATOM      9  C   UNL d   1       0.256  -7.715  -0.747  0.00  0.00     0.059 A 
ATOM     10  C   UNL d   1      -2.173  -8.712  -1.325  0.00  0.00     0.105 A 
ATOM     11  HN  UNL d   1      -2.943  -6.801  -1.090  1.00  0.00     0.165 HD
ATOM     12  C   UNL d   1      -1.056  -9.516  -1.294  0.00  0.00     0.105 A 
ATOM     13  N   UNL d   1       0.174  -9.037  -0.999  0.00  0.00    -0.363 N 
ATOM     14  HN  UNL d   1       0.994  -9.642  -0.968  1.00  0.00     0.165 HD
ATOM     15  C   UNL d   1       1.486  -7.134  -0.463  0.00  0.00     0.034 A 
ATOM     16  C   UNL d   1       1.608  -5.756  -0.246  0.00  0.00     0.032 A 
ENDBRANCH   2   5
BRANCH   1  17
ATOM     17  C   UNL d   1       0.144  -1.205  -0.104  0.00  0.00     0.120 A 
ATOM     18  N   UNL d   1      -0.649  -0.084   0.026  0.00  0.00    -0.291 N 
ATOM     19  N   UNL d   1       0.050   1.069   0.062  0.00  0.00    -0.302 N 
ATOM     20  C   UNL d   1      -2.088   0.035   0.087  0.00  0.00     0.178 C 
ATOM     21  C   UNL d   1       1.321   0.710  -0.122  0.00  0.00     0.036 A 
ATOM     22  HN  UNL d   1      -0.315   2.012   0.200  1.00  0.00     0.186 HD
ATOM     23  C   UNL d   1       1.420  -0.693  -0.294  0.00  0.00     0.064 A 
BRANCH  21  24
ATOM     24  C   UNL d   1       2.442   1.736  -0.127  0.00  0.00    -0.007 C 
ATOM     25  C   UNL d   1       2.992   1.909  -1.555  0.00  0.00     0.021 C 
ATOM     26  C   UNL d   1       1.970   3.117   0.379  0.00  0.00     0.021 C 
ATOM     27  C   UNL d   1       3.584   1.268   0.799  0.00  0.00     0.021 C 
ENDBRANCH  21  24
ENDBRANCH   1  17
TORSDOF 3
