REMARK  4 active torsions:
REMARK  status: ('A' for Active; 'I' for Inactive)
REMARK    1  A    between atoms: C_7  and  C_1 
REMARK    2  A    between atoms: C_8  and  C_2 
REMARK    3  A    between atoms: O_16  and  C_7 
REMARK    4  A    between atoms: O_15  and  C_8 
ROOT
ATOM      1  C   UNL d   1      -1.325   0.048   0.004  0.00  0.00     0.112 C 
ATOM      2  C   UNL d   1       1.327   0.002   0.044  0.00  0.00     0.112 C 
ATOM      3  C   UNL d   1       0.737   1.388  -0.181  0.00  0.00     0.148 C 
ATOM      4  C   UNL d   1      -0.735  -0.309   1.362  0.00  0.00     0.148 C 
ATOM      5  C   UNL d   1      -0.770   1.439  -0.343  0.00  0.00     0.108 C 
ATOM      6  C   UNL d   1       0.772  -0.477   1.396  0.00  0.00     0.108 C 
ATOM      7  C   UNL d   1      -0.766  -0.984  -1.001  0.00  0.00     0.031 C 
ATOM      8  C   UNL d   1       0.768  -0.898  -1.079  0.00  0.00     0.031 C 
ATOM      9  O   UNL d   1       1.423   2.408  -0.150  0.00  0.00    -0.296 OA
ATOM     10  O   UNL d   1      -1.420  -0.371   2.380  0.00  0.00    -0.296 OA
ENDROOT
BRANCH   1  11
ATOM     11  C   UNL d   1      -2.837   0.098  -0.064  0.00  0.00     0.156 C 
ATOM     12  O   UNL d   1      -3.446   0.028  -1.126  0.00  0.00    -0.649 OA
BRANCH  11  13
ATOM     13  O   UNL d   1      -3.486   0.313   1.097  0.00  0.00    -0.775 OA
ATOM     14  H   UNL d   1      -2.931   0.241   1.912  0.00  0.00     0.167 HD
ENDBRANCH  11  13
ENDBRANCH   1  11
BRANCH   2  15
ATOM     15  C   UNL d   1       2.838  -0.073   0.089  0.00  0.00     0.156 C 
ATOM     16  O   UNL d   1       3.444  -1.129  -0.064  0.00  0.00    -0.649 OA
BRANCH  15  17
ATOM     17  O   UNL d   1       3.492   1.065   0.391  0.00  0.00    -0.775 OA
ATOM     18  H   UNL d   1       2.939   1.885   0.390  0.00  0.00     0.167 HD
ENDBRANCH  15  17
ENDBRANCH   2  15
TORSDOF 4
