REMARK  6 active torsions:
REMARK  status: ('A' for Active; 'I' for Inactive)
REMARK       I    between atoms: N_3  and  C_1 
REMARK    1  A    between atoms: C_5  and  C_1 
REMARK       I    between atoms: C_2  and  N_4 
REMARK    2  A    between atoms: C_14  and  C_2 
REMARK    3  A    between atoms: N_4  and  N_3 
REMARK    4  A    between atoms: C_9  and  C_18 
REMARK    5  A    between atoms: S_12  and  C_14 
REMARK    6  A    between atoms: C_18  and  S_12 
ROOT
ATOM      1  C   UNL d   1       3.681  -3.283   0.183  0.00  0.00     0.245 C 
ATOM      2  N   UNL d   1       4.747  -3.116  -0.676  0.00  0.00    -0.267 N 
ATOM      3  O   UNL d   1       3.323  -2.394   0.953  0.00  0.00    -0.271 OA
ATOM      4  H   UNL d   1       5.213  -3.908  -1.123  0.00  0.00     0.190 HD
ENDROOT
BRANCH   1   5
ATOM      5  C   UNL d   1       2.914  -4.584   0.032  0.00  0.00     0.178 C 
BRANCH   5   6
ATOM      6  S   UNL d   1       3.961  -6.066   0.068  0.00  0.00    -0.155 SA
BRANCH   6   7
ATOM      7  C   UNL d   1       4.738  -5.885   1.700  0.00  0.00     0.113 C 
BRANCH   7   8
ATOM      8  C   UNL d   1       3.880  -6.177   2.922  0.00  0.00    -0.038 A 
ATOM      9  C   UNL d   1       3.988  -5.381   4.103  0.00  0.00    -0.019 A 
ATOM     10  C   UNL d   1       3.511  -5.912   5.330  0.00  0.00    -0.025 A 
ATOM     11  C   UNL d   1       4.565  -4.089   4.146  0.00  0.00     0.013 A 
ATOM     12  C   UNL d   1       3.747  -5.228   6.535  0.00  0.00     0.012 A 
ATOM     13  C   UNL d   1       2.825  -7.133   5.345  0.00  0.00     0.012 A 
ATOM     14  C   UNL d   1       4.387  -3.991   6.546  0.00  0.00     0.001 A 
ATOM     15  C   UNL d   1       4.761  -3.404   5.347  0.00  0.00     0.001 A 
ATOM     16  C   UNL d   1       2.623  -7.851   4.172  0.00  0.00     0.001 A 
ATOM     17  C   UNL d   1       3.172  -7.392   2.978  0.00  0.00     0.009 A 
ENDBRANCH   7   8
ENDBRANCH   6   7
ENDBRANCH   5   6
ENDBRANCH   1   5
BRANCH   2  18
ATOM     18  N   UNL d   1       5.484  -1.924  -0.586  0.00  0.00    -0.263 N 
ATOM     19  C   UNL d   1       6.814  -1.942  -0.958  0.00  0.00     0.270 C 
ATOM     20  O   UNL d   1       7.372  -2.967  -1.345  0.00  0.00    -0.266 OA
ATOM     21  H   UNL d   1       5.058  -1.170  -0.051  0.00  0.00     0.190 HD
BRANCH  19  22
ATOM     22  C   UNL d   1       7.559  -0.651  -0.875  0.00  0.00     0.033 A 
ATOM     23  C   UNL d   1       8.958  -0.694  -0.815  0.00  0.00     0.017 A 
ATOM     24  C   UNL d   1       9.706   0.485  -0.820  0.00  0.00     0.007 A 
ATOM     25  C   UNL d   1       9.069   1.730  -0.906  0.00  0.00    -0.062 A 
ATOM     26  C   UNL d   1       7.669   1.774  -0.935  0.00  0.00     0.007 A 
ATOM     27  C   UNL d   1       9.877   2.994  -0.936  0.00  0.00     0.048 C 
ATOM     28  C   UNL d   1       6.916   0.592  -0.928  0.00  0.00     0.017 A 
ENDBRANCH  19  22
ENDBRANCH   2  18
TORSDOF 6
