REMARK  2 active torsions:
REMARK  status: ('A' for Active; 'I' for Inactive)
REMARK    1  A    between atoms: C_2  and  N_1 
REMARK    2  A    between atoms: N_20  and  C_4 
ROOT
ATOM      1  N   UNL d   1       1.867  -2.853  -0.969  0.00  0.00    -0.222 N 
ATOM      2  C   UNL d   1       1.497  -1.501  -1.110  0.00  0.00     0.145 C 
ATOM      3  N   UNL d   1       0.963  -3.672  -1.578  0.00  0.00    -0.300 N 
ATOM      4  HN  UNL d   1       1.033  -4.679  -1.727  1.00  0.00     0.186 HD
ATOM      5  C   UNL d   1       0.240  -1.510  -1.671  0.00  0.00     0.106 C 
ATOM      6  C   UNL d   1      -0.034  -2.859  -1.937  0.00  0.00     0.134 C 
ATOM      7  C   UNL d   1      -0.603  -0.386  -1.913  0.00  0.00     0.104 C 
ATOM      8  N   UNL d   1      -1.296   0.526  -2.091  0.00  0.00    -0.191 NA
ENDROOT
BRANCH   2   9
ATOM      9  N   UNL d   1       2.288  -0.465  -0.720  0.00  0.00    -0.383 N 
ATOM     10  H   UNL d   1       3.061  -0.663  -0.076  0.00  0.00     0.157 HD
ATOM     11  H   UNL d   1       1.919   0.478  -0.610  0.00  0.00     0.157 HD
ENDBRANCH   2   9
BRANCH   1  12
ATOM     12  C   UNL d   1       2.908  -3.355  -0.125  0.00  0.00     0.143 C 
ATOM     13  C   UNL d   1       3.429  -4.672  -0.166  0.00  0.00     0.051 A 
ATOM     14  C   UNL d   1       4.223  -4.997   0.934  0.00  0.00     0.090 A 
ATOM     15  C   UNL d   1       3.426  -5.795  -1.100  0.00  0.00    -0.028 A 
ATOM     16  S   UNL d   1       4.790  -6.599   0.931  0.00  0.00    -0.075 SA
ATOM     17  N   UNL d   1       4.574  -4.204   1.958  0.00  0.00    -0.346 N 
ATOM     18  C   UNL d   1       4.154  -6.872  -0.613  0.00  0.00    -0.008 A 
ATOM     19  C   UNL d   1       4.470  -8.139  -1.347  0.00  0.00     0.047 C 
ATOM     20  C   UNL d   1       3.580  -8.293  -2.582  0.00  0.00     0.005 C 
ATOM     21  C   UNL d   1       3.451  -6.969  -3.345  0.00  0.00     0.005 C 
ATOM     22  C   UNL d   1       2.817  -5.865  -2.477  0.00  0.00     0.041 C 
ATOM     23  C   UNL d   1       4.132  -2.963   1.826  0.00  0.00     0.183 C 
ATOM     24  HN  UNL d   1       5.124  -4.523   2.755  1.00  0.00     0.167 HD
ATOM     25  N   UNL d   1       3.351  -2.495   0.851  0.00  0.00    -0.336 N 
ATOM     26  HN  UNL d   1       3.085  -1.510   0.831  1.00  0.00     0.168 HD
ENDBRANCH   1  12
TORSDOF 2
