REMARK  7 active torsions:
REMARK  status: ('A' for Active; 'I' for Inactive)
REMARK    1  A    between atoms: C_12  and  C_1 
REMARK    2  A    between atoms: C_2  and  N_4 
REMARK    3  A    between atoms: N_10  and  C_2 
REMARK    4  A    between atoms: C_3  and  C_15 
REMARK       I    between atoms: N_5  and  C_3 
REMARK    5  A    between atoms: N_4  and  N_5 
REMARK    6  A    between atoms: S_11  and  C_12 
REMARK    7  A    between atoms: C_15  and  S_11 
ROOT
ATOM      1  C   UNL d   1      -3.148   4.949  -0.164  0.00  0.00     0.245 C 
ATOM      2  N   UNL d   1      -4.165   4.059   0.108  0.00  0.00    -0.267 N 
ATOM      3  O   UNL d   1      -3.364   6.153  -0.318  0.00  0.00    -0.271 OA
ATOM      4  H   UNL d   1      -4.019   3.050   0.110  0.00  0.00     0.190 HD
ENDROOT
BRANCH   1   5
ATOM      5  C   UNL d   1      -1.730   4.393  -0.136  0.00  0.00     0.178 C 
BRANCH   5   6
ATOM      6  S   UNL d   1      -1.586   2.704  -0.803  0.00  0.00    -0.155 SA
BRANCH   6   7
ATOM      7  C   UNL d   1       0.236   2.545  -0.728  0.00  0.00     0.116 C 
BRANCH   7   8
ATOM      8  C   UNL d   1       0.714   1.234  -1.313  0.00  0.00    -0.005 A 
ATOM      9  C   UNL d   1       1.037   1.115  -2.681  0.00  0.00     0.042 A 
ATOM     10 CL   UNL d   1       0.983   2.464  -3.761  0.00  0.00    -0.084 Cl
ATOM     11  C   UNL d   1       1.438  -0.113  -3.229  0.00  0.00     0.024 A 
ATOM     12  C   UNL d   1       1.520  -1.248  -2.431  0.00  0.00     0.003 A 
ATOM     13  C   UNL d   1       1.220  -1.152  -1.076  0.00  0.00     0.024 A 
ATOM     14  C   UNL d   1       0.824   0.072  -0.521  0.00  0.00     0.042 A 
ATOM     15 CL   UNL d   1       0.499   0.085   1.179  0.00  0.00    -0.084 Cl
ENDBRANCH   7   8
ENDBRANCH   6   7
ENDBRANCH   5   6
ENDBRANCH   1   5
BRANCH   2  16
ATOM     16  N   UNL d   1      -5.492   4.535   0.096  0.00  0.00    -0.274 N 
ATOM     17  H   UNL d   1      -5.562   5.544  -0.030  0.00  0.00     0.189 HD
BRANCH  16  18
ATOM     18  C   UNL d   1      -6.502   3.854   0.762  0.00  0.00     0.186 C 
ATOM     19  S   UNL d   1      -6.306   2.339   1.445  0.00  0.00    -0.040 SA
BRANCH  18  20
ATOM     20  N   UNL d   1      -7.679   4.579   0.749  0.00  0.00    -0.370 N 
ATOM     21  C   UNL d   1      -8.965   4.174   1.289  0.00  0.00     0.148 C 
ATOM     22  H   UNL d   1      -7.698   5.393   0.149  0.00  0.00     0.161 HD
ENDBRANCH  18  20
ENDBRANCH  16  18
ENDBRANCH   2  16
TORSDOF 7
