REMARK  6 active torsions:
REMARK  status: ('A' for Active; 'I' for Inactive)
REMARK    1  A    between atoms: C_12  and  C_3 
REMARK    2  A    between atoms: C_14  and  N_6 
REMARK    3  A    between atoms: N_13  and  C_10 
REMARK    4  A    between atoms: O_18  and  C_12 
REMARK    5  A    between atoms: C_17  and  N_13 
REMARK    6  A    between atoms: C_27  and  O_18 
ROOT
ATOM      1  N   UNL d   1       0.205   0.756  -0.023  0.00  0.00    -0.086 N 
ATOM      2  C   UNL d   1       0.157  -0.603  -0.095  0.00  0.00     0.716 A 
ATOM      3  C   UNL d   1       1.541   1.067   0.019  0.00  0.00     0.223 A 
ATOM      4  N   UNL d   1       2.345   0.039  -0.017  0.00  0.00    -0.258 N 
ATOM      5  HN  UNL d   1       3.364   0.028   0.003  1.00  0.00     0.190 HD
ATOM      6  N   UNL d   1       1.472  -1.033  -0.089  0.00  0.00    -0.084 N 
ATOM      7  N   UNL d   1      -0.953  -1.268  -0.141  0.00  0.00    -0.179 N 
ATOM      8  HN  UNL d   1      -0.946  -2.286  -0.203  1.00  0.00     0.185 HD
ATOM      9  C   UNL d   1      -0.925   1.533   0.059  0.00  0.00     0.271 A 
ATOM     10  C   UNL d   1      -2.139  -0.580  -0.105  0.00  0.00     0.106 A 
ATOM     11  C   UNL d   1      -2.174   0.764  -0.046  0.00  0.00     0.118 A 
ATOM     12  O   UNL d   1      -0.969   2.739   0.266  0.00  0.00    -0.267 OA
ENDROOT
BRANCH  10  13
ATOM     13  N   UNL d   1      -3.327  -1.304  -0.138  0.00  0.00    -0.245 NA
ATOM     14  H   UNL d   1      -3.095  -2.289  -0.235  0.00  0.00     0.135 HD
BRANCH  13  15
ATOM     15  C   UNL d   1      -4.335  -1.155   0.852  0.00  0.00     0.013 A 
ATOM     16  C   UNL d   1      -5.659  -1.460   0.518  0.00  0.00     0.025 A 
ATOM     17  C   UNL d   1      -6.685  -1.288   1.453  0.00  0.00     0.025 A 
ATOM     18  C   UNL d   1      -6.383  -0.849   2.740  0.00  0.00     0.034 A 
ATOM     19  C   UNL d   1      -5.062  -0.621   3.112  0.00  0.00     0.025 A 
ATOM     20 CL   UNL d   1      -7.647  -0.580   3.874  0.00  0.00    -0.084 Cl
ATOM     21  C   UNL d   1      -4.040  -0.792   2.175  0.00  0.00     0.025 A 
ENDBRANCH  13  15
ENDBRANCH  10  13
BRANCH   6  22
ATOM     22  C   UNL d   1       1.982  -2.356  -0.060  0.00  0.00     0.074 A 
ATOM     23  C   UNL d   1       1.162  -3.483  -0.225  0.00  0.00     0.032 A 
ATOM     24  C   UNL d   1       1.687  -4.781  -0.213  0.00  0.00     0.002 A 
ATOM     25  C   UNL d   1       3.050  -4.982  -0.028  0.00  0.00     0.000 A 
ATOM     26  C   UNL d   1       3.886  -3.885   0.151  0.00  0.00     0.002 A 
ATOM     27  C   UNL d   1       3.357  -2.590   0.135  0.00  0.00     0.032 A 
ENDBRANCH   6  22
BRANCH   3  28
ATOM     28  C   UNL d   1       2.061   2.479   0.132  0.00  0.00     0.330 C 
ATOM     29  O   UNL d   1       2.977   2.747   0.891  0.00  0.00    -0.256 OA
BRANCH  28  30
ATOM     30  O   UNL d   1       1.448   3.308  -0.730  0.00  0.00    -0.316 OA
BRANCH  30  31
ATOM     31  C   UNL d   1       1.890   4.676  -0.697  0.00  0.00     0.175 C 
ATOM     32  C   UNL d   1       1.464   5.406   0.570  0.00  0.00     0.034 C 
ENDBRANCH  30  31
ENDBRANCH  28  30
ENDBRANCH   3  28
TORSDOF 6
