REMARK  1 active torsions:
REMARK  status: ('A' for Active; 'I' for Inactive)
REMARK    1  A    between atoms: C_15  and  C_11 
ROOT
ATOM      1  N   UNL d   1       0.978  -0.572  -0.141  0.00  0.00    -0.196 N 
ATOM      2  C   UNL d   1      -1.443  -0.660  -0.010  0.00  0.00     0.075 A 
ATOM      3  C   UNL d   1      -1.372   0.716  -0.037  0.00  0.00     0.092 A 
ATOM      4  C   UNL d   1      -0.176  -1.389  -0.041  0.00  0.00     0.282 A 
ATOM      5  C   UNL d   1       0.851   0.813  -0.240  0.00  0.00     0.170 A 
ATOM      6  N   UNL d   1      -0.259   1.470  -0.160  0.00  0.00    -0.329 N 
ATOM      7  HN  UNL d   1      -0.291   2.489  -0.187  1.00  0.00     0.168 HD
ATOM      8  N   UNL d   1       2.181  -1.264  -0.134  0.00  0.00    -0.291 N 
ATOM      9  HN  UNL d   1       2.152  -2.282  -0.191  1.00  0.00     0.187 HD
ATOM     10  S   UNL d   1      -2.900   1.451   0.040  0.00  0.00    -0.076 SA
ATOM     11  C   UNL d   1       3.341  -0.684  -0.059  0.00  0.00     0.053 C 
ATOM     12  C   UNL d   1      -2.815  -1.128   0.022  0.00  0.00    -0.031 A 
ATOM     13  C   UNL d   1      -3.703  -0.057   0.033  0.00  0.00    -0.012 A 
ATOM     14  S   UNL d   1       2.241   1.791  -0.594  0.00  0.00    -0.086 SA
ATOM     15  C   UNL d   1       3.564   0.798   0.031  0.00  0.00     0.142 C 
ATOM     16  O   UNL d   1      -0.144  -2.619   0.012  0.00  0.00    -0.265 OA
ATOM     17  C   UNL d   1      -3.261  -2.558   0.011  0.00  0.00     0.050 C 
ATOM     18  C   UNL d   1      -5.198  -0.056   0.028  0.00  0.00     0.057 C 
ENDROOT
BRANCH  11  19
ATOM     19  C   UNL d   1       4.550  -1.512   0.059  0.00  0.00     0.029 A 
ATOM     20  S   UNL d   1       4.448  -3.228   0.041  0.00  0.00    -0.100 SA
ATOM     21  C   UNL d   1       6.125  -3.412   0.309  0.00  0.00     0.050 A 
ATOM     22  C   UNL d   1       6.771  -2.200   0.383  0.00  0.00     0.008 A 
ATOM     23  C   UNL d   1       5.867  -1.109   0.232  0.00  0.00     0.021 A 
ENDBRANCH  11  19
TORSDOF 1
