REMARK  5 active torsions:
REMARK  status: ('A' for Active; 'I' for Inactive)
REMARK    1  A    between atoms: C_7  and  C_1 
REMARK    2  A    between atoms: C_6  and  C_2 
REMARK    3  A    between atoms: C_9  and  C_5 
REMARK       I    between atoms: N_8  and  C_7 
REMARK    4  A    between atoms: C_19  and  N_8 
REMARK    5  A    between atoms: C_10  and  C_19 
ROOT
ATOM      1  C   UNL d   1       1.163   0.625   0.009  0.00  0.00     0.073 A 
ATOM      2  C   UNL d   1      -0.136   1.113  -0.053  0.00  0.00     0.175 A 
ATOM      3  O   UNL d   1      -1.025   0.066  -0.054  0.00  0.00    -0.304 OA
ATOM      4  C   UNL d   1       1.032  -0.799   0.060  0.00  0.00     0.058 A 
ATOM      5  C   UNL d   1      -0.314  -1.093   0.030  0.00  0.00     0.087 A 
ENDROOT
BRANCH   1   6
ATOM      6  C   UNL d   1       2.372   1.430   0.021  0.00  0.00     0.254 C 
ATOM      7  N   UNL d   1       3.439   0.853   0.661  0.00  0.00    -0.351 N 
ATOM      8  H   UNL d   1       3.365  -0.060   1.087  0.00  0.00     0.163 HD
ATOM      9  O   UNL d   1       2.433   2.537  -0.500  0.00  0.00    -0.268 OA
BRANCH   7  10
ATOM     10  C   UNL d   1       4.715   1.524   0.749  0.00  0.00     0.187 C 
BRANCH  10  11
ATOM     11  C   UNL d   1       5.677   0.677   1.501  0.00  0.00     0.070 A 
ATOM     12  O   UNL d   1       5.514  -0.680   1.420  0.00  0.00    -0.325 OA
ATOM     13  C   UNL d   1       6.501  -1.246   2.161  0.00  0.00     0.142 A 
ATOM     14  C   UNL d   1       7.297  -0.277   2.724  0.00  0.00     0.027 A 
ATOM     15  C   UNL d   1       6.767   0.966   2.300  0.00  0.00     0.036 A 
ENDBRANCH  10  11
ENDBRANCH   7  10
ENDBRANCH   1   6
BRANCH   2  16
ATOM     16  C   UNL d   1      -0.746   2.471  -0.070  0.00  0.00     0.440 C 
ATOM     17  F   UNL d   1       0.141   3.488   0.043  0.00  0.00    -0.164 F 
ATOM     18  F   UNL d   1      -1.456   2.692  -1.208  0.00  0.00    -0.164 F 
ATOM     19  F   UNL d   1      -1.619   2.626   0.964  0.00  0.00    -0.164 F 
ENDBRANCH   2  16
BRANCH   5  20
ATOM     20  C   UNL d   1      -1.088  -2.327   0.121  0.00  0.00    -0.002 A 
ATOM     21  C   UNL d   1      -0.528  -3.461   0.732  0.00  0.00     0.016 A 
ATOM     22  C   UNL d   1      -1.272  -4.635   0.890  0.00  0.00     0.024 A 
ATOM     23  C   UNL d   1      -2.583  -4.689   0.428  0.00  0.00     0.034 A 
ATOM     24  C   UNL d   1      -3.150  -3.587  -0.207  0.00  0.00     0.024 A 
ATOM     25 CL   UNL d   1      -3.510  -6.120   0.658  0.00  0.00    -0.084 Cl
ATOM     26  C   UNL d   1      -2.405  -2.410  -0.358  0.00  0.00     0.016 A 
ENDBRANCH   5  20
TORSDOF 5
