REMARK  5 active torsions:
REMARK  status: ('A' for Active; 'I' for Inactive)
REMARK    1  A    between atoms: C_10  and  N_1 
REMARK    2  A    between atoms: C_4  and  C_3 
REMARK    3  A    between atoms: C_6  and  C_3 
REMARK    4  A    between atoms: N_7  and  C_5 
REMARK    5  A    between atoms: C_15  and  N_7 
ROOT
ATOM      1  N   UNL d   1       0.795   4.923   0.298  0.00  0.00    -0.356 N 
ATOM      2  HN  UNL d   1       1.812   4.982   0.357  1.00  0.00     0.166 HD
ATOM      3  C   UNL d   1       0.275   3.741   0.122  0.00  0.00     0.044 C 
ENDROOT
BRANCH   3   4
ATOM      4  C   UNL d   1       1.193   2.562  -0.025  0.00  0.00     0.047 C 
ATOM      5  C   UNL d   1       2.317   2.391   0.682  0.00  0.00     0.090 C 
BRANCH   5   6
ATOM      6  N   UNL d   1       2.877   3.213   1.620  0.00  0.00    -0.366 N 
ATOM      7  H   UNL d   1       2.439   4.134   1.678  0.00  0.00     0.165 HD
BRANCH   6   8
ATOM      8  C   UNL d   1       4.042   3.015   2.379  0.00  0.00     0.031 A 
ATOM      9  C   UNL d   1       4.861   1.881   2.264  0.00  0.00     0.029 A 
ATOM     10  C   UNL d   1       5.986   1.709   3.077  0.00  0.00     0.002 A 
ATOM     11  C   UNL d   1       6.308   2.667   4.033  0.00  0.00     0.000 A 
ATOM     12  C   UNL d   1       5.503   3.792   4.176  0.00  0.00     0.002 A 
ATOM     13  C   UNL d   1       4.379   3.961   3.358  0.00  0.00     0.029 A 
ENDBRANCH   6   8
ENDBRANCH   5   6
ENDBRANCH   3   4
BRANCH   3  14
ATOM     14  C   UNL d   1      -1.176   3.367   0.056  0.00  0.00    -0.009 A 
ATOM     15  C   UNL d   1      -1.639   2.474  -0.925  0.00  0.00     0.015 A 
ATOM     16  C   UNL d   1      -2.967   2.038  -0.921  0.00  0.00     0.024 A 
ATOM     17  C   UNL d   1      -3.849   2.523   0.040  0.00  0.00     0.034 A 
ATOM     18  C   UNL d   1      -3.415   3.441   0.995  0.00  0.00     0.024 A 
ATOM     19 CL   UNL d   1      -5.480   1.976   0.051  0.00  0.00    -0.084 Cl
ATOM     20  C   UNL d   1      -2.076   3.847   1.017  0.00  0.00     0.015 A 
ENDBRANCH   3  14
BRANCH   1  21
ATOM     21  C   UNL d   1       0.075   6.121   0.413  0.00  0.00     0.032 A 
ATOM     22  C   UNL d   1       0.476   7.026   1.401  0.00  0.00     0.029 A 
ATOM     23  C   UNL d   1      -0.185   8.244   1.581  0.00  0.00     0.002 A 
ATOM     24  C   UNL d   1      -1.266   8.571   0.765  0.00  0.00     0.000 A 
ATOM     25  C   UNL d   1      -1.649   7.699  -0.254  0.00  0.00     0.002 A 
ATOM     26  C   UNL d   1      -0.963   6.499  -0.446  0.00  0.00     0.029 A 
ENDBRANCH   1  21
TORSDOF 5
