REMARK  9 active torsions:
REMARK  status: ('A' for Active; 'I' for Inactive)
REMARK    1  A    between atoms: C_9  and  S_1 
REMARK    2  A    between atoms: C_10  and  S_1 
REMARK    3  A    between atoms: C_12  and  C_2 
REMARK    4  A    between atoms: C_8  and  C_14 
REMARK    5  A    between atoms: C_18  and  C_9 
REMARK    6  A    between atoms: C_32  and  C_18 
REMARK    7  A    between atoms: O_36  and  C_18 
REMARK    8  A    between atoms: C_26  and  O_29 
REMARK    9  A    between atoms: O_29  and  C_32 
ROOT
ATOM      1  O   UNL d   1       3.054   0.569   1.769  0.00  0.00    -0.349 OA
ENDROOT
BRANCH   1   2
ATOM      2  C   UNL d   1       4.425   0.499   1.674  0.00  0.00     0.071 A 
ATOM      3  C   UNL d   1       4.976  -0.789   1.579  0.00  0.00     0.075 A 
ATOM      4  C   UNL d   1       6.365  -0.964   1.509  0.00  0.00     0.093 A 
ATOM      5  O   UNL d   1       6.861  -2.247   1.428  0.00  0.00    -0.309 OA
ATOM      6  C   UNL d   1       7.195   0.154   1.533  0.00  0.00     0.048 A 
ATOM      7  C   UNL d   1       8.245  -2.421   1.396  0.00  0.00     0.090 A 
ATOM      8  C   UNL d   1       9.127  -1.413   1.400  0.00  0.00     0.093 A 
ATOM      9  C   UNL d   1       8.648  -0.029   1.472  0.00  0.00     0.187 A 
ATOM     10  O   UNL d   1       9.432   0.910   1.485  0.00  0.00    -0.287 OA
ATOM     11  C   UNL d   1       6.661   1.439   1.616  0.00  0.00     0.021 A 
ATOM     12  C   UNL d   1       5.278   1.608   1.684  0.00  0.00     0.038 A 
BRANCH   7  13
ATOM     13  C   UNL d   1       8.713  -3.825   1.319  0.00  0.00    -0.002 A 
ATOM     14  C   UNL d   1       9.906  -4.235   1.943  0.00  0.00     0.016 A 
ATOM     15  C   UNL d   1      10.374  -5.547   1.825  0.00  0.00     0.024 A 
ATOM     16  C   UNL d   1       9.642  -6.476   1.092  0.00  0.00     0.034 A 
ATOM     17  C   UNL d   1       8.445  -6.102   0.488  0.00  0.00     0.024 A 
ATOM     18 CL   UNL d   1      10.223  -8.086   0.934  0.00  0.00    -0.084 Cl
ATOM     19  C   UNL d   1       7.982  -4.786   0.603  0.00  0.00     0.016 A 
ENDBRANCH   7  13
ENDBRANCH   1   2
BRANCH   1  20
ATOM     20  C   UNL d   1       2.499   1.895   1.802  0.00  0.00     0.208 C 
BRANCH  20  21
ATOM     21  C   UNL d   1       0.987   1.835   2.055  0.00  0.00     0.156 C 
BRANCH  21  22
ATOM     22  C   UNL d   1       0.576   1.116   3.331  0.00  0.00     0.179 C 
BRANCH  22  23
ATOM     23  S   UNL d   1       1.185   1.917   4.797  0.00  0.00     0.178 S 
ATOM     24  O   UNL d   1       0.645   3.263   4.831  0.00  0.00    -0.223 OA
ATOM     25  O   UNL d   1       2.610   1.685   4.914  0.00  0.00    -0.223 OA
BRANCH  23  26
ATOM     26  C   UNL d   1       0.417   0.987   6.102  0.00  0.00     0.059 A 
ATOM     27  C   UNL d   1       0.776  -0.354   6.266  0.00  0.00     0.024 A 
ATOM     28  C   UNL d   1       0.131  -1.122   7.233  0.00  0.00     0.017 A 
ATOM     29  C   UNL d   1      -0.863  -0.554   8.049  0.00  0.00     0.048 A 
ATOM     30  C   UNL d   1      -1.175   0.808   7.899  0.00  0.00     0.017 A 
ATOM     31  C   UNL d   1      -0.537   1.582   6.927  0.00  0.00     0.024 A 
BRANCH  29  32
ATOM     32  C   UNL d   1      -1.585  -1.419   9.055  0.00  0.00     0.417 C 
ATOM     33  F   UNL d   1      -2.522  -0.748   9.780  0.00  0.00    -0.166 F 
ATOM     34  F   UNL d   1      -2.243  -2.453   8.460  0.00  0.00    -0.166 F 
ATOM     35  F   UNL d   1      -0.741  -1.984   9.961  0.00  0.00    -0.166 F 
ENDBRANCH  29  32
ENDBRANCH  23  26
ENDBRANCH  22  23
ENDBRANCH  21  22
BRANCH  21  36
ATOM     36  O   UNL d   1       0.352   1.164   0.954  0.00  0.00    -0.392 OA
ATOM     37  H   UNL d   1       0.887   0.373   0.750  0.00  0.00     0.210 HD
ENDBRANCH  21  36
ENDBRANCH  20  21
ENDBRANCH   1  20
TORSDOF 9
