REMARK  5 active torsions:
REMARK  status: ('A' for Active; 'I' for Inactive)
REMARK    1  A    between atoms: N_3  and  S_1 
REMARK    2  A    between atoms: C_8  and  S_1 
REMARK       I    between atoms: C_2  and  N_5 
REMARK    3  A    between atoms: O_9  and  C_2 
REMARK    4  A    between atoms: N_4  and  C_13 
REMARK    5  A    between atoms: C_19  and  O_9 
ROOT
ATOM      1  S   UNL d   1       1.071   0.208   0.157  0.00  0.00     0.243 S 
ATOM      2  O   UNL d   1       2.364   0.857   0.056  0.00  0.00    -0.206 OA
ATOM      3  O   UNL d   1       0.865  -0.886   1.083  0.00  0.00    -0.206 OA
ENDROOT
BRANCH   1   4
ATOM      4  N   UNL d   1       0.656  -0.350  -1.423  0.00  0.00    -0.205 NA
ATOM      5  C   UNL d   1       0.894   0.668  -2.509  0.00  0.00     0.127 C 
ATOM      6  C   UNL d   1       0.235   0.277  -3.843  0.00  0.00     0.143 C 
ATOM      7  N   UNL d   1       0.681  -1.005  -4.389  0.00  0.00    -0.327 N 
ATOM      8  C   UNL d   1       1.772  -1.145  -5.234  0.00  0.00     0.363 C 
ATOM      9  C   UNL d   1       0.019  -2.197  -3.882  0.00  0.00     0.129 C 
ATOM     10  O   UNL d   1       2.146  -2.222  -5.684  0.00  0.00    -0.238 OA
ATOM     11  C   UNL d   1       0.431  -2.598  -2.466  0.00  0.00     0.035 C 
ATOM     12  C   UNL d   1       1.366  -1.638  -1.743  0.00  0.00     0.109 C 
BRANCH   8  13
ATOM     13  O   UNL d   1       2.370   0.043  -5.508  0.00  0.00    -0.294 OA
BRANCH  13  14
ATOM     14  C   UNL d   1       3.415   0.137  -6.515  0.00  0.00     0.061 C 
ATOM     15  C   UNL d   1       2.868  -0.240  -7.897  0.00  0.00     0.046 C 
ATOM     16  C   UNL d   1       3.807   1.624  -6.524  0.00  0.00     0.046 C 
ATOM     17  C   UNL d   1       4.657  -0.687  -6.155  0.00  0.00     0.046 C 
ENDBRANCH  13  14
ENDBRANCH   8  13
ENDBRANCH   1   4
BRANCH   1  18
ATOM     18  C   UNL d   1      -0.138   1.452   0.569  0.00  0.00     0.074 A 
ATOM     19  C   UNL d   1      -1.283   1.081   1.283  0.00  0.00     0.027 A 
ATOM     20  C   UNL d   1      -2.125   2.062   1.825  0.00  0.00     0.033 A 
ATOM     21  C   UNL d   1      -1.822   3.420   1.654  0.00  0.00     0.056 A 
ATOM     22  C   UNL d   1      -0.686   3.783   0.909  0.00  0.00     0.033 A 
ATOM     23  C   UNL d   1       0.164   2.804   0.384  0.00  0.00     0.027 A 
BRANCH  21  24
ATOM     24  N   UNL d   1      -2.615   4.440   2.258  0.00  0.00    -0.268 N 
ATOM     25  N   UNL d   1      -2.337   5.755   2.047  0.00  0.00    -0.305 N 
ATOM     26  C   UNL d   1      -3.236   6.416   2.776  0.00  0.00     0.109 A 
ATOM     27  HN  UNL d   1      -1.602   6.149   1.459  1.00  0.00     0.186 HD
ATOM     28  C   UNL d   1      -4.104   5.559   3.463  0.00  0.00     0.038 A 
ATOM     29  C   UNL d   1      -3.689   4.296   3.113  0.00  0.00     0.118 A 
ENDBRANCH  21  24
ENDBRANCH   1  18
TORSDOF 5
