REMARK  1 active torsions:
REMARK  status: ('A' for Active; 'I' for Inactive)
REMARK    1  A    between atoms: S_13  and  C_9 
ROOT
ATOM      1  C   UNL d   1       1.211  -0.844   0.001  0.00  0.00     0.137 A 
ATOM      2  C   UNL d   1       0.812   0.481  -0.000  0.00  0.00     0.104 A 
ATOM      3  N   UNL d   1       2.475  -1.295   0.002  0.00  0.00    -0.320 N 
ATOM      4  HN  UNL d   1       2.737  -2.281   0.003  1.00  0.00     0.169 HD
ATOM      5  N   UNL d   1       0.092  -1.621   0.001  0.00  0.00    -0.340 N 
ATOM      6  N   UNL d   1       1.751   1.460  -0.000  0.00  0.00    -0.294 N 
ATOM      7  HN  UNL d   1       1.499   2.449  -0.001  1.00  0.00     0.187 HD
ATOM      8  C   UNL d   1      -0.612   0.502  -0.001  0.00  0.00     0.022 A 
ATOM      9  C   UNL d   1       3.353  -0.271   0.001  0.00  0.00     0.160 A 
ATOM     10  C   UNL d   1      -1.037  -0.833  -0.000  0.00  0.00     0.046 A 
ATOM     11  N   UNL d   1       3.032   1.053   0.000  0.00  0.00    -0.279 N 
ATOM     12  HN  UNL d   1       3.778   1.748  -0.000  1.00  0.00     0.189 HD
ATOM     13  C   UNL d   1      -1.592   1.517  -0.003  0.00  0.00     0.016 A 
ATOM     14  C   UNL d   1      -2.387  -1.201  -0.000  0.00  0.00     0.030 A 
ATOM     15  C   UNL d   1      -2.949   1.163  -0.003  0.00  0.00     0.001 A 
ATOM     16  C   UNL d   1      -3.337  -0.176  -0.001  0.00  0.00     0.002 A 
ATOM     17  H   UNL d   1       0.106  -2.632   0.002  0.00  0.00     0.167 HD
ENDROOT
BRANCH   9  18
ATOM     18  S   UNL d   1       5.067  -0.767   0.001  0.00  0.00    -0.097 SA
ATOM     19  C   UNL d   1       5.903   0.835   0.004  0.00  0.00     0.099 C 
ENDBRANCH   9  18
TORSDOF 1
