REMARK  2 active torsions:
REMARK  status: ('A' for Active; 'I' for Inactive)
REMARK    1  A    between atoms: C_2  and  N_1 
REMARK    2  A    between atoms: N_3  and  C_7 
ROOT
ATOM      1  C   UNL d   1       0.020   2.307  -0.014  0.00  0.00     0.054 A 
ATOM      2  C   UNL d   1       0.727   3.007  -1.008  0.00  0.00     0.066 A 
ATOM      3  C   UNL d   1       0.678   4.406  -1.058  0.00  0.00     0.105 A 
ATOM      4  C   UNL d   1      -0.679   3.032   0.977  0.00  0.00    -0.034 A 
ATOM      5  C   UNL d   1      -0.035   5.129  -0.099  0.00  0.00     0.037 A 
ATOM      6  C   UNL d   1      -0.700   4.439   0.915  0.00  0.00     0.011 A 
ATOM      7  C   UNL d   1      -1.364   2.394   2.158  0.00  0.00     0.050 C 
ENDROOT
BRANCH   1   8
ATOM      8  N   UNL d   1       0.015   0.893  -0.057  0.00  0.00    -0.245 N 
ATOM      9  C   UNL d   1      -1.109   0.120  -0.037  0.00  0.00     0.255 A 
ATOM     10  C   UNL d   1      -0.676  -1.274  -0.203  0.00  0.00     0.080 A 
ATOM     11  O   UNL d   1      -2.286   0.432   0.022  0.00  0.00    -0.268 OA
ATOM     12  C   UNL d   1       0.646  -1.276  -0.365  0.00  0.00     0.080 A 
ATOM     13  C   UNL d   1       1.107   0.118  -0.320  0.00  0.00     0.255 A 
ATOM     14  O   UNL d   1       2.276   0.427  -0.469  0.00  0.00    -0.268 OA
ENDBRANCH   1   8
BRANCH   3  15
ATOM     15  N   UNL d   1       1.349   5.119  -2.151  0.00  0.00    -0.116 N 
ATOM     16  O   UNL d   1       1.848   4.442  -3.062  0.00  0.00    -0.532 OA
ATOM     17  O   UNL d   1       1.363   6.358  -2.109  0.00  0.00    -0.532 OA
ENDBRANCH   3  15
TORSDOF 2
