REMARK  4 active torsions:
REMARK  status: ('A' for Active; 'I' for Inactive)
REMARK    1  A    between atoms: C_6  and  C_1 
REMARK    2  A    between atoms: C_4  and  O_5 
REMARK    3  A    between atoms: O_5  and  C_6 
REMARK    4  A    between atoms: N_13  and  C_11 
ROOT
ATOM      1  N   UNL d   1       1.516  -2.051   4.091  0.00  0.00    -0.345 N 
ATOM      2  HN  UNL d   1       2.476  -2.159   3.762  1.00  0.00     0.167 HD
ATOM      3  C   UNL d   1       0.552  -1.562   3.292  0.00  0.00     0.142 A 
ATOM      4  C   UNL d   1       1.160  -2.395   5.352  0.00  0.00     0.113 A 
ATOM      5  C   UNL d   1      -0.112  -2.232   5.893  0.00  0.00     0.021 A 
ATOM      6  C   UNL d   1      -0.765  -1.430   3.705  0.00  0.00     0.058 A 
ATOM      7  C   UNL d   1      -1.097  -1.782   5.017  0.00  0.00     0.029 A 
ENDROOT
BRANCH   3   8
ATOM      8  O   UNL d   1       0.995  -1.278   2.034  0.00  0.00    -0.327 OA
BRANCH   8   9
ATOM      9  C   UNL d   1       0.343  -0.191   1.377  0.00  0.00     0.294 C 
BRANCH   9  10
ATOM     10  C   UNL d   1       1.240   0.428   0.308  0.00  0.00     0.408 C 
ATOM     11  F   UNL d   1       2.449  -0.161   0.213  0.00  0.00    -0.169 F 
ATOM     12  F   UNL d   1       1.447   1.743   0.564  0.00  0.00    -0.169 F 
ATOM     13  F   UNL d   1       0.653   0.350  -0.911  0.00  0.00    -0.169 F 
ENDBRANCH   9  10
ENDBRANCH   8   9
ENDBRANCH   3   8
BRANCH   5  14
ATOM     14  N   UNL d   1      -0.451  -2.725   7.155  0.00  0.00    -0.302 NA
ATOM     15  H   UNL d   1      -1.279  -2.298   7.561  0.00  0.00     0.124 HD
ATOM     16  H   UNL d   1       0.322  -2.760   7.812  0.00  0.00     0.124 HD
ENDBRANCH   5  14
TORSDOF 4
