REMARK  5 active torsions:
REMARK  status: ('A' for Active; 'I' for Inactive)
REMARK    1  A    between atoms: C_9  and  N_1 
REMARK    2  A    between atoms: C_7  and  C_2 
REMARK    3  A    between atoms: N_10  and  C_8 
REMARK    4  A    between atoms: C_11  and  N_10 
REMARK    5  A    between atoms: O_17  and  C_12 
ROOT
ATOM      1  N   UNL d   1       4.726  -0.540  -0.881  0.00  0.00    -0.225 N 
ATOM      2  C   UNL d   1       3.663  -0.643   0.024  0.00  0.00     0.139 A 
ATOM      3  N   UNL d   1       5.194   0.607   0.883  0.00  0.00    -0.007 NA
ATOM      4  N   UNL d   1       5.676   0.240  -0.290  0.00  0.00     0.001 NA
ATOM      5  N   UNL d   1       3.952   0.087   1.086  0.00  0.00    -0.270 N 
ATOM      6  HN  UNL d   1       3.358   0.232   1.903  1.00  0.00     0.185 HD
ENDROOT
BRANCH   2   7
ATOM      7  C   UNL d   1       2.473  -1.362  -0.226  0.00  0.00     0.063 C 
ATOM      8  C   UNL d   1       2.300  -2.631   0.171  0.00  0.00     0.066 C 
BRANCH   8   9
ATOM      9  N   UNL d   1       3.181  -3.464   0.831  0.00  0.00    -0.270 NA
ATOM     10  H   UNL d   1       3.266  -4.363   0.351  0.00  0.00     0.133 HD
BRANCH   9  11
ATOM     11  C   UNL d   1       3.041  -3.769   2.218  0.00  0.00     0.012 A 
ATOM     12  C   UNL d   1       2.247  -3.017   3.093  0.00  0.00     0.026 A 
ATOM     13  C   UNL d   1       2.193  -3.316   4.463  0.00  0.00     0.038 A 
ATOM     14  C   UNL d   1       2.971  -4.345   4.991  0.00  0.00     0.068 A 
ATOM     15  C   UNL d   1       3.785  -5.082   4.130  0.00  0.00     0.038 A 
ATOM     16  C   UNL d   1       3.826  -4.794   2.762  0.00  0.00     0.026 A 
BRANCH  14  17
ATOM     17  O   UNL d   1       3.047  -4.713   6.304  0.00  0.00    -0.356 OA
ATOM     18  C   UNL d   1       2.249  -3.988   7.231  0.00  0.00     0.210 C 
ENDBRANCH  14  17
ENDBRANCH   9  11
ENDBRANCH   8   9
ENDBRANCH   2   7
BRANCH   1  19
ATOM     19  C   UNL d   1       4.951  -1.042  -2.200  0.00  0.00     0.056 A 
ATOM     20  C   UNL d   1       3.979  -1.737  -2.931  0.00  0.00     0.031 A 
ATOM     21  C   UNL d   1       4.266  -2.222  -4.214  0.00  0.00     0.002 A 
ATOM     22  C   UNL d   1       5.517  -2.015  -4.787  0.00  0.00     0.000 A 
ATOM     23  C   UNL d   1       6.486  -1.308  -4.083  0.00  0.00     0.002 A 
ATOM     24  C   UNL d   1       6.205  -0.821  -2.802  0.00  0.00     0.031 A 
ENDBRANCH   1  19
TORSDOF 5
