REMARK  4 active torsions:
REMARK  status: ('A' for Active; 'I' for Inactive)
REMARK    1  A    between atoms: C_4  and  C_1 
REMARK    2  A    between atoms: C_5  and  C_1 
REMARK    3  A    between atoms: O_7  and  N_2 
REMARK    4  A    between atoms: S_6  and  C_5 
ROOT
ATOM      1  C   UNL d   1       1.066  -0.073  -0.001  0.00  0.00     0.055 C 
ATOM      2  N   UNL d   1       0.370  -1.150   0.265  0.00  0.00    -0.271 N 
ATOM      3  HN  UNL d   1      -0.649  -1.158   0.298  1.00  0.00     0.194 HD
ENDROOT
BRANCH   1   4
ATOM      4  C   UNL d   1       2.567   0.042   0.045  0.00  0.00    -0.011 A 
ATOM      5  C   UNL d   1       3.256   0.816  -0.900  0.00  0.00     0.013 A 
ATOM      6  C   UNL d   1       4.649   0.928  -0.850  0.00  0.00     0.001 A 
ATOM      7  C   UNL d   1       5.369   0.265   0.140  0.00  0.00     0.000 A 
ATOM      8  C   UNL d   1       4.696  -0.494   1.093  0.00  0.00     0.001 A 
ATOM      9  C   UNL d   1       3.302  -0.592   1.055  0.00  0.00     0.013 A 
ENDBRANCH   1   4
BRANCH   1  10
ATOM     10  C   UNL d   1       0.272   1.195  -0.376  0.00  0.00     0.095 C 
ATOM     11  C   UNL d   1      -1.019   1.351   0.424  0.00  0.00     0.028 C 
BRANCH  10  12
ATOM     12  S   UNL d   1      -0.068   1.254  -2.188  0.00  0.00    -0.163 SA
ATOM     13  C   UNL d   1      -1.029  -0.263  -2.430  0.00  0.00     0.090 C 
ENDBRANCH  10  12
ENDBRANCH   1  10
BRANCH   2  14
ATOM     14  O   UNL d   1       1.147  -2.285   0.497  0.00  0.00    -0.290 OA
ATOM     15  H   UNL d   1       0.472  -2.966   0.680  0.00  0.00     0.244 HD
ENDBRANCH   2  14
TORSDOF 4
