REMARK  3 active torsions:
REMARK  status: ('A' for Active; 'I' for Inactive)
REMARK    1  A    between atoms: O_2  and  S_1 
REMARK    2  A    between atoms: C_4  and  S_1 
REMARK    3  A    between atoms: C_3  and  O_2 
ROOT
ATOM      1  S   UNL d   1       1.113   0.051  -0.016  0.00  0.00     0.303 S 
ATOM      2  O   UNL d   1       0.436   0.536  -1.202  0.00  0.00    -0.193 OA
ATOM      3  O   UNL d   1       2.556   0.161   0.119  0.00  0.00    -0.193 OA
ENDROOT
BRANCH   1   4
ATOM      4  O   UNL d   1       0.655  -1.494   0.255  0.00  0.00    -0.228 OA
BRANCH   4   5
ATOM      5  C   UNL d   1       0.967  -2.501  -0.631  0.00  0.00     0.107 A 
ATOM      6  C   UNL d   1       0.070  -3.570  -0.767  0.00  0.00     0.046 A 
ATOM      7  C   UNL d   1       0.365  -4.644  -1.618  0.00  0.00     0.028 A 
ATOM      8 BR   UNL d   1      -1.571  -3.610   0.187  0.00  0.00    -0.048 Br
ATOM      9  C   UNL d   1       1.565  -4.668  -2.338  0.00  0.00    -0.061 A 
ATOM     10  C   UNL d   1       2.462  -3.608  -2.190  0.00  0.00     0.009 A 
ATOM     11  C   UNL d   1       1.890  -5.819  -3.243  0.00  0.00     0.048 C 
ATOM     12  C   UNL d   1       2.169  -2.537  -1.341  0.00  0.00     0.040 A 
ENDBRANCH   4   5
ENDBRANCH   1   4
BRANCH   1  13
ATOM     13  C   UNL d   1       0.448   0.931   1.381  0.00  0.00     0.086 A 
ATOM     14  C   UNL d   1       0.895   0.590   2.661  0.00  0.00     0.026 A 
ATOM     15  C   UNL d   1       0.408   1.288   3.766  0.00  0.00     0.008 A 
ATOM     16  C   UNL d   1      -0.521   2.324   3.598  0.00  0.00    -0.062 A 
ATOM     17  C   UNL d   1      -0.945   2.667   2.306  0.00  0.00     0.008 A 
ATOM     18  C   UNL d   1      -1.048   3.051   4.801  0.00  0.00     0.048 C 
ATOM     19  C   UNL d   1      -0.462   1.973   1.194  0.00  0.00     0.026 A 
ENDBRANCH   1  13
TORSDOF 3
