REMARK  6 active torsions:
REMARK  status: ('A' for Active; 'I' for Inactive)
REMARK       I    between atoms: N_3  and  C_1 
REMARK    1  A    between atoms: C_6  and  C_1 
REMARK       I    between atoms: C_2  and  N_4 
REMARK    2  A    between atoms: C_5  and  C_2 
REMARK    3  A    between atoms: N_4  and  N_3 
REMARK    4  A    between atoms: C_15  and  C_6 
REMARK    5  A    between atoms: C_16  and  C_6 
REMARK    6  A    between atoms: N_8  and  C_7 
ROOT
ATOM      1  C   UNL d   1       1.145  -0.042  -0.050  0.00  0.00     0.244 C 
ATOM      2  N   UNL d   1       0.431  -0.778  -0.977  0.00  0.00    -0.267 N 
ATOM      3  O   UNL d   1       2.365   0.117  -0.143  0.00  0.00    -0.271 OA
ATOM      4  H   UNL d   1      -0.525  -1.102  -0.827  0.00  0.00     0.190 HD
ENDROOT
BRANCH   2   5
ATOM      5  N   UNL d   1       1.138  -1.377  -2.025  0.00  0.00    -0.263 N 
ATOM      6  C   UNL d   1       0.525  -2.369  -2.766  0.00  0.00     0.270 C 
ATOM      7  O   UNL d   1      -0.611  -2.761  -2.531  0.00  0.00    -0.266 OA
ATOM      8  H   UNL d   1       2.048  -0.971  -2.234  0.00  0.00     0.190 HD
BRANCH   6   9
ATOM      9  C   UNL d   1       1.308  -2.914  -3.921  0.00  0.00     0.033 A 
ATOM     10  C   UNL d   1       2.695  -2.799  -4.026  0.00  0.00     0.019 A 
ATOM     11  C   UNL d   1       3.368  -3.303  -5.155  0.00  0.00     0.030 A 
ATOM     12  C   UNL d   1       2.698  -3.950  -6.206  0.00  0.00     0.029 A 
ATOM     13  C   UNL d   1       1.306  -4.081  -6.054  0.00  0.00     0.030 A 
ATOM     14  C   UNL d   1       0.619  -3.575  -4.938  0.00  0.00     0.019 A 
BRANCH  12  15
ATOM     15  N   UNL d   1       3.359  -4.479  -7.304  0.00  0.00    -0.390 N 
ATOM     16  C   UNL d   1       2.729  -4.513  -8.624  0.00  0.00     0.149 C 
ATOM     17  C   UNL d   1       4.802  -4.704  -7.317  0.00  0.00     0.149 C 
ENDBRANCH  12  15
ENDBRANCH   6   9
ENDBRANCH   2   5
BRANCH   1  18
ATOM     18  C   UNL d   1       0.287   0.585   1.054  0.00  0.00     0.112 C 
BRANCH  18  19
ATOM     19  C   UNL d   1       0.061  -0.374   2.217  0.00  0.00    -0.045 A 
ATOM     20  C   UNL d   1       1.138  -0.935   2.923  0.00  0.00     0.008 A 
ATOM     21  C   UNL d   1       0.914  -1.755   4.031  0.00  0.00     0.001 A 
ATOM     22  C   UNL d   1      -0.388  -2.027   4.447  0.00  0.00     0.000 A 
ATOM     23  C   UNL d   1      -1.466  -1.484   3.753  0.00  0.00     0.001 A 
ATOM     24  C   UNL d   1      -1.244  -0.661   2.646  0.00  0.00     0.008 A 
ENDBRANCH  18  19
BRANCH  18  25
ATOM     25  C   UNL d   1       0.904   1.901   1.574  0.00  0.00     0.014 C 
ATOM     26  C   UNL d   1       0.940   2.995   0.514  0.00  0.00     0.006 C 
ENDBRANCH  18  25
ENDBRANCH   1  18
TORSDOF 6
