REMARK  7 active torsions:
REMARK  status: ('A' for Active; 'I' for Inactive)
REMARK    1  A    between atoms: C_1  and  O_7 
REMARK    2  A    between atoms: C_2  and  O_8 
REMARK    3  A    between atoms: C_3  and  O_9 
REMARK    4  A    between atoms: C_5  and  O_10 
REMARK    5  A    between atoms: C_6  and  C_12 
REMARK    6  A    between atoms: C_11  and  O_7 
REMARK    7  A    between atoms: O_13  and  C_12 
ROOT
ATOM      1  C   UNL d   1       1.091   1.380  -0.197  0.00  0.00     0.298 C 
ATOM      2  C   UNL d   1       1.201  -0.097   0.236  0.00  0.00     0.205 C 
ATOM      3  C   UNL d   1      -0.080  -0.840  -0.165  0.00  0.00     0.183 C 
ATOM      4  O   UNL d   1      -0.097   1.957   0.358  0.00  0.00    -0.348 OA
ATOM      5  C   UNL d   1      -1.340  -0.122   0.339  0.00  0.00     0.180 C 
ATOM      6  C   UNL d   1      -1.296   1.345  -0.116  0.00  0.00     0.179 C 
ENDROOT
BRANCH   1   7
ATOM      7  O   UNL d   1       2.239   2.093   0.272  0.00  0.00    -0.318 OA
BRANCH   7   8
ATOM      8  C   UNL d   1       2.436   3.350  -0.234  0.00  0.00     0.072 A 
ATOM      9  C   UNL d   1       1.594   4.019  -1.128  0.00  0.00     0.037 A 
ATOM     10  C   UNL d   1       1.917   5.304  -1.579  0.00  0.00     0.003 A 
ATOM     11  C   UNL d   1       3.069   5.936  -1.126  0.00  0.00     0.000 A 
ATOM     12  C   UNL d   1       3.912   5.278  -0.226  0.00  0.00     0.003 A 
ATOM     13  C   UNL d   1       3.592   3.993   0.220  0.00  0.00     0.037 A 
ENDBRANCH   7   8
ENDBRANCH   1   7
BRANCH   2  14
ATOM     14  O   UNL d   1       2.310  -0.757  -0.398  0.00  0.00    -0.388 OA
ATOM     15  H   UNL d   1       2.148  -1.716  -0.311  0.00  0.00     0.210 HD
ENDBRANCH   2  14
BRANCH   3  16
ATOM     16  O   UNL d   1      -0.023  -2.194   0.310  0.00  0.00    -0.390 OA
ATOM     17  H   UNL d   1      -0.103  -2.185   1.281  0.00  0.00     0.210 HD
ENDBRANCH   3  16
BRANCH   6  18
ATOM     18  C   UNL d   1      -2.491   2.147   0.415  0.00  0.00     0.198 C 
BRANCH  18  19
ATOM     19  O   UNL d   1      -3.729   1.676  -0.104  0.00  0.00    -0.398 OA
ATOM     20  H   UNL d   1      -3.743   0.704   0.027  0.00  0.00     0.209 HD
ENDBRANCH  18  19
ENDBRANCH   6  18
BRANCH   5  21
ATOM     21  O   UNL d   1      -2.532  -0.760  -0.133  0.00  0.00    -0.390 OA
ATOM     22  H   UNL d   1      -2.298  -1.345  -0.878  0.00  0.00     0.210 HD
ENDBRANCH   5  21
TORSDOF 7
