REMARK  1 active torsions:
REMARK  status: ('A' for Active; 'I' for Inactive)
REMARK    1  A    between atoms: O_12  and  C_10 
ROOT
ATOM      1  C   UNL d   1       0.591   4.210  -5.426  0.00  0.00     0.186 C 
ATOM      2  N   UNL d   1       1.069   5.537  -4.929  0.00  0.00     0.102 N 
ATOM      3  C   UNL d   1      -0.941   4.151  -5.586  0.00  0.00    -0.014 A 
ATOM      4  C   UNL d   1       1.165   3.099  -4.489  0.00  0.00     0.078 C 
ATOM      5  C   UNL d   1      -1.710   5.333  -5.631  0.00  0.00    -0.048 A 
ATOM      6  C   UNL d   1       0.835   5.774  -3.490  0.00  0.00     0.276 C 
ATOM      7  C   UNL d   1       0.471   6.638  -5.710  0.00  0.00     0.278 C 
ATOM      8  C   UNL d   1      -1.059   6.696  -5.616  0.00  0.00     0.069 C 
ATOM      9  C   UNL d   1       1.393   4.687  -2.584  0.00  0.00     0.062 C 
ATOM     10  C   UNL d   1       0.896   3.313  -3.002  0.00  0.00     0.122 C 
ATOM     11  C   UNL d   1       1.210   3.933  -6.826  0.00  0.00     0.055 C 
ATOM     12  C   UNL d   1      -1.618   2.919  -5.683  0.00  0.00     0.010 A 
ATOM     13  C   UNL d   1      -3.112   5.260  -5.639  0.00  0.00     0.008 A 
ATOM     14  C   UNL d   1      -3.011   2.857  -5.705  0.00  0.00     0.001 A 
ATOM     15  C   UNL d   1      -3.759   4.027  -5.658  0.00  0.00     0.001 A 
ENDROOT
BRANCH  10  16
ATOM     16  O   UNL d   1      -0.472   3.136  -2.656  0.00  0.00    -0.395 OA
ATOM     17  H   UNL d   1      -1.017   3.760  -3.166  0.00  0.00     0.210 HD
ENDBRANCH  10  16
TORSDOF 1
