REMARK  3 active torsions:
REMARK  status: ('A' for Active; 'I' for Inactive)
REMARK    1  A    between atoms: C_11  and  C_5 
REMARK    2  A    between atoms: S_12  and  C_7 
REMARK    3  A    between atoms: N_13  and  C_8 
ROOT
ATOM      1  N   UNL d   1       1.669  -1.313  -0.056  0.00  0.00    -0.335 N 
ATOM      2  HN  UNL d   1       2.254  -2.147  -0.113  1.00  0.00     0.168 HD
ATOM      3  N   UNL d   1       1.494   1.047   0.041  0.00  0.00    -0.331 N 
ATOM      4  HN  UNL d   1       1.949   1.960   0.061  1.00  0.00     0.168 HD
ATOM      5  C   UNL d   1       2.212  -0.087  -0.019  0.00  0.00     0.117 A 
ATOM      6  C   UNL d   1      -0.489  -0.289   0.056  0.00  0.00     0.116 A 
ATOM      7  C   UNL d   1       0.327  -1.406  -0.015  0.00  0.00     0.095 A 
ATOM      8  C   UNL d   1       0.158   0.935   0.075  0.00  0.00     0.103 A 
ATOM      9  C   UNL d   1      -1.915  -0.366   0.086  0.00  0.00     0.105 C 
ATOM     10  N   UNL d   1      -3.075  -0.381   0.073  0.00  0.00    -0.191 NA
ENDROOT
BRANCH   7  11
ATOM     11  S   UNL d   1      -0.332  -3.075  -0.050  0.00  0.00    -0.115 SA
ATOM     12  C   UNL d   1       1.198  -4.054  -0.112  0.00  0.00     0.097 C 
ENDBRANCH   7  11
BRANCH   8  13
ATOM     13  N   UNL d   1      -0.519   2.143   0.230  0.00  0.00    -0.287 NA
ATOM     14  H   UNL d   1      -1.332   2.266  -0.363  0.00  0.00     0.125 HD
ATOM     15  H   UNL d   1       0.145   2.910   0.149  0.00  0.00     0.125 HD
ENDBRANCH   8  13
BRANCH   5  16
ATOM     16  C   UNL d   1       3.682   0.007  -0.022  0.00  0.00     0.008 A 
ATOM     17  C   UNL d   1       4.342   1.246   0.052  0.00  0.00     0.016 A 
ATOM     18  C   UNL d   1       5.738   1.330   0.061  0.00  0.00     0.007 A 
ATOM     19  C   UNL d   1       6.519   0.173  -0.007  0.00  0.00    -0.062 A 
ATOM     20  C   UNL d   1       5.884  -1.068  -0.079  0.00  0.00     0.007 A 
ATOM     21  C   UNL d   1       8.014   0.274   0.010  0.00  0.00     0.048 C 
ATOM     22  C   UNL d   1       4.488  -1.146  -0.088  0.00  0.00     0.016 A 
ENDBRANCH   5  16
TORSDOF 3
