REMARK  8 active torsions:
REMARK  status: ('A' for Active; 'I' for Inactive)
REMARK    1  A    between atoms: C_6  and  C_1 
REMARK    2  A    between atoms: N_2  and  C_3 
REMARK    3  A    between atoms: C_4  and  C_7 
REMARK    4  A    between atoms: C_5  and  C_8 
REMARK    5  A    between atoms: S_11  and  C_6 
REMARK    6  A    between atoms: C_10  and  N_14 
REMARK    7  A    between atoms: C_28  and  S_11 
REMARK    8  A    between atoms: C_13  and  C_28 
REMARK       I    between atoms: N_14  and  C_13 
ROOT
ATOM      1  C   UNL d   1       3.336  -4.267  -0.114  0.00  0.00     0.231 C 
ATOM      2  N   UNL d   1       4.030  -4.631  -1.256  0.00  0.00    -0.326 N 
ATOM      3  O   UNL d   1       3.342  -4.879   0.953  0.00  0.00    -0.272 OA
ATOM      4  H   UNL d   1       4.064  -3.927  -1.987  0.00  0.00     0.169 HD
ENDROOT
BRANCH   1   5
ATOM      5  C   UNL d   1       2.429  -3.057  -0.253  0.00  0.00     0.185 C 
BRANCH   5   6
ATOM      6  S   UNL d   1       2.940  -1.826  -1.476  0.00  0.00    -0.078 SA
BRANCH   6   7
ATOM      7  C   UNL d   1       4.421  -1.235  -0.725  0.00  0.00     0.222 C 
ATOM      8  O   UNL d   1       5.386  -1.977  -0.640  0.00  0.00    -0.280 OA
BRANCH   7   9
ATOM      9  C   UNL d   1       4.507   0.203  -0.339  0.00  0.00     0.054 A 
ATOM     10  C   UNL d   1       5.462   0.669   0.577  0.00  0.00     0.117 A 
ATOM     11  C   UNL d   1       5.601   2.037   0.870  0.00  0.00     0.037 A 
ATOM     12  C   UNL d   1       4.777   2.964   0.235  0.00  0.00     0.009 A 
ATOM     13  C   UNL d   1       3.817   2.533  -0.685  0.00  0.00    -0.061 A 
ATOM     14  C   UNL d   1       3.689   1.161  -0.962  0.00  0.00     0.025 A 
ATOM     15  C   UNL d   1       2.950   3.530  -1.400  0.00  0.00     0.048 C 
BRANCH  10  16
ATOM     16  N   UNL d   1       6.313  -0.246   1.319  0.00  0.00    -0.115 N 
ATOM     17  O   UNL d   1       5.737  -1.051   2.062  0.00  0.00    -0.532 OA
ATOM     18  O   UNL d   1       7.533  -0.076   1.225  0.00  0.00    -0.532 OA
ENDBRANCH  10  16
ENDBRANCH   7   9
ENDBRANCH   6   7
ENDBRANCH   5   6
ENDBRANCH   1   5
BRANCH   2  19
ATOM     19  C   UNL d   1       4.955  -5.690  -1.357  0.00  0.00     0.036 A 
ATOM     20  C   UNL d   1       5.022  -6.731  -0.429  0.00  0.00     0.045 A 
ATOM     21  C   UNL d   1       6.036  -7.699  -0.493  0.00  0.00     0.050 A 
ATOM     22  C   UNL d   1       6.972  -7.633  -1.534  0.00  0.00     0.032 A 
ATOM     23  C   UNL d   1       6.894  -6.624  -2.507  0.00  0.00     0.050 A 
ATOM     24  C   UNL d   1       5.869  -5.665  -2.416  0.00  0.00     0.045 A 
BRANCH  21  25
ATOM     25  C   UNL d   1       6.104  -8.767   0.571  0.00  0.00     0.417 C 
ATOM     26  F   UNL d   1       7.178  -9.595   0.432  0.00  0.00    -0.166 F 
ATOM     27  F   UNL d   1       6.191  -8.254   1.828  0.00  0.00    -0.166 F 
ATOM     28  F   UNL d   1       5.010  -9.576   0.567  0.00  0.00    -0.166 F 
ENDBRANCH  21  25
BRANCH  23  29
ATOM     29  C   UNL d   1       7.907  -6.543  -3.624  0.00  0.00     0.417 C 
ATOM     30  F   UNL d   1       8.897  -7.474  -3.528  0.00  0.00    -0.166 F 
ATOM     31  F   UNL d   1       7.342  -6.723  -4.849  0.00  0.00    -0.166 F 
ATOM     32  F   UNL d   1       8.534  -5.336  -3.675  0.00  0.00    -0.166 F 
ENDBRANCH  23  29
ENDBRANCH   2  19
TORSDOF 8
