REMARK  4 active torsions:
REMARK  status: ('A' for Active; 'I' for Inactive)
REMARK    1  A    between atoms: C_2  and  S_1 
REMARK    2  A    between atoms: C_9  and  S_1 
REMARK    3  A    between atoms: C_3  and  C_5 
REMARK    4  A    between atoms: C_4  and  C_6 
ROOT
ATOM      1  C   UNL d   1       0.477  -0.298  -1.623  0.00  0.00     0.065 A 
ATOM      2  C   UNL d   1      -0.218  -1.746  -3.447  0.00  0.00     0.050 A 
ATOM      3  C   UNL d   1      -0.729   0.653  -3.507  0.00  0.00     0.050 A 
ATOM      4  C   UNL d   1       0.418  -1.568  -2.208  0.00  0.00     0.040 A 
ATOM      5  C   UNL d   1      -0.099   0.808  -2.262  0.00  0.00     0.040 A 
ATOM      6  C   UNL d   1      -0.778  -0.626  -4.091  0.00  0.00     0.032 A 
ENDROOT
BRANCH   1   7
ATOM      7  S   UNL d   1       1.110  -0.123   0.038  0.00  0.00     0.206 S 
ATOM      8  O   UNL d   1       0.991  -1.425   0.670  0.00  0.00    -0.217 OA
ATOM      9  O   UNL d   1       0.452   1.031   0.620  0.00  0.00    -0.217 OA
BRANCH   7  10
ATOM     10  C   UNL d   1       2.846   0.259  -0.063  0.00  0.00     0.064 A 
ATOM     11  C   UNL d   1       3.256   1.597  -0.119  0.00  0.00     0.027 A 
ATOM     12  C   UNL d   1       4.619   1.900  -0.097  0.00  0.00     0.044 A 
ATOM     13  C   UNL d   1       5.552   0.872  -0.007  0.00  0.00     0.116 A 
ATOM     14  C   UNL d   1       5.150  -0.459   0.064  0.00  0.00     0.044 A 
ATOM     15  F   UNL d   1       6.857   1.169   0.029  0.00  0.00    -0.206 F 
ATOM     16  C   UNL d   1       3.789  -0.772   0.041  0.00  0.00     0.027 A 
ENDBRANCH   7  10
ENDBRANCH   1   7
BRANCH   2  17
ATOM     17  C   UNL d   1      -0.344  -3.117  -4.074  0.00  0.00     0.417 C 
ATOM     18  F   UNL d   1       0.208  -4.109  -3.324  0.00  0.00    -0.166 F 
ATOM     19  F   UNL d   1      -1.641  -3.474  -4.276  0.00  0.00    -0.166 F 
ATOM     20  F   UNL d   1       0.259  -3.186  -5.292  0.00  0.00    -0.166 F 
ENDBRANCH   2  17
BRANCH   3  21
ATOM     21  C   UNL d   1      -1.381   1.825  -4.208  0.00  0.00     0.417 C 
ATOM     22  F   UNL d   1      -1.298   2.990  -3.510  0.00  0.00    -0.166 F 
ATOM     23  F   UNL d   1      -0.820   2.075  -5.423  0.00  0.00    -0.166 F 
ATOM     24  F   UNL d   1      -2.705   1.618  -4.441  0.00  0.00    -0.166 F 
ENDBRANCH   3  21
TORSDOF 4
