REMARK  7 active torsions:
REMARK  status: ('A' for Active; 'I' for Inactive)
REMARK    1  A    between atoms: C_5  and  C_1 
REMARK    2  A    between atoms: C_2  and  C_4 
REMARK    3  A    between atoms: C_3  and  C_6 
REMARK    4  A    between atoms: C_6  and  S_9 
REMARK    5  A    between atoms: N_11  and  C_8 
REMARK    6  A    between atoms: S_9  and  C_24 
REMARK       I    between atoms: C_10  and  N_11 
REMARK    7  A    between atoms: C_24  and  C_10 
ROOT
ATOM      1  C   UNL d   1       2.549  -4.748  -0.470  0.00  0.00     0.231 C 
ATOM      2  N   UNL d   1       1.627  -4.589   0.550  0.00  0.00    -0.326 N 
ATOM      3  O   UNL d   1       2.923  -3.854  -1.230  0.00  0.00    -0.272 OA
ATOM      4  H   UNL d   1       1.496  -5.402   1.144  0.00  0.00     0.169 HD
ENDROOT
BRANCH   2   5
ATOM      5  C   UNL d   1       1.016  -3.387   0.962  0.00  0.00     0.036 A 
ATOM      6  C   UNL d   1       1.063  -2.203   0.224  0.00  0.00     0.045 A 
ATOM      7  C   UNL d   1       0.522  -1.008   0.728  0.00  0.00     0.050 A 
ATOM      8  C   UNL d   1      -0.098  -1.018   1.985  0.00  0.00     0.032 A 
ATOM      9  C   UNL d   1      -0.184  -2.203   2.731  0.00  0.00     0.050 A 
ATOM     10  C   UNL d   1       0.361  -3.386   2.199  0.00  0.00     0.045 A 
BRANCH   7  11
ATOM     11  C   UNL d   1       0.637   0.260  -0.087  0.00  0.00     0.417 C 
ATOM     12  F   UNL d   1       0.213   1.368   0.583  0.00  0.00    -0.166 F 
ATOM     13  F   UNL d   1      -0.097   0.213  -1.232  0.00  0.00    -0.166 F 
ATOM     14  F   UNL d   1       1.917   0.525  -0.466  0.00  0.00    -0.166 F 
ENDBRANCH   7  11
BRANCH   9  15
ATOM     15  C   UNL d   1      -0.819  -2.219   4.101  0.00  0.00     0.417 C 
ATOM     16  F   UNL d   1      -1.218  -0.991   4.532  0.00  0.00    -0.166 F 
ATOM     17  F   UNL d   1      -1.924  -3.012   4.154  0.00  0.00    -0.166 F 
ATOM     18  F   UNL d   1       0.028  -2.693   5.056  0.00  0.00    -0.166 F 
ENDBRANCH   9  15
ENDBRANCH   2   5
BRANCH   1  19
ATOM     19  C   UNL d   1       3.086  -6.159  -0.668  0.00  0.00     0.185 C 
BRANCH  19  20
ATOM     20  S   UNL d   1       2.869  -7.257   0.768  0.00  0.00    -0.078 SA
BRANCH  20  21
ATOM     21  C   UNL d   1       2.946  -8.800  -0.080  0.00  0.00     0.223 C 
ATOM     22  O   UNL d   1       3.323  -8.894  -1.237  0.00  0.00    -0.280 OA
BRANCH  21  23
ATOM     23  C   UNL d   1       2.543  -9.996   0.680  0.00  0.00     0.064 A 
ATOM     24  C   UNL d   1       3.486 -11.007   0.925  0.00  0.00     0.050 A 
ATOM     25 CL   UNL d   1       5.147 -10.865   0.468  0.00  0.00    -0.083 Cl
ATOM     26  C   UNL d   1       3.105 -12.179   1.585  0.00  0.00     0.025 A 
ATOM     27  C   UNL d   1       1.788 -12.350   2.012  0.00  0.00     0.003 A 
ATOM     28  C   UNL d   1       0.847 -11.353   1.766  0.00  0.00     0.025 A 
ATOM     29  C   UNL d   1       1.215 -10.185   1.088  0.00  0.00     0.050 A 
ATOM     30 CL   UNL d   1      -0.049  -9.052   0.749  0.00  0.00    -0.083 Cl
ENDBRANCH  21  23
ENDBRANCH  20  21
ENDBRANCH  19  20
ENDBRANCH   1  19
TORSDOF 7
