REMARK  3 active torsions:
REMARK  status: ('A' for Active; 'I' for Inactive)
REMARK    1  A    between atoms: C_4  and  C_11 
REMARK    2  A    between atoms: N_9  and  C_5 
REMARK    3  A    between atoms: O_17  and  C_7 
ROOT
ATOM      1  C   UNL d   1      -3.729  -3.616   0.066  0.00  0.00     0.016 A 
ATOM      2  C   UNL d   1      -4.800  -5.756   0.439  0.00  0.00     0.069 A 
ATOM      3  C   UNL d   1      -3.647  -4.962   0.441  0.00  0.00     0.099 A 
ATOM      4  C   UNL d   1      -6.029  -5.219   0.061  0.00  0.00     0.050 A 
ATOM      5  C   UNL d   1      -4.964  -3.071  -0.304  0.00  0.00     0.039 A 
ATOM      6  C   UNL d   1      -6.102  -3.878  -0.310  0.00  0.00     0.036 A 
ATOM      7 CL   UNL d   1      -4.716  -7.415   0.907  0.00  0.00    -0.081 Cl
ATOM      8 CL   UNL d   1      -7.617  -3.211  -0.781  0.00  0.00    -0.084 Cl
ENDROOT
BRANCH   1   9
ATOM      9  C   UNL d   1      -2.519  -2.763   0.090  0.00  0.00     0.104 C 
ATOM     10  N   UNL d   1      -2.552  -1.515  -0.267  0.00  0.00    -0.350 N 
ATOM     11  HN  UNL d   1      -3.380  -1.059  -0.649  1.00  0.00     0.166 HD
BRANCH  10  12
ATOM     12  C   UNL d   1      -1.327  -0.862  -0.070  0.00  0.00     0.128 A 
ATOM     13  C   UNL d   1      -0.909   0.257  -0.812  0.00  0.00     0.084 A 
ATOM     14  C   UNL d   1       0.289   0.604  -0.229  0.00  0.00     0.076 A 
ATOM     15  O   UNL d   1       0.555  -0.251   0.796  0.00  0.00    -0.241 OA
ATOM     16  C   UNL d   1       1.284   1.666  -0.463  0.00  0.00     0.079 C 
ATOM     17  N   UNL d   1      -0.477  -1.164   0.912  0.00  0.00    -0.245 N 
ATOM     18  HN  UNL d   1      -0.568  -1.910   1.601  1.00  0.00     0.196 HD
ENDBRANCH  10  12
ENDBRANCH   1   9
BRANCH   3  19
ATOM     19  O   UNL d   1      -2.439  -5.493   0.812  0.00  0.00    -0.358 OA
ATOM     20  H   UNL d   1      -2.585  -6.420   1.082  0.00  0.00     0.217 HD
ENDBRANCH   3  19
TORSDOF 3
