REMARK  3 active torsions:
REMARK  status: ('A' for Active; 'I' for Inactive)
REMARK       I    between atoms: N_2  and  C_1 
REMARK       I    between atoms: N_8  and  C_1 
REMARK       I    between atoms: C_4  and  N_2 
REMARK    1  A    between atoms: C_3  and  C_4 
REMARK    2  A    between atoms: C_13  and  N_8 
REMARK    3  A    between atoms: C_14  and  N_8 
ROOT
ATOM      1  C   UNL d   1       1.079  -0.408   0.012  0.00  0.00     0.326 C 
ATOM      2  N   UNL d   1       0.396  -0.101   1.161  0.00  0.00    -0.274 N 
ATOM      3  C   UNL d   1       0.992   0.066   2.400  0.00  0.00     0.277 C 
ATOM      4  N   UNL d   1       0.320  -0.449  -1.174  0.00  0.00    -0.326 N 
ATOM      5  O   UNL d   1       2.283  -0.644   0.012  0.00  0.00    -0.247 OA
ATOM      6  O   UNL d   1       2.162  -0.149   2.686  0.00  0.00    -0.266 OA
ATOM      7  H   UNL d   1      -0.565   0.186   1.105  0.00  0.00     0.173 HD
ENDROOT
BRANCH   3   8
ATOM      8  C   UNL d   1       0.052   0.528   3.418  0.00  0.00     0.121 A 
ATOM      9  N   UNL d   1      -1.288   0.774   3.114  0.00  0.00    -0.287 N 
ATOM     10  N   UNL d   1      -1.967   1.171   4.177  0.00  0.00    -0.061 NA
ATOM     11  HN  UNL d   1      -1.694   0.662   2.185  1.00  0.00     0.183 HD
ATOM     12  S   UNL d   1      -1.025   1.260   5.559  0.00  0.00    -0.010 SA
ATOM     13  C   UNL d   1       0.391   0.750   4.744  0.00  0.00     0.101 A 
ENDBRANCH   3   8
BRANCH   4  14
ATOM     14  C   UNL d   1       1.058  -0.653  -2.451  0.00  0.00     0.081 C 
ATOM     15  C   UNL d   1       2.143   0.399  -2.720  0.00  0.00     0.032 C 
ATOM     16  C   UNL d   1       1.616  -2.076  -2.568  0.00  0.00     0.032 C 
ENDBRANCH   4  14
BRANCH   4  17
ATOM     17  C   UNL d   1      -1.164  -0.349  -1.212  0.00  0.00     0.081 C 
ATOM     18  C   UNL d   1      -1.610   1.115  -1.236  0.00  0.00     0.032 C 
ATOM     19  C   UNL d   1      -1.853  -1.119  -2.347  0.00  0.00     0.032 C 
ENDBRANCH   4  17
TORSDOF 3
