REMARK  7 active torsions:
REMARK  status: ('A' for Active; 'I' for Inactive)
REMARK    1  A    between atoms: C_2  and  C_1 
REMARK    2  A    between atoms: O_20  and  C_1 
REMARK    3  A    between atoms: O_9  and  C_3 
REMARK    4  A    between atoms: C_4  and  O_9 
REMARK    5  A    between atoms: C_10  and  C_4 
REMARK    6  A    between atoms: C_11  and  C_10 
REMARK    7  A    between atoms: C_21  and  O_20 
ROOT
ATOM      1  C   UNL d   1       0.369  -0.463   1.266  0.00  0.00     0.041 A 
ATOM      2  C   UNL d   1      -0.967  -0.595   3.729  0.00  0.00     0.101 A 
ATOM      3  C   UNL d   1       0.374  -0.190   3.675  0.00  0.00     0.069 A 
ATOM      4  C   UNL d   1       1.038  -0.122   2.449  0.00  0.00     0.044 A 
ATOM      5  C   UNL d   1      -0.959  -0.908   1.330  0.00  0.00     0.020 A 
ATOM      6  C   UNL d   1      -1.630  -0.969   2.560  0.00  0.00     0.040 A 
ATOM      7 CL   UNL d   1       1.234   0.257   5.104  0.00  0.00    -0.081 Cl
ENDROOT
BRANCH   2   8
ATOM      8  O   UNL d   1      -1.602  -0.512   4.997  0.00  0.00    -0.274 OA
BRANCH   8   9
ATOM      9  C   UNL d   1      -2.803  -1.093   5.359  0.00  0.00     0.288 C 
ATOM     10  O   UNL d   1      -3.504  -1.830   4.682  0.00  0.00    -0.260 OA
BRANCH   9  11
ATOM     11  C   UNL d   1      -3.140  -0.768   6.768  0.00  0.00     0.084 C 
BRANCH  11  12
ATOM     12  C   UNL d   1      -2.601   0.245   7.461  0.00  0.00     0.025 C 
ATOM     13  C   UNL d   1      -2.922   0.479   8.834  0.00  0.00     0.005 A 
ATOM     14  S   UNL d   1      -2.362   1.934   9.580  0.00  0.00    -0.102 SA
ATOM     15  C   UNL d   1      -3.618  -0.288   9.757  0.00  0.00     0.019 A 
ATOM     16  C   UNL d   1      -3.010   1.504  11.100  0.00  0.00     0.050 A 
ATOM     17  C   UNL d   1      -3.658   0.293  11.058  0.00  0.00     0.008 A 
ENDBRANCH  11  12
ENDBRANCH   9  11
ENDBRANCH   8   9
ENDBRANCH   2   8
BRANCH   1  18
ATOM     18  C   UNL d   1       1.093  -0.260  -0.019  0.00  0.00     0.293 C 
ATOM     19  O   UNL d   1       2.180   0.295  -0.085  0.00  0.00    -0.259 OA
BRANCH  18  20
ATOM     20  O   UNL d   1       0.376  -0.729  -1.069  0.00  0.00    -0.318 OA
BRANCH  20  21
ATOM     21  C   UNL d   1       0.913  -0.425  -2.367  0.00  0.00     0.174 C 
ATOM     22  C   UNL d   1       1.996  -1.413  -2.764  0.00  0.00     0.034 C 
ENDBRANCH  20  21
ENDBRANCH  18  20
ENDBRANCH   1  18
TORSDOF 7
