REMARK  3 active torsions:
REMARK  status: ('A' for Active; 'I' for Inactive)
REMARK       I    between atoms: N_4  and  C_1 
REMARK    1  A    between atoms: C_6  and  C_1 
REMARK    2  A    between atoms: C_8  and  N_4 
REMARK    3  A    between atoms: C_9  and  C_10 
ROOT
ATOM      1  C   UNL d   1       1.059  -0.031   0.119  0.00  0.00     0.256 C 
ATOM      2  N   UNL d   1       2.437   0.021  -0.024  0.00  0.00    -0.323 N 
ATOM      3  O   UNL d   1       0.389  -1.032   0.348  0.00  0.00    -0.267 OA
ATOM      4  H   UNL d   1       2.872   0.934  -0.018  0.00  0.00     0.169 HD
ENDROOT
BRANCH   2   5
ATOM      5  C   UNL d   1       3.312  -1.088   0.021  0.00  0.00     0.035 A 
ATOM      6  C   UNL d   1       2.872  -2.411  -0.042  0.00  0.00     0.043 A 
ATOM      7  C   UNL d   1       3.775  -3.481   0.069  0.00  0.00    -0.007 A 
ATOM      8  C   UNL d   1       3.332  -4.806   0.035  0.00  0.00     0.015 A 
ATOM      9  C   UNL d   1       5.151  -3.241   0.230  0.00  0.00     0.042 A 
ATOM     10  C   UNL d   1       4.246  -5.841   0.178  0.00  0.00     0.025 A 
ATOM     11  C   UNL d   1       5.586  -5.520   0.347  0.00  0.00     0.005 A 
ATOM     12  N   UNL d   1       6.042  -4.243   0.364  0.00  0.00    -0.359 N 
ATOM     13  C   UNL d   1       6.594  -6.616   0.532  0.00  0.00     0.068 C 
ATOM     14  HN  UNL d   1       7.036  -4.046   0.477  1.00  0.00     0.166 HD
ATOM     15  C   UNL d   1       5.580  -1.921   0.251  0.00  0.00     0.033 A 
ATOM     16  C   UNL d   1       4.680  -0.848   0.143  0.00  0.00     0.032 A 
ENDBRANCH   2   5
BRANCH   1  17
ATOM     17  C   UNL d   1       0.347   1.272   0.055  0.00  0.00     0.032 A 
ATOM     18  C   UNL d   1       0.753   2.315  -0.778  0.00  0.00     0.017 A 
ATOM     19  C   UNL d   1       0.022   3.510  -0.800  0.00  0.00     0.009 A 
ATOM     20  C   UNL d   1      -1.124   3.693   0.003  0.00  0.00    -0.051 A 
ATOM     21  C   UNL d   1      -1.524   2.619   0.812  0.00  0.00     0.009 A 
ATOM     22  C   UNL d   1      -0.800   1.424   0.836  0.00  0.00     0.017 A 
BRANCH  20  23
ATOM     23  C   UNL d   1      -1.883   5.032  -0.013  0.00  0.00    -0.024 C 
ATOM     24  C   UNL d   1      -3.103   5.067   0.936  0.00  0.00     0.019 C 
ATOM     25  C   UNL d   1      -0.928   6.161   0.430  0.00  0.00     0.019 C 
ATOM     26  C   UNL d   1      -2.403   5.331  -1.435  0.00  0.00     0.019 C 
ENDBRANCH  20  23
ENDBRANCH   1  17
TORSDOF 3
