REMARK  3 active torsions:
REMARK  status: ('A' for Active; 'I' for Inactive)
REMARK    1  A    between atoms: N_3  and  C_8 
REMARK    2  A    between atoms: C_15  and  C_9 
REMARK    3  A    between atoms: O_21  and  C_16 
ROOT
ATOM      1  C   UNL d   1      -1.135  -1.163   0.054  0.00  0.00     0.091 A 
ATOM      2  C   UNL d   1      -1.187   1.078   0.015  0.00  0.00     0.299 A 
ATOM      3  C   UNL d   1       0.205   0.642   0.034  0.00  0.00     0.055 A 
ATOM      4  O   UNL d   1      -1.980  -0.043   0.018  0.00  0.00    -0.274 OA
ATOM      5  C   UNL d   1       0.244  -0.736   0.055  0.00  0.00     0.014 A 
ATOM      6  C   UNL d   1       1.343   1.434   0.017  0.00  0.00     0.054 A 
ATOM      7  C   UNL d   1       2.574   0.769   0.016  0.00  0.00     0.103 A 
ATOM      8  C   UNL d   1      -1.591  -2.423   0.076  0.00  0.00     0.049 C 
ATOM      9  C   UNL d   1       1.458  -1.403   0.050  0.00  0.00     0.018 A 
ATOM     10  O   UNL d   1      -1.560   2.235  -0.007  0.00  0.00    -0.259 OA
ATOM     11  C   UNL d   1       2.637  -0.642   0.029  0.00  0.00     0.037 A 
ENDROOT
BRANCH   8  12
ATOM     12  C   UNL d   1      -3.022  -2.731   0.014  0.00  0.00    -0.033 A 
ATOM     13  C   UNL d   1      -3.634  -2.926  -1.228  0.00  0.00     0.014 A 
ATOM     14  C   UNL d   1      -5.006  -3.188  -1.312  0.00  0.00     0.037 A 
ATOM     15  C   UNL d   1      -5.779  -3.253  -0.153  0.00  0.00     0.068 A 
ATOM     16  C   UNL d   1      -5.165  -3.062   1.088  0.00  0.00     0.037 A 
ATOM     17  C   UNL d   1      -3.794  -2.801   1.176  0.00  0.00     0.014 A 
BRANCH  15  18
ATOM     18  O   UNL d   1      -7.126  -3.486  -0.098  0.00  0.00    -0.356 OA
ATOM     19  C   UNL d   1      -7.799  -3.660  -1.339  0.00  0.00     0.210 C 
ENDBRANCH  15  18
ENDBRANCH   8  12
BRANCH   7  20
ATOM     20  N   UNL d   1       3.818   1.551  -0.004  0.00  0.00    -0.116 N 
ATOM     21  O   UNL d   1       3.720   2.785  -0.011  0.00  0.00    -0.532 OA
ATOM     22  O   UNL d   1       4.888   0.927  -0.015  0.00  0.00    -0.532 OA
ENDBRANCH   7  20
TORSDOF 3
