REMARK  8 active torsions:
REMARK  status: ('A' for Active; 'I' for Inactive)
REMARK       I    between atoms: N_4  and  C_1 
REMARK    1  A    between atoms: C_9  and  C_1 
REMARK    2  A    between atoms: O_16  and  C_3 
REMARK    3  A    between atoms: C_7  and  N_4 
REMARK    4  A    between atoms: C_5  and  C_9 
REMARK    5  A    between atoms: C_11  and  C_5 
REMARK    6  A    between atoms: C_6  and  C_11 
REMARK    7  A    between atoms: O_15  and  C_6 
REMARK    8  A    between atoms: O_17  and  C_8 
ROOT
ATOM      1  C   UNL d   1       0.904   0.036   0.046  0.00  0.00     0.222 C 
ATOM      2  N   UNL d   1       2.238   0.432   0.094  0.00  0.00    -0.327 N 
ATOM      3  O   UNL d   1       0.479  -1.036  -0.362  0.00  0.00    -0.273 OA
ATOM      4  H   UNL d   1       2.419   1.406   0.300  0.00  0.00     0.169 HD
ENDROOT
BRANCH   1   5
ATOM      5  C   UNL d   1      -0.013   1.140   0.552  0.00  0.00     0.113 C 
BRANCH   5   6
ATOM      6  C   UNL d   1      -1.540   0.892   0.456  0.00  0.00    -0.023 C 
ATOM      7  C   UNL d   1      -2.019   0.903  -1.015  0.00  0.00     0.010 C 
ATOM      8  C   UNL d   1      -3.457   1.424  -0.993  0.00  0.00     0.001 C 
ATOM      9  C   UNL d   1      -3.644   2.138   0.341  0.00  0.00     0.001 C 
ATOM     10  C   UNL d   1      -2.275   2.135   1.006  0.00  0.00     0.010 C 
BRANCH   6  11
ATOM     11  C   UNL d   1      -2.028  -0.414   1.145  0.00  0.00     0.119 C 
BRANCH  11  12
ATOM     12  C   UNL d   1      -1.649  -0.576   2.602  0.00  0.00     0.140 C 
ATOM     13  O   UNL d   1      -1.088   0.256   3.292  0.00  0.00    -0.650 OA
BRANCH  12  14
ATOM     14  O   UNL d   1      -2.029  -1.780   3.096  0.00  0.00    -0.776 OA
ATOM     15  H   UNL d   1      -2.450  -2.360   2.432  0.00  0.00     0.167 HD
ENDBRANCH  12  14
ENDBRANCH  11  12
ENDBRANCH   6  11
ENDBRANCH   5   6
ENDBRANCH   1   5
BRANCH   2  16
ATOM     16  C   UNL d   1       3.357  -0.347  -0.268  0.00  0.00     0.037 A 
ATOM     17  C   UNL d   1       3.299  -1.732  -0.427  0.00  0.00     0.069 A 
ATOM     18  C   UNL d   1       4.416  -2.458  -0.857  0.00  0.00     0.103 A 
ATOM     19  C   UNL d   1       5.632  -1.788  -1.084  0.00  0.00     0.101 A 
ATOM     20  C   UNL d   1       5.703  -0.405  -0.892  0.00  0.00     0.042 A 
ATOM     21  C   UNL d   1       4.573   0.309  -0.478  0.00  0.00     0.032 A 
BRANCH  18  22
ATOM     22  O   UNL d   1       4.413  -3.814  -1.076  0.00  0.00    -0.353 OA
ATOM     23  C   UNL d   1       3.164  -4.485  -0.961  0.00  0.00     0.210 C 
ENDBRANCH  18  22
BRANCH  19  24
ATOM     24  O   UNL d   1       6.681  -2.552  -1.529  0.00  0.00    -0.353 OA
ATOM     25  C   UNL d   1       7.985  -2.062  -1.245  0.00  0.00     0.210 C 
ENDBRANCH  19  24
ENDBRANCH   2  16
TORSDOF 8
