REMARK  7 active torsions:
REMARK  status: ('A' for Active; 'I' for Inactive)
REMARK    1  A    between atoms: C_10  and  C_2 
REMARK    2  A    between atoms: C_16  and  N_5 
REMARK    3  A    between atoms: C_8  and  C_7 
REMARK    4  A    between atoms: O_23  and  C_10 
REMARK    5  A    between atoms: O_24  and  C_15 
REMARK    6  A    between atoms: O_25  and  C_18 
REMARK    7  A    between atoms: C_30  and  O_23 
ROOT
ATOM      1  C   UNL d   1      -1.285   0.019  -0.024  0.00  0.00     0.102 A 
ATOM      2  C   UNL d   1       0.742   0.521   1.164  0.00  0.00     0.167 A 
ATOM      3  N   UNL d   1       0.705  -0.764   0.995  0.00  0.00    -0.281 N 
ATOM      4  HN  UNL d   1       1.399  -1.431   1.334  1.00  0.00     0.188 HD
ATOM      5  N   UNL d   1      -0.455  -1.082   0.264  0.00  0.00    -0.249 N 
ATOM      6  S   UNL d   1      -0.505   1.517   0.516  0.00  0.00    -0.045 SA
ATOM      7  C   UNL d   1      -2.523   0.042  -0.566  0.00  0.00     0.069 C 
ENDROOT
BRANCH   5   8
ATOM      8  C   UNL d   1      -0.502  -2.406  -0.260  0.00  0.00     0.057 A 
ATOM      9  C   UNL d   1       0.117  -3.463   0.434  0.00  0.00     0.032 A 
ATOM     10  C   UNL d   1       0.097  -4.777  -0.049  0.00  0.00     0.009 A 
ATOM     11  C   UNL d   1      -0.540  -5.078  -1.255  0.00  0.00    -0.062 A 
ATOM     12  C   UNL d   1      -1.137  -4.039  -1.973  0.00  0.00     0.009 A 
ATOM     13  C   UNL d   1      -0.568  -6.490  -1.761  0.00  0.00     0.048 C 
ATOM     14  C   UNL d   1      -1.105  -2.725  -1.486  0.00  0.00     0.032 A 
ENDBRANCH   5   8
BRANCH   7  15
ATOM     15  C   UNL d   1      -3.309   1.288  -0.814  0.00  0.00     0.041 C 
ATOM     16  C   UNL d   1      -4.097   1.390  -2.084  0.00  0.00    -0.001 A 
ATOM     17  C   UNL d   1      -3.924   0.531  -3.177  0.00  0.00     0.054 A 
ATOM     18  C   UNL d   1      -5.065   2.395  -2.149  0.00  0.00    -0.041 A 
ATOM     19  C   UNL d   1      -4.746   0.636  -4.319  0.00  0.00     0.102 A 
ATOM     20  C   UNL d   1      -5.706   1.660  -4.384  0.00  0.00     0.102 A 
ATOM     21  C   UNL d   1      -5.854   2.524  -3.292  0.00  0.00     0.047 A 
ATOM     22  C   UNL d   1      -5.285   3.293  -0.963  0.00  0.00     0.059 C 
ATOM     23  C   UNL d   1      -3.960   3.493  -0.252  0.00  0.00     0.124 C 
ATOM     24  N   UNL d   1      -3.343   2.216   0.099  0.00  0.00    -0.389 N 
ATOM     25  HN  UNL d   1      -2.952   2.057   1.027  1.00  0.00     0.159 HD
BRANCH  19  26
ATOM     26  O   UNL d   1      -4.631  -0.240  -5.370  0.00  0.00    -0.353 OA
ATOM     27  C   UNL d   1      -4.088  -1.524  -5.066  0.00  0.00     0.210 C 
ENDBRANCH  19  26
BRANCH  20  28
ATOM     28  O   UNL d   1      -6.618   1.953  -5.359  0.00  0.00    -0.353 OA
ATOM     29  C   UNL d   1      -6.499   1.389  -6.651  0.00  0.00     0.210 C 
ENDBRANCH  20  28
ENDBRANCH   7  15
BRANCH   2  30
ATOM     30  C   UNL d   1       1.784   1.390   1.808  0.00  0.00     0.318 C 
ATOM     31  O   UNL d   1       2.077   2.509   1.418  0.00  0.00    -0.257 OA
BRANCH  30  32
ATOM     32  O   UNL d   1       2.431   0.685   2.764  0.00  0.00    -0.316 OA
BRANCH  32  33
ATOM     33  C   UNL d   1       3.708   1.234   3.119  0.00  0.00     0.175 C 
ATOM     34  C   UNL d   1       4.728   0.770   2.092  0.00  0.00     0.034 C 
ENDBRANCH  32  33
ENDBRANCH  30  32
ENDBRANCH   2  30
TORSDOF 7
