REMARK  8 active torsions:
REMARK  status: ('A' for Active; 'I' for Inactive)
REMARK    1  A    between atoms: C_2  and  C_1 
REMARK    2  A    between atoms: O_18  and  C_3 
REMARK       I    between atoms: C_6  and  N_10 
REMARK    3  A    between atoms: O_17  and  C_6 
REMARK    4  A    between atoms: N_10  and  C_11 
REMARK    5  A    between atoms: C_19  and  O_17 
REMARK    6  A    between atoms: C_21  and  O_18 
REMARK    7  A    between atoms: O_20  and  C_22 
REMARK    8  A    between atoms: C_22  and  C_21 
ROOT
ATOM      1  C   UNL d   1       4.721  -3.988  -2.228  0.00  0.00    -0.091 C 
ATOM      2  C   UNL d   1       4.645  -3.956  -3.426  0.00  0.00     0.014 C 
ATOM      3  C   UNL d   1       4.749  -3.993  -0.760  0.00  0.00     0.273 C 
ENDROOT
BRANCH   3   4
ATOM      4  O   UNL d   1       3.417  -3.765  -0.279  0.00  0.00    -0.292 OA
BRANCH   4   5
ATOM      5  C   UNL d   1       3.111  -2.458  -0.089  0.00  0.00     0.366 C 
ATOM      6  N   UNL d   1       1.753  -2.339   0.009  0.00  0.00    -0.301 N 
ATOM      7  H   UNL d   1       1.259  -3.219  -0.048  0.00  0.00     0.171 HD
ATOM      8  O   UNL d   1       3.938  -1.559  -0.061  0.00  0.00    -0.238 OA
BRANCH   6   9
ATOM      9  C   UNL d   1       1.010  -1.146   0.046  0.00  0.00     0.053 A 
ATOM     10  C   UNL d   1       1.582   0.123   0.052  0.00  0.00     0.051 A 
ATOM     11  C   UNL d   1       0.784   1.280   0.058  0.00  0.00     0.101 A 
ATOM     12  C   UNL d   1      -0.586   1.105   0.078  0.00  0.00     0.157 A 
ATOM     13  N   UNL d   1      -1.184  -0.111   0.066  0.00  0.00    -0.344 N 
ATOM     14  C   UNL d   1      -0.376  -1.200   0.050  0.00  0.00     0.119 A 
ATOM     15  HN  UNL d   1      -2.199  -0.204   0.069  1.00  0.00     0.167 HD
BRANCH  11  16
ATOM     16  C   UNL d   1       1.454   2.618   0.058  0.00  0.00     0.421 C 
ATOM     17  F   UNL d   1       0.647   3.708   0.081  0.00  0.00    -0.166 F 
ATOM     18  F   UNL d   1       2.293   2.761   1.127  0.00  0.00    -0.166 F 
ATOM     19  F   UNL d   1       2.251   2.780  -1.041  0.00  0.00    -0.166 F 
ENDBRANCH  11  16
BRANCH  12  20
ATOM     20  O   UNL d   1      -1.388   2.217   0.086  0.00  0.00    -0.333 OA
BRANCH  20  21
ATOM     21  C   UNL d   1      -2.706   2.008   0.607  0.00  0.00     0.203 C 
BRANCH  21  22
ATOM     22  C   UNL d   1      -2.703   1.728   2.113  0.00  0.00     0.193 C 
BRANCH  22  23
ATOM     23  O   UNL d   1      -2.141   2.849   2.802  0.00  0.00    -0.394 OA
ATOM     24  C   UNL d   1      -2.023   2.607   4.196  0.00  0.00     0.201 C 
ENDBRANCH  22  23
ENDBRANCH  21  22
ENDBRANCH  20  21
ENDBRANCH  12  20
ENDBRANCH   6   9
ENDBRANCH   4   5
ENDBRANCH   3   4
TORSDOF 8
