REMARK  2 active torsions:
REMARK  status: ('A' for Active; 'I' for Inactive)
REMARK    1  A    between atoms: N_3  and  C_1 
REMARK    2  A    between atoms: C_7  and  C_2 
ROOT
ATOM      1  C   UNL d   1       0.116   1.252  -0.008  0.00  0.00     0.144 A 
ATOM      2  C   UNL d   1       1.436  -0.702   0.003  0.00  0.00     0.011 A 
ATOM      3  C   UNL d   1       1.400   0.746   0.000  0.00  0.00     0.058 A 
ATOM      4  S   UNL d   1      -1.062   0.040  -0.011  0.00  0.00    -0.077 SA
ATOM      5  C   UNL d   1       0.132  -1.186  -0.005  0.00  0.00     0.066 A 
ENDROOT
BRANCH   2   6
ATOM      6  C   UNL d   1       2.648  -1.526   0.011  0.00  0.00     0.105 C 
ATOM      7  S   UNL d   1       2.587  -3.186   0.013  0.00  0.00    -0.060 SA
ATOM      8  N   UNL d   1       3.857  -0.892   0.019  0.00  0.00    -0.390 N 
ATOM      9  H   UNL d   1       3.981   0.109   0.020  0.00  0.00     0.157 HD
ATOM     10  H   UNL d   1       4.697  -1.461   0.026  0.00  0.00     0.157 HD
ENDBRANCH   2   6
BRANCH   1  11
ATOM     11  N   UNL d   1      -0.259   2.644  -0.013  0.00  0.00    -0.108 N 
ATOM     12  O   UNL d   1       0.669   3.463  -0.012  0.00  0.00    -0.531 OA
ATOM     13  O   UNL d   1      -1.464   2.926  -0.018  0.00  0.00    -0.531 OA
ENDBRANCH   1  11
TORSDOF 2
