REMARK  7 active torsions:
REMARK  status: ('A' for Active; 'I' for Inactive)
REMARK    1  A    between atoms: C_6  and  C_1 
REMARK    2  A    between atoms: N_17  and  C_2 
REMARK       I    between atoms: N_11  and  C_6 
REMARK    3  A    between atoms: C_10  and  N_12 
REMARK    4  A    between atoms: N_16  and  C_10 
REMARK    5  A    between atoms: N_12  and  N_11 
REMARK    6  A    between atoms: C_19  and  N_16 
REMARK    7  A    between atoms: C_21  and  C_19 
ROOT
ATOM      1  C   UNL d   1       3.914  -0.037  -0.411  0.00  0.00     0.279 C 
ATOM      2  N   UNL d   1       4.561  -1.067   0.259  0.00  0.00    -0.263 N 
ATOM      3  O   UNL d   1       4.498   0.790  -1.110  0.00  0.00    -0.265 OA
ATOM      4  H   UNL d   1       4.025  -1.708   0.835  0.00  0.00     0.190 HD
ENDROOT
BRANCH   1   5
ATOM      5  C   UNL d   1       2.471  -0.006  -0.199  0.00  0.00     0.103 A 
ATOM      6  C   UNL d   1       1.629   1.092  -0.124  0.00  0.00     0.062 A 
ATOM      7  C   UNL d   1       0.225   0.738  -0.030  0.00  0.00     0.032 A 
ATOM      8  C   UNL d   1      -1.003   1.465   0.050  0.00  0.00    -0.045 A 
ATOM      9  C   UNL d   1       0.109  -0.653  -0.026  0.00  0.00     0.088 A 
ATOM     10  C   UNL d   1      -2.194   0.707   0.073  0.00  0.00     0.032 A 
ATOM     11  C   UNL d   1      -1.165   2.960   0.077  0.00  0.00     0.049 C 
ATOM     12  C   UNL d   1      -2.157  -0.678   0.053  0.00  0.00     0.006 A 
ATOM     13  N   UNL d   1      -1.020  -1.387   0.019  0.00  0.00    -0.354 N 
ATOM     14  C   UNL d   1      -3.444  -1.454   0.057  0.00  0.00     0.068 C 
ATOM     15  HN  UNL d   1      -1.010  -2.407   0.027  1.00  0.00     0.166 HD
ATOM     16  S   UNL d   1       1.598  -1.469  -0.086  0.00  0.00    -0.064 SA
BRANCH   6  17
ATOM     17  N   UNL d   1       2.120   2.356  -0.141  0.00  0.00    -0.397 N 
ATOM     18  H   UNL d   1       3.105   2.508  -0.375  0.00  0.00     0.156 HD
ATOM     19  H   UNL d   1       1.555   3.156  -0.395  0.00  0.00     0.156 HD
ENDBRANCH   6  17
ENDBRANCH   1   5
BRANCH   2  20
ATOM     20  N   UNL d   1       5.935  -1.294   0.163  0.00  0.00    -0.278 N 
ATOM     21  H   UNL d   1       6.243  -2.053  -0.439  0.00  0.00     0.189 HD
BRANCH  20  22
ATOM     22  C   UNL d   1       6.878  -0.544   0.826  0.00  0.00     0.165 C 
ATOM     23  S   UNL d   1       6.684   0.955   1.534  0.00  0.00    -0.046 SA
BRANCH  22  24
ATOM     24  N   UNL d   1       8.102  -1.159   0.957  0.00  0.00    -0.264 NA
ATOM     25  H   UNL d   1       8.763  -0.526   1.392  0.00  0.00     0.130 HD
BRANCH  24  26
ATOM     26  C   UNL d   1       8.198  -2.516   1.478  0.00  0.00     0.133 C 
BRANCH  26  27
ATOM     27  C   UNL d   1       8.378  -3.590   0.440  0.00  0.00    -0.045 A 
ATOM     28  C   UNL d   1       9.158  -3.389  -0.706  0.00  0.00     0.008 A 
ATOM     29  C   UNL d   1       9.391  -4.439  -1.598  0.00  0.00     0.001 A 
ATOM     30  C   UNL d   1       8.854  -5.700  -1.352  0.00  0.00     0.000 A 
ATOM     31  C   UNL d   1       8.080  -5.916  -0.215  0.00  0.00     0.001 A 
ATOM     32  C   UNL d   1       7.846  -4.869   0.677  0.00  0.00     0.008 A 
ENDBRANCH  26  27
ENDBRANCH  24  26
ENDBRANCH  22  24
ENDBRANCH  20  22
ENDBRANCH   2  20
TORSDOF 7
