REMARK  4 active torsions:
REMARK  status: ('A' for Active; 'I' for Inactive)
REMARK    1  A    between atoms: S_12  and  C_1 
REMARK    2  A    between atoms: N_2  and  C_9 
REMARK    3  A    between atoms: C_6  and  C_11 
REMARK    4  A    between atoms: C_11  and  S_12 
ROOT
ATOM      1  C   UNL d   1      -2.091  -0.654   0.014  0.00  0.00     0.113 A 
ATOM      2  N   UNL d   1      -2.147   0.657   0.050  0.00  0.00    -0.344 N 
ATOM      3  HN  UNL d   1      -3.006   1.207   0.039  1.00  0.00     0.167 HD
ATOM      4  S   UNL d   1      -0.521  -1.337   0.037  0.00  0.00    -0.063 SA
ATOM      5  C   UNL d   1       0.166   0.242   0.109  0.00  0.00     0.036 A 
ATOM      6  C   UNL d   1      -0.868   1.181   0.103  0.00  0.00     0.050 A 
ATOM      7  C   UNL d   1       1.813   1.992   0.223  0.00  0.00     0.104 A 
ATOM      8  C   UNL d   1       1.521   0.619   0.168  0.00  0.00     0.057 A 
ATOM      9  C   UNL d   1      -0.542   2.553   0.154  0.00  0.00     0.033 A 
ATOM     10  C   UNL d   1       0.798   2.954   0.214  0.00  0.00     0.038 A 
ENDROOT
BRANCH   1  11
ATOM     11  S   UNL d   1      -3.534  -1.645  -0.056  0.00  0.00    -0.100 SA
BRANCH  11  12
ATOM     12  C   UNL d   1      -4.821  -0.360  -0.041  0.00  0.00     0.123 C 
BRANCH  12  13
ATOM     13  C   UNL d   1      -6.209  -0.944  -0.191  0.00  0.00    -0.005 A 
ATOM     14  C   UNL d   1      -6.986  -1.297   0.930  0.00  0.00     0.042 A 
ATOM     15 CL   UNL d   1      -6.405  -1.107   2.550  0.00  0.00    -0.084 Cl
ATOM     16  C   UNL d   1      -8.277  -1.822   0.784  0.00  0.00     0.024 A 
ATOM     17  C   UNL d   1      -8.818  -2.018  -0.483  0.00  0.00     0.003 A 
ATOM     18  C   UNL d   1      -8.063  -1.695  -1.605  0.00  0.00     0.024 A 
ATOM     19  C   UNL d   1      -6.773  -1.169  -1.464  0.00  0.00     0.042 A 
ATOM     20 CL   UNL d   1      -5.917  -0.811  -2.926  0.00  0.00    -0.084 Cl
ENDBRANCH  12  13
ENDBRANCH  11  12
ENDBRANCH   1  11
BRANCH   7  21
ATOM     21  N   UNL d   1       3.217   2.425   0.294  0.00  0.00    -0.116 N 
ATOM     22  O   UNL d   1       4.090   1.547   0.313  0.00  0.00    -0.532 OA
ATOM     23  O   UNL d   1       3.443   3.643   0.333  0.00  0.00    -0.532 OA
ENDBRANCH   7  21
TORSDOF 4
