REMARK  2 active torsions:
REMARK  status: ('A' for Active; 'I' for Inactive)
REMARK    1  A    between atoms: C_3  and  C_6 
REMARK    2  A    between atoms: O_14  and  C_6 
ROOT
ATOM      1  C   UNL d   1      -1.516   0.354   0.104  0.00  0.00     0.071 C 
ATOM      2  C   UNL d   1      -0.713   1.023   1.208  0.00  0.00     0.136 C 
ATOM      3  C   UNL d   1      -0.979   0.841  -1.252  0.00  0.00     0.099 C 
ATOM      4  C   UNL d   1       0.780   0.737   1.169  0.00  0.00     0.056 C 
ATOM      5  C   UNL d   1       0.543   0.540  -1.337  0.00  0.00     0.002 C 
ATOM      6  C   UNL d   1       1.310   1.224  -0.182  0.00  0.00     0.017 C 
ATOM      7  C   UNL d   1       0.214  -1.489   0.137  0.00  0.00    -0.013 C 
ATOM      8  C   UNL d   1      -1.289  -1.162   0.247  0.00  0.00     0.017 C 
ATOM      9  C   UNL d   1       0.960  -0.781   1.285  0.00  0.00     0.017 C 
ATOM     10  C   UNL d   1       0.750  -0.985  -1.216  0.00  0.00     0.010 C 
ATOM     11  O   UNL d   1      -1.243   1.717   2.069  0.00  0.00    -0.297 OA
ENDROOT
BRANCH   3  12
ATOM     12  C   UNL d   1      -1.308   2.301  -1.538  0.00  0.00     0.144 C 
ATOM     13  O   UNL d   1      -0.482   3.166  -1.781  0.00  0.00    -0.650 OA
BRANCH  12  14
ATOM     14  O   UNL d   1      -2.633   2.561  -1.581  0.00  0.00    -0.776 OA
ATOM     15  H   UNL d   1      -3.221   1.801  -1.421  0.00  0.00     0.167 HD
ENDBRANCH  12  14
ENDBRANCH   3  12
TORSDOF 2
