REMARK  4 active torsions:
REMARK  status: ('A' for Active; 'I' for Inactive)
REMARK    1  A    between atoms: O_2  and  S_1 
REMARK    2  A    between atoms: C_4  and  S_1 
REMARK    3  A    between atoms: C_3  and  O_2 
REMARK       I    between atoms: C_7  and  N_10 
REMARK    4  A    between atoms: N_10  and  C_14 
ROOT
ATOM      1  S   UNL d   1       1.164   0.023   0.021  0.00  0.00     0.303 S 
ATOM      2  O   UNL d   1       2.017   1.014  -0.605  0.00  0.00    -0.193 OA
ATOM      3  O   UNL d   1       1.695  -1.223   0.551  0.00  0.00    -0.193 OA
ENDROOT
BRANCH   1   4
ATOM      4  O   UNL d   1      -0.065  -0.318  -0.980  0.00  0.00    -0.226 OA
BRANCH   4   5
ATOM      5  C   UNL d   1       0.027  -1.054  -2.146  0.00  0.00     0.133 A 
ATOM      6  C   UNL d   1       1.173  -1.477  -2.845  0.00  0.00     0.070 A 
ATOM      7 CL   UNL d   1       2.816  -1.212  -2.390  0.00  0.00    -0.081 Cl
ATOM      8  C   UNL d   1       1.045  -2.187  -4.055  0.00  0.00     0.027 A 
ATOM      9  C   UNL d   1      -0.199  -2.495  -4.587  0.00  0.00     0.003 A 
ATOM     10  C   UNL d   1      -1.341  -2.096  -3.911  0.00  0.00     0.027 A 
ATOM     11  C   UNL d   1      -1.227  -1.384  -2.708  0.00  0.00     0.070 A 
ATOM     12 CL   UNL d   1      -2.708  -0.924  -1.930  0.00  0.00    -0.081 Cl
ENDBRANCH   4   5
ENDBRANCH   1   4
BRANCH   1  13
ATOM     13  C   UNL d   1       0.422   0.867   1.418  0.00  0.00     0.086 A 
ATOM     14  C   UNL d   1       0.080   0.155   2.571  0.00  0.00     0.028 A 
ATOM     15  C   UNL d   1      -0.232   0.852   3.747  0.00  0.00     0.031 A 
ATOM     16  C   UNL d   1      -0.190   2.254   3.788  0.00  0.00     0.034 A 
ATOM     17  C   UNL d   1       0.111   2.950   2.615  0.00  0.00     0.031 A 
ATOM     18  C   UNL d   1       0.419   2.264   1.435  0.00  0.00     0.028 A 
BRANCH  16  19
ATOM     19  N   UNL d   1      -0.412   2.881   5.035  0.00  0.00    -0.328 N 
ATOM     20  C   UNL d   1      -0.343   4.236   5.315  0.00  0.00     0.218 C 
ATOM     21  O   UNL d   1      -0.113   5.139   4.517  0.00  0.00    -0.274 OA
ATOM     22  C   UNL d   1      -0.578   4.562   6.769  0.00  0.00     0.117 C 
ATOM     23  H   UNL d   1      -0.591   2.261   5.816  0.00  0.00     0.169 HD
ENDBRANCH  16  19
ENDBRANCH   1  13
TORSDOF 4
