REMARK  2 active torsions:
REMARK  status: ('A' for Active; 'I' for Inactive)
REMARK    1  A    between atoms: C_9  and  N_4 
REMARK    2  A    between atoms: C_10  and  C_9 
ROOT
ATOM      1  S   UNL d   1      -3.677  -1.750  -1.396  0.00  0.00     0.147 S 
ATOM      2  C   UNL d   1      -4.168  -0.242  -0.603  0.00  0.00     0.170 C 
ATOM      3  C   UNL d   1      -2.260  -2.269  -0.468  0.00  0.00     0.170 C 
ATOM      4  N   UNL d   1      -1.876   0.059   0.411  0.00  0.00     0.094 N 
ATOM      5  O   UNL d   1      -4.733  -2.727  -1.170  0.00  0.00    -0.228 OA
ATOM      6  O   UNL d   1      -3.250  -1.435  -2.747  0.00  0.00    -0.228 OA
ATOM      7  C   UNL d   1      -2.975   0.656  -0.346  0.00  0.00     0.287 C 
ATOM      8  C   UNL d   1      -1.298  -1.117  -0.245  0.00  0.00     0.287 C 
ENDROOT
BRANCH   4   9
ATOM      9  C   UNL d   1      -2.100  -0.079   1.856  0.00  0.00     0.311 C 
BRANCH   9  10
ATOM     10  C   UNL d   1      -0.808   0.053   2.644  0.00  0.00    -0.030 A 
ATOM     11  C   UNL d   1       0.025   1.161   2.426  0.00  0.00     0.009 A 
ATOM     12  C   UNL d   1       1.212   1.322   3.141  0.00  0.00     0.007 A 
ATOM     13  C   UNL d   1       1.593   0.384   4.104  0.00  0.00    -0.062 A 
ATOM     14  C   UNL d   1       0.762  -0.717   4.340  0.00  0.00     0.007 A 
ATOM     15  C   UNL d   1       2.877   0.583   4.853  0.00  0.00     0.048 C 
ATOM     16  C   UNL d   1      -0.431  -0.881   3.619  0.00  0.00     0.009 A 
ENDBRANCH   9  10
ENDBRANCH   4   9
TORSDOF 2
