REMARK  4 active torsions:
REMARK  status: ('A' for Active; 'I' for Inactive)
REMARK       I    between atoms: N_3  and  C_1 
REMARK       I    between atoms: N_9  and  C_1 
REMARK    1  A    between atoms: C_2  and  N_4 
REMARK    2  A    between atoms: C_18  and  N_9 
REMARK    3  A    between atoms: C_25  and  C_15 
REMARK    4  A    between atoms: C_26  and  C_25 
ROOT
ATOM      1  C   UNL d   1       0.939   0.260  -0.015  0.00  0.00     0.323 C 
ATOM      2  N   UNL d   1       0.280   1.090   0.878  0.00  0.00    -0.331 N 
ATOM      3  N   UNL d   1      -0.124   2.637   3.236  0.00  0.00    -0.214 N 
ATOM      4  N   UNL d   1       0.569  -1.065  -0.003  0.00  0.00    -0.309 N 
ATOM      5  O   UNL d   1       1.819   0.716  -0.745  0.00  0.00    -0.247 OA
ATOM      6  C   UNL d   1       0.668   2.514   0.910  0.00  0.00     0.148 C 
ATOM      7  C   UNL d   1      -0.827   0.766   1.798  0.00  0.00     0.148 C 
ATOM      8  C   UNL d   1       0.970   3.003   2.339  0.00  0.00     0.161 C 
ATOM      9  C   UNL d   1      -0.525   1.234   3.235  0.00  0.00     0.161 C 
ATOM     10  H   UNL d   1      -0.198  -1.331   0.585  0.00  0.00     0.170 HD
ENDROOT
BRANCH   4  11
ATOM     11  C   UNL d   1       1.179  -2.129  -0.710  0.00  0.00     0.036 A 
ATOM     12  C   UNL d   1       2.258  -1.969  -1.586  0.00  0.00     0.032 A 
ATOM     13  C   UNL d   1       2.862  -3.076  -2.188  0.00  0.00     0.044 A 
ATOM     14  C   UNL d   1       2.380  -4.349  -1.923  0.00  0.00     0.116 A 
ATOM     15  C   UNL d   1       1.290  -4.532  -1.084  0.00  0.00     0.044 A 
ATOM     16  F   UNL d   1       2.977  -5.411  -2.477  0.00  0.00    -0.206 F 
ATOM     17  C   UNL d   1       0.685  -3.424  -0.481  0.00  0.00     0.032 A 
ENDBRANCH   4  11
BRANCH   3  18
ATOM     18  C   UNL d   1      -0.855   3.586   3.900  0.00  0.00     0.679 A 
ATOM     19  N   UNL d   1      -1.938   3.198   4.591  0.00  0.00    -0.201 N 
ATOM     20  C   UNL d   1      -2.603   4.131   5.298  0.00  0.00     0.114 A 
ATOM     21  HN  UNL d   1      -2.248   2.226   4.581  1.00  0.00     0.183 HD
ATOM     22  C   UNL d   1      -2.245   5.457   5.350  0.00  0.00    -0.026 A 
ATOM     23  C   UNL d   1      -1.139   5.766   4.593  0.00  0.00     0.114 A 
ATOM     24  N   UNL d   1      -0.447   4.864   3.868  0.00  0.00    -0.201 N 
ATOM     25  HN  UNL d   1       0.360   5.145   3.311  1.00  0.00     0.183 HD
BRANCH  22  26
ATOM     26  C   UNL d   1      -2.980   6.456   6.187  0.00  0.00     0.041 C 
BRANCH  26  27
ATOM     27  C   UNL d   1      -3.550   7.642   5.404  0.00  0.00     0.000 C 
ATOM     28  C   UNL d   1      -4.605   7.234   4.385  0.00  0.00     0.005 C 
ENDBRANCH  26  27
ENDBRANCH  22  26
ENDBRANCH   3  18
TORSDOF 4
