REMARK  2 active torsions:
REMARK  status: ('A' for Active; 'I' for Inactive)
REMARK    1  A    between atoms: C_8  and  N_4 
REMARK    2  A    between atoms: C_12  and  C_8 
ROOT
ATOM      1  C   UNL d   1      -0.638   1.330   0.023  0.00  0.00     0.101 A 
ATOM      2  C   UNL d   1      -0.848  -1.196   0.036  0.00  0.00     0.101 A 
ATOM      3  C   UNL d   1      -1.536   0.133   0.035  0.00  0.00     0.217 A 
ATOM      4  N   UNL d   1       1.313  -0.104   0.078  0.00  0.00    -0.356 N 
ATOM      5  C   UNL d   1       0.493  -1.230   0.054  0.00  0.00     0.118 A 
ATOM      6  C   UNL d   1       0.690   1.142   0.036  0.00  0.00     0.118 A 
ATOM      7  O   UNL d   1      -2.759   0.233   0.037  0.00  0.00    -0.285 OA
ATOM      8 CL   UNL d   1      -1.336   2.898  -0.024  0.00  0.00    -0.079 Cl
ATOM      9 CL   UNL d   1      -1.793  -2.628  -0.001  0.00  0.00    -0.079 Cl
ENDROOT
BRANCH   4  10
ATOM     10  C   UNL d   1       2.785  -0.227  -0.028  0.00  0.00     0.205 C 
BRANCH  10  11
ATOM     11  C   UNL d   1       3.502   0.438   1.137  0.00  0.00     0.141 C 
ATOM     12  O   UNL d   1       4.288   1.370   0.960  0.00  0.00    -0.297 OA
ATOM     13  C   UNL d   1       3.249  -0.114   2.516  0.00  0.00     0.092 C 
ENDBRANCH  10  11
ENDBRANCH   4  10
TORSDOF 2
