REMARK  4 active torsions:
REMARK  status: ('A' for Active; 'I' for Inactive)
REMARK    1  A    between atoms: C_6  and  C_1 
REMARK    2  A    between atoms: C_9  and  N_2 
REMARK    3  A    between atoms: C_8  and  C_4 
REMARK       I    between atoms: N_7  and  C_6 
REMARK    4  A    between atoms: C_11  and  N_7 
ROOT
ATOM      1  C   UNL d   1      -0.136   1.023  -0.077  0.00  0.00     0.057 C 
ATOM      2  N   UNL d   1       1.052  -0.947   0.161  0.00  0.00    -0.318 N 
ATOM      3  C   UNL d   1       1.083   0.464   0.312  0.00  0.00     0.029 C 
ATOM      4  C   UNL d   1      -0.332  -1.271   0.013  0.00  0.00     0.025 C 
ATOM      5  C   UNL d   1      -1.004  -0.075  -0.231  0.00  0.00     0.045 C 
ATOM      6  C   UNL d   1       2.238   1.250   0.868  0.00  0.00     0.070 C 
ENDROOT
BRANCH   1   7
ATOM      7  C   UNL d   1      -0.406   2.476  -0.192  0.00  0.00     0.258 C 
ATOM      8  N   UNL d   1      -1.741   2.832  -0.334  0.00  0.00    -0.323 N 
ATOM      9  H   UNL d   1      -2.413   2.079  -0.383  0.00  0.00     0.169 HD
ATOM     10  O   UNL d   1       0.517   3.286  -0.159  0.00  0.00    -0.267 OA
BRANCH   8  11
ATOM     11  C   UNL d   1      -2.280   4.145  -0.334  0.00  0.00     0.035 A 
ATOM     12  C   UNL d   1      -1.511   5.307  -0.214  0.00  0.00     0.031 A 
ATOM     13  C   UNL d   1      -2.115   6.569  -0.143  0.00  0.00     0.026 A 
ATOM     14  C   UNL d   1      -3.498   6.683  -0.201  0.00  0.00     0.034 A 
ATOM     15  C   UNL d   1      -4.285   5.543  -0.355  0.00  0.00     0.026 A 
ATOM     16 CL   UNL d   1      -4.241   8.225  -0.065  0.00  0.00    -0.084 Cl
ATOM     17  C   UNL d   1      -3.673   4.280  -0.426  0.00  0.00     0.031 A 
ENDBRANCH   8  11
ENDBRANCH   1   7
BRANCH   2  18
ATOM     18  C   UNL d   1       2.242  -1.816   0.197  0.00  0.00     0.039 A 
ATOM     19  C   UNL d   1       3.532  -1.284   0.012  0.00  0.00     0.030 A 
ATOM     20  C   UNL d   1       4.699  -2.054   0.165  0.00  0.00     0.002 A 
ATOM     21  C   UNL d   1       4.613  -3.410   0.435  0.00  0.00     0.000 A 
ATOM     22  C   UNL d   1       3.361  -3.989   0.516  0.00  0.00     0.002 A 
ATOM     23  C   UNL d   1       2.204  -3.201   0.393  0.00  0.00     0.030 A 
ENDBRANCH   2  18
BRANCH   4  24
ATOM     24  C   UNL d   1      -1.016  -2.651   0.049  0.00  0.00    -0.008 C 
ATOM     25  C   UNL d   1      -2.568  -2.540  -0.098  0.00  0.00     0.021 C 
ATOM     26  C   UNL d   1      -0.594  -3.501  -1.172  0.00  0.00     0.021 C 
ATOM     27  C   UNL d   1      -0.849  -3.309   1.442  0.00  0.00     0.021 C 
ENDBRANCH   4  24
TORSDOF 4
