REMARK  4 active torsions:
REMARK  status: ('A' for Active; 'I' for Inactive)
REMARK       I    between atoms: N_2  and  C_1 
REMARK    1  A    between atoms: C_4  and  C_1 
REMARK    2  A    between atoms: C_3  and  N_2 
REMARK    3  A    between atoms: N_5  and  C_3 
REMARK    4  A    between atoms: C_9  and  N_5 
ROOT
ATOM      1  C   UNL d   1      -0.978   1.130  -0.131  0.00  0.00     0.259 C 
ATOM      2  N   UNL d   1       0.318   1.157  -0.630  0.00  0.00    -0.299 N 
ATOM      3  O   UNL d   1      -1.619   2.137   0.173  0.00  0.00    -0.267 OA
ATOM      4  H   UNL d   1       0.784   0.270  -0.764  0.00  0.00     0.171 HD
ENDROOT
BRANCH   2   5
ATOM      5  C   UNL d   1       1.033   2.240  -1.102  0.00  0.00     0.179 C 
ATOM      6  S   UNL d   1       0.398   3.587  -1.862  0.00  0.00    -0.040 SA
BRANCH   5   7
ATOM      7  N   UNL d   1       2.402   2.175  -0.983  0.00  0.00    -0.333 N 
ATOM      8  H   UNL d   1       2.875   2.895  -1.520  0.00  0.00     0.168 HD
BRANCH   7   9
ATOM      9  C   UNL d   1       3.221   1.383  -0.150  0.00  0.00     0.034 A 
ATOM     10  C   UNL d   1       2.738   0.605   0.905  0.00  0.00     0.031 A 
ATOM     11  C   UNL d   1       3.594  -0.222   1.636  0.00  0.00     0.026 A 
ATOM     12  C   UNL d   1       4.953  -0.239   1.346  0.00  0.00     0.034 A 
ATOM     13  C   UNL d   1       5.467   0.601   0.362  0.00  0.00     0.026 A 
ATOM     14 CL   UNL d   1       5.994  -1.299   2.209  0.00  0.00    -0.084 Cl
ATOM     15  C   UNL d   1       4.603   1.416  -0.379  0.00  0.00     0.031 A 
ENDBRANCH   7   9
ENDBRANCH   5   7
ENDBRANCH   2   5
BRANCH   1  16
ATOM     16  C   UNL d   1      -1.545  -0.197   0.256  0.00  0.00     0.054 A 
ATOM     17  C   UNL d   1      -1.294  -1.411  -0.394  0.00  0.00     0.049 A 
ATOM     18 CL   UNL d   1      -0.306  -1.544  -1.804  0.00  0.00    -0.083 Cl
ATOM     19  C   UNL d   1      -1.879  -2.596   0.081  0.00  0.00     0.025 A 
ATOM     20  C   UNL d   1      -2.719  -2.581   1.196  0.00  0.00     0.002 A 
ATOM     21  C   UNL d   1      -2.986  -1.379   1.841  0.00  0.00     0.001 A 
ATOM     22  C   UNL d   1      -2.406  -0.198   1.373  0.00  0.00     0.019 A 
ENDBRANCH   1  16
TORSDOF 4
