REMARK  5 active torsions:
REMARK  status: ('A' for Active; 'I' for Inactive)
REMARK    1  A    between atoms: S_5  and  C_1 
REMARK    2  A    between atoms: C_13  and  S_5 
REMARK    3  A    between atoms: C_7  and  C_13 
REMARK       I    between atoms: N_9  and  C_7 
REMARK    4  A    between atoms: C_16  and  N_9 
REMARK    5  A    between atoms: C_10  and  C_11 
ROOT
ATOM      1  C   UNL d   1       2.378   6.497  -0.682  0.00  0.00     0.231 C 
ATOM      2  N   UNL d   1       1.740   5.529   0.078  0.00  0.00    -0.327 N 
ATOM      3  O   UNL d   1       1.801   7.410  -1.279  0.00  0.00    -0.272 OA
ATOM      4  H   UNL d   1       2.333   4.925   0.628  0.00  0.00     0.169 HD
ENDROOT
BRANCH   2   5
ATOM      5  C   UNL d   1       0.343   5.305   0.148  0.00  0.00     0.034 A 
ATOM      6  C   UNL d   1      -0.583   5.950  -0.670  0.00  0.00     0.030 A 
ATOM      7  C   UNL d   1      -1.949   5.643  -0.609  0.00  0.00     0.010 A 
ATOM      8  C   UNL d   1      -2.451   4.678   0.279  0.00  0.00    -0.051 A 
ATOM      9  C   UNL d   1      -1.519   4.066   1.133  0.00  0.00     0.010 A 
ATOM     10  C   UNL d   1      -0.144   4.368   1.065  0.00  0.00     0.030 A 
BRANCH   8  11
ATOM     11  C   UNL d   1      -3.948   4.318   0.248  0.00  0.00    -0.024 C 
ATOM     12  C   UNL d   1      -4.343   3.227   1.268  0.00  0.00     0.019 C 
ATOM     13  C   UNL d   1      -4.812   5.563   0.546  0.00  0.00     0.019 C 
ATOM     14  C   UNL d   1      -4.320   3.785  -1.155  0.00  0.00     0.019 C 
ENDBRANCH   8  11
ENDBRANCH   2   5
BRANCH   1  15
ATOM     15  C   UNL d   1       3.896   6.495  -0.668  0.00  0.00     0.185 C 
BRANCH  15  16
ATOM     16  S   UNL d   1       4.662   4.847  -0.674  0.00  0.00    -0.084 SA
BRANCH  16  17
ATOM     17  C   UNL d   1       6.333   5.331  -0.724  0.00  0.00     0.146 A 
ATOM     18  N   UNL d   1       7.384   4.469  -0.899  0.00  0.00    -0.341 N 
ATOM     19  C   UNL d   1       8.537   5.208  -0.796  0.00  0.00     0.109 A 
ATOM     20  C   UNL d   1       7.356   3.050  -1.148  0.00  0.00     0.158 C 
ATOM     21  C   UNL d   1       8.118   6.504  -0.614  0.00  0.00     0.107 A 
ATOM     22  N   UNL d   1       6.751   6.568  -0.571  0.00  0.00    -0.345 N 
ATOM     23  HN  UNL d   1       6.177   7.402  -0.445  1.00  0.00     0.167 HD
ENDBRANCH  16  17
ENDBRANCH  15  16
ENDBRANCH   1  15
TORSDOF 5
