REMARK  5 active torsions:
REMARK  status: ('A' for Active; 'I' for Inactive)
REMARK       I    between atoms: N_6  and  C_1 
REMARK    1  A    between atoms: O_13  and  C_1 
REMARK    2  A    between atoms: C_10  and  N_6 
REMARK    3  A    between atoms: O_9  and  C_7 
REMARK    4  A    between atoms: C_12  and  O_9 
REMARK    5  A    between atoms: C_22  and  O_13 
ROOT
ATOM      1  C   UNL d   1      -2.115   2.678   3.125  0.00  0.00    -0.091 C 
ATOM      2  C   UNL d   1      -1.936   3.250   4.165  0.00  0.00     0.014 C 
ATOM      3  C   UNL d   1      -2.372   1.951   1.873  0.00  0.00     0.273 C 
ENDROOT
BRANCH   3   4
ATOM      4  O   UNL d   1      -1.276   2.140   0.970  0.00  0.00    -0.292 OA
BRANCH   4   5
ATOM      5  C   UNL d   1      -0.814   1.025   0.362  0.00  0.00     0.366 C 
ATOM      6  N   UNL d   1       0.143   1.224  -0.596  0.00  0.00    -0.301 N 
ATOM      7  H   UNL d   1       0.397   0.351  -1.041  0.00  0.00     0.171 HD
ATOM      8  O   UNL d   1      -1.216  -0.113   0.586  0.00  0.00    -0.238 OA
BRANCH   6   9
ATOM      9  C   UNL d   1       0.821   2.380  -1.022  0.00  0.00     0.052 A 
ATOM     10  C   UNL d   1       0.693   3.654  -0.479  0.00  0.00     0.119 A 
ATOM     11  N   UNL d   1       1.417   4.732  -0.879  0.00  0.00    -0.344 N 
ATOM     12  C   UNL d   1       2.301   4.539  -1.881  0.00  0.00     0.148 A 
ATOM     13  HN  UNL d   1       1.297   5.646  -0.443  1.00  0.00     0.167 HD
ATOM     14  C   UNL d   1       2.496   3.316  -2.499  0.00  0.00     0.059 A 
ATOM     15  C   UNL d   1       1.739   2.228  -2.067  0.00  0.00     0.035 A 
BRANCH  12  16
ATOM     16  O   UNL d   1       3.135   5.572  -2.286  0.00  0.00    -0.294 OA
BRANCH  16  17
ATOM     17  C   UNL d   1       2.686   6.865  -2.149  0.00  0.00     0.077 A 
ATOM     18  C   UNL d   1       3.630   7.817  -1.756  0.00  0.00     0.039 A 
ATOM     19  C   UNL d   1       3.272   9.165  -1.679  0.00  0.00     0.026 A 
ATOM     20  C   UNL d   1       1.975   9.556  -2.006  0.00  0.00     0.034 A 
ATOM     21  C   UNL d   1       1.032   8.612  -2.410  0.00  0.00     0.026 A 
ATOM     22 CL   UNL d   1       1.537  11.218  -1.928  0.00  0.00    -0.084 Cl
ATOM     23  C   UNL d   1       1.391   7.265  -2.493  0.00  0.00     0.039 A 
ENDBRANCH  16  17
ENDBRANCH  12  16
ENDBRANCH   6   9
ENDBRANCH   4   5
ENDBRANCH   3   4
TORSDOF 5
