REMARK  5 active torsions:
REMARK  status: ('A' for Active; 'I' for Inactive)
REMARK    1  A    between atoms: C_14  and  N_5 
REMARK    2  A    between atoms: C_12  and  N_7 
REMARK    3  A    between atoms: C_13  and  C_12 
REMARK    4  A    between atoms: O_17  and  C_13 
REMARK    5  A    between atoms: C_20  and  O_17 
ROOT
ATOM      1  C   UNL d   1      -0.200  -0.705   0.025  0.00  0.00     0.145 A 
ATOM      2  C   UNL d   1      -0.228   0.665  -0.059  0.00  0.00     0.095 A 
ATOM      3  N   UNL d   1       0.911  -1.480   0.138  0.00  0.00    -0.336 N 
ATOM      4  HN  UNL d   1       0.879  -2.498   0.192  1.00  0.00     0.168 HD
ATOM      5  N   UNL d   1      -1.517  -1.132  -0.126  0.00  0.00    -0.239 N 
ATOM      6  C   UNL d   1       1.000   1.406   0.029  0.00  0.00     0.264 A 
ATOM      7  N   UNL d   1       2.122   0.583   0.138  0.00  0.00    -0.300 N 
ATOM      8  N   UNL d   1      -2.349  -0.068  -0.366  0.00  0.00    -0.302 N 
ATOM      9  HN  UNL d   1      -3.349  -0.093  -0.569  1.00  0.00     0.186 HD
ATOM     10  C   UNL d   1       2.017  -0.800   0.169  0.00  0.00     0.188 A 
ATOM     11  C   UNL d   1      -1.563   1.008  -0.276  0.00  0.00     0.128 A 
ATOM     12  O   UNL d   1       1.042   2.632  -0.007  0.00  0.00    -0.267 OA
ENDROOT
BRANCH   5  13
ATOM     13  C   UNL d   1      -2.030  -2.458  -0.085  0.00  0.00     0.058 A 
ATOM     14  C   UNL d   1      -1.326  -3.486   0.555  0.00  0.00     0.031 A 
ATOM     15  C   UNL d   1      -1.833  -4.788   0.556  0.00  0.00     0.002 A 
ATOM     16  C   UNL d   1      -3.032  -5.072  -0.094  0.00  0.00     0.000 A 
ATOM     17  C   UNL d   1      -3.744  -4.051  -0.721  0.00  0.00     0.002 A 
ATOM     18  C   UNL d   1      -3.258  -2.741  -0.701  0.00  0.00     0.031 A 
ENDBRANCH   5  13
BRANCH   7  19
ATOM     19  C   UNL d   1       3.430   1.216   0.205  0.00  0.00     0.244 C 
BRANCH  19  20
ATOM     20  C   UNL d   1       3.984   1.668  -1.141  0.00  0.00     0.277 C 
ATOM     21  O   UNL d   1       5.071   2.224  -1.251  0.00  0.00    -0.263 OA
BRANCH  20  22
ATOM     22  O   UNL d   1       3.141   1.398  -2.174  0.00  0.00    -0.321 OA
BRANCH  22  23
ATOM     23  C   UNL d   1       3.482   1.998  -3.433  0.00  0.00     0.174 C 
ATOM     24  C   UNL d   1       2.849   3.376  -3.511  0.00  0.00     0.034 C 
ENDBRANCH  22  23
ENDBRANCH  20  22
ENDBRANCH  19  20
ENDBRANCH   7  19
TORSDOF 5
