REMARK  2 active torsions:
REMARK  status: ('A' for Active; 'I' for Inactive)
REMARK    1  A    between atoms: C_10  and  N_1 
REMARK    2  A    between atoms: C_11  and  C_12 
ROOT
ATOM      1  N   UNL d   1       3.024   1.201   0.032  0.00  0.00    -0.229 N 
ATOM      2  C   UNL d   1       0.749   0.436  -0.010  0.00  0.00     0.074 A 
ATOM      3  C   UNL d   1       1.254  -0.825  -0.091  0.00  0.00     0.094 A 
ATOM      4  C   UNL d   1       1.660   1.556   0.099  0.00  0.00     0.270 A 
ATOM      5  C   UNL d   1       3.508  -0.115  -0.111  0.00  0.00     0.335 A 
ATOM      6  N   UNL d   1       2.574  -1.126  -0.139  0.00  0.00    -0.301 N 
ATOM      7  C   UNL d   1      -0.679   0.404  -0.059  0.00  0.00    -0.026 A 
ATOM      8  C   UNL d   1      -1.148  -0.903  -0.059  0.00  0.00    -0.008 A 
ATOM      9  S   UNL d   1       0.114  -2.055  -0.129  0.00  0.00    -0.075 SA
ATOM     10  C   UNL d   1      -1.601   1.589  -0.048  0.00  0.00     0.041 C 
ATOM     11  O   UNL d   1       4.697  -0.426  -0.173  0.00  0.00    -0.246 OA
ATOM     12  O   UNL d   1       1.237   2.705   0.217  0.00  0.00    -0.266 OA
ATOM     13  C   UNL d   1      -2.594  -1.298  -0.020  0.00  0.00     0.051 C 
ATOM     14  C   UNL d   1      -3.056   1.177  -0.318  0.00  0.00     0.009 C 
ATOM     15  C   UNL d   1      -3.465  -0.104   0.442  0.00  0.00    -0.014 C 
ATOM     16  C   UNL d   1      -3.387   0.095   1.960  0.00  0.00     0.010 C 
ATOM     17  H   UNL d   1       2.895  -2.082  -0.201  0.00  0.00     0.171 HD
ENDROOT
BRANCH   1  18
ATOM     18  C   UNL d   1       3.979   2.255   0.133  0.00  0.00     0.048 A 
ATOM     19  C   UNL d   1       3.979   3.101   1.251  0.00  0.00     0.046 A 
ATOM     20  C   UNL d   1       4.939   4.116   1.380  0.00  0.00     0.050 A 
ATOM     21  C   UNL d   1       5.864   4.310   0.343  0.00  0.00     0.016 A 
ATOM     22  C   UNL d   1       5.851   3.487  -0.784  0.00  0.00     0.003 A 
ATOM     23  C   UNL d   1       4.925   2.449  -0.879  0.00  0.00     0.030 A 
BRANCH  20  24
ATOM     24  C   UNL d   1       5.006   4.970   2.621  0.00  0.00     0.417 C 
ATOM     25  F   UNL d   1       4.071   4.650   3.558  0.00  0.00    -0.166 F 
ATOM     26  F   UNL d   1       6.210   4.868   3.253  0.00  0.00    -0.166 F 
ATOM     27  F   UNL d   1       4.835   6.295   2.358  0.00  0.00    -0.166 F 
ENDBRANCH  20  24
ENDBRANCH   1  18
TORSDOF 2
