REMARK  6 active torsions:
REMARK  status: ('A' for Active; 'I' for Inactive)
REMARK    1  A    between atoms: C_9  and  C_1 
REMARK    2  A    between atoms: C_2  and  C_8 
REMARK    3  A    between atoms: C_3  and  O_7 
REMARK    4  A    between atoms: C_10  and  C_3 
REMARK    5  A    between atoms: C_21  and  C_4 
REMARK    6  A    between atoms: O_7  and  C_22 
ROOT
ATOM      1  C   UNL d   1       0.755  -0.292  -1.079  0.00  0.00     0.072 C 
ATOM      2  C   UNL d   1       0.455  -1.257  -0.180  0.00  0.00     0.036 C 
ATOM      3  C   UNL d   1       1.760  -0.522  -2.072  0.00  0.00     0.102 C 
ATOM      4  N   UNL d   1       2.566  -0.671  -2.893  0.00  0.00    -0.191 NA
ENDROOT
BRANCH   1   5
ATOM      5  C   UNL d   1       0.079   1.036  -1.031  0.00  0.00     0.052 A 
ATOM      6  N   UNL d   1      -0.843   1.220  -0.049  0.00  0.00    -0.365 N 
ATOM      7  C   UNL d   1      -1.439   2.431   0.050  0.00  0.00     0.088 A 
ATOM      8  HN  UNL d   1      -1.080   0.466   0.595  1.00  0.00     0.165 HD
ATOM      9  C   UNL d   1      -1.166   3.496  -0.788  0.00  0.00     0.017 A 
ATOM     10  C   UNL d   1      -0.230   3.307  -1.793  0.00  0.00     0.004 A 
ATOM     11  C   UNL d   1       0.399   2.068  -1.919  0.00  0.00     0.031 A 
ENDBRANCH   1   5
BRANCH   2  12
ATOM     12  C   UNL d   1       1.150  -2.549  -0.084  0.00  0.00    -0.035 A 
ATOM     13  C   UNL d   1       2.325  -2.637   0.675  0.00  0.00     0.014 A 
ATOM     14  C   UNL d   1       3.029  -3.841   0.748  0.00  0.00     0.038 A 
ATOM     15  C   UNL d   1       2.550  -4.963   0.074  0.00  0.00     0.079 A 
ATOM     16  C   UNL d   1       1.389  -4.886  -0.695  0.00  0.00     0.038 A 
ATOM     17  C   UNL d   1       0.683  -3.678  -0.766  0.00  0.00     0.014 A 
BRANCH  15  18
ATOM     18  O   UNL d   1       3.358  -6.117   0.134  0.00  0.00    -0.275 OA
BRANCH  18  19
ATOM     19  C   UNL d   1       2.771  -7.362   0.294  0.00  0.00     0.298 C 
ATOM     20  O   UNL d   1       1.581  -7.601   0.434  0.00  0.00    -0.259 OA
BRANCH  19  21
ATOM     21  C   UNL d   1       3.811  -8.431   0.248  0.00  0.00     0.040 A 
ATOM     22  C   UNL d   1       3.378  -9.765   0.226  0.00  0.00     0.018 A 
ATOM     23  C   UNL d   1       4.299 -10.813   0.126  0.00  0.00     0.017 A 
ATOM     24  C   UNL d   1       5.673 -10.548   0.049  0.00  0.00     0.048 A 
ATOM     25  C   UNL d   1       6.107  -9.213   0.112  0.00  0.00     0.017 A 
ATOM     26  C   UNL d   1       5.186  -8.162   0.209  0.00  0.00     0.018 A 
BRANCH  24  27
ATOM     27  C   UNL d   1       6.676 -11.666  -0.127  0.00  0.00     0.417 C 
ATOM     28  F   UNL d   1       6.107 -12.902  -0.191  0.00  0.00    -0.166 F 
ATOM     29  F   UNL d   1       7.402 -11.531  -1.271  0.00  0.00    -0.166 F 
ATOM     30  F   UNL d   1       7.582 -11.722   0.887  0.00  0.00    -0.166 F 
ENDBRANCH  24  27
ENDBRANCH  19  21
ENDBRANCH  18  19
ENDBRANCH  15  18
ENDBRANCH   2  12
TORSDOF 6
