REMARK  6 active torsions:
REMARK  status: ('A' for Active; 'I' for Inactive)
REMARK       I    between atoms: N_3  and  C_1 
REMARK       I    between atoms: N_9  and  C_1 
REMARK    1  A    between atoms: C_2  and  C_4 
REMARK    2  A    between atoms: C_6  and  N_5 
REMARK    3  A    between atoms: C_19  and  N_9 
REMARK    4  A    between atoms: O_20  and  C_22 
REMARK    5  A    between atoms: C_25  and  O_20 
REMARK    6  A    between atoms: C_30  and  C_25 
ROOT
ATOM      1  C   UNL d   1       0.924  -0.084   0.034  0.00  0.00     0.322 C 
ATOM      2  N   UNL d   1       0.186  -1.047  -0.651  0.00  0.00    -0.332 N 
ATOM      3  N   UNL d   1      -2.158  -2.769  -1.067  0.00  0.00    -0.366 N 
ATOM      4  N   UNL d   1       0.864   1.200  -0.473  0.00  0.00    -0.309 N 
ATOM      5  O   UNL d   1       1.587  -0.413   1.014  0.00  0.00    -0.247 OA
ATOM      6  C   UNL d   1      -0.814  -0.809  -1.706  0.00  0.00     0.147 C 
ATOM      7  C   UNL d   1      -2.227  -1.347  -1.410  0.00  0.00     0.144 C 
ATOM      8  C   UNL d   1      -0.421  -3.153   0.638  0.00  0.00     0.040 C 
ATOM      9  C   UNL d   1       0.498  -2.457  -0.365  0.00  0.00     0.129 C 
ATOM     10  C   UNL d   1      -1.914  -3.057   0.346  0.00  0.00     0.126 C 
ATOM     11  H   UNL d   1       0.341   1.377  -1.307  0.00  0.00     0.170 HD
ENDROOT
BRANCH   4  12
ATOM     12  C   UNL d   1       1.484   2.348   0.067  0.00  0.00     0.036 A 
ATOM     13  C   UNL d   1       2.376   2.315   1.135  0.00  0.00     0.032 A 
ATOM     14  C   UNL d   1       2.858   3.499   1.692  0.00  0.00     0.039 A 
ATOM     15  C   UNL d   1       2.441   4.730   1.191  0.00  0.00     0.069 A 
ATOM     16  C   UNL d   1       1.630   4.774   0.061  0.00  0.00     0.039 A 
ATOM     17  C   UNL d   1       1.153   3.586  -0.502  0.00  0.00     0.032 A 
BRANCH  15  18
ATOM     18  O   UNL d   1       2.790   5.936   1.737  0.00  0.00    -0.347 OA
BRANCH  18  19
ATOM     19  C   UNL d   1       2.929   5.900   3.163  0.00  0.00     0.214 C 
BRANCH  19  20
ATOM     20  C   UNL d   1       3.185   7.280   3.721  0.00  0.00    -0.034 A 
ATOM     21  C   UNL d   1       2.776   7.589   5.027  0.00  0.00     0.009 A 
ATOM     22  C   UNL d   1       3.091   8.825   5.592  0.00  0.00     0.001 A 
ATOM     23  C   UNL d   1       3.823   9.759   4.863  0.00  0.00     0.000 A 
ATOM     24  C   UNL d   1       4.239   9.461   3.567  0.00  0.00     0.001 A 
ATOM     25  C   UNL d   1       3.926   8.225   3.001  0.00  0.00     0.009 A 
ENDBRANCH  19  20
ENDBRANCH  18  19
ENDBRANCH  15  18
ENDBRANCH   4  12
BRANCH   3  26
ATOM     26  C   UNL d   1      -2.983  -3.642  -1.757  0.00  0.00     0.102 A 
ATOM     27  N   UNL d   1      -4.100  -3.178  -2.358  0.00  0.00    -0.352 N 
ATOM     28  C   UNL d   1      -4.867  -4.050  -3.052  0.00  0.00     0.106 A 
ATOM     29  HN  UNL d   1      -4.358  -2.193  -2.291  1.00  0.00     0.166 HD
ATOM     30  C   UNL d   1      -4.570  -5.391  -3.210  0.00  0.00     0.063 A 
ATOM     31  C   UNL d   1      -3.400  -5.859  -2.610  0.00  0.00     0.021 A 
ATOM     32  C   UNL d   1      -2.612  -4.979  -1.875  0.00  0.00     0.049 A 
BRANCH  30  33
ATOM     33  C   UNL d   1      -5.463  -6.298  -3.990  0.00  0.00     0.418 C 
ATOM     34  F   UNL d   1      -6.574  -5.681  -4.482  0.00  0.00    -0.166 F 
ATOM     35  F   UNL d   1      -4.838  -6.849  -5.066  0.00  0.00    -0.166 F 
ATOM     36  F   UNL d   1      -5.917  -7.344  -3.247  0.00  0.00    -0.166 F 
ENDBRANCH  30  33
ENDBRANCH   3  26
TORSDOF 6
