REMARK  8 active torsions:
REMARK  status: ('A' for Active; 'I' for Inactive)
REMARK    1  A    between atoms: C_2  and  C_1 
REMARK       I    between atoms: N_4  and  C_1 
REMARK       I    between atoms: C_3  and  N_5 
REMARK       I    between atoms: N_6  and  C_3 
REMARK    2  A    between atoms: C_10  and  N_4 
REMARK    3  A    between atoms: N_5  and  C_11 
REMARK    4  A    between atoms: C_12  and  N_6 
REMARK    5  A    between atoms: O_16  and  C_7 
REMARK    6  A    between atoms: O_13  and  C_14 
REMARK    7  A    between atoms: C_15  and  O_13 
REMARK    8  A    between atoms: C_26  and  C_15 
ROOT
ATOM      1  C   UNL d   1      -6.167   0.142  -1.338  0.00  0.00     0.325 C 
ATOM      2  N   UNL d   1      -5.376  -0.978  -1.144  0.00  0.00    -0.309 N 
ATOM      3  N   UNL d   1      -5.385   1.265  -1.573  0.00  0.00    -0.309 N 
ATOM      4  O   UNL d   1      -7.390   0.139  -1.315  0.00  0.00    -0.247 OA
ATOM      5  H   UNL d   1      -4.378  -0.840  -1.169  0.00  0.00     0.170 HD
ATOM      6  H   UNL d   1      -4.424   1.108  -1.837  0.00  0.00     0.170 HD
ENDROOT
BRANCH   2   7
ATOM      7  C   UNL d   1      -5.816  -2.307  -0.970  0.00  0.00     0.036 A 
ATOM      8  C   UNL d   1      -7.154  -2.686  -0.856  0.00  0.00     0.032 A 
ATOM      9  C   UNL d   1      -7.510  -4.040  -0.796  0.00  0.00     0.032 A 
ATOM     10  C   UNL d   1      -6.534  -5.037  -0.860  0.00  0.00     0.035 A 
ATOM     11  C   UNL d   1      -5.194  -4.654  -0.906  0.00  0.00     0.032 A 
ATOM     12  C   UNL d   1      -4.838  -3.302  -0.950  0.00  0.00     0.032 A 
BRANCH  10  13
ATOM     13  N   UNL d   1      -6.973  -6.380  -0.881  0.00  0.00    -0.323 N 
ATOM     14  C   UNL d   1      -6.183  -7.499  -1.063  0.00  0.00     0.259 C 
ATOM     15  O   UNL d   1      -4.966  -7.513  -1.225  0.00  0.00    -0.267 OA
ATOM     16  H   UNL d   1      -7.966  -6.513  -0.742  0.00  0.00     0.169 HD
BRANCH  14  17
ATOM     17  C   UNL d   1      -6.867  -8.822  -1.000  0.00  0.00     0.065 A 
ATOM     18  C   UNL d   1      -6.134  -9.942  -0.575  0.00  0.00     0.081 A 
ATOM     19  C   UNL d   1      -6.745 -11.187  -0.448  0.00  0.00     0.037 A 
ATOM     20  C   UNL d   1      -8.090 -11.335  -0.776  0.00  0.00     0.003 A 
ATOM     21  C   UNL d   1      -8.820 -10.243  -1.244  0.00  0.00     0.001 A 
ATOM     22  C   UNL d   1      -8.213  -8.987  -1.362  0.00  0.00     0.020 A 
BRANCH  18  23
ATOM     23  O   UNL d   1      -4.800  -9.892  -0.265  0.00  0.00    -0.360 OA
ATOM     24  H   UNL d   1      -4.456  -9.024  -0.581  0.00  0.00     0.217 HD
ENDBRANCH  18  23
ENDBRANCH  14  17
ENDBRANCH  10  13
ENDBRANCH   2   7
BRANCH   3  25
ATOM     25  C   UNL d   1      -5.840   2.599  -1.639  0.00  0.00     0.036 A 
ATOM     26  C   UNL d   1      -7.126   2.983  -1.261  0.00  0.00     0.032 A 
ATOM     27  C   UNL d   1      -7.516   4.323  -1.297  0.00  0.00     0.039 A 
ATOM     28  C   UNL d   1      -6.625   5.308  -1.718  0.00  0.00     0.069 A 
ATOM     29  C   UNL d   1      -5.336   4.932  -2.100  0.00  0.00     0.039 A 
ATOM     30  C   UNL d   1      -4.944   3.587  -2.062  0.00  0.00     0.032 A 
BRANCH  28  31
ATOM     31  O   UNL d   1      -6.899   6.648  -1.785  0.00  0.00    -0.347 OA
BRANCH  31  32
ATOM     32  C   UNL d   1      -8.258   7.012  -1.527  0.00  0.00     0.214 C 
BRANCH  32  33
ATOM     33  C   UNL d   1      -8.470   8.493  -1.727  0.00  0.00    -0.034 A 
ATOM     34  C   UNL d   1      -9.634   8.948  -2.365  0.00  0.00     0.009 A 
ATOM     35  C   UNL d   1      -9.876  10.314  -2.512  0.00  0.00     0.001 A 
ATOM     36  C   UNL d   1      -8.963  11.239  -2.009  0.00  0.00     0.000 A 
ATOM     37  C   UNL d   1      -7.810  10.800  -1.361  0.00  0.00     0.001 A 
ATOM     38  C   UNL d   1      -7.566   9.433  -1.216  0.00  0.00     0.009 A 
ENDBRANCH  32  33
ENDBRANCH  31  32
ENDBRANCH  28  31
ENDBRANCH   3  25
TORSDOF 8
