REMARK  4 active torsions:
REMARK  status: ('A' for Active; 'I' for Inactive)
REMARK    1  A    between atoms: C_3  and  C_1 
REMARK       I    between atoms: N_5  and  C_1 
REMARK    2  A    between atoms: C_2  and  N_5 
REMARK    3  A    between atoms: C_4  and  C_6 
REMARK    4  A    between atoms: O_14  and  C_4 
ROOT
ATOM      1  C   UNL d   1       1.077   2.060  -0.168  0.00  0.00     0.245 C 
ATOM      2  N   UNL d   1       0.201   1.072   0.230  0.00  0.00    -0.324 N 
ATOM      3  O   UNL d   1       0.816   3.235  -0.399  0.00  0.00    -0.268 OA
ATOM      4  H   UNL d   1       0.585   0.184   0.526  0.00  0.00     0.169 HD
ENDROOT
BRANCH   2   5
ATOM      5  C   UNL d   1      -1.209   1.177   0.271  0.00  0.00     0.035 A 
ATOM      6  C   UNL d   1      -1.908   2.246  -0.296  0.00  0.00     0.036 A 
ATOM      7  C   UNL d   1      -3.307   2.285  -0.285  0.00  0.00    -0.059 A 
ATOM      8  C   UNL d   1      -4.040   3.423  -0.930  0.00  0.00     0.048 C 
ATOM      9  C   UNL d   1      -4.015   1.243   0.322  0.00  0.00     0.013 A 
ATOM     10  C   UNL d   1      -3.337   0.164   0.902  0.00  0.00    -0.059 A 
ATOM     11  C   UNL d   1      -1.934   0.134   0.865  0.00  0.00     0.036 A 
ATOM     12  C   UNL d   1      -4.126  -0.944   1.537  0.00  0.00     0.048 C 
ENDBRANCH   2   5
BRANCH   1  13
ATOM     13  C   UNL d   1       2.474   1.575  -0.301  0.00  0.00     0.081 C 
ATOM     14  C   UNL d   1       3.409   2.444  -0.714  0.00  0.00     0.086 C 
BRANCH  14  15
ATOM     15  C   UNL d   1       4.791   1.980  -0.898  0.00  0.00     0.165 C 
ATOM     16  O   UNL d   1       5.165   0.841  -0.682  0.00  0.00    -0.647 OA
BRANCH  15  17
ATOM     17  O   UNL d   1       5.602   2.962  -1.340  0.00  0.00    -0.773 OA
ATOM     18  H   UNL d   1       5.181   3.829  -1.479  0.00  0.00     0.167 HD
ENDBRANCH  15  17
ENDBRANCH  14  15
ENDBRANCH   1  13
TORSDOF 4
