REMARK  7 active torsions:
REMARK  status: ('A' for Active; 'I' for Inactive)
REMARK    1  A    between atoms: N_2  and  C_1 
REMARK    2  A    between atoms: S_6  and  C_1 
REMARK    3  A    between atoms: C_3  and  N_2 
REMARK    4  A    between atoms: C_5  and  C_9 
REMARK    5  A    between atoms: O_11  and  C_5 
REMARK    6  A    between atoms: C_9  and  S_6 
REMARK    7  A    between atoms: C_14  and  O_11 
ROOT
ATOM      1  C   UNL d   1       1.184  -0.182   0.198  0.00  0.00     0.139 C 
ATOM      2  S   UNL d   1       0.578  -0.427  -1.341  0.00  0.00    -0.053 SA
ENDROOT
BRANCH   1   3
ATOM      3  N   UNL d   1       0.485   0.254   1.297  0.00  0.00    -0.340 N 
ATOM      4  H   UNL d   1       0.998   0.829   1.970  0.00  0.00     0.167 HD
BRANCH   3   5
ATOM      5  C   UNL d   1      -0.787  -0.178   1.756  0.00  0.00     0.055 A 
ATOM      6  C   UNL d   1      -1.456   0.559   2.748  0.00  0.00     0.060 A 
ATOM      7 CL   UNL d   1      -0.861   2.088   3.295  0.00  0.00    -0.082 Cl
ATOM      8  C   UNL d   1      -2.645   0.085   3.312  0.00  0.00     0.026 A 
ATOM      9  C   UNL d   1      -3.168  -1.141   2.908  0.00  0.00     0.002 A 
ATOM     10  C   UNL d   1      -2.514  -1.882   1.928  0.00  0.00     0.002 A 
ATOM     11  C   UNL d   1      -1.334  -1.402   1.351  0.00  0.00     0.031 A 
ENDBRANCH   3   5
ENDBRANCH   1   3
BRANCH   1  12
ATOM     12  S   UNL d   1       2.869  -0.489   0.577  0.00  0.00    -0.091 SA
BRANCH  12  13
ATOM     13  C   UNL d   1       3.569   1.175   0.468  0.00  0.00     0.192 C 
BRANCH  13  14
ATOM     14  C   UNL d   1       3.397   1.908   1.778  0.00  0.00     0.268 C 
ATOM     15  O   UNL d   1       2.355   1.935   2.424  0.00  0.00    -0.264 OA
BRANCH  14  16
ATOM     16  O   UNL d   1       4.546   2.552   2.119  0.00  0.00    -0.321 OA
BRANCH  16  17
ATOM     17  C   UNL d   1       4.497   3.316   3.333  0.00  0.00     0.174 C 
ATOM     18  C   UNL d   1       4.081   4.738   3.011  0.00  0.00     0.034 C 
ENDBRANCH  16  17
ENDBRANCH  14  16
ENDBRANCH  13  14
ENDBRANCH  12  13
ENDBRANCH   1  12
TORSDOF 7
