REMARK  5 active torsions:
REMARK  status: ('A' for Active; 'I' for Inactive)
REMARK    1  A    between atoms: O_4  and  C_1 
REMARK    2  A    between atoms: C_6  and  C_1 
REMARK    3  A    between atoms: C_3  and  O_4 
REMARK    4  A    between atoms: O_7  and  C_6 
REMARK    5  A    between atoms: C_13  and  O_7 
ROOT
ATOM      1  C   UNL d   1       1.063   0.391  -0.252  0.00  0.00     0.293 C 
ATOM      2  O   UNL d   1       2.120   0.981  -0.451  0.00  0.00    -0.262 OA
ENDROOT
BRANCH   1   3
ATOM      3  O   UNL d   1       0.206   0.626   0.819  0.00  0.00    -0.276 OA
BRANCH   3   4
ATOM      4  C   UNL d   1       0.289   1.845   1.530  0.00  0.00     0.096 A 
ATOM      5  C   UNL d   1       0.080   1.851   2.921  0.00  0.00     0.051 A 
ATOM      6  C   UNL d   1      -0.097   3.084   3.619  0.00  0.00    -0.007 A 
ATOM      7  I   UNL d   1       0.037  -0.019   3.931  0.00  0.00    -0.041 I 
ATOM      8  C   UNL d   1      -0.386   3.216   5.002  0.00  0.00     0.013 A 
ATOM      9  C   UNL d   1      -0.011   4.288   2.871  0.00  0.00    -0.025 A 
ATOM     10  C   UNL d   1      -0.599   4.461   5.604  0.00  0.00     0.001 A 
ATOM     11  C   UNL d   1      -0.509   5.618   4.848  0.00  0.00     0.001 A 
ATOM     12  C   UNL d   1      -0.206   5.533   3.492  0.00  0.00     0.012 A 
ATOM     13  C   UNL d   1       0.249   4.250   1.493  0.00  0.00     0.015 A 
ATOM     14  C   UNL d   1       0.375   3.040   0.821  0.00  0.00     0.039 A 
ENDBRANCH   3   4
ENDBRANCH   1   3
BRANCH   1  15
ATOM     15  C   UNL d   1       0.487  -0.676  -1.194  0.00  0.00     0.224 C 
ATOM     16  C   UNL d   1      -0.992  -0.978  -0.952  0.00  0.00     0.051 C 
BRANCH  15  17
ATOM     17  O   UNL d   1       1.188  -1.911  -1.095  0.00  0.00    -0.336 OA
BRANCH  17  18
ATOM     18  C   UNL d   1       2.317  -2.087  -1.843  0.00  0.00     0.070 A 
ATOM     19  C   UNL d   1       3.215  -3.028  -1.331  0.00  0.00     0.038 A 
ATOM     20  C   UNL d   1       4.403  -3.323  -2.005  0.00  0.00     0.021 A 
ATOM     21  C   UNL d   1       4.688  -2.682  -3.208  0.00  0.00     0.006 A 
ATOM     22  C   UNL d   1       3.791  -1.758  -3.738  0.00  0.00     0.021 A 
ATOM     23  I   UNL d   1       6.451  -3.109  -4.220  0.00  0.00    -0.045 I 
ATOM     24  C   UNL d   1       2.603  -1.465  -3.058  0.00  0.00     0.038 A 
ENDBRANCH  17  18
ENDBRANCH  15  17
ENDBRANCH   1  15
TORSDOF 5
