REMARK  6 active torsions:
REMARK  status: ('A' for Active; 'I' for Inactive)
REMARK    1  A    between atoms: C_2  and  N_1 
REMARK    2  A    between atoms: C_17  and  C_5 
REMARK       I    between atoms: C_14  and  N_12 
REMARK    3  A    between atoms: O_27  and  C_14 
REMARK    4  A    between atoms: O_28  and  C_17 
REMARK    5  A    between atoms: C_29  and  O_27 
REMARK    6  A    between atoms: C_30  and  O_28 
ROOT
ATOM      1  C   UNL d   1       2.239  -2.735  -0.085  0.00  0.00     0.121 C 
ATOM      2  C   UNL d   1       3.270  -3.574  -0.603  0.00  0.00     0.142 C 
ATOM      3  C   UNL d   1       3.109  -4.900  -0.189  0.00  0.00     0.068 C 
ATOM      4  C   UNL d   1       5.401  -4.684  -0.748  0.00  0.00     0.006 C 
ATOM      5  C   UNL d   1       4.750  -3.473  -0.518  0.00  0.00    -0.046 C 
ATOM      6  S   UNL d   1       4.242  -5.927  -0.960  0.00  0.00    -0.078 SA
ATOM      7  N   UNL d   1       7.632  -3.819  -0.159  0.00  0.00    -0.323 N 
ATOM      8  C   UNL d   1       9.025  -3.883  -0.076  0.00  0.00     0.363 C 
ATOM      9  N   UNL d   1       1.797  -3.033   1.178  0.00  0.00    -0.340 N 
ATOM     10  HN  UNL d   1       1.388  -2.320   1.783  1.00  0.00     0.168 HD
ATOM     11  N   UNL d   1       2.394  -5.330   0.864  0.00  0.00    -0.349 N 
ATOM     12  HN  UNL d   1       2.230  -6.311   1.088  1.00  0.00     0.167 HD
ATOM     13  C   UNL d   1       6.861  -4.997  -0.578  0.00  0.00     0.174 C 
ATOM     14  C   UNL d   1       5.545  -2.352   0.064  0.00  0.00     0.056 C 
ATOM     15  C   UNL d   1       1.927  -4.304   1.581  0.00  0.00     0.182 C 
ATOM     16  C   UNL d   1       7.046  -2.474  -0.254  0.00  0.00     0.133 C 
ATOM     17  O   UNL d   1       9.738  -2.888   0.013  0.00  0.00    -0.238 OA
ENDROOT
BRANCH   1  18
ATOM     18  N   UNL d   1       1.354  -1.930  -0.911  0.00  0.00    -0.226 N 
ATOM     19  C   UNL d   1       0.198  -1.243  -0.477  0.00  0.00     0.140 A 
ATOM     20  C   UNL d   1      -0.510  -0.842  -1.599  0.00  0.00     0.101 A 
ATOM     21  N   UNL d   1      -0.124  -1.064   0.833  0.00  0.00    -0.383 N 
ATOM     22  C   UNL d   1       0.343  -1.221  -2.663  0.00  0.00     0.129 A 
ATOM     23  N   UNL d   1       1.462  -1.845  -2.271  0.00  0.00    -0.301 N 
ATOM     24  HN  UNL d   1       2.225  -2.183  -2.858  1.00  0.00     0.186 HD
ATOM     25  H   UNL d   1       0.344  -1.622   1.551  0.00  0.00     0.157 HD
ATOM     26  H   UNL d   1      -1.051  -0.718   1.097  0.00  0.00     0.157 HD
BRANCH  20  27
ATOM     27  C   UNL d   1      -1.811  -0.174  -1.611  0.00  0.00     0.298 C 
ATOM     28  O   UNL d   1      -2.400   0.180  -0.588  0.00  0.00    -0.259 OA
BRANCH  27  29
ATOM     29  O   UNL d   1      -2.335  -0.001  -2.869  0.00  0.00    -0.318 OA
BRANCH  29  30
ATOM     30  C   UNL d   1      -3.565   0.754  -2.969  0.00  0.00     0.174 C 
ATOM     31  C   UNL d   1      -4.801  -0.130  -2.891  0.00  0.00     0.034 C 
ENDBRANCH  29  30
ENDBRANCH  27  29
ENDBRANCH  20  27
ENDBRANCH   1  18
BRANCH   8  32
ATOM     32  O   UNL d   1       9.522  -5.154  -0.107  0.00  0.00    -0.304 OA
BRANCH  32  33
ATOM     33  C   UNL d   1      10.961  -5.262  -0.065  0.00  0.00     0.176 C 
ATOM     34  C   UNL d   1      11.489  -5.154   1.357  0.00  0.00     0.034 C 
ENDBRANCH  32  33
ENDBRANCH   8  32
TORSDOF 6
