REMARK  6 active torsions:
REMARK  status: ('A' for Active; 'I' for Inactive)
REMARK    1  A    between atoms: C_7  and  C_1 
REMARK    2  A    between atoms: O_13  and  C_1 
REMARK    3  A    between atoms: O_14  and  C_6 
REMARK    4  A    between atoms: O_15  and  C_7 
REMARK    5  A    between atoms: O_16  and  C_11 
REMARK    6  A    between atoms: C_17  and  O_15 
ROOT
ATOM      1  C   UNL d   1      -1.860   1.052   0.053  0.00  0.00     0.260 A 
ATOM      2  C   UNL d   1      -2.433  -0.397  -0.102  0.00  0.00     0.272 A 
ATOM      3  C   UNL d   1      -0.366   0.774  -0.002  0.00  0.00     0.056 A 
ATOM      4  N   UNL d   1      -1.356  -1.279  -0.096  0.00  0.00    -0.323 N 
ATOM      5  C   UNL d   1      -0.150  -0.603  -0.052  0.00  0.00     0.050 A 
ATOM      6  C   UNL d   1       0.708   1.649   0.003  0.00  0.00     0.083 A 
ATOM      7  C   UNL d   1       1.109  -1.159  -0.067  0.00  0.00     0.067 A 
ATOM      8  C   UNL d   1       2.000   1.103  -0.013  0.00  0.00     0.074 A 
ATOM      9  O   UNL d   1      -3.599  -0.746  -0.186  0.00  0.00    -0.269 OA
ATOM     10  C   UNL d   1       2.203  -0.292  -0.037  0.00  0.00     0.073 A 
ATOM     11  H   UNL d   1      -1.475  -2.279  -0.174  0.00  0.00     0.169 HD
ENDROOT
BRANCH   1  12
ATOM     12  C   UNL d   1      -2.408   1.914  -1.098  0.00  0.00     0.308 C 
ATOM     13  O   UNL d   1      -3.374   2.664  -1.012  0.00  0.00    -0.261 OA
BRANCH  12  14
ATOM     14  O   UNL d   1      -1.753   1.645  -2.264  0.00  0.00    -0.319 OA
BRANCH  14  15
ATOM     15  C   UNL d   1      -2.427   2.039  -3.470  0.00  0.00     0.174 C 
ATOM     16  C   UNL d   1      -3.173   0.821  -3.979  0.00  0.00     0.034 C 
ENDBRANCH  14  15
ENDBRANCH  12  14
ENDBRANCH   1  12
BRANCH   1  17
ATOM     17  O   UNL d   1      -2.210   1.524   1.353  0.00  0.00    -0.367 OA
ATOM     18  H   UNL d   1      -1.577   1.149   1.986  0.00  0.00     0.212 HD
ENDBRANCH   1  17
BRANCH   6  19
ATOM     19  O   UNL d   1       0.398   2.977   0.019  0.00  0.00    -0.355 OA
ATOM     20  C   UNL d   1       1.482   3.897  -0.025  0.00  0.00     0.210 C 
ENDBRANCH   6  19
BRANCH  10  21
ATOM     21  O   UNL d   1       3.418  -0.923  -0.038  0.00  0.00    -0.356 OA
ATOM     22  C   UNL d   1       4.579  -0.103   0.015  0.00  0.00     0.210 C 
ENDBRANCH  10  21
TORSDOF 6
