REMARK  3 active torsions:
REMARK  status: ('A' for Active; 'I' for Inactive)
REMARK    1  A    between atoms: C_2  and  C_5 
REMARK    2  A    between atoms: O_11  and  C_2 
REMARK    3  A    between atoms: O_12  and  C_7 
ROOT
ATOM      1  C   UNL d   1      -0.543   0.135  -0.027  0.00  0.00     0.079 A 
ATOM      2  N   UNL d   1      -3.107   0.488  -0.017  0.00  0.00    -0.191 NA
ATOM      3  C   UNL d   1      -1.962   0.317  -0.025  0.00  0.00     0.102 C 
ATOM      4  C   UNL d   1       1.618   1.283   0.016  0.00  0.00     0.041 A 
ATOM      5  C   UNL d   1       0.220   1.320  -0.014  0.00  0.00     0.043 A 
ATOM      6  C   UNL d   1       0.102  -1.108  -0.027  0.00  0.00     0.088 A 
ATOM      7  C   UNL d   1       2.261   0.046   0.035  0.00  0.00     0.020 A 
ATOM      8  C   UNL d   1       1.508  -1.132   0.008  0.00  0.00     0.039 A 
ENDROOT
BRANCH   6   9
ATOM      9  O   UNL d   1      -0.423  -2.370  -0.061  0.00  0.00    -0.354 OA
ATOM     10  C   UNL d   1      -1.830  -2.563  -0.105  0.00  0.00     0.210 C 
ENDBRANCH   6   9
BRANCH   4  11
ATOM     11  C   UNL d   1       2.441   2.523   0.031  0.00  0.00     0.293 C 
ATOM     12  O   UNL d   1       3.662   2.525   0.065  0.00  0.00    -0.259 OA
BRANCH  11  13
ATOM     13  O   UNL d   1       1.640   3.616   0.000  0.00  0.00    -0.323 OA
ATOM     14  C   UNL d   1       2.338   4.862   0.006  0.00  0.00     0.213 C 
ENDBRANCH  11  13
ENDBRANCH   4  11
TORSDOF 3
