REMARK  7 active torsions:
REMARK  status: ('A' for Active; 'I' for Inactive)
REMARK    1  A    between atoms: N_10  and  C_3 
REMARK    2  A    between atoms: C_8  and  C_7 
REMARK    3  A    between atoms: C_13  and  C_7 
REMARK    4  A    between atoms: C_11  and  C_9 
REMARK    5  A    between atoms: C_16  and  C_9 
REMARK    6  A    between atoms: C_12  and  C_11 
REMARK    7  A    between atoms: C_15  and  C_12 
ROOT
ATOM      1  N   UNL d   1      -0.588   1.582   1.019  0.00  0.00    -0.303 N 
ATOM      2  HN  UNL d   1      -1.165   2.406   0.847  1.00  0.00     0.171 HD
ATOM      3  C   UNL d   1       0.696   1.560   0.859  0.00  0.00     0.150 C 
ATOM      4  C   UNL d   1      -0.107  -0.745   1.220  0.00  0.00     0.087 C 
ATOM      5  S   UNL d   1       1.456   0.003   1.215  0.00  0.00    -0.048 SA
ATOM      6  C   UNL d   1      -1.093   0.373   1.445  0.00  0.00     0.265 C 
ATOM      7  C   UNL d   1      -0.483  -2.017   0.940  0.00  0.00    -0.003 C 
ATOM      8  O   UNL d   1      -2.204   0.244   1.936  0.00  0.00    -0.267 OA
ENDROOT
BRANCH   7   9
ATOM      9  C   UNL d   1      -1.918  -2.289   0.726  0.00  0.00     0.022 C 
ATOM     10  C   UNL d   1      -2.634  -1.985  -0.384  0.00  0.00    -0.040 C 
BRANCH  10  11
ATOM     11  C   UNL d   1      -2.089  -1.105  -1.508  0.00  0.00     0.123 C 
BRANCH  11  12
ATOM     12  C   UNL d   1      -1.497  -1.737  -2.774  0.00  0.00     0.163 C 
ATOM     13  O   UNL d   1      -0.285  -1.756  -2.979  0.00  0.00    -0.292 OA
BRANCH  12  14
ATOM     14  C   UNL d   1      -2.410  -2.110  -3.886  0.00  0.00     0.010 A 
ATOM     15  C   UNL d   1      -3.518  -2.931  -3.683  0.00  0.00     0.017 A 
ATOM     16  C   UNL d   1      -4.459  -3.109  -4.699  0.00  0.00     0.025 A 
ATOM     17  C   UNL d   1      -4.258  -2.510  -5.940  0.00  0.00     0.034 A 
ATOM     18  C   UNL d   1      -3.097  -1.778  -6.187  0.00  0.00     0.025 A 
ATOM     19 CL   UNL d   1      -5.456  -2.662  -7.163  0.00  0.00    -0.084 Cl
ATOM     20  C   UNL d   1      -2.170  -1.578  -5.159  0.00  0.00     0.017 A 
ENDBRANCH  12  14
ENDBRANCH  11  12
ENDBRANCH  10  11
BRANCH  10  21
ATOM     21  C   UNL d   1      -4.066  -2.403  -0.434  0.00  0.00    -0.029 A 
ATOM     22  C   UNL d   1      -5.048  -1.591  -1.023  0.00  0.00     0.012 A 
ATOM     23  C   UNL d   1      -6.362  -2.040  -1.191  0.00  0.00     0.001 A 
ATOM     24  C   UNL d   1      -6.734  -3.302  -0.741  0.00  0.00     0.000 A 
ATOM     25  C   UNL d   1      -5.791  -4.116  -0.121  0.00  0.00     0.001 A 
ATOM     26  C   UNL d   1      -4.469  -3.675   0.021  0.00  0.00     0.012 A 
ENDBRANCH  10  21
ENDBRANCH   7   9
BRANCH   7  27
ATOM     27  C   UNL d   1       0.407  -3.207   0.651  0.00  0.00    -0.024 A 
ATOM     28  C   UNL d   1      -0.026  -4.493   1.046  0.00  0.00     0.014 A 
ATOM     29  C   UNL d   1       0.582  -5.658   0.564  0.00  0.00     0.024 A 
ATOM     30  C   UNL d   1       1.665  -5.555  -0.298  0.00  0.00     0.034 A 
ATOM     31  C   UNL d   1       2.162  -4.305  -0.646  0.00  0.00     0.024 A 
ATOM     32 CL   UNL d   1       2.360  -6.978  -0.975  0.00  0.00    -0.084 Cl
ATOM     33  C   UNL d   1       1.529  -3.135  -0.185  0.00  0.00     0.014 A 
ENDBRANCH   7  27
BRANCH   3  34
ATOM     34  N   UNL d   1       1.417   2.611   0.351  0.00  0.00    -0.357 N 
ATOM     35  C   UNL d   1       0.791   3.553  -0.594  0.00  0.00     0.151 C 
ATOM     36  C   UNL d   1       0.738   4.962  -0.002  0.00  0.00     0.187 C 
ATOM     37  O   UNL d   1       2.061   5.404   0.338  0.00  0.00    -0.388 OA
ATOM     38  C   UNL d   1       2.634   4.536   1.330  0.00  0.00     0.187 C 
ATOM     39  C   UNL d   1       2.716   3.066   0.855  0.00  0.00     0.151 C 
ENDBRANCH   3  34
TORSDOF 7
