REMARK  5 active torsions:
REMARK  status: ('A' for Active; 'I' for Inactive)
REMARK    1  A    between atoms: N_2  and  S_1 
REMARK    2  A    between atoms: C_3  and  S_1 
REMARK    3  A    between atoms: C_10  and  N_2 
REMARK    4  A    between atoms: C_6  and  O_7 
REMARK    5  A    between atoms: O_7  and  C_11 
ROOT
ATOM      1  N   UNL d   1       0.414   0.016   1.480  0.00  0.00    -0.281 N 
ATOM      2  H   UNL d   1      -0.435   0.571   1.603  0.00  0.00     0.179 HD
ENDROOT
BRANCH   1   3
ATOM      3  S   UNL d   1       1.025  -0.044  -0.081  0.00  0.00     0.263 S 
ATOM      4  O   UNL d   1       2.470  -0.082  -0.021  0.00  0.00    -0.200 OA
ATOM      5  O   UNL d   1       0.329   0.980  -0.829  0.00  0.00    -0.200 OA
BRANCH   3   6
ATOM      6  C   UNL d   1       0.460  -1.625  -0.679  0.00  0.00     0.080 A 
ATOM      7  C   UNL d   1      -0.759  -1.719  -1.360  0.00  0.00     0.028 A 
ATOM      8  C   UNL d   1      -1.222  -2.974  -1.760  0.00  0.00     0.044 A 
ATOM      9  C   UNL d   1      -0.462  -4.109  -1.485  0.00  0.00     0.116 A 
ATOM     10  C   UNL d   1       0.769  -4.013  -0.843  0.00  0.00     0.044 A 
ATOM     11  F   UNL d   1      -0.927  -5.314  -1.839  0.00  0.00    -0.206 F 
ATOM     12  C   UNL d   1       1.245  -2.763  -0.450  0.00  0.00     0.028 A 
ENDBRANCH   3   6
ENDBRANCH   1   3
BRANCH   1  13
ATOM     13  C   UNL d   1       0.756  -0.963   2.442  0.00  0.00     0.042 A 
ATOM     14  C   UNL d   1       1.887  -0.779   3.232  0.00  0.00     0.033 A 
ATOM     15  C   UNL d   1       2.210  -1.712   4.226  0.00  0.00     0.039 A 
ATOM     16  C   UNL d   1       1.404  -2.837   4.415  0.00  0.00     0.075 A 
ATOM     17  C   UNL d   1       0.296  -3.036   3.587  0.00  0.00     0.039 A 
ATOM     18  C   UNL d   1      -0.044  -2.088   2.617  0.00  0.00     0.033 A 
BRANCH  16  19
ATOM     19  O   UNL d   1       1.616  -3.818   5.341  0.00  0.00    -0.290 OA
BRANCH  19  20
ATOM     20  C   UNL d   1       2.240  -3.405   6.547  0.00  0.00     0.505 C 
ATOM     21  F   UNL d   1       1.492  -2.437   7.132  0.00  0.00    -0.184 F 
ATOM     22  F   UNL d   1       2.225  -4.468   7.392  0.00  0.00    -0.184 F 
ENDBRANCH  19  20
ENDBRANCH  16  19
ENDBRANCH   1  13
TORSDOF 5
