REMARK  7 active torsions:
REMARK  status: ('A' for Active; 'I' for Inactive)
REMARK    1  A    between atoms: C_3  and  C_1 
REMARK    2  A    between atoms: C_6  and  C_13 
REMARK    3  A    between atoms: C_7  and  C_14 
REMARK    4  A    between atoms: O_12  and  C_10 
REMARK    5  A    between atoms: C_13  and  O_12 
REMARK    6  A    between atoms: C_14  and  O_23 
REMARK    7  A    between atoms: O_23  and  C_22 
ROOT
ATOM      1  C   UNL d   1       2.426  -1.788   0.086  0.00  0.00     0.028 A 
ATOM      2  C   UNL d   1       2.534  -2.781  -0.909  0.00  0.00     0.081 A 
ATOM      3  C   UNL d   1       3.504  -1.582   0.969  0.00  0.00     0.053 A 
ATOM      4  C   UNL d   1       3.737  -3.484  -1.043  0.00  0.00     0.040 A 
ATOM      5  C   UNL d   1       4.667  -2.348   0.877  0.00  0.00     0.070 A 
ATOM      6  C   UNL d   1       4.795  -3.272  -0.153  0.00  0.00     0.039 A 
ENDROOT
BRANCH   1   7
ATOM      7  C   UNL d   1       1.238  -0.952   0.207  0.00  0.00     0.066 A 
ATOM      8  N   UNL d   1       0.607  -0.411  -0.909  0.00  0.00    -0.292 N 
ATOM      9  N   UNL d   1      -0.431   0.340  -0.579  0.00  0.00    -0.061 NA
ATOM     10  HN  UNL d   1       0.910  -0.575  -1.870  1.00  0.00     0.183 HD
ATOM     11  S   UNL d   1      -0.676   0.419   1.072  0.00  0.00    -0.010 SA
ATOM     12  C   UNL d   1       0.662  -0.595   1.420  0.00  0.00     0.096 A 
ENDBRANCH   1   7
BRANCH   2  13
ATOM     13  O   UNL d   1       1.417  -3.032  -1.667  0.00  0.00    -0.342 OA
BRANCH  13  14
ATOM     14  C   UNL d   1       1.509  -4.017  -2.702  0.00  0.00     0.293 C 
BRANCH  14  15
ATOM     15  C   UNL d   1       0.145  -4.322  -3.305  0.00  0.00     0.408 C 
ATOM     16  F   UNL d   1      -0.594  -3.216  -3.523  0.00  0.00    -0.169 F 
ATOM     17  F   UNL d   1       0.298  -4.947  -4.499  0.00  0.00    -0.169 F 
ATOM     18  F   UNL d   1      -0.566  -5.156  -2.511  0.00  0.00    -0.169 F 
ENDBRANCH  14  15
ENDBRANCH  13  14
ENDBRANCH   2  13
BRANCH   5  19
ATOM     19  O   UNL d   1       5.618  -2.081   1.823  0.00  0.00    -0.342 OA
BRANCH  19  20
ATOM     20  C   UNL d   1       6.535  -3.147   2.108  0.00  0.00     0.293 C 
BRANCH  20  21
ATOM     21  C   UNL d   1       7.450  -2.805   3.280  0.00  0.00     0.408 C 
ATOM     22  F   UNL d   1       7.344  -1.520   3.677  0.00  0.00    -0.169 F 
ATOM     23  F   UNL d   1       7.178  -3.588   4.351  0.00  0.00    -0.169 F 
ATOM     24  F   UNL d   1       8.746  -3.020   2.947  0.00  0.00    -0.169 F 
ENDBRANCH  20  21
ENDBRANCH  19  20
ENDBRANCH   5  19
TORSDOF 7
