REMARK  6 active torsions:
REMARK  status: ('A' for Active; 'I' for Inactive)
REMARK    1  A    between atoms: C_2  and  S_1 
REMARK    2  A    between atoms: N_13  and  S_1 
REMARK    3  A    between atoms: C_11  and  C_4 
REMARK    4  A    between atoms: C_8  and  C_7 
REMARK    5  A    between atoms: C_10  and  C_23 
REMARK    6  A    between atoms: C_23  and  N_13 
ROOT
ATOM      1  S   UNL d   1       1.017   0.025   0.054  0.00  0.00     0.265 S 
ATOM      2  O   UNL d   1       0.762  -1.260   0.669  0.00  0.00    -0.200 OA
ATOM      3  O   UNL d   1       2.328   0.630   0.061  0.00  0.00    -0.200 OA
ENDROOT
BRANCH   1   4
ATOM      4  C   UNL d   1      -0.026   1.135   0.979  0.00  0.00     0.120 A 
ATOM      5  S   UNL d   1      -0.141   2.744   0.423  0.00  0.00    -0.074 SA
ATOM      6  C   UNL d   1      -1.187   3.205   1.698  0.00  0.00     0.042 A 
ATOM      7  C   UNL d   1      -1.439   2.140   2.543  0.00  0.00     0.024 A 
ATOM      8  C   UNL d   1      -0.766   0.951   2.132  0.00  0.00     0.034 A 
BRANCH   6   9
ATOM      9  C   UNL d   1      -1.694   4.544   1.828  0.00  0.00     0.117 A 
ATOM     10  O   UNL d   1      -2.544   4.915   2.840  0.00  0.00    -0.237 OA
ATOM     11  N   UNL d   1      -2.859   6.259   2.734  0.00  0.00    -0.272 N 
ATOM     12  C   UNL d   1      -2.200   6.691   1.660  0.00  0.00     0.117 A 
ATOM     13  HN  UNL d   1      -3.467   6.802   3.347  1.00  0.00     0.194 HD
ATOM     14  C   UNL d   1      -1.464   5.663   1.050  0.00  0.00     0.059 A 
ENDBRANCH   6   9
ENDBRANCH   1   4
BRANCH   1  15
ATOM     15  N   UNL d   1       0.475  -0.081  -1.528  0.00  0.00    -0.309 N 
ATOM     16  H   UNL d   1      -0.516  -0.303  -1.639  0.00  0.00     0.172 HD
BRANCH  15  17
ATOM     17  C   UNL d   1       0.976   0.916  -2.469  0.00  0.00     0.189 C 
BRANCH  17  18
ATOM     18  C   UNL d   1       0.413   0.645  -3.833  0.00  0.00     0.035 A 
ATOM     19  N   UNL d   1      -0.878   0.131  -3.983  0.00  0.00    -0.351 N 
ATOM     20  C   UNL d   1      -1.150  -0.051  -5.266  0.00  0.00     0.091 A 
ATOM     21  HN  UNL d   1      -1.517  -0.074  -3.216  1.00  0.00     0.166 HD
ATOM     22  S   UNL d   1       0.099   0.450  -6.345  0.00  0.00    -0.081 SA
ATOM     23  C   UNL d   1       1.073   0.894  -5.020  0.00  0.00     0.078 A 
BRANCH  20  24
ATOM     24  C   UNL d   1      -2.400  -0.630  -5.717  0.00  0.00     0.038 A 
ATOM     25  S   UNL d   1      -2.752  -0.952  -7.372  0.00  0.00    -0.099 SA
ATOM     26  C   UNL d   1      -4.284  -1.607  -7.006  0.00  0.00     0.050 A 
ATOM     27  C   UNL d   1      -4.546  -1.578  -5.656  0.00  0.00     0.008 A 
ATOM     28  C   UNL d   1      -3.463  -1.015  -4.916  0.00  0.00     0.022 A 
ENDBRANCH  20  24
ENDBRANCH  17  18
ENDBRANCH  15  17
ENDBRANCH   1  15
TORSDOF 6
