REMARK  5 active torsions:
REMARK  status: ('A' for Active; 'I' for Inactive)
REMARK       I    between atoms: N_3  and  C_1 
REMARK    1  A    between atoms: C_11  and  C_1 
REMARK    2  A    between atoms: C_2  and  N_3 
REMARK    3  A    between atoms: O_14  and  C_4 
REMARK    4  A    between atoms: O_15  and  C_7 
REMARK    5  A    between atoms: C_10  and  C_11 
ROOT
ATOM      1  C   UNL d   1       3.146  -3.917  -0.266  0.00  0.00     0.102 A 
ATOM      2  C   UNL d   1       3.958  -4.191   0.850  0.00  0.00     0.101 A 
ATOM      3  C   UNL d   1       2.734  -2.592  -0.493  0.00  0.00     0.047 A 
ATOM      4  C   UNL d   1       3.101  -1.548   0.376  0.00  0.00    -0.047 A 
ATOM      5  C   UNL d   1       4.334  -3.143   1.703  0.00  0.00     0.040 A 
ATOM      6  C   UNL d   1       3.906  -1.835   1.478  0.00  0.00     0.010 A 
ENDROOT
BRANCH   4   7
ATOM      7  C   UNL d   1       2.594  -0.140   0.150  0.00  0.00     0.141 C 
BRANCH   7   8
ATOM      8  C   UNL d   1       1.298   0.251   0.852  0.00  0.00     0.222 C 
ATOM      9  N   UNL d   1       0.635  -0.737   1.550  0.00  0.00    -0.356 N 
ATOM     10  H   UNL d   1       1.070  -1.651   1.644  0.00  0.00     0.162 HD
ATOM     11  O   UNL d   1       0.876   1.406   0.775  0.00  0.00    -0.273 OA
BRANCH   9  12
ATOM     12  C   UNL d   1      -0.528  -0.483   2.336  0.00  0.00     0.084 A 
ATOM     13  C   UNL d   1      -1.619  -1.517   2.408  0.00  0.00     0.027 A 
ATOM     14  C   UNL d   1      -1.868  -0.210   1.712  0.00  0.00     0.027 A 
ENDBRANCH   9  12
ENDBRANCH   7   8
ENDBRANCH   4   7
BRANCH   1  15
ATOM     15  O   UNL d   1       2.781  -4.964  -1.067  0.00  0.00    -0.353 OA
ATOM     16  C   UNL d   1       2.020  -4.709  -2.239  0.00  0.00     0.210 C 
ENDBRANCH   1  15
BRANCH   2  17
ATOM     17  O   UNL d   1       4.479  -5.391   1.261  0.00  0.00    -0.353 OA
ATOM     18  C   UNL d   1       4.096  -6.579   0.587  0.00  0.00     0.210 C 
ENDBRANCH   2  17
TORSDOF 5
