REMARK  4 active torsions:
REMARK  status: ('A' for Active; 'I' for Inactive)
REMARK       I    between atoms: C_10  and  N_1 
REMARK    1  A    between atoms: C_15  and  C_5 
REMARK    2  A    between atoms: C_6  and  S_12 
REMARK    3  A    between atoms: C_14  and  C_10 
REMARK    4  A    between atoms: S_12  and  C_14 
ROOT
ATOM      1  O   UNL d   1       6.332   3.606   0.248  0.00  0.00    -0.267 OA
ATOM      2  N   UNL d   1       8.199   2.832   1.206  0.00  0.00    -0.277 N 
ATOM      3  HN  UNL d   1       9.171   2.757   1.508  1.00  0.00     0.189 HD
ATOM      4  C   UNL d   1       7.665   3.811   0.506  0.00  0.00     0.175 A 
ATOM      5  C   UNL d   1       6.097   2.417   0.893  0.00  0.00     0.204 A 
ATOM      6  N   UNL d   1       7.186   1.929   1.450  0.00  0.00    -0.272 N 
ATOM      7  HN  UNL d   1       7.265   1.052   1.964  1.00  0.00     0.189 HD
ENDROOT
BRANCH   5   8
ATOM      8  S   UNL d   1       4.543   1.648   1.013  0.00  0.00    -0.075 SA
BRANCH   8   9
ATOM      9  C   UNL d   1       3.531   2.707  -0.042  0.00  0.00     0.186 C 
BRANCH   9  10
ATOM     10  C   UNL d   1       2.042   2.387   0.046  0.00  0.00     0.234 C 
ATOM     11  N   UNL d   1       1.585   1.215  -0.544  0.00  0.00    -0.317 N 
ATOM     12  C   UNL d   1       0.227   0.846  -0.683  0.00  0.00     0.043 A 
ATOM     13  C   UNL d   1       2.405   0.075  -0.999  0.00  0.00     0.137 C 
ATOM     14  C   UNL d   1       0.126  -0.412  -1.284  0.00  0.00    -0.030 A 
ATOM     15  C   UNL d   1      -0.915   1.543  -0.335  0.00  0.00     0.030 A 
ATOM     16  C   UNL d   1      -1.105  -1.008  -1.525  0.00  0.00     0.009 A 
ATOM     17  C   UNL d   1       1.469  -0.946  -1.657  0.00  0.00     0.061 C 
ATOM     18  C   UNL d   1      -2.259  -0.313  -1.162  0.00  0.00     0.001 A 
ATOM     19  C   UNL d   1      -2.164   0.956  -0.575  0.00  0.00     0.002 A 
ATOM     20  O   UNL d   1       1.299   3.227   0.563  0.00  0.00    -0.272 OA
ENDBRANCH   9  10
ENDBRANCH   8   9
ENDBRANCH   5   8
BRANCH   4  21
ATOM     21  C   UNL d   1       8.271   5.047   0.026  0.00  0.00     0.019 A 
ATOM     22  C   UNL d   1       7.584   5.936  -0.805  0.00  0.00     0.033 A 
ATOM     23  C   UNL d   1       8.225   7.098  -1.207  0.00  0.00     0.088 A 
ATOM     24  N   UNL d   1       9.481   7.426  -0.843  0.00  0.00    -0.375 N 
ATOM     25  C   UNL d   1      10.131   6.558  -0.042  0.00  0.00     0.088 A 
ATOM     26  HN  UNL d   1       9.919   8.292  -1.159  1.00  0.00     0.164 HD
ATOM     27  C   UNL d   1       9.577   5.372   0.409  0.00  0.00     0.033 A 
ENDBRANCH   4  21
TORSDOF 4
