REMARK  8 active torsions:
REMARK  status: ('A' for Active; 'I' for Inactive)
REMARK    1  A    between atoms: C_7  and  S_1 
REMARK    2  A    between atoms: C_8  and  S_1 
REMARK    3  A    between atoms: C_2  and  C_3 
REMARK    4  A    between atoms: C_3  and  O_9 
REMARK    5  A    between atoms: O_9  and  N_4 
REMARK    6  A    between atoms: C_6  and  C_10 
REMARK    7  A    between atoms: N_17  and  C_6 
REMARK    8  A    between atoms: C_10  and  C_8 
ROOT
ATOM      1  N   UNL d   1       0.771  -1.438  -3.923  0.00  0.00    -0.251 N 
ATOM      2  HN  UNL d   1       1.335  -1.912  -4.628  1.00  0.00     0.196 HD
ATOM      3  C   UNL d   1       0.328  -0.225  -4.043  0.00  0.00     0.076 C 
ENDROOT
BRANCH   3   4
ATOM      4  C   UNL d   1       0.704   0.541  -5.308  0.00  0.00     0.087 C 
BRANCH   4   5
ATOM      5  C   UNL d   1       0.200  -0.117  -6.586  0.00  0.00     0.153 C 
BRANCH   5   6
ATOM      6  S   UNL d   1      -1.579  -0.178  -6.650  0.00  0.00     0.175 S 
ATOM      7  O   UNL d   1      -2.072  -1.105  -5.652  0.00  0.00    -0.223 OA
ATOM      8  O   UNL d   1      -2.068   1.190  -6.676  0.00  0.00    -0.223 OA
BRANCH   6   9
ATOM      9  C   UNL d   1      -1.936  -0.898  -8.245  0.00  0.00     0.059 A 
ATOM     10  C   UNL d   1      -2.003  -2.291  -8.367  0.00  0.00     0.025 A 
ATOM     11  C   UNL d   1      -2.368  -2.860  -9.590  0.00  0.00     0.025 A 
ATOM     12  C   UNL d   1      -2.669  -2.039 -10.677  0.00  0.00     0.034 A 
ATOM     13  C   UNL d   1      -2.604  -0.650 -10.554  0.00  0.00     0.025 A 
ATOM     14 CL   UNL d   1      -3.140  -2.742 -12.175  0.00  0.00    -0.084 Cl
ATOM     15  C   UNL d   1      -2.241  -0.074  -9.333  0.00  0.00     0.025 A 
ENDBRANCH   6   9
ENDBRANCH   5   6
ENDBRANCH   4   5
ENDBRANCH   3   4
BRANCH   3  16
ATOM     16  N   UNL d   1      -0.442   0.431  -3.119  0.00  0.00    -0.291 NA
ATOM     17  H   UNL d   1      -0.910  -0.199  -2.475  0.00  0.00     0.125 HD
ATOM     18  H   UNL d   1      -1.062   1.156  -3.468  0.00  0.00     0.125 HD
ENDBRANCH   3  16
BRANCH   1  19
ATOM     19  O   UNL d   1       0.377  -2.024  -2.691  0.00  0.00    -0.194 OA
BRANCH  19  20
ATOM     20  C   UNL d   1       0.757  -3.337  -2.667  0.00  0.00     0.316 C 
ATOM     21  O   UNL d   1       1.329  -3.950  -3.566  0.00  0.00    -0.257 OA
BRANCH  20  22
ATOM     22  C   UNL d   1       0.506  -3.994  -1.352  0.00  0.00     0.063 A 
ATOM     23  C   UNL d   1      -0.556  -3.721  -0.484  0.00  0.00     0.050 A 
ATOM     24 CL   UNL d   1      -1.805  -2.575  -0.829  0.00  0.00    -0.083 Cl
ATOM     25  C   UNL d   1      -0.687  -4.440   0.721  0.00  0.00     0.025 A 
ATOM     26  C   UNL d   1       0.218  -5.451   1.053  0.00  0.00     0.002 A 
ATOM     27  C   UNL d   1       1.260  -5.750   0.184  0.00  0.00     0.001 A 
ATOM     28  C   UNL d   1       1.406  -5.026  -1.002  0.00  0.00     0.019 A 
ENDBRANCH  20  22
ENDBRANCH  19  20
ENDBRANCH   1  19
TORSDOF 8
