REMARK  5 active torsions:
REMARK  status: ('A' for Active; 'I' for Inactive)
REMARK    1  A    between atoms: S_14  and  C_1 
REMARK    2  A    between atoms: C_6  and  C_12 
REMARK    3  A    between atoms: C_13  and  C_22 
REMARK       I    between atoms: N_15  and  C_13 
REMARK    4  A    between atoms: C_22  and  S_14 
REMARK    5  A    between atoms: C_17  and  N_15 
ROOT
ATOM      1  C   UNL d   1      -4.599  -1.562   0.164  0.00  0.00     0.185 C 
ENDROOT
BRANCH   1   2
ATOM      2  C   UNL d   1      -6.113  -1.736   0.246  0.00  0.00     0.231 C 
ATOM      3  N   UNL d   1      -6.818  -0.607  -0.147  0.00  0.00    -0.327 N 
ATOM      4  H   UNL d   1      -6.276   0.111  -0.620  0.00  0.00     0.169 HD
ATOM      5  O   UNL d   1      -6.604  -2.802   0.609  0.00  0.00    -0.272 OA
BRANCH   3   6
ATOM      6  C   UNL d   1      -8.219  -0.439  -0.172  0.00  0.00     0.035 A 
ATOM      7  C   UNL d   1      -9.123  -1.368   0.348  0.00  0.00     0.045 A 
ATOM      8  C   UNL d   1     -10.511  -1.160   0.257  0.00  0.00     0.050 A 
ATOM      9  C   UNL d   1     -10.987   0.009  -0.353  0.00  0.00     0.016 A 
ATOM     10  C   UNL d   1     -10.092   0.954  -0.852  0.00  0.00     0.003 A 
ATOM     11  C   UNL d   1      -8.717   0.731  -0.760  0.00  0.00     0.029 A 
BRANCH   8  12
ATOM     12  C   UNL d   1     -11.484  -2.186   0.783  0.00  0.00     0.417 C 
ATOM     13  F   UNL d   1     -10.896  -3.222   1.443  0.00  0.00    -0.166 F 
ATOM     14  F   UNL d   1     -12.381  -1.651   1.659  0.00  0.00    -0.166 F 
ATOM     15  F   UNL d   1     -12.227  -2.750  -0.209  0.00  0.00    -0.166 F 
ENDBRANCH   8  12
ENDBRANCH   3   6
ENDBRANCH   1   2
BRANCH   1  16
ATOM     16  S   UNL d   1      -3.918  -2.560  -1.197  0.00  0.00    -0.085 SA
BRANCH  16  17
ATOM     17  C   UNL d   1      -4.745  -1.830  -2.517  0.00  0.00     0.145 A 
ATOM     18  N   UNL d   1      -5.104  -0.571  -2.612  0.00  0.00    -0.335 N 
ATOM     19  C   UNL d   1      -5.861  -0.518  -3.755  0.00  0.00     0.062 A 
ATOM     20  HN  UNL d   1      -4.872   0.195  -1.979  1.00  0.00     0.168 HD
ATOM     21  C   UNL d   1      -6.529   0.573  -4.322  0.00  0.00     0.057 A 
ATOM     22  C   UNL d   1      -5.953  -1.770  -4.356  0.00  0.00     0.062 A 
ATOM     23  C   UNL d   1      -7.304   0.359  -5.471  0.00  0.00     0.058 A 
ATOM     24 CL   UNL d   1      -8.148   1.727  -6.113  0.00  0.00    -0.082 Cl
ATOM     25  C   UNL d   1      -7.392  -0.915  -6.054  0.00  0.00     0.058 A 
ATOM     26  C   UNL d   1      -6.705  -2.011  -5.509  0.00  0.00     0.057 A 
ATOM     27 CL   UNL d   1      -8.354  -1.215  -7.460  0.00  0.00    -0.082 Cl
ATOM     28  N   UNL d   1      -5.196  -2.587  -3.553  0.00  0.00    -0.335 N 
ATOM     29  H   UNL d   1      -5.055  -3.583  -3.656  0.00  0.00     0.168 HD
ENDBRANCH  16  17
ENDBRANCH   1  16
TORSDOF 5
