REMARK  7 active torsions:
REMARK  status: ('A' for Active; 'I' for Inactive)
REMARK    1  A    between atoms: C_6  and  N_1 
REMARK    2  A    between atoms: C_7  and  C_6 
REMARK    3  A    between atoms: C_16  and  C_7 
REMARK    4  A    between atoms: C_8  and  C_13 
REMARK    5  A    between atoms: N_12  and  N_9 
REMARK       I    between atoms: C_11  and  N_12 
REMARK    6  A    between atoms: O_25  and  C_11 
REMARK    7  A    between atoms: C_28  and  O_25 
ROOT
ATOM      1  C   UNL d   1       3.775   1.450  -0.137  0.00  0.00     0.054 C 
ATOM      2  N   UNL d   1       2.954   2.441   0.072  0.00  0.00    -0.298 N 
ATOM      3  HN  UNL d   1       3.331   3.383   0.173  1.00  0.00     0.187 HD
ENDROOT
BRANCH   1   4
ATOM      4  C   UNL d   1       5.263   1.854  -0.245  0.00  0.00     0.195 C 
BRANCH   4   5
ATOM      5  N   UNL d   1       5.663   2.188  -1.604  0.00  0.00    -0.274 N 
ATOM      6  C   UNL d   1       6.480   1.404  -2.370  0.00  0.00     0.262 C 
ATOM      7  C   UNL d   1       6.704   2.116  -3.620  0.00  0.00     0.048 A 
ATOM      8  O   UNL d   1       6.991   0.332  -2.108  0.00  0.00    -0.267 OA
ATOM      9  C   UNL d   1       7.374   1.722  -4.762  0.00  0.00     0.018 A 
ATOM     10  C   UNL d   1       6.116   3.359  -3.499  0.00  0.00     0.048 A 
ATOM     11  C   UNL d   1       7.442   2.645  -5.808  0.00  0.00     0.001 A 
ATOM     12  C   UNL d   1       6.859   3.924  -5.681  0.00  0.00     0.001 A 
ATOM     13  C   UNL d   1       6.186   4.295  -4.512  0.00  0.00     0.018 A 
ATOM     14  C   UNL d   1       5.490   3.422  -2.176  0.00  0.00     0.262 C 
ATOM     15  O   UNL d   1       4.984   4.430  -1.724  0.00  0.00    -0.267 OA
ENDBRANCH   4   5
ENDBRANCH   1   4
BRANCH   1  16
ATOM     16  C   UNL d   1       3.446  -0.021  -0.134  0.00  0.00    -0.011 A 
ATOM     17  C   UNL d   1       2.475  -0.550   0.730  0.00  0.00     0.014 A 
ATOM     18  C   UNL d   1       2.250  -1.933   0.799  0.00  0.00     0.017 A 
ATOM     19  C   UNL d   1       3.022  -2.825   0.043  0.00  0.00     0.048 A 
ATOM     20  C   UNL d   1       3.988  -2.297  -0.820  0.00  0.00     0.017 A 
ATOM     21  C   UNL d   1       4.181  -0.915  -0.915  0.00  0.00     0.014 A 
BRANCH  19  22
ATOM     22  C   UNL d   1       2.864  -4.322   0.168  0.00  0.00     0.417 C 
ATOM     23  F   UNL d   1       1.858  -4.694   1.005  0.00  0.00    -0.166 F 
ATOM     24  F   UNL d   1       2.601  -4.920  -1.026  0.00  0.00    -0.166 F 
ATOM     25  F   UNL d   1       3.990  -4.922   0.647  0.00  0.00    -0.166 F 
ENDBRANCH  19  22
ENDBRANCH   1  16
BRANCH   2  26
ATOM     26  N   UNL d   1       1.617   2.256   0.158  0.00  0.00    -0.245 N 
ATOM     27  C   UNL d   1       0.889   2.948   1.103  0.00  0.00     0.379 C 
ATOM     28  O   UNL d   1       1.329   3.789   1.881  0.00  0.00    -0.237 OA
ATOM     29  H   UNL d   1       1.165   1.490  -0.323  0.00  0.00     0.192 HD
BRANCH  27  30
ATOM     30  O   UNL d   1      -0.379   2.462   1.130  0.00  0.00    -0.303 OA
BRANCH  30  31
ATOM     31  C   UNL d   1      -1.151   2.843   2.278  0.00  0.00     0.176 C 
ATOM     32  C   UNL d   1      -0.954   1.796   3.362  0.00  0.00     0.034 C 
ENDBRANCH  30  31
ENDBRANCH  27  30
ENDBRANCH   2  26
TORSDOF 7
