REMARK  1 active torsions:
REMARK  status: ('A' for Active; 'I' for Inactive)
REMARK    1  A    between atoms: N_14  and  C_3 
ROOT
ATOM      1  C   UNL d   1       3.616  -0.367  -3.992  0.00  0.00     0.188 C 
ATOM      2  C   UNL d   1       3.584   0.489  -1.542  0.00  0.00     0.075 C 
ATOM      3  C   UNL d   1       4.198   0.498  -2.769  0.00  0.00     0.062 C 
ATOM      4  C   UNL d   1       2.328  -0.252  -1.349  0.00  0.00    -0.034 C 
ATOM      5  C   UNL d   1       2.459  -1.385  -3.518  0.00  0.00     0.007 C 
ATOM      6  C   UNL d   1       1.559  -0.423  -2.629  0.00  0.00     0.031 C 
ATOM      7  C   UNL d   1       4.761  -1.041  -4.651  0.00  0.00     0.092 C 
ATOM      8  C   UNL d   1       3.042   0.599  -4.979  0.00  0.00     0.092 C 
ATOM      9  C   UNL d   1       4.112   1.240  -0.446  0.00  0.00     0.102 C 
ATOM     10  N   UNL d   1       2.528   1.315  -5.738  0.00  0.00    -0.195 NA
ATOM     11  N   UNL d   1       5.681  -1.504  -5.173  0.00  0.00    -0.195 NA
ATOM     12  N   UNL d   1       4.586   1.851   0.422  0.00  0.00    -0.191 NA
ATOM     13  C   UNL d   1       1.916  -0.902  -0.240  0.00  0.00    -0.018 C 
ATOM     14  C   UNL d   1       1.616  -2.026  -4.652  0.00  0.00     0.013 C 
ATOM     15  C   UNL d   1       3.039  -2.608  -2.692  0.00  0.00     0.013 C 
ATOM     16  C   UNL d   1       0.073  -0.666  -2.374  0.00  0.00     0.010 C 
ATOM     17  C   UNL d   1       0.713  -1.828  -0.215  0.00  0.00     0.028 C 
ATOM     18  C   UNL d   1      -0.193  -1.833  -1.455  0.00  0.00     0.004 C 
ATOM     19  C   UNL d   1       2.378  -3.026  -5.519  0.00  0.00     0.001 C 
ATOM     20  C   UNL d   1       3.741  -3.720  -3.467  0.00  0.00     0.001 C 
ATOM     21  C   UNL d   1       2.999  -4.164  -4.715  0.00  0.00     0.000 C 
ENDROOT
BRANCH   3  22
ATOM     22  N   UNL d   1       5.332   1.276  -3.038  0.00  0.00    -0.399 N 
ATOM     23  H   UNL d   1       5.833   1.665  -2.241  0.00  0.00     0.156 HD
ATOM     24  H   UNL d   1       5.971   0.952  -3.770  0.00  0.00     0.156 HD
ENDBRANCH   3  22
TORSDOF 1
