REMARK  3 active torsions:
REMARK  status: ('A' for Active; 'I' for Inactive)
REMARK    1  A    between atoms: C_8  and  C_3 
REMARK    2  A    between atoms: C_9  and  C_4 
REMARK    3  A    between atoms: C_10  and  C_5 
ROOT
ATOM      1  N   UNL d   1      -1.334  -0.035  -0.027  0.00  0.00    -0.355 N 
ATOM      2  HN  UNL d   1      -2.354  -0.066  -0.030  1.00  0.00     0.166 HD
ATOM      3  C   UNL d   1      -0.679   1.153  -0.024  0.00  0.00     0.043 A 
ATOM      4  C   UNL d   1      -0.609  -1.182  -0.027  0.00  0.00     0.043 A 
ATOM      5  C   UNL d   1       1.485   0.049  -0.017  0.00  0.00    -0.022 A 
ATOM      6  C   UNL d   1       0.715   1.216  -0.023  0.00  0.00     0.042 A 
ATOM      7  C   UNL d   1       0.786  -1.165  -0.027  0.00  0.00     0.042 A 
ENDROOT
BRANCH   3   8
ATOM      8  C   UNL d   1      -1.520   2.370  -0.047  0.00  0.00    -0.009 A 
ATOM      9  C   UNL d   1      -1.098   3.580   0.539  0.00  0.00     0.014 A 
ATOM     10  C   UNL d   1      -1.873   4.741   0.461  0.00  0.00     0.007 A 
ATOM     11  C   UNL d   1      -3.106   4.729  -0.196  0.00  0.00    -0.062 A 
ATOM     12  C   UNL d   1      -3.556   3.533  -0.759  0.00  0.00     0.007 A 
ATOM     13  C   UNL d   1      -3.913   5.989  -0.292  0.00  0.00     0.048 C 
ATOM     14  C   UNL d   1      -2.776   2.371  -0.681  0.00  0.00     0.014 A 
ENDBRANCH   3   8
BRANCH   4  15
ATOM     15  C   UNL d   1      -1.380  -2.446   0.017  0.00  0.00    -0.009 A 
ATOM     16  C   UNL d   1      -0.900  -3.636  -0.564  0.00  0.00     0.013 A 
ATOM     17  C   UNL d   1      -1.613  -4.836  -0.469  0.00  0.00     0.001 A 
ATOM     18  C   UNL d   1      -2.830  -4.872   0.204  0.00  0.00     0.000 A 
ATOM     19  C   UNL d   1      -3.339  -3.707   0.770  0.00  0.00     0.001 A 
ATOM     20  C   UNL d   1      -2.623  -2.509   0.674  0.00  0.00     0.013 A 
ENDBRANCH   4  15
BRANCH   5  21
ATOM     21  C   UNL d   1       2.966   0.097   0.016  0.00  0.00    -0.026 A 
ATOM     22  C   UNL d   1       3.686   1.115  -0.635  0.00  0.00     0.012 A 
ATOM     23  C   UNL d   1       5.082   1.180  -0.572  0.00  0.00     0.001 A 
ATOM     24  C   UNL d   1       5.793   0.213   0.132  0.00  0.00     0.000 A 
ATOM     25  C   UNL d   1       5.110  -0.814   0.772  0.00  0.00     0.001 A 
ATOM     26  C   UNL d   1       3.713  -0.867   0.720  0.00  0.00     0.012 A 
ENDBRANCH   5  21
TORSDOF 3
