REMARK  4 active torsions:
REMARK  status: ('A' for Active; 'I' for Inactive)
REMARK    1  A    between atoms: C_10  and  N_1 
REMARK    2  A    between atoms: C_4  and  C_11 
REMARK       I    between atoms: N_9  and  C_4 
REMARK       I    between atoms: C_5  and  N_8 
REMARK    3  A    between atoms: C_12  and  C_5 
REMARK    4  A    between atoms: N_8  and  N_9 
ROOT
ATOM      1  C   UNL d   1       5.814  -3.720  -0.193  0.00  0.00     0.270 C 
ATOM      2  N   UNL d   1       6.846  -3.396   0.666  0.00  0.00    -0.263 N 
ATOM      3  O   UNL d   1       5.913  -4.638  -1.006  0.00  0.00    -0.266 OA
ATOM      4  H   UNL d   1       6.831  -2.662   1.369  0.00  0.00     0.190 HD
ENDROOT
BRANCH   1   5
ATOM      5  C   UNL d   1       4.559  -2.910  -0.108  0.00  0.00     0.033 A 
ATOM      6  C   UNL d   1       4.282  -2.036   0.948  0.00  0.00     0.019 A 
ATOM      7  C   UNL d   1       3.076  -1.319   0.978  0.00  0.00     0.031 A 
ATOM      8  C   UNL d   1       2.136  -1.438  -0.056  0.00  0.00     0.039 A 
ATOM      9  C   UNL d   1       2.411  -2.319  -1.108  0.00  0.00     0.031 A 
ATOM     10  C   UNL d   1       3.605  -3.057  -1.125  0.00  0.00     0.019 A 
BRANCH   8  11
ATOM     11  N   UNL d   1       0.929  -0.659  -0.035  0.00  0.00    -0.320 N 
ATOM     12  C   UNL d   1      -0.338  -1.053  -0.491  0.00  0.00     0.013 A 
ATOM     13  C   UNL d   1      -1.219  -0.005  -0.300  0.00  0.00     0.027 A 
ATOM     14  C   UNL d   1      -0.722  -2.398  -1.010  0.00  0.00     0.068 C 
ATOM     15  C   UNL d   1      -0.519   1.045   0.302  0.00  0.00     0.027 A 
ATOM     16  C   UNL d   1       0.798   0.653   0.443  0.00  0.00     0.013 A 
ATOM     17  C   UNL d   1       1.900   1.531   0.937  0.00  0.00     0.068 C 
ENDBRANCH   8  11
ENDBRANCH   1   5
BRANCH   2  18
ATOM     18  N   UNL d   1       7.977  -4.227   0.690  0.00  0.00    -0.263 N 
ATOM     19  C   UNL d   1       8.854  -4.086   1.743  0.00  0.00     0.270 C 
ATOM     20  O   UNL d   1       8.732  -3.178   2.566  0.00  0.00    -0.266 OA
ATOM     21  H   UNL d   1       7.998  -4.960  -0.015  0.00  0.00     0.190 HD
BRANCH  19  22
ATOM     22  C   UNL d   1       9.960  -5.085   1.874  0.00  0.00     0.033 A 
ATOM     23  C   UNL d   1      10.024  -6.265   1.123  0.00  0.00     0.017 A 
ATOM     24  C   UNL d   1      11.056  -7.186   1.337  0.00  0.00     0.007 A 
ATOM     25  C   UNL d   1      12.039  -6.946   2.304  0.00  0.00    -0.062 A 
ATOM     26  C   UNL d   1      11.983  -5.764   3.049  0.00  0.00     0.007 A 
ATOM     27  C   UNL d   1      13.111  -7.966   2.554  0.00  0.00     0.048 C 
ATOM     28  C   UNL d   1      10.954  -4.841   2.835  0.00  0.00     0.017 A 
ENDBRANCH  19  22
ENDBRANCH   2  18
TORSDOF 4
