REMARK  4 active torsions:
REMARK  status: ('A' for Active; 'I' for Inactive)
REMARK       I    between atoms: N_2  and  C_1 
REMARK       I    between atoms: N_3  and  C_1 
REMARK    1  A    between atoms: C_4  and  N_3 
REMARK    2  A    between atoms: C_5  and  C_11 
REMARK    3  A    between atoms: O_18  and  C_5 
REMARK    4  A    between atoms: C_21  and  O_18 
ROOT
ATOM      1  C   UNL d   1       0.675   0.109   0.107  0.00  0.00     0.323 C 
ATOM      2  N   UNL d   1       0.083  -0.916   0.835  0.00  0.00    -0.334 N 
ATOM      3  N   UNL d   1       0.482   0.026  -1.257  0.00  0.00    -0.306 N 
ATOM      4  O   UNL d   1       1.368   0.965   0.646  0.00  0.00    -0.247 OA
ATOM      5  C   UNL d   1      -0.998  -1.782   0.377  0.00  0.00     0.128 C 
ATOM      6  C   UNL d   1       0.518  -1.139   2.209  0.00  0.00     0.128 C 
ATOM      7  C   UNL d   1      -1.863  -1.771   2.788  0.00  0.00     0.088 C 
ATOM      8  C   UNL d   1      -2.212  -1.651   1.296  0.00  0.00     0.034 C 
ATOM      9  C   UNL d   1      -0.634  -0.957   3.185  0.00  0.00     0.034 C 
ATOM     10  H   UNL d   1       0.431  -0.927  -1.593  0.00  0.00     0.171 HD
ENDROOT
BRANCH   3  11
ATOM     11  C   UNL d   1       1.141   0.913  -2.141  0.00  0.00     0.075 A 
ATOM     12  C   UNL d   1       1.788   0.373  -3.258  0.00  0.00     0.146 A 
ATOM     13  C   UNL d   1       2.577   1.164  -4.083  0.00  0.00     0.086 A 
ATOM     14  F   UNL d   1       1.709  -0.945  -3.496  0.00  0.00    -0.204 F 
ATOM     15  C   UNL d   1       2.675   2.522  -3.809  0.00  0.00     0.119 A 
ATOM     16  C   UNL d   1       1.984   3.096  -2.745  0.00  0.00     0.044 A 
ATOM     17  F   UNL d   1       3.458   3.292  -4.576  0.00  0.00    -0.206 F 
ATOM     18  C   UNL d   1       1.213   2.289  -1.906  0.00  0.00     0.036 A 
ENDBRANCH   3  11
BRANCH   7  19
ATOM     19  C   UNL d   1      -1.725  -3.230   3.178  0.00  0.00     0.263 C 
ATOM     20  O   UNL d   1      -1.270  -4.109   2.456  0.00  0.00    -0.265 OA
BRANCH  19  21
ATOM     21  O   UNL d   1      -2.278  -3.426   4.405  0.00  0.00    -0.322 OA
BRANCH  21  22
ATOM     22  C   UNL d   1      -2.698  -4.769   4.681  0.00  0.00     0.174 C 
ATOM     23  C   UNL d   1      -4.110  -4.934   4.144  0.00  0.00     0.034 C 
ENDBRANCH  21  22
ENDBRANCH  19  21
ENDBRANCH   7  19
TORSDOF 4
