REMARK  2 active torsions:
REMARK  status: ('A' for Active; 'I' for Inactive)
REMARK    1  A    between atoms: C_2  and  C_1 
REMARK    2  A    between atoms: C_12  and  C_3 
ROOT
ATOM      1  C   UNL d   1       1.045   0.018   0.071  0.00  0.00     0.062 C 
ATOM      2  C   UNL d   1       0.373   0.842  -0.773  0.00  0.00     0.037 C 
ATOM      3  C   UNL d   1       0.317  -0.845   1.032  0.00  0.00     0.101 C 
ATOM      4  N   UNL d   1      -0.263  -1.517   1.776  0.00  0.00    -0.191 NA
ENDROOT
BRANCH   1   5
ATOM      5  C   UNL d   1       2.498  -0.062  -0.018  0.00  0.00     0.025 A 
ATOM      6  S   UNL d   1       3.508   1.259  -0.534  0.00  0.00    -0.101 SA
ATOM      7  C   UNL d   1       4.948   0.362  -0.335  0.00  0.00     0.050 A 
ATOM      8  C   UNL d   1       4.702  -0.907   0.125  0.00  0.00     0.008 A 
ATOM      9  C   UNL d   1       3.309  -1.145   0.309  0.00  0.00     0.021 A 
ENDBRANCH   1   5
BRANCH   2  10
ATOM     10  C   UNL d   1      -1.094   0.926  -0.809  0.00  0.00    -0.019 A 
ATOM     11  C   UNL d   1      -1.834   0.096  -1.647  0.00  0.00     0.099 A 
ATOM     12  N   UNL d   1      -3.187   0.068  -1.692  0.00  0.00    -0.374 N 
ATOM     13  C   UNL d   1      -3.837   0.902  -0.854  0.00  0.00     0.087 A 
ATOM     14  HN  UNL d   1      -3.689  -0.552  -2.327  1.00  0.00     0.164 HD
ATOM     15  C   UNL d   1      -3.196   1.779   0.007  0.00  0.00     0.018 A 
ATOM     16  C   UNL d   1      -1.801   1.794   0.025  0.00  0.00     0.014 A 
ENDBRANCH   2  10
TORSDOF 2
