REMARK  3 active torsions:
REMARK  status: ('A' for Active; 'I' for Inactive)
REMARK    1  A    between atoms: C_4  and  C_7 
REMARK    2  A    between atoms: N_8  and  C_19 
REMARK    3  A    between atoms: O_25  and  C_13 
ROOT
ATOM      1  C   UNL d   1       0.422   0.596  -0.089  0.00  0.00    -0.014 A 
ATOM      2  C   UNL d   1      -0.408  -0.557  -0.084  0.00  0.00    -0.014 A 
ATOM      3  C   UNL d   1       1.854   0.464  -0.003  0.00  0.00    -0.015 A 
ATOM      4  C   UNL d   1       2.448  -0.814  -0.093  0.00  0.00    -0.023 A 
ATOM      5  C   UNL d   1      -1.844  -0.415  -0.002  0.00  0.00    -0.015 A 
ATOM      6  C   UNL d   1       0.237  -1.811  -0.160  0.00  0.00     0.014 C 
ATOM      7  C   UNL d   1      -0.212   1.852  -0.182  0.00  0.00     0.014 A 
ATOM      8  C   UNL d   1       2.732   1.552   0.216  0.00  0.00     0.015 A 
ATOM      9  C   UNL d   1       1.628  -1.937  -0.200  0.00  0.00     0.013 C 
ATOM     10  C   UNL d   1       3.850  -0.959  -0.056  0.00  0.00     0.041 A 
ATOM     11  C   UNL d   1      -2.418   0.878  -0.072  0.00  0.00    -0.025 A 
ATOM     12  C   UNL d   1      -1.597   1.991  -0.201  0.00  0.00     0.013 A 
ATOM     13  C   UNL d   1       4.697   0.135   0.129  0.00  0.00     0.032 A 
ATOM     14  C   UNL d   1       4.117   1.386   0.310  0.00  0.00     0.030 A 
ATOM     15  C   UNL d   1      -2.749  -1.492   0.181  0.00  0.00     0.013 A 
ATOM     16  C   UNL d   1      -3.810   1.058   0.002  0.00  0.00     0.012 A 
ATOM     17  C   UNL d   1      -4.131  -1.300   0.289  0.00  0.00     0.001 A 
ATOM     18  C   UNL d   1      -4.662  -0.024   0.190  0.00  0.00     0.001 A 
ENDROOT
BRANCH  13  19
ATOM     19  N   UNL d   1       6.086  -0.089   0.190  0.00  0.00    -0.365 N 
ATOM     20  C   UNL d   1       6.873   0.804  -0.332  0.00  0.00     0.102 C 
ATOM     21  HN  UNL d   1       6.464  -0.927   0.632  1.00  0.00     0.165 HD
BRANCH  20  22
ATOM     22  C   UNL d   1       8.340   0.653  -0.310  0.00  0.00     0.014 A 
ATOM     23  C   UNL d   1       8.961  -0.522   0.126  0.00  0.00     0.077 A 
ATOM     24  C   UNL d   1      10.349  -0.633   0.098  0.00  0.00     0.039 A 
ATOM     25  C   UNL d   1      11.124   0.436  -0.354  0.00  0.00     0.022 A 
ATOM     26  C   UNL d   1      10.503   1.613  -0.774  0.00  0.00     0.011 A 
ATOM     27  C   UNL d   1       9.114   1.729  -0.759  0.00  0.00     0.034 A 
ATOM     28 BR   UNL d   1      11.555   3.066  -1.373  0.00  0.00    -0.051 Br
BRANCH  23  29
ATOM     29  O   UNL d   1       8.262  -1.604   0.585  0.00  0.00    -0.360 OA
ATOM     30  H   UNL d   1       7.310  -1.354   0.592  0.00  0.00     0.217 HD
ENDBRANCH  23  29
ENDBRANCH  20  22
ENDBRANCH  13  19
TORSDOF 3
