REMARK  8 active torsions:
REMARK  status: ('A' for Active; 'I' for Inactive)
REMARK    1  A    between atoms: C_2  and  C_1 
REMARK    2  A    between atoms: C_26  and  N_3 
REMARK    3  A    between atoms: N_21  and  C_4 
REMARK    4  A    between atoms: S_19  and  C_10 
REMARK    5  A    between atoms: C_18  and  C_11 
REMARK    6  A    between atoms: C_24  and  C_16 
REMARK    7  A    between atoms: C_27  and  S_19 
REMARK    8  A    between atoms: C_29  and  C_27 
ROOT
ATOM      1  C   UNL d   1       2.396   0.005  -0.079  0.00  0.00     0.150 A 
ATOM      2  C   UNL d   1       1.666   1.179  -0.242  0.00  0.00     0.079 A 
ATOM      3  C   UNL d   1       0.278   0.857  -0.165  0.00  0.00     0.058 A 
ATOM      4  C   UNL d   1       0.248  -0.534  -0.080  0.00  0.00     0.162 A 
ATOM      5  O   UNL d   1       1.510  -1.034   0.003  0.00  0.00    -0.287 OA
ATOM      6  C   UNL d   1      -0.973   1.510  -0.118  0.00  0.00     0.017 A 
ATOM      7  N   UNL d   1      -0.830  -1.336  -0.048  0.00  0.00    -0.335 N 
ATOM      8  HN  UNL d   1      -0.759  -2.353  -0.002  1.00  0.00     0.168 HD
ATOM      9  C   UNL d   1      -2.016  -0.691  -0.080  0.00  0.00     0.045 A 
ATOM     10  C   UNL d   1      -2.120   0.700  -0.073  0.00  0.00     0.045 A 
ENDROOT
BRANCH   1  11
ATOM     11  C   UNL d   1       3.810  -0.146   0.110  0.00  0.00     0.161 A 
ATOM     12  N   UNL d   1       4.657  -1.152  -0.317  0.00  0.00    -0.309 N 
ATOM     13  C   UNL d   1       5.864  -0.867   0.296  0.00  0.00     0.163 A 
ATOM     14  N   UNL d   1       5.781   0.254   0.967  0.00  0.00    -0.278 N 
ATOM     15  N   UNL d   1       4.503   0.720   0.829  0.00  0.00    -0.281 N 
ATOM     16  HN  UNL d   1       6.532   0.699   1.495  1.00  0.00     0.189 HD
ATOM     17  HN  UNL d   1       4.143   1.592   1.216  1.00  0.00     0.188 HD
BRANCH  12  18
ATOM     18  C   UNL d   1       4.479  -2.142  -1.359  0.00  0.00     0.128 C 
ATOM     19  C   UNL d   1       3.134  -2.822  -1.539  0.00  0.00     0.027 C 
ENDBRANCH  12  18
BRANCH  13  20
ATOM     20  S   UNL d   1       7.302  -1.826   0.144  0.00  0.00    -0.088 SA
BRANCH  20  21
ATOM     21  C   UNL d   1       8.156  -1.403   1.694  0.00  0.00     0.121 C 
BRANCH  21  22
ATOM     22  C   UNL d   1       9.472  -2.143   1.830  0.00  0.00    -0.048 A 
ATOM     23  C   UNL d   1      10.680  -1.524   1.473  0.00  0.00     0.009 A 
ATOM     24  C   UNL d   1      11.895  -2.205   1.599  0.00  0.00     0.024 A 
ATOM     25  C   UNL d   1      11.910  -3.514   2.075  0.00  0.00     0.034 A 
ATOM     26  C   UNL d   1      10.718  -4.147   2.429  0.00  0.00     0.024 A 
ATOM     27 CL   UNL d   1      13.402  -4.353   2.230  0.00  0.00    -0.084 Cl
ATOM     28  C   UNL d   1       9.505  -3.465   2.306  0.00  0.00     0.009 A 
ENDBRANCH  21  22
ENDBRANCH  20  21
ENDBRANCH  13  20
ENDBRANCH   1  11
BRANCH   2  29
ATOM     29  N   UNL d   1       2.197   2.403  -0.426  0.00  0.00    -0.396 N 
ATOM     30  H   UNL d   1       3.188   2.592  -0.286  0.00  0.00     0.156 HD
ATOM     31  H   UNL d   1       1.606   3.233  -0.464  0.00  0.00     0.156 HD
ENDBRANCH   2  29
BRANCH   6  32
ATOM     32  C   UNL d   1      -1.100   2.955   0.002  0.00  0.00     0.086 A 
ATOM     33  O   UNL d   1      -0.175   3.733  -0.631  0.00  0.00    -0.322 OA
ATOM     34  C   UNL d   1      -0.478   5.029  -0.360  0.00  0.00     0.142 A 
ATOM     35  C   UNL d   1      -1.604   5.105   0.424  0.00  0.00     0.027 A 
ATOM     36  C   UNL d   1      -2.017   3.769   0.643  0.00  0.00     0.040 A 
ENDBRANCH   6  32
BRANCH   9  37
ATOM     37  C   UNL d   1      -3.218  -1.558  -0.122  0.00  0.00    -0.009 A 
ATOM     38  C   UNL d   1      -3.231  -2.821   0.498  0.00  0.00     0.013 A 
ATOM     39  C   UNL d   1      -4.357  -3.650   0.441  0.00  0.00     0.001 A 
ATOM     40  C   UNL d   1      -5.498  -3.238  -0.238  0.00  0.00     0.000 A 
ATOM     41  C   UNL d   1      -5.516  -1.994  -0.861  0.00  0.00     0.001 A 
ATOM     42  C   UNL d   1      -4.389  -1.168  -0.804  0.00  0.00     0.013 A 
ENDBRANCH   9  37
TORSDOF 8
