REMARK  4 active torsions:
REMARK  status: ('A' for Active; 'I' for Inactive)
REMARK    1  A    between atoms: N_7  and  N_1 
REMARK    2  A    between atoms: C_13  and  C_4 
REMARK    3  A    between atoms: C_9  and  C_6 
REMARK    4  A    between atoms: C_18  and  C_14 
ROOT
ATOM      1  N   UNL d   1       1.522  -0.996  -0.160  0.00  0.00    -0.201 N 
ATOM      2  N   UNL d   1      -0.642  -0.377   0.031  0.00  0.00    -0.336 N 
ATOM      3  HN  UNL d   1      -1.657  -0.428   0.124  1.00  0.00     0.168 HD
ATOM      4  C   UNL d   1       0.201  -1.367  -0.049  0.00  0.00     0.141 A 
ATOM      5  C   UNL d   1       1.583   0.381  -0.151  0.00  0.00     0.295 A 
ATOM      6  C   UNL d   1       0.140   0.755  -0.036  0.00  0.00     0.105 A 
ATOM      7  O   UNL d   1       2.519   1.158  -0.226  0.00  0.00    -0.264 OA
ENDROOT
BRANCH   1   8
ATOM      8  N   UNL d   1       2.543  -1.899  -0.271  0.00  0.00    -0.300 N 
ATOM      9  C   UNL d   1       3.770  -1.500  -0.296  0.00  0.00     0.119 C 
ATOM     10  HN  UNL d   1       2.333  -2.895  -0.334  1.00  0.00     0.186 HD
BRANCH   9  11
ATOM     11  C   UNL d   1       4.876  -2.460  -0.507  0.00  0.00    -0.019 A 
ATOM     12  C   UNL d   1       4.629  -3.825  -0.690  0.00  0.00     0.013 A 
ATOM     13  C   UNL d   1       5.692  -4.697  -0.934  0.00  0.00     0.001 A 
ATOM     14  C   UNL d   1       6.997  -4.206  -0.989  0.00  0.00     0.000 A 
ATOM     15  C   UNL d   1       7.243  -2.846  -0.796  0.00  0.00     0.001 A 
ATOM     16  C   UNL d   1       6.184  -1.970  -0.556  0.00  0.00     0.013 A 
ENDBRANCH   9  11
ENDBRANCH   1   8
BRANCH   4  17
ATOM     17  C   UNL d   1      -0.241  -2.778   0.029  0.00  0.00     0.010 A 
ATOM     18  C   UNL d   1       0.394  -3.811  -0.667  0.00  0.00     0.015 A 
ATOM     19  C   UNL d   1      -0.027  -5.133  -0.503  0.00  0.00     0.001 A 
ATOM     20  C   UNL d   1      -1.106  -5.424   0.330  0.00  0.00     0.000 A 
ATOM     21  C   UNL d   1      -1.780  -4.395   0.984  0.00  0.00     0.001 A 
ATOM     22  C   UNL d   1      -1.353  -3.074   0.831  0.00  0.00     0.015 A 
ENDBRANCH   4  17
BRANCH   6  23
ATOM     23  C   UNL d   1      -0.257   2.035  -0.004  0.00  0.00     0.054 C 
ATOM     24  C   UNL d   1      -1.628   2.421   0.068  0.00  0.00     0.007 A 
ATOM     25  S   UNL d   1      -2.047   3.941   0.769  0.00  0.00    -0.102 SA
ATOM     26  C   UNL d   1      -2.771   1.770  -0.368  0.00  0.00     0.019 A 
ATOM     27  C   UNL d   1      -3.719   3.683   0.528  0.00  0.00     0.050 A 
ATOM     28  C   UNL d   1      -3.971   2.487  -0.099  0.00  0.00     0.008 A 
ENDBRANCH   6  23
TORSDOF 4
