REMARK  5 active torsions:
REMARK  status: ('A' for Active; 'I' for Inactive)
REMARK    1  A    between atoms: C_11  and  N_1 
REMARK    2  A    between atoms: S_10  and  C_2 
REMARK    3  A    between atoms: O_17  and  C_3 
REMARK    4  A    between atoms: C_8  and  C_12 
REMARK       I    between atoms: N_9  and  C_8 
REMARK    5  A    between atoms: C_12  and  S_10 
ROOT
ATOM      1  N   UNL d   1       0.459   0.468  -0.199  0.00  0.00    -0.254 N 
ATOM      2  C   UNL d   1       0.959  -0.807   0.056  0.00  0.00     0.169 A 
ATOM      3  C   UNL d   1      -0.564   0.591   0.738  0.00  0.00     0.245 A 
ATOM      4  N   UNL d   1       0.253  -1.403   0.989  0.00  0.00    -0.276 N 
ATOM      5  HN  UNL d   1       0.385  -2.357   1.325  1.00  0.00     0.189 HD
ATOM      6  N   UNL d   1      -0.693  -0.517   1.429  0.00  0.00    -0.263 N 
ATOM      7  HN  UNL d   1      -1.378  -0.687   2.166  1.00  0.00     0.190 HD
ENDROOT
BRANCH   2   8
ATOM      8  S   UNL d   1       2.445  -1.428  -0.578  0.00  0.00    -0.083 SA
BRANCH   8   9
ATOM      9  C   UNL d   1       2.490  -3.143   0.056  0.00  0.00     0.185 C 
BRANCH   9  10
ATOM     10  C   UNL d   1       3.861  -3.770  -0.224  0.00  0.00     0.229 C 
ATOM     11  N   UNL d   1       4.066  -5.095   0.138  0.00  0.00    -0.347 N 
ATOM     12  C   UNL d   1       3.139  -5.968   0.866  0.00  0.00     0.152 C 
ATOM     13  C   UNL d   1       5.406  -5.673  -0.007  0.00  0.00     0.152 C 
ATOM     14  C   UNL d   1       3.759  -6.402   2.206  0.00  0.00     0.187 C 
ATOM     15  O   UNL d   1       5.069  -6.969   2.029  0.00  0.00    -0.388 OA
ATOM     16  C   UNL d   1       5.952  -6.040   1.375  0.00  0.00     0.187 C 
ATOM     17  O   UNL d   1       4.779  -3.127  -0.749  0.00  0.00    -0.273 OA
ENDBRANCH   9  10
ENDBRANCH   8   9
ENDBRANCH   2   8
BRANCH   1  18
ATOM     18  C   UNL d   1       0.827   1.419  -1.192  0.00  0.00     0.060 A 
ATOM     19  C   UNL d   1       1.286   1.012  -2.441  0.00  0.00     0.117 A 
ATOM     20  N   UNL d   1       1.547   1.862  -3.464  0.00  0.00    -0.373 N 
ATOM     21  C   UNL d   1       1.357   3.177  -3.240  0.00  0.00     0.088 A 
ATOM     22  HN  UNL d   1       1.873   1.519  -4.368  1.00  0.00     0.164 HD
ATOM     23  C   UNL d   1       0.929   3.687  -2.028  0.00  0.00     0.019 A 
ATOM     24  C   UNL d   1       0.670   2.796  -0.985  0.00  0.00     0.033 A 
ENDBRANCH   1  18
BRANCH   3  25
ATOM     25  O   UNL d   1      -1.399   1.612   0.893  0.00  0.00    -0.331 OA
ATOM     26  H   UNL d   1      -1.450   2.111   0.063  0.00  0.00     0.221 HD
ENDBRANCH   3  25
TORSDOF 5
