REMARK  3 active torsions:
REMARK  status: ('A' for Active; 'I' for Inactive)
REMARK    1  A    between atoms: C_14  and  C_4 
REMARK    2  A    between atoms: C_9  and  C_15 
REMARK    3  A    between atoms: N_11  and  N_16 
ROOT
ATOM      1  N   UNL d   1       1.509  -0.574  -0.013  0.00  0.00    -0.334 N 
ATOM      2  HN  UNL d   1       0.518  -0.805  -0.086  1.00  0.00     0.168 HD
ATOM      3  C   UNL d   1       2.481  -1.460   0.028  0.00  0.00     0.163 A 
ATOM      4  C   UNL d   1       2.011   0.714   0.056  0.00  0.00     0.051 A 
ATOM      5  S   UNL d   1       4.064  -0.778   0.147  0.00  0.00    -0.062 SA
ATOM      6  C   UNL d   1       3.389   0.793   0.094  0.00  0.00     0.083 A 
ATOM      7  N   UNL d   1       2.352  -2.807  -0.041  0.00  0.00    -0.280 N 
ATOM      8  H   UNL d   1       3.226  -3.348  -0.018  0.00  0.00     0.189 HD
ENDROOT
BRANCH   7   9
ATOM      9  N   UNL d   1       1.247  -3.440  -0.536  0.00  0.00    -0.308 N 
ATOM     10  C   UNL d   1       1.398  -4.665  -0.952  0.00  0.00     0.138 C 
ATOM     11  HN  UNL d   1       0.342  -2.972  -0.578  1.00  0.00     0.186 HD
BRANCH  10  12
ATOM     12  C   UNL d   1       2.633  -5.454  -0.947  0.00  0.00     0.066 A 
ATOM     13  N   UNL d   1       3.787  -5.021  -0.396  0.00  0.00    -0.300 N 
ATOM     14  N   UNL d   1       4.648  -6.036  -0.581  0.00  0.00    -0.311 N 
ATOM     15  HN  UNL d   1       3.965  -4.126   0.058  1.00  0.00     0.187 HD
ATOM     16  C   UNL d   1       4.108  -7.089  -1.253  0.00  0.00     0.109 A 
ATOM     17  H   UNL d   1       5.593  -5.938  -0.222  0.00  0.00     0.186 HD
ATOM     18  C   UNL d   1       2.803  -6.749  -1.505  0.00  0.00     0.051 A 
ENDBRANCH  10  12
ENDBRANCH   7   9
BRANCH   4  19
ATOM     19  C   UNL d   1       1.119   1.868   0.055  0.00  0.00    -0.009 A 
ATOM     20  C   UNL d   1       1.507   3.107   0.590  0.00  0.00     0.015 A 
ATOM     21  C   UNL d   1       0.624   4.192   0.582  0.00  0.00     0.024 A 
ATOM     22  C   UNL d   1      -0.652   4.045   0.044  0.00  0.00     0.034 A 
ATOM     23  C   UNL d   1      -1.058   2.822  -0.481  0.00  0.00     0.024 A 
ATOM     24 CL   UNL d   1      -1.734   5.383   0.035  0.00  0.00    -0.084 Cl
ATOM     25  C   UNL d   1      -0.176   1.737  -0.471  0.00  0.00     0.015 A 
ENDBRANCH   4  19
TORSDOF 3
