REMARK  3 active torsions:
REMARK  status: ('A' for Active; 'I' for Inactive)
REMARK    1  A    between atoms: N_2  and  C_1 
REMARK    2  A    between atoms: C_8  and  C_3 
REMARK    3  A    between atoms: O_13  and  N_11 
ROOT
ATOM      1  C   UNL d   1       1.070   0.814   0.009  0.00  0.00     0.149 A 
ATOM      2  C   UNL d   1      -0.282   1.228  -0.013  0.00  0.00     0.099 A 
ATOM      3  N   UNL d   1      -1.101   0.156  -0.022  0.00  0.00    -0.297 N 
ATOM      4  HN  UNL d   1      -2.121   0.151  -0.041  1.00  0.00     0.187 HD
ATOM      5  N   UNL d   1      -0.275  -0.903   0.000  0.00  0.00    -0.309 N 
ATOM      6  C   UNL d   1       1.043  -0.565   0.023  0.00  0.00     0.145 A 
ATOM      7  H   UNL d   1      -0.686  -1.833  -0.001  0.00  0.00     0.186 HD
ENDROOT
BRANCH   2   8
ATOM      8  C   UNL d   1      -0.856   2.559  -0.002  0.00  0.00     0.147 C 
ATOM      9  N   UNL d   1      -0.090   3.600   0.057  0.00  0.00    -0.278 N 
ATOM     10  HN  UNL d   1       0.928   3.585   0.107  1.00  0.00     0.193 HD
BRANCH   9  11
ATOM     11  O   UNL d   1      -0.888   4.753   0.040  0.00  0.00    -0.290 OA
ATOM     12  H   UNL d   1      -0.225   5.469   0.004  0.00  0.00     0.244 HD
ENDBRANCH   9  11
ENDBRANCH   2   8
BRANCH   1  13
ATOM     13  N   UNL d   1       2.251   1.609   0.018  0.00  0.00    -0.112 N 
ATOM     14  O   UNL d   1       2.438   2.347  -0.956  0.00  0.00    -0.532 OA
ATOM     15  O   UNL d   1       3.029   1.425   0.962  0.00  0.00    -0.532 OA
ENDBRANCH   1  13
TORSDOF 3
