REMARK  4 active torsions:
REMARK  status: ('A' for Active; 'I' for Inactive)
REMARK    1  A    between atoms: C_11  and  C_2 
REMARK       I    between atoms: C_5  and  N_10 
REMARK    2  A    between atoms: C_6  and  C_5 
REMARK    3  A    between atoms: N_10  and  C_18 
REMARK    4  A    between atoms: C_18  and  C_19 
ROOT
ATOM      1  C   UNL d   1       2.409  -1.655   0.000  0.00  0.00    -0.008 A 
ATOM      2  C   UNL d   1       2.558  -2.578  -1.044  0.00  0.00     0.014 A 
ATOM      3  C   UNL d   1       3.409  -1.589   0.980  0.00  0.00     0.014 A 
ATOM      4  C   UNL d   1       4.697  -3.318  -0.150  0.00  0.00    -0.040 A 
ATOM      5  C   UNL d   1       3.689  -3.402  -1.119  0.00  0.00     0.010 A 
ATOM      6  C   UNL d   1       4.537  -2.415   0.908  0.00  0.00     0.010 A 
ENDROOT
BRANCH   4   7
ATOM      7  C   UNL d   1       5.919  -4.197  -0.222  0.00  0.00     0.161 C 
BRANCH   7   8
ATOM      8  N   UNL d   1       5.721  -5.440   0.477  0.00  0.00    -0.352 N 
ATOM      9  C   UNL d   1       6.760  -6.322   0.688  0.00  0.00     0.258 C 
ATOM     10  O   UNL d   1       7.895  -6.080   0.279  0.00  0.00    -0.267 OA
ATOM     11  H   UNL d   1       4.787  -5.720   0.748  0.00  0.00     0.163 HD
BRANCH   9  12
ATOM     12  C   UNL d   1       6.427  -7.541   1.417  0.00  0.00     0.072 A 
ATOM     13  S   UNL d   1       4.870  -7.812   2.089  0.00  0.00    -0.097 SA
ATOM     14  C   UNL d   1       5.330  -9.328   2.732  0.00  0.00     0.050 A 
ATOM     15  C   UNL d   1       6.639  -9.636   2.440  0.00  0.00     0.009 A 
ATOM     16  C   UNL d   1       7.271  -8.605   1.685  0.00  0.00     0.025 A 
ENDBRANCH   9  12
ENDBRANCH   7   8
ENDBRANCH   4   7
BRANCH   1  17
ATOM     17  C   UNL d   1       1.225  -0.805   0.060  0.00  0.00     0.063 A 
ATOM     18  N   UNL d   1       0.013  -1.214  -0.490  0.00  0.00    -0.292 N 
ATOM     19  N   UNL d   1      -0.939  -0.312  -0.320  0.00  0.00    -0.061 NA
ATOM     20  HN  UNL d   1      -0.124  -2.105  -0.969  1.00  0.00     0.183 HD
ATOM     21  S   UNL d   1      -0.405   1.053   0.483  0.00  0.00    -0.010 SA
ATOM     22  C   UNL d   1       1.196   0.454   0.637  0.00  0.00     0.096 A 
ENDBRANCH   1  17
TORSDOF 4
