REMARK  4 active torsions:
REMARK  status: ('A' for Active; 'I' for Inactive)
REMARK    1  A    between atoms: C_4  and  C_1 
REMARK    2  A    between atoms: N_7  and  C_2 
REMARK       I    between atoms: C_3  and  N_5 
REMARK       I    between atoms: N_8  and  C_3 
REMARK    3  A    between atoms: C_6  and  C_9 
REMARK    4  A    between atoms: C_17  and  N_8 
ROOT
ATOM      1  C   UNL d   1      -3.081   6.204  -0.419  0.00  0.00     0.323 C 
ATOM      2  N   UNL d   1      -2.599   4.904  -0.297  0.00  0.00    -0.332 N 
ATOM      3  N   UNL d   1      -1.070   2.489  -0.003  0.00  0.00    -0.266 NA
ATOM      4  N   UNL d   1      -4.044   6.592   0.484  0.00  0.00    -0.309 N 
ATOM      5  O   UNL d   1      -2.636   6.940  -1.301  0.00  0.00    -0.247 OA
ATOM      6  C   UNL d   1      -1.392   4.637  -1.100  0.00  0.00     0.142 C 
ATOM      7  C   UNL d   1      -2.793   4.026   0.874  0.00  0.00     0.142 C 
ATOM      8  C   UNL d   1      -2.400   2.547   0.635  0.00  0.00     0.117 C 
ATOM      9  C   UNL d   1      -1.111   3.149  -1.321  0.00  0.00     0.117 C 
ATOM     10  H   UNL d   1      -4.185   6.010   1.292  0.00  0.00     0.170 HD
ENDROOT
BRANCH   4  11
ATOM     11  C   UNL d   1      -4.692   7.852   0.509  0.00  0.00     0.037 A 
ATOM     12  C   UNL d   1      -4.611   8.778  -0.537  0.00  0.00     0.045 A 
ATOM     13  C   UNL d   1      -5.207  10.047  -0.447  0.00  0.00     0.050 A 
ATOM     14  C   UNL d   1      -5.929  10.370   0.709  0.00  0.00     0.016 A 
ATOM     15  C   UNL d   1      -6.054   9.441   1.742  0.00  0.00     0.003 A 
ATOM     16  C   UNL d   1      -5.440   8.188   1.641  0.00  0.00     0.029 A 
BRANCH  13  17
ATOM     17  C   UNL d   1      -5.043  11.048  -1.561  0.00  0.00     0.417 C 
ATOM     18  F   UNL d   1      -4.420  10.555  -2.665  0.00  0.00    -0.166 F 
ATOM     19  F   UNL d   1      -6.237  11.538  -2.000  0.00  0.00    -0.166 F 
ATOM     20  F   UNL d   1      -4.316  12.134  -1.176  0.00  0.00    -0.166 F 
ENDBRANCH  13  17
ENDBRANCH   4  11
BRANCH   3  21
ATOM     21  C   UNL d   1      -0.460   1.236  -0.026  0.00  0.00     0.097 A 
ATOM     22  C   UNL d   1       0.928   1.108  -0.145  0.00  0.00     0.086 A 
ATOM     23  C   UNL d   1       1.482  -0.186  -0.177  0.00  0.00     0.021 A 
ATOM     24  C   UNL d   1       0.667  -1.300  -0.058  0.00  0.00     0.018 A 
ATOM     25  C   UNL d   1      -0.686  -1.083   0.086  0.00  0.00     0.089 A 
ATOM     26  N   UNL d   1      -1.252   0.144   0.106  0.00  0.00    -0.356 N 
ATOM     27  HN  UNL d   1      -2.261   0.247   0.219  1.00  0.00     0.166 HD
BRANCH  22  28
ATOM     28  C   UNL d   1       1.861   2.281  -0.252  0.00  0.00     0.420 C 
ATOM     29  F   UNL d   1       1.405   3.469   0.225  0.00  0.00    -0.166 F 
ATOM     30  F   UNL d   1       3.038   2.065   0.412  0.00  0.00    -0.166 F 
ATOM     31  F   UNL d   1       2.227   2.518  -1.547  0.00  0.00    -0.166 F 
ENDBRANCH  22  28
ENDBRANCH   3  21
TORSDOF 4
