REMARK  3 active torsions:
REMARK  status: ('A' for Active; 'I' for Inactive)
REMARK    1  A    between atoms: C_2  and  N_1 
REMARK    2  A    between atoms: N_8  and  C_2 
REMARK    3  A    between atoms: C_10  and  N_8 
ROOT
ATOM      1  N   UNL d   1       0.087  -1.337   0.943  0.00  0.00    -0.286 N 
ATOM      2  S   UNL d   1       0.014   1.727   0.521  0.00  0.00    -0.086 SA
ATOM      3  C   UNL d   1      -1.162  -0.784   0.467  0.00  0.00     0.059 A 
ATOM      4  C   UNL d   1       1.257  -0.760   0.312  0.00  0.00     0.059 A 
ATOM      5  C   UNL d   1      -1.310   0.586   0.189  0.00  0.00     0.033 A 
ATOM      6  C   UNL d   1       1.354   0.630   0.103  0.00  0.00     0.033 A 
ATOM      7  C   UNL d   1      -2.246  -1.639   0.197  0.00  0.00     0.031 A 
ATOM      8  C   UNL d   1       2.313  -1.556  -0.159  0.00  0.00     0.031 A 
ATOM      9  C   UNL d   1      -2.514   1.081  -0.328  0.00  0.00     0.021 A 
ATOM     10  C   UNL d   1       2.511   1.196  -0.454  0.00  0.00     0.021 A 
ATOM     11  C   UNL d   1       3.463  -0.992  -0.723  0.00  0.00     0.002 A 
ATOM     12  C   UNL d   1      -3.439  -1.144  -0.336  0.00  0.00     0.002 A 
ATOM     13  C   UNL d   1       3.570   0.386  -0.853  0.00  0.00     0.002 A 
ATOM     14  C   UNL d   1      -3.574   0.216  -0.597  0.00  0.00     0.002 A 
ENDROOT
BRANCH   1  15
ATOM     15  C   UNL d   1       0.128  -2.371   1.944  0.00  0.00     0.184 C 
ATOM     16  S   UNL d   1       1.458  -3.328   2.364  0.00  0.00    -0.040 SA
BRANCH  15  17
ATOM     17  N   UNL d   1      -1.040  -2.372   2.739  0.00  0.00    -0.333 N 
ATOM     18  H   UNL d   1      -1.347  -1.433   2.976  0.00  0.00     0.168 HD
BRANCH  17  19
ATOM     19  C   UNL d   1      -1.470  -3.394   3.613  0.00  0.00     0.034 A 
ATOM     20  C   UNL d   1      -1.976  -3.040   4.866  0.00  0.00     0.029 A 
ATOM     21  C   UNL d   1      -2.381  -4.034   5.762  0.00  0.00     0.002 A 
ATOM     22  C   UNL d   1      -2.327  -5.377   5.390  0.00  0.00     0.000 A 
ATOM     23  C   UNL d   1      -1.873  -5.727   4.120  0.00  0.00     0.002 A 
ATOM     24  C   UNL d   1      -1.447  -4.737   3.233  0.00  0.00     0.029 A 
ENDBRANCH  17  19
ENDBRANCH  15  17
ENDBRANCH   1  15
TORSDOF 3
