REMARK  5 active torsions:
REMARK  status: ('A' for Active; 'I' for Inactive)
REMARK    1  A    between atoms: O_5  and  S_1 
REMARK    2  A    between atoms: C_6  and  S_1 
REMARK    3  A    between atoms: N_3  and  C_2 
REMARK    4  A    between atoms: C_4  and  O_5 
REMARK       I    between atoms: C_11  and  N_13 
REMARK    5  A    between atoms: N_13  and  C_18 
ROOT
ATOM      1  S   UNL d   1       1.105   0.051   0.054  0.00  0.00     0.303 S 
ATOM      2  O   UNL d   1       0.449  -0.661  -1.026  0.00  0.00    -0.193 OA
ATOM      3  O   UNL d   1       2.546   0.246   0.038  0.00  0.00    -0.193 OA
ENDROOT
BRANCH   1   4
ATOM      4  O   UNL d   1       0.670  -0.631   1.476  0.00  0.00    -0.227 OA
BRANCH   4   5
ATOM      5  C   UNL d   1       0.971  -1.942   1.766  0.00  0.00     0.122 A 
ATOM      6  C   UNL d   1       0.090  -2.737   2.520  0.00  0.00     0.138 A 
ATOM      7  C   UNL d   1       0.447  -4.057   2.875  0.00  0.00     0.045 A 
ATOM      8  C   UNL d   1       1.683  -4.590   2.490  0.00  0.00    -0.059 A 
ATOM      9  C   UNL d   1       2.555  -3.796   1.747  0.00  0.00     0.010 A 
ATOM     10  C   UNL d   1       2.070  -5.986   2.879  0.00  0.00     0.048 C 
ATOM     11  C   UNL d   1       2.207  -2.490   1.396  0.00  0.00     0.041 A 
BRANCH   6  12
ATOM     12  N   UNL d   1      -1.221  -2.241   2.970  0.00  0.00    -0.113 N 
ATOM     13  O   UNL d   1      -1.587  -1.111   2.617  0.00  0.00    -0.532 OA
ATOM     14  O   UNL d   1      -1.903  -2.991   3.688  0.00  0.00    -0.532 OA
ENDBRANCH   6  12
ENDBRANCH   4   5
ENDBRANCH   1   4
BRANCH   1  15
ATOM     15  C   UNL d   1       0.401   1.683   0.132  0.00  0.00     0.086 A 
ATOM     16  C   UNL d   1       1.139   2.733   0.688  0.00  0.00     0.028 A 
ATOM     17  C   UNL d   1       0.607   4.028   0.691  0.00  0.00     0.031 A 
ATOM     18  C   UNL d   1      -0.655   4.283   0.134  0.00  0.00     0.034 A 
ATOM     19  C   UNL d   1      -1.364   3.222  -0.437  0.00  0.00     0.031 A 
ATOM     20  C   UNL d   1      -0.843   1.925  -0.445  0.00  0.00     0.028 A 
BRANCH  18  21
ATOM     21  N   UNL d   1      -1.140   5.610   0.184  0.00  0.00    -0.328 N 
ATOM     22  C   UNL d   1      -2.362   6.060  -0.285  0.00  0.00     0.218 C 
ATOM     23  O   UNL d   1      -3.227   5.392  -0.844  0.00  0.00    -0.274 OA
ATOM     24  C   UNL d   1      -2.597   7.531  -0.051  0.00  0.00     0.117 C 
ATOM     25  H   UNL d   1      -0.534   6.290   0.624  0.00  0.00     0.169 HD
ENDBRANCH  18  21
ENDBRANCH   1  15
TORSDOF 5
