REMARK  1 active torsions:
REMARK  status: ('A' for Active; 'I' for Inactive)
REMARK    1  A    between atoms: N_2  and  C_1 
ROOT
ATOM      1  C   UNL d   1      -0.173   1.107   0.083  0.00  0.00     0.104 A 
ATOM      2  N   UNL d   1      -1.524   1.220   0.132  0.00  0.00    -0.355 N 
ATOM      3  HN  UNL d   1      -1.967   2.127   0.278  1.00  0.00     0.166 HD
ATOM      4  C   UNL d   1       0.436  -0.152  -0.107  0.00  0.00     0.072 A 
ATOM      5 CL   UNL d   1       2.152  -0.385  -0.063  0.00  0.00    -0.081 Cl
ATOM      6  C   UNL d   1      -2.269   0.097  -0.017  0.00  0.00     0.089 A 
ATOM      7  C   UNL d   1      -0.359  -1.288  -0.250  0.00  0.00     0.028 A 
ATOM      8  C   UNL d   1      -1.740  -1.165  -0.201  0.00  0.00     0.019 A 
ENDROOT
BRANCH   1   9
ATOM      9  N   UNL d   1       0.596   2.242   0.336  0.00  0.00    -0.264 NA
ATOM     10  C   UNL d   1      -0.062   3.319   1.094  0.00  0.00     0.123 C 
ATOM     11  C   UNL d   1       1.043   4.259   1.610  0.00  0.00     0.182 C 
ATOM     12  O   UNL d   1       1.830   4.798   0.529  0.00  0.00    -0.389 OA
ATOM     13  C   UNL d   1       2.418   3.739  -0.252  0.00  0.00     0.182 C 
ATOM     14  C   UNL d   1       1.341   2.791  -0.811  0.00  0.00     0.123 C 
ENDBRANCH   1   9
TORSDOF 1
