REMARK  3 active torsions:
REMARK  status: ('A' for Active; 'I' for Inactive)
REMARK    1  A    between atoms: C_10  and  N_1 
REMARK    2  A    between atoms: S_16  and  C_7 
REMARK    3  A    between atoms: C_13  and  C_10 
ROOT
ATOM      1  N   UNL d   1       1.464   1.066  -0.043  0.00  0.00    -0.254 N 
ATOM      2  N   UNL d   1       2.343   0.037  -0.024  0.00  0.00    -0.018 NA
ATOM      3  C   UNL d   1       0.175   0.614  -0.029  0.00  0.00     0.153 A 
ATOM      4  C   UNL d   1       0.306  -0.765  -0.032  0.00  0.00     0.125 A 
ATOM      5  N   UNL d   1       1.639  -1.092  -0.031  0.00  0.00    -0.278 N 
ATOM      6  HN  UNL d   1       2.023  -2.037  -0.036  1.00  0.00     0.184 HD
ATOM      7  C   UNL d   1      -0.883  -1.495  -0.023  0.00  0.00     0.102 A 
ATOM      8  N   UNL d   1      -0.967   1.321  -0.013  0.00  0.00    -0.336 N 
ATOM      9  HN  UNL d   1      -1.012   2.340   0.006  1.00  0.00     0.168 HD
ATOM     10  N   UNL d   1      -2.072  -0.834  -0.026  0.00  0.00    -0.345 N 
ATOM     11  HN  UNL d   1      -2.957  -1.341  -0.028  1.00  0.00     0.167 HD
ATOM     12  C   UNL d   1      -2.044   0.515  -0.025  0.00  0.00     0.183 A 
ENDROOT
BRANCH   1  13
ATOM     13  C   UNL d   1       1.933   2.438   0.007  0.00  0.00     0.189 C 
BRANCH  13  14
ATOM     14  C   UNL d   1       2.230   2.976  -1.371  0.00  0.00    -0.017 A 
ATOM     15  C   UNL d   1       1.301   3.714  -2.122  0.00  0.00     0.042 A 
ATOM     16 CL   UNL d   1      -0.239   4.176  -1.492  0.00  0.00    -0.084 Cl
ATOM     17  C   UNL d   1       1.604   4.131  -3.423  0.00  0.00     0.024 A 
ATOM     18  C   UNL d   1       2.844   3.835  -3.986  0.00  0.00     0.002 A 
ATOM     19  C   UNL d   1       3.787   3.128  -3.247  0.00  0.00     0.001 A 
ATOM     20  C   UNL d   1       3.483   2.698  -1.954  0.00  0.00     0.010 A 
ENDBRANCH  13  14
ENDBRANCH   1  13
BRANCH   7  21
ATOM     21  S   UNL d   1      -0.822  -3.262  -0.002  0.00  0.00    -0.114 SA
ATOM     22  C   UNL d   1      -2.587  -3.660   0.051  0.00  0.00     0.097 C 
ENDBRANCH   7  21
TORSDOF 3
