REMARK  2 active torsions:
REMARK  status: ('A' for Active; 'I' for Inactive)
REMARK       I    between atoms: N_4  and  C_1 
REMARK    1  A    between atoms: C_6  and  C_1 
REMARK    2  A    between atoms: C_8  and  N_4 
ROOT
ATOM      1  N   UNL d   1       3.310   2.335  -5.473  0.00  0.00    -0.359 N 
ATOM      2  HN  UNL d   1       4.102   1.779  -5.796  1.00  0.00     0.166 HD
ATOM      3  C   UNL d   1       2.545   1.911  -4.448  0.00  0.00     0.042 A 
ATOM      4  C   UNL d   1       1.448   2.655  -3.981  0.00  0.00    -0.007 A 
ATOM      5  C   UNL d   1       0.953   0.968  -2.288  0.00  0.00     0.035 A 
ATOM      6  C   UNL d   1       0.668   2.183  -2.912  0.00  0.00     0.043 A 
ATOM      7  C   UNL d   1       2.828   0.710  -3.808  0.00  0.00     0.033 A 
ATOM      8  C   UNL d   1       3.005   3.517  -6.065  0.00  0.00     0.005 A 
ATOM      9  C   UNL d   1       1.155   3.871  -4.604  0.00  0.00     0.015 A 
ATOM     10  C   UNL d   1       2.055   0.239  -2.733  0.00  0.00     0.032 A 
ATOM     11  C   UNL d   1       1.941   4.311  -5.659  0.00  0.00     0.025 A 
ATOM     12  C   UNL d   1       3.876   3.969  -7.200  0.00  0.00     0.068 C 
ENDROOT
BRANCH   5  13
ATOM     13  N   UNL d   1       0.185   0.457  -1.216  0.00  0.00    -0.323 N 
ATOM     14  C   UNL d   1      -1.070   0.914  -0.847  0.00  0.00     0.256 C 
ATOM     15  O   UNL d   1      -1.753   1.736  -1.453  0.00  0.00    -0.267 OA
ATOM     16  H   UNL d   1       0.533  -0.378  -0.764  0.00  0.00     0.169 HD
BRANCH  14  17
ATOM     17  C   UNL d   1      -1.664   0.319   0.375  0.00  0.00     0.035 A 
ATOM     18  C   UNL d   1      -3.057   0.173   0.416  0.00  0.00     0.059 A 
ATOM     19  C   UNL d   1      -3.664  -0.281   1.576  0.00  0.00     0.117 A 
ATOM     20  F   UNL d   1      -4.997  -0.408   1.617  0.00  0.00    -0.206 F 
ATOM     21  C   UNL d   1      -2.912  -0.590   2.703  0.00  0.00     0.042 A 
ATOM     22  C   UNL d   1      -1.524  -0.447   2.669  0.00  0.00     0.004 A 
ATOM     23  C   UNL d   1      -0.894   0.007   1.505  0.00  0.00     0.017 A 
ENDBRANCH  14  17
ENDBRANCH   5  13
TORSDOF 2
