REMARK  4 active torsions:
REMARK  status: ('A' for Active; 'I' for Inactive)
REMARK    1  A    between atoms: C_2  and  S_1 
REMARK    2  A    between atoms: N_4  and  S_1 
REMARK    3  A    between atoms: C_9  and  N_4 
REMARK    4  A    between atoms: N_12  and  C_13 
ROOT
ATOM      1  S   UNL d   1      -0.187   0.025   0.236  0.00  0.00     0.265 S 
ATOM      2  O   UNL d   1      -0.668  -0.290  -1.094  0.00  0.00    -0.200 OA
ATOM      3  O   UNL d   1       0.830  -0.809   0.849  0.00  0.00    -0.200 OA
ENDROOT
BRANCH   1   4
ATOM      4  C   UNL d   1      -1.579  -0.011   1.298  0.00  0.00     0.110 A 
ATOM      5  C   UNL d   1      -2.748   0.734   1.076  0.00  0.00     0.108 A 
ATOM      6  C   UNL d   1      -3.921   0.583   1.938  0.00  0.00     0.086 A 
ATOM      7  N   UNL d   1      -3.041   1.658   0.150  0.00  0.00    -0.238 N 
ATOM      8  N   UNL d   1      -4.877   1.413   1.503  0.00  0.00    -0.239 N 
ATOM      9  C   UNL d   1      -3.961  -0.315   3.022  0.00  0.00     0.034 A 
ATOM     10  O   UNL d   1      -4.344   2.058   0.403  0.00  0.00    -0.156 OA
ATOM     11  HN  UNL d   1      -5.806   1.544   1.902  1.00  0.00     0.197 HD
ATOM     12  C   UNL d   1      -2.784  -1.061   3.211  0.00  0.00     0.004 A 
ATOM     13  C   UNL d   1      -1.642  -0.921   2.382  0.00  0.00     0.028 A 
ATOM     14  HN  UNL d   1      -2.429   1.999  -0.591  1.00  0.00     0.197 HD
ENDBRANCH   1   4
BRANCH   1  15
ATOM     15  N   UNL d   1       0.346   1.604   0.194  0.00  0.00    -0.278 N 
ATOM     16  H   UNL d   1       0.015   2.150  -0.600  0.00  0.00     0.179 HD
BRANCH  15  17
ATOM     17  C   UNL d   1       0.844   2.304   1.330  0.00  0.00     0.069 A 
ATOM     18  C   UNL d   1       2.193   2.234   1.770  0.00  0.00     0.057 A 
ATOM     19  C   UNL d   1       2.519   3.053   2.877  0.00  0.00     0.031 A 
ATOM     20  C   UNL d   1       1.594   3.894   3.503  0.00  0.00     0.002 A 
ATOM     21  C   UNL d   1       0.291   3.950   3.039  0.00  0.00     0.002 A 
ATOM     22  C   UNL d   1      -0.080   3.159   1.957  0.00  0.00     0.032 A 
BRANCH  18  23
ATOM     23  N   UNL d   1       3.224   1.530   1.156  0.00  0.00    -0.379 N 
ATOM     24  C   UNL d   1       3.228   1.184  -0.266  0.00  0.00     0.123 C 
ATOM     25  C   UNL d   1       4.604   1.495  -0.863  0.00  0.00     0.020 C 
ATOM     26  C   UNL d   1       5.736   0.844  -0.072  0.00  0.00     0.003 C 
ATOM     27  C   UNL d   1       5.636   1.210   1.406  0.00  0.00     0.020 C 
ATOM     28  C   UNL d   1       4.255   0.851   1.958  0.00  0.00     0.123 C 
ENDBRANCH  18  23
ENDBRANCH  15  17
ENDBRANCH   1  15
TORSDOF 4
