REMARK  2 active torsions:
REMARK  status: ('A' for Active; 'I' for Inactive)
REMARK    1  A    between atoms: C_5  and  C_4 
REMARK    2  A    between atoms: O_17  and  C_7 
ROOT
ATOM      1  C   UNL d   1      -2.367   0.460  -0.454  0.00  0.00     0.004 C 
ATOM      2  C   UNL d   1      -1.145   1.296  -0.300  0.00  0.00     0.190 C 
ATOM      3  C   UNL d   1       0.164   0.600  -0.154  0.00  0.00     0.033 A 
ATOM      4  C   UNL d   1      -3.331   0.945  -1.259  0.00  0.00     0.033 C 
ATOM      5  S   UNL d   1      -1.102  -1.913  -0.335  0.00  0.00    -0.124 SA
ATOM      6  C   UNL d   1       0.284  -0.800  -0.201  0.00  0.00     0.015 A 
ATOM      7  C   UNL d   1      -2.386  -0.818   0.315  0.00  0.00     0.122 C 
ATOM      8  C   UNL d   1       1.312   1.395  -0.016  0.00  0.00     0.040 A 
ATOM      9  O   UNL d   1      -1.210   2.520  -0.301  0.00  0.00    -0.287 OA
ATOM     10  C   UNL d   1       1.558  -1.382  -0.140  0.00  0.00     0.021 A 
ATOM     11  C   UNL d   1       2.569   0.797   0.059  0.00  0.00     0.035 A 
ATOM     12  C   UNL d   1       2.697  -0.587  -0.009  0.00  0.00     0.025 A 
ATOM     13 CL   UNL d   1       3.974   1.774   0.227  0.00  0.00    -0.084 Cl
ENDROOT
BRANCH   4  14
ATOM     14  C   UNL d   1      -4.518   0.203  -1.504  0.00  0.00     0.038 A 
ATOM     15  C   UNL d   1      -5.744   0.178  -0.852  0.00  0.00     0.085 A 
ATOM     16  C   UNL d   1      -6.592  -0.860  -1.339  0.00  0.00     0.045 A 
ATOM     17  C   UNL d   1      -6.032  -1.554  -2.385  0.00  0.00     0.053 A 
ATOM     18  S   UNL d   1      -4.502  -0.936  -2.807  0.00  0.00    -0.099 SA
BRANCH  15  19
ATOM     19  O   UNL d   1      -6.131   0.923   0.218  0.00  0.00    -0.355 OA
ATOM     20  C   UNL d   1      -5.632   2.255   0.257  0.00  0.00     0.210 C 
ENDBRANCH  15  19
ENDBRANCH   4  14
TORSDOF 2
