REMARK  5 active torsions:
REMARK  status: ('A' for Active; 'I' for Inactive)
REMARK    1  A    between atoms: N_2  and  C_1 
REMARK    2  A    between atoms: N_3  and  C_1 
REMARK    3  A    between atoms: C_4  and  N_2 
REMARK    4  A    between atoms: C_7  and  N_3 
REMARK    5  A    between atoms: S_9  and  C_8 
ROOT
ATOM      1  C   UNL d   1       1.133  -0.365  -0.222  0.00  0.00     0.176 C 
ATOM      2  S   UNL d   1       2.771  -0.511  -0.571  0.00  0.00    -0.041 SA
ENDROOT
BRANCH   1   3
ATOM      3  N   UNL d   1       0.518  -0.842   0.940  0.00  0.00    -0.333 N 
ATOM      4  H   UNL d   1      -0.356  -1.318   0.762  0.00  0.00     0.168 HD
BRANCH   3   5
ATOM      5  C   UNL d   1       1.117  -1.054   2.206  0.00  0.00     0.040 A 
ATOM      6  C   UNL d   1       0.706  -2.110   3.041  0.00  0.00    -0.035 A 
ATOM      7  C   UNL d   1      -0.287  -3.169   2.647  0.00  0.00     0.050 C 
ATOM      8  C   UNL d   1       1.271  -2.220   4.327  0.00  0.00     0.009 A 
ATOM      9  C   UNL d   1       2.230  -1.310   4.777  0.00  0.00     0.001 A 
ATOM     10  C   UNL d   1       2.629  -0.270   3.951  0.00  0.00     0.002 A 
ATOM     11  C   UNL d   1       2.069  -0.137   2.682  0.00  0.00     0.030 A 
ENDBRANCH   3   5
ENDBRANCH   1   3
BRANCH   1  12
ATOM     12  N   UNL d   1       0.173   0.247  -1.033  0.00  0.00    -0.333 N 
ATOM     13  H   UNL d   1      -0.496   0.790  -0.499  0.00  0.00     0.168 HD
BRANCH  12  14
ATOM     14  C   UNL d   1       0.291   0.585  -2.399  0.00  0.00     0.034 A 
ATOM     15  C   UNL d   1       0.916  -0.259  -3.316  0.00  0.00     0.031 A 
ATOM     16  C   UNL d   1       1.022   0.100  -4.664  0.00  0.00     0.021 A 
ATOM     17  C   UNL d   1       0.504   1.314  -5.118  0.00  0.00    -0.000 A 
ATOM     18  C   UNL d   1      -0.174   2.134  -4.207  0.00  0.00     0.021 A 
ATOM     19  C   UNL d   1      -0.294   1.767  -2.858  0.00  0.00     0.031 A 
BRANCH  17  20
ATOM     20  S   UNL d   1       0.613   1.847  -6.820  0.00  0.00    -0.134 SA
ATOM     21  C   UNL d   1       2.201   1.132  -7.338  0.00  0.00     0.095 C 
ENDBRANCH  17  20
ENDBRANCH  12  14
ENDBRANCH   1  12
TORSDOF 5
