REMARK  6 active torsions:
REMARK  status: ('A' for Active; 'I' for Inactive)
REMARK    1  A    between atoms: S_2  and  C_1 
REMARK    2  A    between atoms: C_14  and  S_2 
REMARK    3  A    between atoms: C_7  and  C_4 
REMARK       I    between atoms: N_10  and  C_7 
REMARK    4  A    between atoms: C_8  and  N_10 
REMARK    5  A    between atoms: C_9  and  C_13 
REMARK    6  A    between atoms: N_12  and  C_11 
ROOT
ATOM      1  C   UNL d   1       0.597  -2.343   0.153  0.00  0.00     0.263 C 
ATOM      2  N   UNL d   1      -0.500  -3.170   0.322  0.00  0.00    -0.320 N 
ATOM      3  O   UNL d   1       0.529  -1.250  -0.408  0.00  0.00    -0.267 OA
ATOM      4  H   UNL d   1      -0.416  -3.943   0.970  0.00  0.00     0.169 HD
ENDROOT
BRANCH   1   5
ATOM      5  C   UNL d   1       1.843  -2.819   0.772  0.00  0.00     0.080 A 
ATOM      6  C   UNL d   1       2.995  -2.077   1.056  0.00  0.00    -0.017 A 
ATOM      7  C   UNL d   1       4.044  -2.930   1.584  0.00  0.00     0.078 A 
ATOM      8  C   UNL d   1       3.085  -0.600   0.801  0.00  0.00     0.051 C 
ATOM      9  C   UNL d   1       3.622  -4.239   1.722  0.00  0.00     0.075 A 
ATOM     10  S   UNL d   1       2.016  -4.465   1.218  0.00  0.00    -0.094 SA
BRANCH   7  11
ATOM     11  S   UNL d   1       5.677  -2.482   1.996  0.00  0.00     0.207 S 
ATOM     12  O   UNL d   1       6.433  -3.723   1.910  0.00  0.00    -0.217 OA
ATOM     13  O   UNL d   1       6.008  -1.342   1.175  0.00  0.00    -0.217 OA
BRANCH  11  14
ATOM     14  C   UNL d   1       5.649  -1.985   3.703  0.00  0.00     0.064 A 
ATOM     15  C   UNL d   1       5.813  -2.961   4.699  0.00  0.00     0.025 A 
ATOM     16  C   UNL d   1       5.927  -2.573   6.036  0.00  0.00     0.025 A 
ATOM     17  C   UNL d   1       5.887  -1.219   6.371  0.00  0.00     0.034 A 
ATOM     18  C   UNL d   1       5.723  -0.250   5.381  0.00  0.00     0.025 A 
ATOM     19 CL   UNL d   1       6.071  -0.742   8.014  0.00  0.00    -0.084 Cl
ATOM     20  C   UNL d   1       5.610  -0.631   4.039  0.00  0.00     0.025 A 
ENDBRANCH  11  14
ENDBRANCH   7  11
ENDBRANCH   1   5
BRANCH   2  21
ATOM     21  C   UNL d   1      -1.818  -2.895  -0.100  0.00  0.00     0.062 A 
ATOM     22  C   UNL d   1      -2.905  -3.352   0.698  0.00  0.00     0.057 A 
ATOM     23  C   UNL d   1      -4.187  -3.168   0.145  0.00  0.00     0.032 A 
ATOM     24  C   UNL d   1      -4.389  -2.566  -1.107  0.00  0.00     0.018 A 
ATOM     25  C   UNL d   1      -3.310  -2.114  -1.867  0.00  0.00     0.050 A 
ATOM     26  C   UNL d   1      -2.025  -2.271  -1.344  0.00  0.00     0.048 A 
BRANCH  22  27
ATOM     27  N   UNL d   1      -2.703  -3.933   1.964  0.00  0.00    -0.379 N 
ATOM     28  C   UNL d   1      -3.795  -4.576   2.720  0.00  0.00     0.123 C 
ATOM     29  C   UNL d   1      -3.829  -3.846   4.059  0.00  0.00     0.021 C 
ATOM     30  C   UNL d   1      -2.371  -3.532   4.304  0.00  0.00     0.021 C 
ATOM     31  C   UNL d   1      -1.849  -3.183   2.915  0.00  0.00     0.123 C 
ENDBRANCH  22  27
BRANCH  25  32
ATOM     32  C   UNL d   1      -3.534  -1.512  -3.231  0.00  0.00     0.417 C 
ATOM     33  F   UNL d   1      -2.389  -1.138  -3.867  0.00  0.00    -0.166 F 
ATOM     34  F   UNL d   1      -4.160  -2.377  -4.079  0.00  0.00    -0.166 F 
ATOM     35  F   UNL d   1      -4.320  -0.401  -3.190  0.00  0.00    -0.166 F 
ENDBRANCH  25  32
ENDBRANCH   2  21
TORSDOF 6
