REMARK  5 active torsions:
REMARK  status: ('A' for Active; 'I' for Inactive)
REMARK    1  A    between atoms: C_9  and  C_14 
REMARK    2  A    between atoms: O_16  and  C_9 
REMARK    3  A    between atoms: O_13  and  C_12 
REMARK    4  A    between atoms: C_14  and  O_13 
REMARK    5  A    between atoms: C_19  and  O_16 
ROOT
ATOM      1  C   UNL d   1      -0.504  -0.808   0.130  0.00  0.00     0.086 A 
ATOM      2  C   UNL d   1      -0.748   0.562   0.115  0.00  0.00     0.043 A 
ATOM      3  C   UNL d   1       0.387   1.484   0.253  0.00  0.00     0.165 C 
ATOM      4  O   UNL d   1       0.739  -1.369   0.224  0.00  0.00    -0.340 OA
ATOM      5  C   UNL d   1       1.849  -0.502  -0.067  0.00  0.00     0.067 C 
ATOM      6  C   UNL d   1       1.704   0.859   0.617  0.00  0.00     0.121 C 
ATOM      7  C   UNL d   1      -1.576  -1.694   0.065  0.00  0.00     0.074 A 
ATOM      8  C   UNL d   1      -2.054   1.049   0.003  0.00  0.00     0.021 A 
ATOM      9  O   UNL d   1       0.236   2.698   0.148  0.00  0.00    -0.292 OA
ATOM     10  C   UNL d   1      -2.889  -1.220  -0.016  0.00  0.00     0.072 A 
ATOM     11  C   UNL d   1      -3.128   0.155  -0.062  0.00  0.00     0.038 A 
ATOM     12  C   UNL d   1       2.027  -0.380  -1.589  0.00  0.00     0.046 C 
ATOM     13  C   UNL d   1       3.086  -1.211   0.507  0.00  0.00     0.046 C 
ENDROOT
BRANCH  10  14
ATOM     14  O   UNL d   1      -3.839  -2.194  -0.100  0.00  0.00    -0.341 OA
BRANCH  14  15
ATOM     15  C   UNL d   1      -5.126  -1.878   0.416  0.00  0.00     0.286 C 
BRANCH  15  16
ATOM     16  C   UNL d   1      -6.049  -3.065   0.206  0.00  0.00     0.283 C 
ATOM     17  O   UNL d   1      -5.755  -4.120  -0.340  0.00  0.00    -0.263 OA
BRANCH  16  18
ATOM     18  O   UNL d   1      -7.306  -2.729   0.627  0.00  0.00    -0.320 OA
BRANCH  18  19
ATOM     19  C   UNL d   1      -8.361  -3.513   0.054  0.00  0.00     0.174 C 
ATOM     20  C   UNL d   1      -8.761  -2.854  -1.255  0.00  0.00     0.034 C 
ENDBRANCH  18  19
ENDBRANCH  16  18
ENDBRANCH  15  16
ENDBRANCH  14  15
ENDBRANCH  10  14
TORSDOF 5
