REMARK  6 active torsions:
REMARK  status: ('A' for Active; 'I' for Inactive)
REMARK    1  A    between atoms: C_2  and  N_1 
REMARK    2  A    between atoms: N_7  and  C_2 
REMARK    3  A    between atoms: N_6  and  C_15 
REMARK    4  A    between atoms: C_19  and  N_7 
REMARK    5  A    between atoms: C_15  and  C_16 
REMARK    6  A    between atoms: C_16  and  C_19 
ROOT
ATOM      1  C   UNL d   1      -3.063   0.007  -0.701  0.00  0.00     0.169 C 
ATOM      2  S   UNL d   1      -3.434  -1.391  -1.567  0.00  0.00    -0.041 SA
ENDROOT
BRANCH   1   3
ATOM      3  N   UNL d   1      -2.317   0.026   0.492  0.00  0.00    -0.358 N 
ATOM      4  C   UNL d   1      -2.151   1.212   1.340  0.00  0.00     0.130 C 
ATOM      5  C   UNL d   1      -0.687   1.703   1.389  0.00  0.00     0.004 C 
ATOM      6  C   UNL d   1       0.013   1.184   2.650  0.00  0.00     0.007 C 
ATOM      7  C   UNL d   1       0.134   1.279   0.157  0.00  0.00     0.007 C 
ATOM      8  C   UNL d   1       0.097  -0.342   2.682  0.00  0.00     0.007 C 
ATOM      9  C   UNL d   1      -0.151  -0.996   1.312  0.00  0.00     0.004 C 
ATOM     10  C   UNL d   1      -1.658  -1.182   1.028  0.00  0.00     0.130 C 
ATOM     11  C   UNL d   1       0.549  -0.203   0.198  0.00  0.00     0.007 C 
ENDBRANCH   1   3
BRANCH   1  12
ATOM     12  N   UNL d   1      -3.506   1.259  -1.115  0.00  0.00    -0.367 N 
ATOM     13  H   UNL d   1      -2.909   2.038  -0.896  0.00  0.00     0.161 HD
BRANCH  12  14
ATOM     14  C   UNL d   1      -4.481   1.480  -2.181  0.00  0.00     0.123 C 
BRANCH  14  15
ATOM     15  C   UNL d   1      -4.736   2.953  -2.495  0.00  0.00     0.050 C 
BRANCH  15  16
ATOM     16  C   UNL d   1      -5.943   3.041  -3.438  0.00  0.00     0.274 C 
BRANCH  16  17
ATOM     17  N   UNL d   1      -6.202   4.372  -4.005  0.00  0.00     0.092 N 
ATOM     18  C   UNL d   1      -6.651   5.374  -3.012  0.00  0.00     0.298 C 
ATOM     19  C   UNL d   1      -8.104   5.204  -2.527  0.00  0.00     0.198 C 
ATOM     20  O   UNL d   1      -9.031   5.114  -3.613  0.00  0.00    -0.388 OA
ATOM     21  C   UNL d   1      -8.660   4.059  -4.509  0.00  0.00     0.198 C 
ATOM     22  C   UNL d   1      -7.242   4.285  -5.061  0.00  0.00     0.298 C 
ENDBRANCH  16  17
ENDBRANCH  15  16
ENDBRANCH  14  15
ENDBRANCH  12  14
ENDBRANCH   1  12
TORSDOF 6
