REMARK  1 active torsions:
REMARK  status: ('A' for Active; 'I' for Inactive)
REMARK    1  A    between atoms: C_9  and  C_2 
ROOT
ATOM      1  N   UNL d   1       6.696  -5.098   0.209  0.00  0.00    -0.191 NA
ATOM      2  C   UNL d   1       5.789  -4.374   0.166  0.00  0.00     0.099 C 
ATOM      3  C   UNL d   1       2.433  -1.769   0.011  0.00  0.00    -0.008 A 
ATOM      4  C   UNL d   1       3.359  -1.682   1.062  0.00  0.00     0.015 A 
ATOM      5  C   UNL d   1       2.649  -2.716  -1.001  0.00  0.00     0.015 A 
ATOM      6  C   UNL d   1       4.663  -3.488   0.110  0.00  0.00     0.044 A 
ATOM      7  C   UNL d   1       3.756  -3.571  -0.951  0.00  0.00     0.023 A 
ATOM      8  C   UNL d   1       4.465  -2.538   1.114  0.00  0.00     0.023 A 
ENDROOT
BRANCH   3   9
ATOM      9  C   UNL d   1       1.282  -0.876  -0.006  0.00  0.00     0.063 A 
ATOM     10  N   UNL d   1       1.339   0.383   0.584  0.00  0.00    -0.292 N 
ATOM     11  N   UNL d   1       0.193   1.034   0.477  0.00  0.00    -0.061 NA
ATOM     12  HN  UNL d   1       2.168   0.760   1.045  1.00  0.00     0.183 HD
ATOM     13  S   UNL d   1      -0.984   0.150  -0.314  0.00  0.00    -0.010 SA
ATOM     14  C   UNL d   1       0.053  -1.196  -0.558  0.00  0.00     0.096 A 
ENDBRANCH   3   9
TORSDOF 1
