REMARK  7 active torsions:
REMARK  status: ('A' for Active; 'I' for Inactive)
REMARK    1  A    between atoms: C_6  and  C_1 
REMARK    2  A    between atoms: C_7  and  C_3 
REMARK    3  A    between atoms: C_11  and  C_3 
REMARK    4  A    between atoms: C_5  and  C_4 
REMARK    5  A    between atoms: O_18  and  C_7 
REMARK    6  A    between atoms: C_12  and  C_11 
REMARK    7  A    between atoms: O_19  and  C_12 
ROOT
ATOM      1  C   UNL d   1       0.316  -3.321  -0.972  0.00  0.00     0.026 C 
ATOM      2  C   UNL d   1       0.114  -2.544   0.113  0.00  0.00     0.033 C 
ENDROOT
BRANCH   2   3
ATOM      3  C   UNL d   1       0.307  -1.144   0.172  0.00  0.00     0.006 A 
ATOM      4  S   UNL d   1      -0.987  -0.091  -0.221  0.00  0.00    -0.089 SA
ATOM      5  C   UNL d   1      -0.019   1.313  -0.028  0.00  0.00     0.022 A 
ATOM      6  C   UNL d   1       1.253   0.975   0.394  0.00  0.00     0.021 A 
ATOM      7  C   UNL d   1       1.428  -0.432   0.552  0.00  0.00     0.020 A 
BRANCH   5   8
ATOM      8  C   UNL d   1      -0.539   2.631  -0.315  0.00  0.00     0.021 A 
ATOM      9  S   UNL d   1       0.478   3.873  -0.931  0.00  0.00    -0.101 SA
ATOM     10  C   UNL d   1      -0.817   4.981  -1.046  0.00  0.00     0.050 A 
ATOM     11  C   UNL d   1      -2.000   4.437  -0.604  0.00  0.00     0.008 A 
ATOM     12  C   UNL d   1      -1.840   3.084  -0.180  0.00  0.00     0.021 A 
ENDBRANCH   5   8
ENDBRANCH   2   3
BRANCH   1  13
ATOM     13  C   UNL d   1       0.804  -2.967  -2.336  0.00  0.00     0.172 C 
ATOM     14  O   UNL d   1       0.702  -3.775  -3.255  0.00  0.00    -0.646 OA
BRANCH  13  15
ATOM     15  O   UNL d   1       1.462  -1.811  -2.499  0.00  0.00    -0.773 OA
ATOM     16  H   UNL d   1       1.594  -1.270  -1.706  0.00  0.00     0.167 HD
ENDBRANCH  13  15
ENDBRANCH   1  13
BRANCH   1  17
ATOM     17  C   UNL d   1      -0.025  -4.795  -0.885  0.00  0.00     0.155 C 
BRANCH  17  18
ATOM     18  C   UNL d   1       1.252  -5.584  -0.707  0.00  0.00     0.143 C 
ATOM     19  O   UNL d   1       1.689  -5.913   0.385  0.00  0.00    -0.650 OA
BRANCH  18  20
ATOM     20  O   UNL d   1       1.908  -5.840  -1.862  0.00  0.00    -0.776 OA
ATOM     21  H   UNL d   1       1.495  -5.431  -2.660  0.00  0.00     0.167 HD
ENDBRANCH  18  20
ENDBRANCH  17  18
ENDBRANCH   1  17
TORSDOF 7
