REMARK  3 active torsions:
REMARK  status: ('A' for Active; 'I' for Inactive)
REMARK    1  A    between atoms: C_2  and  S_1 
REMARK    2  A    between atoms: C_9  and  S_1 
REMARK    3  A    between atoms: C_10  and  C_3 
ROOT
ATOM      1  C   UNL d   1       0.498  -0.758  -1.484  0.00  0.00     0.144 C 
ATOM      2  C   UNL d   1      -0.309  -1.846  -1.427  0.00  0.00     0.046 C 
ATOM      3  C   UNL d   1       1.003  -0.057  -0.320  0.00  0.00     0.112 C 
ATOM      4  N   UNL d   1       1.391   0.450   0.644  0.00  0.00    -0.191 NA
ENDROOT
BRANCH   1   5
ATOM      5  S   UNL d   1       0.903  -0.149  -3.077  0.00  0.00     0.216 S 
ATOM      6  O   UNL d   1       0.408   1.209  -3.208  0.00  0.00    -0.216 OA
ATOM      7  O   UNL d   1       0.566  -1.123  -4.110  0.00  0.00    -0.216 OA
BRANCH   5   8
ATOM      8  C   UNL d   1       2.688  -0.059  -3.077  0.00  0.00     0.065 A 
ATOM      9  C   UNL d   1       3.441  -1.174  -3.467  0.00  0.00     0.024 A 
ATOM     10  C   UNL d   1       4.829  -1.063  -3.575  0.00  0.00     0.002 A 
ATOM     11  C   UNL d   1       5.456   0.154  -3.305  0.00  0.00     0.000 A 
ATOM     12  C   UNL d   1       4.700   1.264  -2.924  0.00  0.00     0.002 A 
ATOM     13  C   UNL d   1       3.313   1.163  -2.813  0.00  0.00     0.024 A 
ENDBRANCH   5   8
ENDBRANCH   1   5
BRANCH   2  14
ATOM     14  C   UNL d   1      -0.693  -2.434  -0.142  0.00  0.00    -0.032 A 
ATOM     15  C   UNL d   1       0.112  -3.425   0.435  0.00  0.00     0.038 A 
ATOM     16  C   UNL d   1      -0.165  -3.885   1.725  0.00  0.00     0.073 A 
ATOM     17 CL   UNL d   1       0.851  -5.083   2.429  0.00  0.00    -0.081 Cl
ATOM     18  C   UNL d   1      -1.243  -3.362   2.435  0.00  0.00     0.138 A 
ATOM     19  C   UNL d   1      -2.057  -2.389   1.863  0.00  0.00     0.045 A 
ATOM     20  F   UNL d   1      -1.512  -3.777   3.681  0.00  0.00    -0.204 F 
ATOM     21  C   UNL d   1      -1.785  -1.924   0.573  0.00  0.00     0.014 A 
ENDBRANCH   2  14
TORSDOF 3
