REMARK  3 active torsions:
REMARK  status: ('A' for Active; 'I' for Inactive)
REMARK    1  A    between atoms: N_2  and  S_1 
REMARK    2  A    between atoms: C_5  and  S_1 
REMARK    3  A    between atoms: C_6  and  N_2 
ROOT
ATOM      1  S   UNL d   1       1.073   0.113   0.023  0.00  0.00     0.260 S 
ATOM      2  O   UNL d   1       2.479  -0.246  -0.045  0.00  0.00    -0.200 OA
ATOM      3  O   UNL d   1       0.309  -0.182   1.211  0.00  0.00    -0.200 OA
ENDROOT
BRANCH   1   4
ATOM      4  N   UNL d   1       0.308  -0.559  -1.372  0.00  0.00    -0.306 N 
ATOM      5  C   UNL d   1       0.975  -0.160  -2.639  0.00  0.00     0.163 C 
BRANCH   4   6
ATOM      6  C   UNL d   1      -1.197  -0.653  -1.434  0.00  0.00     0.095 C 
ATOM      7  C   UNL d   1      -1.778  -1.607  -0.368  0.00  0.00     0.026 C 
ATOM      8  C   UNL d   1      -1.353  -3.060  -0.577  0.00  0.00     0.002 C 
ATOM      9  C   UNL d   1      -1.798  -3.571  -1.942  0.00  0.00     0.000 C 
ATOM     10  C   UNL d   1      -1.327  -2.652  -3.062  0.00  0.00     0.002 C 
ATOM     11  C   UNL d   1      -1.702  -1.186  -2.802  0.00  0.00     0.026 C 
ENDBRANCH   4   6
ENDBRANCH   1   4
BRANCH   1  12
ATOM     12  C   UNL d   1       1.003   1.883  -0.223  0.00  0.00     0.079 A 
ATOM     13  C   UNL d   1       0.072   2.657   0.477  0.00  0.00     0.025 A 
ATOM     14  C   UNL d   1       0.111   4.049   0.360  0.00  0.00     0.002 A 
ATOM     15  C   UNL d   1       1.069   4.664  -0.449  0.00  0.00     0.000 A 
ATOM     16  C   UNL d   1       2.010   3.892  -1.129  0.00  0.00     0.002 A 
ATOM     17  C   UNL d   1       1.991   2.504  -1.000  0.00  0.00     0.025 A 
ENDBRANCH   1  12
TORSDOF 3
