REMARK  6 active torsions:
REMARK  status: ('A' for Active; 'I' for Inactive)
REMARK    1  A    between atoms: C_7  and  C_1 
REMARK    2  A    between atoms: N_9  and  C_2 
REMARK    3  A    between atoms: C_8  and  N_3 
REMARK    4  A    between atoms: O_11  and  C_7 
REMARK    5  A    between atoms: C_12  and  C_8 
REMARK    6  A    between atoms: C_13  and  O_11 
ROOT
ATOM      1  C   UNL d   1      -0.129  -1.397  -0.030  0.00  0.00     0.166 A 
ATOM      2  C   UNL d   1       1.167  -0.947   0.161  0.00  0.00     0.149 A 
ATOM      3  N   UNL d   1       1.048   0.420   0.065  0.00  0.00    -0.254 N 
ATOM      4  N   UNL d   1      -0.234   0.787  -0.146  0.00  0.00    -0.018 NA
ATOM      5  N   UNL d   1      -0.964  -0.315  -0.197  0.00  0.00    -0.275 N 
ATOM      6  HN  UNL d   1      -1.974  -0.357  -0.337  1.00  0.00     0.184 HD
ENDROOT
BRANCH   3   7
ATOM      7  C   UNL d   1       2.095   1.424   0.042  0.00  0.00     0.187 C 
BRANCH   7   8
ATOM      8  C   UNL d   1       2.349   1.973   1.422  0.00  0.00    -0.039 A 
ATOM      9  C   UNL d   1       3.381   1.460   2.221  0.00  0.00     0.009 A 
ATOM     10  C   UNL d   1       3.566   1.929   3.522  0.00  0.00     0.001 A 
ATOM     11  C   UNL d   1       2.732   2.922   4.031  0.00  0.00     0.000 A 
ATOM     12  C   UNL d   1       1.712   3.449   3.242  0.00  0.00     0.001 A 
ATOM     13  C   UNL d   1       1.519   2.976   1.944  0.00  0.00     0.009 A 
ENDBRANCH   7   8
ENDBRANCH   3   7
BRANCH   2  14
ATOM     14  N   UNL d   1       2.338  -1.604   0.349  0.00  0.00    -0.382 N 
ATOM     15  H   UNL d   1       2.301  -2.610   0.538  0.00  0.00     0.157 HD
ATOM     16  H   UNL d   1       3.147  -1.164   0.778  0.00  0.00     0.157 HD
ENDBRANCH   2  14
BRANCH   1  17
ATOM     17  C   UNL d   1      -0.573  -2.774  -0.127  0.00  0.00     0.315 C 
ATOM     18  O   UNL d   1       0.170  -3.740   0.010  0.00  0.00    -0.257 OA
BRANCH  17  19
ATOM     19  O   UNL d   1      -1.889  -2.859  -0.483  0.00  0.00    -0.317 OA
BRANCH  19  20
ATOM     20  C   UNL d   1      -2.293  -4.106  -1.056  0.00  0.00     0.175 C 
ATOM     21  C   UNL d   1      -2.010  -4.055  -2.547  0.00  0.00     0.034 C 
ENDBRANCH  19  20
ENDBRANCH  17  19
ENDBRANCH   1  17
TORSDOF 6
