REMARK  3 active torsions:
REMARK  status: ('A' for Active; 'I' for Inactive)
REMARK    1  A    between atoms: N_2  and  S_1 
REMARK    2  A    between atoms: C_3  and  S_1 
REMARK    3  A    between atoms: C_4  and  N_2 
ROOT
ATOM      1  S   UNL d   1       0.877  -0.033   0.076  0.00  0.00     0.243 S 
ATOM      2  O   UNL d   1       0.096   0.567   1.140  0.00  0.00    -0.206 OA
ATOM      3  O   UNL d   1       2.315   0.090   0.054  0.00  0.00    -0.206 OA
ENDROOT
BRANCH   1   4
ATOM      4  N   UNL d   1       0.292   0.589  -1.402  0.00  0.00    -0.202 NA
ATOM      5  H   UNL d   1       0.275  -0.157  -2.101  0.00  0.00     0.141 HD
BRANCH   4   6
ATOM      6  C   UNL d   1      -1.062   1.220  -1.355  0.00  0.00     0.163 C 
ATOM      7  C   UNL d   1      -2.148   0.155  -1.215  0.00  0.00     0.236 C 
ATOM      8  N   UNL d   1      -3.411   0.565  -0.916  0.00  0.00    -0.360 N 
ATOM      9  O   UNL d   1      -1.936  -1.036  -1.431  0.00  0.00    -0.272 OA
ATOM     10  C   UNL d   1      -3.870   1.933  -0.868  0.00  0.00     0.122 C 
ATOM     11  H   UNL d   1      -4.090  -0.188  -0.869  0.00  0.00     0.162 HD
ATOM     12  C   UNL d   1      -3.744   2.625  -2.222  0.00  0.00     0.020 C 
ATOM     13  C   UNL d   1      -2.325   3.086  -2.561  0.00  0.00     0.004 C 
ATOM     14  C   UNL d   1      -1.284   1.971  -2.674  0.00  0.00     0.030 C 
ENDBRANCH   4   6
ENDBRANCH   1   4
BRANCH   1  15
ATOM     15  C   UNL d   1       0.506  -1.777   0.007  0.00  0.00     0.085 A 
ATOM     16  C   UNL d   1       1.027  -2.613  -1.025  0.00  0.00    -0.003 A 
ATOM     17  C   UNL d   1       0.643  -3.978  -1.009  0.00  0.00    -0.024 A 
ATOM     18  C   UNL d   1       1.889  -2.201  -2.078  0.00  0.00     0.014 A 
ATOM     19  C   UNL d   1       1.098  -4.854  -2.006  0.00  0.00     0.012 A 
ATOM     20  C   UNL d   1      -0.202  -4.465   0.003  0.00  0.00     0.012 A 
ATOM     21  C   UNL d   1       1.919  -4.410  -3.040  0.00  0.00     0.001 A 
ATOM     22  C   UNL d   1       2.314  -3.081  -3.076  0.00  0.00     0.001 A 
ATOM     23  C   UNL d   1      -0.688  -3.631   1.003  0.00  0.00     0.002 A 
ATOM     24  C   UNL d   1      -0.335  -2.289   1.012  0.00  0.00     0.026 A 
ENDBRANCH   1  15
TORSDOF 3
