REMARK  3 active torsions:
REMARK  status: ('A' for Active; 'I' for Inactive)
REMARK    1  A    between atoms: C_15  and  C_3 
REMARK    2  A    between atoms: C_6  and  S_14 
REMARK    3  A    between atoms: S_14  and  C_15 
ROOT
ATOM      1  C   UNL d   1       2.767   4.507   0.041  0.00  0.00     0.007 A 
ATOM      2  C   UNL d   1       3.256   7.254  -0.337  0.00  0.00     0.040 A 
ATOM      3  C   UNL d   1       1.851   5.477   0.487  0.00  0.00     0.027 A 
ATOM      4  C   UNL d   1       3.932   4.924  -0.632  0.00  0.00    -0.044 A 
ATOM      5  C   UNL d   1       4.169   6.303  -0.793  0.00  0.00     0.032 A 
ATOM      6  C   UNL d   1       2.072   6.853   0.291  0.00  0.00    -0.039 A 
ATOM      7 CL   UNL d   1       3.643   8.922  -0.564  0.00  0.00    -0.084 Cl
ATOM      8  C   UNL d   1       4.979   3.988  -1.175  0.00  0.00     0.049 C 
ATOM      9  C   UNL d   1       1.053   7.850   0.766  0.00  0.00     0.050 C 
ENDROOT
BRANCH   1  10
ATOM     10  S   UNL d   1       2.487   2.789   0.472  0.00  0.00    -0.122 SA
BRANCH  10  11
ATOM     11  C   UNL d   1       0.872   2.471  -0.327  0.00  0.00     0.157 C 
BRANCH  11  12
ATOM     12  C   UNL d   1       0.445   1.060  -0.111  0.00  0.00     0.113 A 
ATOM     13  N   UNL d   1       0.775   0.041  -0.977  0.00  0.00    -0.333 N 
ATOM     14  C   UNL d   1       0.210  -0.994  -0.402  0.00  0.00     0.260 A 
ATOM     15  HN  UNL d   1       1.317   0.081  -1.840  1.00  0.00     0.168 HD
ATOM     16  O   UNL d   1      -0.462  -0.693   0.737  0.00  0.00    -0.232 OA
ATOM     17  N   UNL d   1      -0.316   0.682   0.929  0.00  0.00    -0.247 N 
ATOM     18  HN  UNL d   1      -0.696   1.260   1.679  1.00  0.00     0.196 HD
ENDBRANCH  11  12
ENDBRANCH  10  11
ENDBRANCH   1  10
TORSDOF 3
