REMARK  5 active torsions:
REMARK  status: ('A' for Active; 'I' for Inactive)
REMARK    1  A    between atoms: C_2  and  C_1 
REMARK    2  A    between atoms: N_9  and  C_3 
REMARK       I    between atoms: C_6  and  N_10 
REMARK    3  A    between atoms: O_17  and  C_6 
REMARK    4  A    between atoms: N_10  and  N_9 
REMARK    5  A    between atoms: C_18  and  O_17 
ROOT
ATOM      1  C   UNL d   1      -0.225  -0.309   1.403  0.00  0.00     0.065 A 
ATOM      2  C   UNL d   1      -0.316  -1.169   4.035  0.00  0.00     0.120 A 
ATOM      3  N   UNL d   1      -1.294  -0.340   3.575  0.00  0.00    -0.353 N 
ATOM      4  HN  UNL d   1      -2.044  -0.021   4.188  1.00  0.00     0.166 HD
ATOM      5  C   UNL d   1       0.737  -1.584   3.210  0.00  0.00     0.074 A 
ATOM      6  C   UNL d   1       0.788  -1.138   1.892  0.00  0.00     0.044 A 
ATOM      7  C   UNL d   1      -1.241   0.047   2.278  0.00  0.00     0.105 A 
ATOM      8 CL   UNL d   1       2.007  -2.601   3.788  0.00  0.00    -0.081 Cl
ENDROOT
BRANCH   2   9
ATOM      9  N   UNL d   1      -0.324  -1.556   5.395  0.00  0.00    -0.184 NA
ATOM     10  H   UNL d   1      -0.321  -2.570   5.502  0.00  0.00     0.154 HD
BRANCH   9  11
ATOM     11  N   UNL d   1      -1.320  -0.925   6.151  0.00  0.00    -0.261 N 
ATOM     12  C   UNL d   1      -1.298  -1.122   7.510  0.00  0.00     0.375 C 
ATOM     13  O   UNL d   1      -0.791  -2.080   8.071  0.00  0.00    -0.237 OA
ATOM     14  H   UNL d   1      -1.664  -0.043   5.784  0.00  0.00     0.186 HD
BRANCH  12  15
ATOM     15  O   UNL d   1      -1.952  -0.101   8.116  0.00  0.00    -0.303 OA
BRANCH  15  16
ATOM     16  C   UNL d   1      -2.202  -0.280   9.515  0.00  0.00     0.176 C 
ATOM     17  C   UNL d   1      -3.551  -0.957   9.664  0.00  0.00     0.034 C 
ENDBRANCH  15  16
ENDBRANCH  12  15
ENDBRANCH   9  11
ENDBRANCH   2   9
BRANCH   1  18
ATOM     18  C   UNL d   1      -0.243   0.191  -0.008  0.00  0.00     0.418 C 
ATOM     19  F   UNL d   1       0.850  -0.186  -0.727  0.00  0.00    -0.166 F 
ATOM     20  F   UNL d   1      -0.287   1.549  -0.079  0.00  0.00    -0.166 F 
ATOM     21  F   UNL d   1      -1.322  -0.258  -0.703  0.00  0.00    -0.166 F 
ENDBRANCH   1  18
TORSDOF 5
