REMARK  6 active torsions:
REMARK  status: ('A' for Active; 'I' for Inactive)
REMARK    1  A    between atoms: N_6  and  C_1 
REMARK       I    between atoms: C_8  and  N_7 
REMARK    2  A    between atoms: C_21  and  C_8 
REMARK    3  A    between atoms: C_9  and  C_23 
REMARK    4  A    between atoms: O_18  and  C_9 
REMARK    5  A    between atoms: C_22  and  C_21 
REMARK    6  A    between atoms: C_23  and  C_22 
ROOT
ATOM      1  N   UNL d   1      -0.076   2.605   1.039  0.00  0.00     0.105 N 
ATOM      2  N   UNL d   1      -2.254   2.241   3.024  0.00  0.00    -0.349 N 
ATOM      3  C   UNL d   1      -3.388   1.972   3.789  0.00  0.00     0.219 C 
ATOM      4  C   UNL d   1       0.124   1.931   2.332  0.00  0.00     0.293 C 
ATOM      5  C   UNL d   1      -1.185   3.561   1.140  0.00  0.00     0.293 C 
ATOM      6  C   UNL d   1      -1.133   1.304   2.953  0.00  0.00     0.156 C 
ATOM      7  C   UNL d   1      -2.469   3.080   1.846  0.00  0.00     0.156 C 
ATOM      8  O   UNL d   1      -4.474   2.493   3.546  0.00  0.00    -0.273 OA
ENDROOT
BRANCH   1   9
ATOM      9  C   UNL d   1      -0.043   1.765  -0.176  0.00  0.00     0.290 C 
ATOM     10  C   UNL d   1      -1.088   0.659  -0.284  0.00  0.00    -0.009 C 
ATOM     11  C   UNL d   1      -0.477  -0.606  -0.147  0.00  0.00    -0.017 C 
ATOM     12  C   UNL d   1      -2.454   0.760  -0.502  0.00  0.00     0.010 C 
ATOM     13  C   UNL d   1      -1.249  -1.752  -0.032  0.00  0.00     0.013 C 
ATOM     14  C   UNL d   1       0.958  -0.437  -0.161  0.00  0.00    -0.017 A 
ATOM     15  C   UNL d   1      -2.640  -1.628  -0.102  0.00  0.00     0.001 C 
ATOM     16  C   UNL d   1      -3.235  -0.386  -0.368  0.00  0.00     0.001 C 
ATOM     17  C   UNL d   1       1.253   0.945  -0.229  0.00  0.00    -0.009 A 
ATOM     18  C   UNL d   1       1.980  -1.370  -0.149  0.00  0.00     0.013 A 
ATOM     19  C   UNL d   1       2.562   1.405  -0.269  0.00  0.00     0.010 A 
ATOM     20  C   UNL d   1       3.590   0.460  -0.249  0.00  0.00     0.001 A 
ATOM     21  C   UNL d   1       3.302  -0.913  -0.192  0.00  0.00     0.001 A 
ENDBRANCH   1   9
BRANCH   3  22
ATOM     22  C   UNL d   1      -3.207   1.046   4.981  0.00  0.00     0.103 C 
BRANCH  22  23
ATOM     23  C   UNL d   1      -4.516   0.863   5.747  0.00  0.00     0.019 C 
BRANCH  23  24
ATOM     24  C   UNL d   1      -4.328   0.006   6.990  0.00  0.00     0.110 C 
BRANCH  24  25
ATOM     25  C   UNL d   1      -5.640  -0.166   7.707  0.00  0.00     0.139 C 
ATOM     26  O   UNL d   1      -6.410  -1.095   7.507  0.00  0.00    -0.650 OA
BRANCH  25  27
ATOM     27  O   UNL d   1      -5.909   0.825   8.585  0.00  0.00    -0.776 OA
ATOM     28  H   UNL d   1      -5.227   1.520   8.622  0.00  0.00     0.167 HD
ENDBRANCH  25  27
ENDBRANCH  24  25
ENDBRANCH  23  24
ENDBRANCH  22  23
ENDBRANCH   3  22
TORSDOF 6
