REMARK  5 active torsions:
REMARK  status: ('A' for Active; 'I' for Inactive)
REMARK       I    between atoms: C_9  and  N_1 
REMARK    1  A    between atoms: S_10  and  C_2 
REMARK    2  A    between atoms: C_8  and  C_3 
REMARK    3  A    between atoms: C_11  and  C_7 
REMARK    4  A    between atoms: O_15  and  C_8 
REMARK    5  A    between atoms: C_20  and  O_15 
ROOT
ATOM      1  N   UNL d   1       1.425  -0.338   0.150  0.00  0.00    -0.266 N 
ATOM      2  C   UNL d   1       0.888   0.944  -0.025  0.00  0.00     0.150 C 
ATOM      3  C   UNL d   1      -0.786  -1.232  -0.161  0.00  0.00     0.067 C 
ATOM      4  C   UNL d   1       0.557  -1.444  -0.100  0.00  0.00     0.032 C 
ATOM      5  N   UNL d   1      -0.365   1.212  -0.056  0.00  0.00    -0.357 N 
ATOM      6  HN  UNL d   1      -0.672   2.181  -0.142  1.00  0.00     0.162 HD
ATOM      7  C   UNL d   1      -1.357   0.147   0.030  0.00  0.00     0.158 C 
ATOM      8  C   UNL d   1       2.802  -0.559   0.391  0.00  0.00     0.226 C 
ATOM      9  O   UNL d   1       3.500  -1.401  -0.177  0.00  0.00    -0.273 OA
ATOM     10  C   UNL d   1       1.204  -2.811  -0.251  0.00  0.00     0.070 C 
ATOM     11  C   UNL d   1       3.446   0.276   1.483  0.00  0.00     0.118 C 
ENDROOT
BRANCH   7  12
ATOM     12  C   UNL d   1      -2.468   0.543  -0.945  0.00  0.00    -0.031 A 
ATOM     13  C   UNL d   1      -3.727   0.944  -0.466  0.00  0.00     0.009 A 
ATOM     14  C   UNL d   1      -4.722   1.365  -1.349  0.00  0.00     0.001 A 
ATOM     15  C   UNL d   1      -4.468   1.405  -2.718  0.00  0.00     0.000 A 
ATOM     16  C   UNL d   1      -3.224   1.014  -3.208  0.00  0.00     0.001 A 
ATOM     17  C   UNL d   1      -2.228   0.587  -2.328  0.00  0.00     0.009 A 
ENDBRANCH   7  12
BRANCH   3  18
ATOM     18  C   UNL d   1      -1.767  -2.336  -0.421  0.00  0.00     0.293 C 
ATOM     19  O   UNL d   1      -1.520  -3.325  -1.093  0.00  0.00    -0.259 OA
BRANCH  18  20
ATOM     20  O   UNL d   1      -2.984  -2.071   0.124  0.00  0.00    -0.318 OA
BRANCH  20  21
ATOM     21  C   UNL d   1      -4.078  -2.843  -0.412  0.00  0.00     0.174 C 
ATOM     22  C   UNL d   1      -4.732  -3.665   0.679  0.00  0.00     0.034 C 
ENDBRANCH  20  21
ENDBRANCH  18  20
ENDBRANCH   3  18
BRANCH   2  23
ATOM     23  S   UNL d   1       1.986   2.292  -0.341  0.00  0.00    -0.098 SA
ATOM     24  C   UNL d   1       0.865   3.685  -0.592  0.00  0.00     0.099 C 
ENDBRANCH   2  23
TORSDOF 5
