REMARK  3 active torsions:
REMARK  status: ('A' for Active; 'I' for Inactive)
REMARK    1  A    between atoms: C_3  and  O_10 
REMARK    2  A    between atoms: C_7  and  C_3 
REMARK    3  A    between atoms: O_10  and  N_4 
ROOT
ATOM      1  C   UNL d   1      -2.494  -0.720  -0.013  0.00  0.00     0.087 A 
ATOM      2  C   UNL d   1      -1.934   0.689   0.010  0.00  0.00     0.207 A 
ATOM      3  N   UNL d   1      -3.758  -1.006  -0.025  0.00  0.00    -0.257 N 
ATOM      4  HN  UNL d   1      -4.523  -0.331  -0.015  1.00  0.00     0.195 HD
ATOM      5  C   UNL d   1      -0.469   0.545   0.008  0.00  0.00     0.023 A 
ATOM      6  C   UNL d   1      -0.140  -0.815  -0.006  0.00  0.00    -0.038 A 
ATOM      7  C   UNL d   1      -1.343  -1.705  -0.022  0.00  0.00     0.102 A 
ATOM      8  O   UNL d   1      -2.567   1.719   0.024  0.00  0.00    -0.285 OA
ATOM      9  C   UNL d   1       0.494   1.537   0.017  0.00  0.00     0.016 A 
ATOM     10  C   UNL d   1       1.187  -1.214  -0.009  0.00  0.00     0.008 A 
ATOM     11  C   UNL d   1       1.833   1.137   0.012  0.00  0.00     0.001 A 
ATOM     12  C   UNL d   1       2.175  -0.227   0.001  0.00  0.00     0.001 A 
ENDROOT
BRANCH   3  13
ATOM     13  O   UNL d   1      -3.894  -2.410  -0.056  0.00  0.00    -0.194 OA
BRANCH  13  14
ATOM     14  C   UNL d   1      -5.205  -2.823  -0.072  0.00  0.00     0.322 C 
ATOM     15  O   UNL d   1      -6.191  -2.094  -0.043  0.00  0.00    -0.257 OA
BRANCH  14  16
ATOM     16  C   UNL d   1      -5.263  -4.281  -0.128  0.00  0.00     0.082 A 
ATOM     17  S   UNL d   1      -3.849  -5.260  -0.170  0.00  0.00    -0.096 SA
ATOM     18  C   UNL d   1      -4.757  -6.705  -0.219  0.00  0.00     0.050 A 
ATOM     19  C   UNL d   1      -6.111  -6.463  -0.207  0.00  0.00     0.009 A 
ATOM     20  C   UNL d   1      -6.402  -5.067  -0.156  0.00  0.00     0.026 A 
ENDBRANCH  14  16
ENDBRANCH  13  14
ENDBRANCH   3  13
TORSDOF 3
