REMARK  3 active torsions:
REMARK  status: ('A' for Active; 'I' for Inactive)
REMARK    1  A    between atoms: N_12  and  C_4 
REMARK    2  A    between atoms: N_10  and  N_12 
REMARK    3  A    between atoms: C_15  and  C_14 
ROOT
ATOM      1  N   UNL d   1       1.615   0.930  -0.519  0.00  0.00    -0.333 N 
ATOM      2  HN  UNL d   1       1.877   1.811  -0.961  1.00  0.00     0.168 HD
ATOM      3  C   UNL d   1       0.308   0.497  -0.345  0.00  0.00     0.073 A 
ATOM      4  C   UNL d   1       2.473   0.057  -0.040  0.00  0.00     0.164 A 
ATOM      5  C   UNL d   1       0.186  -0.738   0.297  0.00  0.00     0.038 A 
ATOM      6  S   UNL d   1       1.755  -1.360   0.629  0.00  0.00    -0.050 SA
ATOM      7  C   UNL d   1      -0.887   1.143  -0.730  0.00  0.00     0.063 A 
ATOM      8  C   UNL d   1      -1.066  -1.316   0.580  0.00  0.00     0.045 A 
ATOM      9  C   UNL d   1      -2.141   0.591  -0.475  0.00  0.00     0.050 A 
ATOM     10  C   UNL d   1      -2.217  -0.627   0.183  0.00  0.00     0.037 A 
ATOM     11 CL   UNL d   1      -0.721   2.642  -1.537  0.00  0.00    -0.082 Cl
ATOM     12 CL   UNL d   1      -3.760  -1.317   0.513  0.00  0.00    -0.084 Cl
ENDROOT
BRANCH   4  13
ATOM     13  N   UNL d   1       3.828   0.181  -0.031  0.00  0.00    -0.280 N 
ATOM     14  H   UNL d   1       4.340  -0.592   0.384  0.00  0.00     0.189 HD
BRANCH  13  15
ATOM     15  N   UNL d   1       4.444   1.391  -0.156  0.00  0.00    -0.313 N 
ATOM     16  C   UNL d   1       5.730   1.383  -0.026  0.00  0.00     0.088 C 
ATOM     17  HN  UNL d   1       3.923   2.248  -0.340  1.00  0.00     0.185 HD
BRANCH  16  18
ATOM     18  C   UNL d   1       6.541   2.673  -0.032  0.00  0.00    -0.018 C 
ATOM     19  C   UNL d   1       6.805   3.051   1.431  0.00  0.00     0.020 C 
ATOM     20  C   UNL d   1       7.870   2.408  -0.749  0.00  0.00     0.020 C 
ATOM     21  C   UNL d   1       5.791   3.807  -0.739  0.00  0.00     0.020 C 
ENDBRANCH  16  18
ENDBRANCH  13  15
ENDBRANCH   4  13
TORSDOF 3
