REMARK  2 active torsions:
REMARK  status: ('A' for Active; 'I' for Inactive)
REMARK    1  A    between atoms: C_8  and  N_1 
REMARK    2  A    between atoms: C_3  and  C_10 
ROOT
ATOM      1  C   UNL d   1       0.189  -1.089   0.352  0.00  0.00     0.102 A 
ATOM      2  C   UNL d   1      -1.254  -3.326   1.244  0.00  0.00    -0.008 A 
ATOM      3  C   UNL d   1       0.638  -1.808   1.467  0.00  0.00     0.037 A 
ATOM      4  C   UNL d   1      -0.969  -1.484  -0.328  0.00  0.00     0.037 A 
ATOM      5  C   UNL d   1      -0.084  -2.922   1.907  0.00  0.00     0.016 A 
ATOM      6  C   UNL d   1      -1.682  -2.602   0.119  0.00  0.00     0.016 A 
ENDROOT
BRANCH   2   7
ATOM      7  C   UNL d   1      -2.017  -4.486   1.687  0.00  0.00     0.063 A 
ATOM      8  N   UNL d   1      -2.738  -5.260   0.784  0.00  0.00    -0.292 N 
ATOM      9  N   UNL d   1      -3.353  -6.269   1.378  0.00  0.00    -0.061 NA
ATOM     10  HN  UNL d   1      -2.787  -5.071  -0.217  1.00  0.00     0.183 HD
ATOM     11  S   UNL d   1      -3.101  -6.302   3.030  0.00  0.00    -0.010 SA
ATOM     12  C   UNL d   1      -2.110  -4.902   3.005  0.00  0.00     0.096 A 
ENDBRANCH   2   7
BRANCH   1  13
ATOM     13  N   UNL d   1       0.938   0.090  -0.102  0.00  0.00    -0.116 N 
ATOM     14  O   UNL d   1       1.937   0.423   0.550  0.00  0.00    -0.532 OA
ATOM     15  O   UNL d   1       0.522   0.685  -1.107  0.00  0.00    -0.532 OA
ENDBRANCH   1  13
TORSDOF 2
