REMARK  4 active torsions:
REMARK  status: ('A' for Active; 'I' for Inactive)
REMARK    1  A    between atoms: S_8  and  C_2 
REMARK    2  A    between atoms: N_9  and  C_3 
REMARK    3  A    between atoms: C_10  and  S_8 
REMARK    4  A    between atoms: C_11  and  C_10 
ROOT
ATOM      1  S   UNL d   1       1.070   1.635   2.832  0.00  0.00    -0.027 SA
ATOM      2  C   UNL d   1       2.081   1.272   1.496  0.00  0.00     0.130 A 
ATOM      3  C   UNL d   1      -0.156   2.043   1.701  0.00  0.00     0.159 A 
ATOM      4  N   UNL d   1       1.511   1.441   0.324  0.00  0.00    -0.286 N 
ATOM      5  HN  UNL d   1       1.973   1.263  -0.568  1.00  0.00     0.188 HD
ATOM      6  N   UNL d   1       0.207   1.891   0.447  0.00  0.00    -0.279 N 
ATOM      7  HN  UNL d   1      -0.403   2.083  -0.347  1.00  0.00     0.189 HD
ENDROOT
BRANCH   2   8
ATOM      8  S   UNL d   1       3.724   0.718   1.703  0.00  0.00    -0.099 SA
BRANCH   8   9
ATOM      9  C   UNL d   1       4.273   0.568  -0.022  0.00  0.00     0.120 C 
BRANCH   9  10
ATOM     10  C   UNL d   1       5.717   0.128  -0.084  0.00  0.00    -0.049 A 
ATOM     11  C   UNL d   1       6.050  -1.234  -0.088  0.00  0.00     0.008 A 
ATOM     12  C   UNL d   1       7.388  -1.639  -0.100  0.00  0.00     0.007 A 
ATOM     13  C   UNL d   1       8.418  -0.692  -0.103  0.00  0.00    -0.062 A 
ATOM     14  C   UNL d   1       8.089   0.668  -0.096  0.00  0.00     0.007 A 
ATOM     15  C   UNL d   1       9.849  -1.141  -0.105  0.00  0.00     0.048 C 
ATOM     16  C   UNL d   1       6.752   1.074  -0.085  0.00  0.00     0.008 A 
ENDBRANCH   9  10
ENDBRANCH   8   9
ENDBRANCH   2   8
BRANCH   3  17
ATOM     17  N   UNL d   1      -1.369   2.462   2.106  0.00  0.00    -0.379 N 
ATOM     18  H   UNL d   1      -1.666   2.249   3.051  0.00  0.00     0.158 HD
ATOM     19  H   UNL d   1      -2.112   2.438   1.415  0.00  0.00     0.158 HD
ENDBRANCH   3  17
TORSDOF 4
