REMARK  5 active torsions:
REMARK  status: ('A' for Active; 'I' for Inactive)
REMARK    1  A    between atoms: C_9  and  C_1 
REMARK    2  A    between atoms: N_16  and  C_3 
REMARK    3  A    between atoms: C_12  and  C_6 
REMARK       I    between atoms: N_20  and  C_9 
REMARK    4  A    between atoms: C_13  and  C_10 
REMARK    5  A    between atoms: N_25  and  N_20 
ROOT
ATOM      1  C   UNL d   1       2.342   0.116  -0.034  0.00  0.00     0.173 A 
ATOM      2  C   UNL d   1       0.225   0.922   0.023  0.00  0.00     0.058 A 
ATOM      3  C   UNL d   1       1.603   1.282  -0.025  0.00  0.00     0.081 A 
ATOM      4  C   UNL d   1       0.219  -0.473  -0.030  0.00  0.00     0.162 A 
ATOM      5  O   UNL d   1       1.493  -0.958  -0.032  0.00  0.00    -0.285 OA
ATOM      6  C   UNL d   1      -1.034   1.557   0.065  0.00  0.00     0.017 A 
ATOM      7  N   UNL d   1      -0.849  -1.291  -0.094  0.00  0.00    -0.334 N 
ATOM      8  HN  UNL d   1      -0.771  -2.307  -0.131  1.00  0.00     0.168 HD
ATOM      9  C   UNL d   1      -2.033  -0.640  -0.103  0.00  0.00     0.069 A 
ATOM     10  C   UNL d   1      -2.170   0.741  -0.008  0.00  0.00     0.048 A 
ENDROOT
BRANCH   1  11
ATOM     11  C   UNL d   1       3.771  -0.112  -0.055  0.00  0.00     0.291 C 
ATOM     12  O   UNL d   1       4.617   0.785  -0.096  0.00  0.00    -0.264 OA
ATOM     13  N   UNL d   1       4.139  -1.456  -0.014  0.00  0.00    -0.288 N 
ATOM     14  H   UNL d   1       3.413  -2.157   0.127  0.00  0.00     0.183 HD
BRANCH  13  15
ATOM     15  N   UNL d   1       5.504  -1.823   0.067  0.00  0.00    -0.247 NA
ATOM     16  H   UNL d   1       6.037  -0.957   0.229  0.00  0.00     0.143 HD
ATOM     17  H   UNL d   1       5.801  -2.126  -0.865  0.00  0.00     0.143 HD
ENDBRANCH  13  15
ENDBRANCH   1  11
BRANCH   3  18
ATOM     18  N   UNL d   1       2.111   2.528  -0.075  0.00  0.00    -0.396 N 
ATOM     19  H   UNL d   1       1.530   3.336   0.140  0.00  0.00     0.156 HD
ATOM     20  H   UNL d   1       3.113   2.699   0.020  0.00  0.00     0.156 HD
ENDBRANCH   3  18
BRANCH   6  21
ATOM     21  C   UNL d   1      -1.173   3.002   0.143  0.00  0.00     0.086 A 
ATOM     22  O   UNL d   1      -0.244   3.681   0.878  0.00  0.00    -0.322 OA
ATOM     23  C   UNL d   1      -0.589   4.994   0.857  0.00  0.00     0.142 A 
ATOM     24  C   UNL d   1      -1.734   5.177   0.122  0.00  0.00     0.027 A 
ATOM     25  C   UNL d   1      -2.119   3.891  -0.331  0.00  0.00     0.040 A 
ENDBRANCH   6  21
BRANCH   9  26
ATOM     26  C   UNL d   1      -3.201  -1.502  -0.275  0.00  0.00     0.101 A 
ATOM     27  O   UNL d   1      -4.426  -0.887  -0.251  0.00  0.00    -0.321 OA
ATOM     28  C   UNL d   1      -5.365  -1.842  -0.467  0.00  0.00     0.142 A 
ATOM     29  C   UNL d   1      -4.771  -3.070  -0.631  0.00  0.00     0.027 A 
ATOM     30  C   UNL d   1      -3.377  -2.854  -0.501  0.00  0.00     0.041 A 
ENDBRANCH   9  26
TORSDOF 5
