REMARK  3 active torsions:
REMARK  status: ('A' for Active; 'I' for Inactive)
REMARK    1  A    between atoms: N_15  and  C_2 
REMARK    2  A    between atoms: C_9  and  C_4 
REMARK    3  A    between atoms: O_19  and  C_17 
ROOT
ATOM      1  C   UNL d   1      -1.536   0.362  -0.071  0.00  0.00     0.078 A 
ATOM      2  C   UNL d   1      -1.255  -0.951   0.074  0.00  0.00     0.138 A 
ATOM      3  C   UNL d   1       0.953   0.809  -0.125  0.00  0.00    -0.010 A 
ATOM      4  C   UNL d   1      -0.441   1.433  -0.174  0.00  0.00     0.100 A 
ATOM      5  O   UNL d   1       0.039  -1.429   0.143  0.00  0.00    -0.297 OA
ATOM      6  C   UNL d   1       1.097  -0.565   0.066  0.00  0.00     0.084 A 
ATOM      7  C   UNL d   1      -2.902   0.775  -0.127  0.00  0.00     0.100 C 
ATOM      8  N   UNL d   1      -4.000   1.142  -0.159  0.00  0.00    -0.192 NA
ATOM      9  C   UNL d   1       2.126   1.572  -0.283  0.00  0.00     0.047 A 
ATOM     10  C   UNL d   1       2.360  -1.151   0.179  0.00  0.00     0.040 A 
ATOM     11  C   UNL d   1       3.394   1.007  -0.114  0.00  0.00     0.068 A 
ATOM     12  C   UNL d   1       3.504  -0.360   0.119  0.00  0.00     0.039 A 
ENDROOT
BRANCH   2  13
ATOM     13  N   UNL d   1      -2.182  -1.963   0.167  0.00  0.00    -0.282 NA
ATOM     14  H   UNL d   1      -3.108  -1.782  -0.209  0.00  0.00     0.126 HD
ATOM     15  H   UNL d   1      -1.800  -2.863  -0.115  0.00  0.00     0.126 HD
ENDBRANCH   2  13
BRANCH   4  16
ATOM     16  C   UNL d   1      -0.676   2.599   0.852  0.00  0.00     0.213 C 
ATOM     17  C   UNL d   1       0.143   3.793   0.574  0.00  0.00     0.079 C 
ATOM     18  N   UNL d   1       0.795   4.722   0.339  0.00  0.00    -0.196 NA
ATOM     19  C   UNL d   1      -0.509   2.152   2.241  0.00  0.00     0.079 C 
ATOM     20  N   UNL d   1      -0.403   1.806   3.345  0.00  0.00    -0.196 NA
ENDBRANCH   4  16
BRANCH  11  21
ATOM     21  O   UNL d   1       4.580   1.686  -0.154  0.00  0.00    -0.356 OA
ATOM     22  C   UNL d   1       4.510   3.102  -0.291  0.00  0.00     0.210 C 
ENDBRANCH  11  21
TORSDOF 3
