REMARK  6 active torsions:
REMARK  status: ('A' for Active; 'I' for Inactive)
REMARK    1  A    between atoms: C_7  and  C_1 
REMARK    2  A    between atoms: S_8  and  C_4 
REMARK    3  A    between atoms: O_13  and  C_7 
REMARK    4  A    between atoms: C_10  and  S_8 
REMARK    5  A    between atoms: C_9  and  C_10 
REMARK    6  A    between atoms: C_17  and  O_13 
ROOT
ATOM      1  C   UNL d   1      -0.439  -1.067   0.020  0.00  0.00     0.125 A 
ATOM      2  N   UNL d   1      -1.206   0.095  -0.037  0.00  0.00    -0.331 N 
ATOM      3  HN  UNL d   1      -2.221   0.166  -0.097  1.00  0.00     0.168 HD
ATOM      4  C   UNL d   1      -0.337   1.074   0.003  0.00  0.00     0.145 A 
ATOM      5  C   UNL d   1       0.902  -0.736   0.141  0.00  0.00     0.126 A 
ATOM      6  N   UNL d   1       0.943   0.627   0.119  0.00  0.00    -0.344 N 
ATOM      7  H   UNL d   1       1.762   1.217   0.144  0.00  0.00     0.167 HD
ENDROOT
BRANCH   4   8
ATOM      8  S   UNL d   1      -0.605   2.765  -0.163  0.00  0.00    -0.089 SA
BRANCH   8   9
ATOM      9  C   UNL d   1      -2.313   2.933   0.435  0.00  0.00     0.122 C 
BRANCH   9  10
ATOM     10  C   UNL d   1      -2.780   4.366   0.293  0.00  0.00    -0.027 A 
ATOM     11  C   UNL d   1      -2.503   5.358   1.249  0.00  0.00     0.041 A 
ATOM     12 CL   UNL d   1      -1.649   5.010   2.711  0.00  0.00    -0.084 Cl
ATOM     13  C   UNL d   1      -2.906   6.683   1.040  0.00  0.00     0.024 A 
ATOM     14  C   UNL d   1      -3.586   7.035  -0.125  0.00  0.00     0.002 A 
ATOM     15  C   UNL d   1      -3.867   6.065  -1.082  0.00  0.00     0.001 A 
ATOM     16  C   UNL d   1      -3.466   4.743  -0.877  0.00  0.00     0.009 A 
ENDBRANCH   9  10
ENDBRANCH   8   9
ENDBRANCH   4   8
BRANCH   1  17
ATOM     17  C   UNL d   1      -0.954  -2.431  -0.110  0.00  0.00     0.311 C 
ATOM     18  O   UNL d   1      -0.225  -3.418  -0.120  0.00  0.00    -0.258 OA
BRANCH  17  19
ATOM     19  O   UNL d   1      -2.306  -2.469  -0.293  0.00  0.00    -0.317 OA
BRANCH  19  20
ATOM     20  C   UNL d   1      -2.833  -3.729  -0.729  0.00  0.00     0.175 C 
ATOM     21  C   UNL d   1      -2.814  -3.764  -2.247  0.00  0.00     0.034 C 
ENDBRANCH  19  20
ENDBRANCH  17  19
ENDBRANCH   1  17
TORSDOF 6
