REMARK  5 active torsions:
REMARK  status: ('A' for Active; 'I' for Inactive)
REMARK    1  A    between atoms: N_3  and  S_1 
REMARK    2  A    between atoms: C_9  and  S_1 
REMARK    3  A    between atoms: C_2  and  N_3 
REMARK    4  A    between atoms: C_14  and  C_8 
REMARK       I    between atoms: C_12  and  N_13 
REMARK    5  A    between atoms: N_13  and  C_18 
ROOT
ATOM      1  N   UNL d   1       0.586   0.008  -1.554  0.00  0.00    -0.165 NA
ATOM      2  H   UNL d   1      -0.373  -0.302  -1.598  0.00  0.00     0.147 HD
ENDROOT
BRANCH   1   3
ATOM      3  C   UNL d   1       0.924   1.063  -2.400  0.00  0.00     0.112 A 
ATOM      4  C   UNL d   1       0.218   2.238  -2.546  0.00  0.00     0.076 A 
ATOM      5  C   UNL d   1       1.002   3.052  -3.419  0.00  0.00     0.061 A 
ATOM      6  N   UNL d   1       2.079   2.368  -3.839  0.00  0.00    -0.297 N 
ATOM      7  N   UNL d   1       2.015   1.185  -3.212  0.00  0.00    -0.284 N 
ATOM      8  HN  UNL d   1       2.794   2.682  -4.495  1.00  0.00     0.187 HD
ATOM      9  C   UNL d   1       2.998   0.180  -3.532  0.00  0.00     0.179 C 
BRANCH   5  10
ATOM     10  C   UNL d   1       0.785   4.444  -3.848  0.00  0.00    -0.008 A 
ATOM     11  C   UNL d   1      -0.313   5.190  -3.399  0.00  0.00     0.014 A 
ATOM     12  C   UNL d   1      -0.476   6.526  -3.787  0.00  0.00     0.001 A 
ATOM     13  C   UNL d   1       0.453   7.133  -4.629  0.00  0.00     0.000 A 
ATOM     14  C   UNL d   1       1.546   6.407  -5.091  0.00  0.00     0.001 A 
ATOM     15  C   UNL d   1       1.709   5.074  -4.703  0.00  0.00     0.014 A 
ENDBRANCH   5  10
ENDBRANCH   1   3
BRANCH   1  16
ATOM     16  S   UNL d   1       1.104   0.085   0.006  0.00  0.00     0.247 S 
ATOM     17  O   UNL d   1       0.067   0.699   0.808  0.00  0.00    -0.205 OA
ATOM     18  O   UNL d   1       2.469   0.583   0.072  0.00  0.00    -0.205 OA
BRANCH  16  19
ATOM     19  C   UNL d   1       1.198  -1.631   0.527  0.00  0.00     0.075 A 
ATOM     20  C   UNL d   1       2.380  -2.358   0.336  0.00  0.00     0.027 A 
ATOM     21  C   UNL d   1       2.525  -3.626   0.925  0.00  0.00     0.031 A 
ATOM     22  C   UNL d   1       1.492  -4.182   1.693  0.00  0.00     0.034 A 
ATOM     23  C   UNL d   1       0.320  -3.439   1.870  0.00  0.00     0.031 A 
ATOM     24  C   UNL d   1       0.169  -2.171   1.300  0.00  0.00     0.027 A 
BRANCH  22  25
ATOM     25  N   UNL d   1       1.690  -5.449   2.290  0.00  0.00    -0.328 N 
ATOM     26  C   UNL d   1       0.691  -6.259   2.808  0.00  0.00     0.218 C 
ATOM     27  O   UNL d   1      -0.516  -6.032   2.760  0.00  0.00    -0.274 OA
ATOM     28  C   UNL d   1       1.184  -7.536   3.439  0.00  0.00     0.117 C 
ATOM     29  H   UNL d   1       2.629  -5.829   2.265  0.00  0.00     0.169 HD
ENDBRANCH  22  25
ENDBRANCH  16  19
ENDBRANCH   1  16
TORSDOF 5
