REMARK  7 active torsions:
REMARK  status: ('A' for Active; 'I' for Inactive)
REMARK    1  A    between atoms: N_2  and  S_1 
REMARK    2  A    between atoms: C_4  and  S_1 
REMARK    3  A    between atoms: C_3  and  N_2 
REMARK    4  A    between atoms: O_12  and  C_10 
REMARK    5  A    between atoms: C_19  and  O_12 
REMARK    6  A    between atoms: C_17  and  C_19 
REMARK    7  A    between atoms: O_25  and  C_21 
ROOT
ATOM      1  C   UNL d   1       1.022   2.009  -1.850  0.00  0.00     0.128 A 
ATOM      2  N   UNL d   1      -0.043   2.782  -2.126  0.00  0.00    -0.354 N 
ATOM      3  HN  UNL d   1      -0.991   2.407  -2.157  1.00  0.00     0.166 HD
ATOM      4  C   UNL d   1       2.346   2.453  -1.778  0.00  0.00     0.108 A 
ATOM      5  C   UNL d   1       0.220   4.084  -2.358  0.00  0.00     0.089 A 
ATOM      6  C   UNL d   1       2.575   3.805  -1.999  0.00  0.00     0.041 A 
ATOM      7  C   UNL d   1       1.492   4.636  -2.296  0.00  0.00     0.020 A 
ENDROOT
BRANCH   1   8
ATOM      8  N   UNL d   1       0.664   0.669  -1.542  0.00  0.00    -0.164 NA
ATOM      9  H   UNL d   1      -0.224   0.535  -2.029  0.00  0.00     0.147 HD
BRANCH   8  10
ATOM     10  S   UNL d   1       0.304   0.360   0.085  0.00  0.00     0.247 S 
ATOM     11  O   UNL d   1       0.782  -0.976   0.374  0.00  0.00    -0.205 OA
ATOM     12  O   UNL d   1      -1.102   0.677   0.268  0.00  0.00    -0.205 OA
BRANCH  10  13
ATOM     13  C   UNL d   1       1.230   1.497   1.091  0.00  0.00     0.075 A 
ATOM     14  C   UNL d   1       0.719   2.772   1.356  0.00  0.00     0.027 A 
ATOM     15  C   UNL d   1       1.438   3.660   2.163  0.00  0.00     0.038 A 
ATOM     16  C   UNL d   1       2.654   3.267   2.728  0.00  0.00     0.068 A 
ATOM     17  C   UNL d   1       3.136   1.976   2.489  0.00  0.00     0.038 A 
ATOM     18  C   UNL d   1       2.426   1.084   1.682  0.00  0.00     0.027 A 
BRANCH  16  19
ATOM     19  O   UNL d   1       3.463   4.040   3.514  0.00  0.00    -0.356 OA
ATOM     20  C   UNL d   1       2.970   5.321   3.886  0.00  0.00     0.210 C 
ENDBRANCH  16  19
ENDBRANCH  10  13
ENDBRANCH   8  10
ENDBRANCH   1   8
BRANCH   4  21
ATOM     21  O   UNL d   1       3.293   1.504  -1.566  0.00  0.00    -0.343 OA
BRANCH  21  22
ATOM     22  C   UNL d   1       4.557   1.877  -1.032  0.00  0.00     0.214 C 
BRANCH  22  23
ATOM     23  C   UNL d   1       5.417   0.629  -0.974  0.00  0.00    -0.032 A 
ATOM     24  C   UNL d   1       6.815   0.744  -0.979  0.00  0.00     0.035 A 
ATOM     25  C   UNL d   1       7.625  -0.400  -0.990  0.00  0.00     0.056 A 
ATOM     26 CL   UNL d   1       9.337  -0.166  -1.040  0.00  0.00    -0.083 Cl
ATOM     27  C   UNL d   1       7.044  -1.672  -0.975  0.00  0.00     0.055 A 
ATOM     28  C   UNL d   1       5.655  -1.796  -0.929  0.00  0.00     0.026 A 
ATOM     29 CL   UNL d   1       7.979  -3.123  -1.021  0.00  0.00    -0.083 Cl
ATOM     30  C   UNL d   1       4.850  -0.655  -0.920  0.00  0.00     0.011 A 
ENDBRANCH  22  23
ENDBRANCH  21  22
ENDBRANCH   4  21
TORSDOF 7
