REMARK  5 active torsions:
REMARK  status: ('A' for Active; 'I' for Inactive)
REMARK    1  A    between atoms: C_8  and  C_2 
REMARK    2  A    between atoms: O_21  and  C_3 
REMARK    3  A    between atoms: C_9  and  C_6 
REMARK    4  A    between atoms: C_20  and  C_23 
REMARK    5  A    between atoms: C_23  and  O_21 
ROOT
ATOM      1  C   UNL d   1       0.559   0.053   0.096  0.00  0.00     0.108 A 
ATOM      2  C   UNL d   1      -0.079   1.302   0.014  0.00  0.00     0.025 A 
ATOM      3  C   UNL d   1      -0.246  -1.085   0.156  0.00  0.00     0.165 A 
ATOM      4  N   UNL d   1      -1.598  -1.062   0.086  0.00  0.00    -0.335 N 
ATOM      5  HN  UNL d   1      -2.143  -1.924   0.109  1.00  0.00     0.168 HD
ATOM      6  C   UNL d   1      -2.200   0.142  -0.014  0.00  0.00     0.052 A 
ATOM      7  C   UNL d   1      -1.481   1.328  -0.036  0.00  0.00     0.046 A 
ATOM      8  C   UNL d   1       1.982  -0.085   0.099  0.00  0.00     0.105 C 
ATOM      9  N   UNL d   1       3.143  -0.164   0.107  0.00  0.00    -0.191 NA
ENDROOT
BRANCH   2  10
ATOM     10  C   UNL d   1       0.632   2.580  -0.037  0.00  0.00     0.086 A 
ATOM     11  O   UNL d   1      -0.020   3.578  -0.712  0.00  0.00    -0.322 OA
ATOM     12  C   UNL d   1       0.752   4.691  -0.648  0.00  0.00     0.142 A 
ATOM     13  C   UNL d   1       1.900   4.434   0.058  0.00  0.00     0.027 A 
ATOM     14  C   UNL d   1       1.826   3.074   0.452  0.00  0.00     0.040 A 
ENDBRANCH   2  10
BRANCH   3  15
ATOM     15  O   UNL d   1       0.372  -2.318   0.222  0.00  0.00    -0.331 OA
BRANCH  15  16
ATOM     16  C   UNL d   1      -0.463  -3.332   0.786  0.00  0.00     0.204 C 
BRANCH  16  17
ATOM     17  C   UNL d   1       0.224  -4.672   0.758  0.00  0.00    -0.011 C 
ATOM     18  C   UNL d   1       1.405  -4.960   0.195  0.00  0.00     0.009 C 
ENDBRANCH  16  17
ENDBRANCH  15  16
ENDBRANCH   3  15
BRANCH   6  19
ATOM     19  C   UNL d   1      -3.654   0.095  -0.201  0.00  0.00     0.031 A 
ATOM     20  S   UNL d   1      -4.675   1.300   0.477  0.00  0.00    -0.100 SA
ATOM     21  C   UNL d   1      -6.067   0.636  -0.255  0.00  0.00     0.050 A 
ATOM     22  C   UNL d   1      -5.782  -0.510  -0.961  0.00  0.00     0.008 A 
ATOM     23  C   UNL d   1      -4.396  -0.837  -0.905  0.00  0.00     0.021 A 
ENDBRANCH   6  19
TORSDOF 5
