REMARK  3 active torsions:
REMARK  status: ('A' for Active; 'I' for Inactive)
REMARK    1  A    between atoms: C_10  and  N_1 
REMARK    2  A    between atoms: C_7  and  C_2 
REMARK    3  A    between atoms: N_9  and  C_8 
ROOT
ATOM      1  N   UNL d   1       0.092  -0.840   1.084  0.00  0.00    -0.225 N 
ATOM      2  C   UNL d   1       1.109  -0.732   0.135  0.00  0.00     0.139 C 
ATOM      3  N   UNL d   1      -0.711   0.094  -0.672  0.00  0.00    -0.007 NA
ATOM      4  N   UNL d   1      -1.056  -0.403   0.503  0.00  0.00     0.001 NA
ATOM      5  N   UNL d   1       0.616  -0.106  -0.920  0.00  0.00    -0.270 N 
ATOM      6  HN  UNL d   1       1.129   0.173  -1.756  1.00  0.00     0.185 HD
ENDROOT
BRANCH   2   7
ATOM      7  C   UNL d   1       2.377  -1.335   0.289  0.00  0.00     0.068 C 
ATOM      8  C   UNL d   1       2.571  -2.597  -0.131  0.00  0.00     0.089 C 
BRANCH   8   9
ATOM      9  N   UNL d   1       3.718  -3.386  -0.089  0.00  0.00    -0.390 N 
ATOM     10  C   UNL d   1       4.985  -2.913   0.488  0.00  0.00     0.122 C 
ATOM     11  C   UNL d   1       5.935  -4.012   0.967  0.00  0.00     0.020 C 
ATOM     12  C   UNL d   1       5.284  -5.051   1.881  0.00  0.00     0.002 C 
ATOM     13  C   UNL d   1       4.623  -6.197   1.116  0.00  0.00     0.002 C 
ATOM     14  C   UNL d   1       3.421  -5.797   0.263  0.00  0.00     0.020 C 
ATOM     15  C   UNL d   1       3.728  -4.700  -0.753  0.00  0.00     0.122 C 
ENDBRANCH   8   9
ENDBRANCH   2   7
BRANCH   1  16
ATOM     16  C   UNL d   1       0.092  -1.231   2.451  0.00  0.00     0.056 A 
ATOM     17  C   UNL d   1       1.254  -1.172   3.233  0.00  0.00     0.034 A 
ATOM     18  C   UNL d   1       1.193  -1.464   4.599  0.00  0.00     0.044 A 
ATOM     19  C   UNL d   1      -0.016  -1.835   5.176  0.00  0.00     0.116 A 
ATOM     20  C   UNL d   1      -1.173  -1.921   4.413  0.00  0.00     0.044 A 
ATOM     21  F   UNL d   1      -0.068  -2.097   6.488  0.00  0.00    -0.206 F 
ATOM     22  C   UNL d   1      -1.125  -1.608   3.052  0.00  0.00     0.034 A 
ENDBRANCH   1  16
TORSDOF 3
