REMARK  3 active torsions:
REMARK  status: ('A' for Active; 'I' for Inactive)
REMARK    1  A    between atoms: N_2  and  C_1 
REMARK       I    between atoms: C_3  and  N_2 
REMARK    2  A    between atoms: C_6  and  C_3 
REMARK    3  A    between atoms: C_8  and  C_10 
ROOT
ATOM      1  N   UNL d   1       3.973  -1.884   0.185  0.00  0.00    -0.298 N 
ATOM      2  C   UNL d   1       5.244  -1.283   0.261  0.00  0.00     0.261 C 
ATOM      3  O   UNL d   1       5.511  -0.087   0.302  0.00  0.00    -0.267 OA
ATOM      4  C   UNL d   1       3.798  -3.340   0.036  0.00  0.00     0.161 C 
ENDROOT
BRANCH   1   5
ATOM      5  C   UNL d   1       2.795  -1.109   0.097  0.00  0.00     0.154 A 
ATOM      6  N   UNL d   1       1.612  -1.653  -0.113  0.00  0.00    -0.335 N 
ATOM      7  C   UNL d   1       0.617  -0.695  -0.121  0.00  0.00     0.053 A 
ATOM      8  HN  UNL d   1       1.453  -2.651  -0.251  1.00  0.00     0.168 HD
ATOM      9  C   UNL d   1      -0.761  -0.936  -0.315  0.00  0.00     0.054 A 
ATOM     10  C   UNL d   1       1.053   0.611   0.090  0.00  0.00     0.035 A 
ATOM     11  C   UNL d   1      -1.651   0.134  -0.284  0.00  0.00     0.036 A 
ATOM     12 CL   UNL d   1      -3.333  -0.155  -0.510  0.00  0.00    -0.084 Cl
ATOM     13  C   UNL d   1      -1.200   1.435  -0.071  0.00  0.00     0.025 A 
ATOM     14  C   UNL d   1       0.162   1.695   0.115  0.00  0.00     0.023 A 
ATOM     15  S   UNL d   1       2.760   0.590   0.294  0.00  0.00    -0.052 SA
ENDBRANCH   1   5
BRANCH   2  16
ATOM     16  C   UNL d   1       6.452  -2.142   0.304  0.00  0.00     0.062 A 
ATOM     17  C   UNL d   1       7.518  -2.013  -0.601  0.00  0.00     0.066 A 
ATOM     18  C   UNL d   1       8.638  -2.850  -0.432  0.00  0.00     0.034 A 
ATOM     19  C   UNL d   1       8.661  -3.752   0.618  0.00  0.00     0.088 A 
ATOM     20  N   UNL d   1       7.675  -3.845   1.530  0.00  0.00    -0.374 N 
ATOM     21  C   UNL d   1       6.616  -3.015   1.373  0.00  0.00     0.105 A 
ATOM     22  HN  UNL d   1       7.722  -4.510   2.302  1.00  0.00     0.164 HD
BRANCH  17  23
ATOM     23  C   UNL d   1       7.574  -0.973  -1.690  0.00  0.00     0.418 C 
ATOM     24  F   UNL d   1       6.372  -0.543  -2.148  0.00  0.00    -0.166 F 
ATOM     25  F   UNL d   1       8.283   0.126  -1.320  0.00  0.00    -0.166 F 
ATOM     26  F   UNL d   1       8.216  -1.454  -2.799  0.00  0.00    -0.166 F 
ENDBRANCH  17  23
ENDBRANCH   2  16
TORSDOF 3
