REMARK  6 active torsions:
REMARK  status: ('A' for Active; 'I' for Inactive)
REMARK    1  A    between atoms: C_2  and  C_1 
REMARK       I    between atoms: N_3  and  C_2 
REMARK    2  A    between atoms: S_13  and  C_4 
REMARK    3  A    between atoms: S_14  and  C_7 
REMARK    4  A    between atoms: C_10  and  C_9 
REMARK    5  A    between atoms: O_16  and  C_10 
REMARK    6  A    between atoms: C_20  and  O_16 
ROOT
ATOM      1  C   UNL d   1      -2.886  -1.327  -0.245  0.00  0.00     0.259 C 
ATOM      2  N   UNL d   1      -4.203  -0.902  -0.478  0.00  0.00    -0.334 N 
ATOM      3  C   UNL d   1      -5.176  -0.880   0.646  0.00  0.00     0.187 C 
ATOM      4  O   UNL d   1      -2.586  -1.979   0.746  0.00  0.00    -0.267 OA
ATOM      5  C   UNL d   1      -4.638  -0.200  -1.691  0.00  0.00     0.127 C 
ATOM      6  C   UNL d   1      -6.548  -1.387   0.163  0.00  0.00     0.035 C 
ATOM      7  C   UNL d   1      -6.011  -0.665  -2.166  0.00  0.00     0.020 C 
ATOM      8  C   UNL d   1      -7.037  -0.595  -1.043  0.00  0.00     0.004 C 
ENDROOT
BRANCH   1   9
ATOM      9  C   UNL d   1      -1.856  -1.006  -1.222  0.00  0.00     0.091 A 
ATOM     10  C   UNL d   1      -1.119  -1.951  -1.929  0.00  0.00     0.076 A 
ATOM     11  S   UNL d   1       0.018  -1.119  -2.914  0.00  0.00    -0.006 SA
ATOM     12  N   UNL d   1      -0.400   0.409  -2.443  0.00  0.00    -0.319 N 
ATOM     13  C   UNL d   1      -1.357   0.315  -1.527  0.00  0.00     0.093 A 
ATOM     14  HN  UNL d   1       0.007   1.275  -2.795  1.00  0.00     0.175 HD
BRANCH  10  15
ATOM     15  S   UNL d   1      -1.246  -3.702  -2.038  0.00  0.00    -0.125 SA
ATOM     16  C   UNL d   1      -1.198  -4.260  -0.321  0.00  0.00     0.096 C 
ENDBRANCH  10  15
BRANCH  13  17
ATOM     17  S   UNL d   1      -1.985   1.778  -0.762  0.00  0.00    -0.115 SA
ATOM     18  C   UNL d   1      -0.705   3.008  -1.057  0.00  0.00     0.097 C 
ENDBRANCH  13  17
ENDBRANCH   1   9
BRANCH   3  19
ATOM     19  C   UNL d   1      -4.817  -1.487   2.028  0.00  0.00     0.282 C 
ATOM     20  O   UNL d   1      -4.096  -0.929   2.849  0.00  0.00    -0.263 OA
BRANCH  19  21
ATOM     21  O   UNL d   1      -5.410  -2.702   2.212  0.00  0.00    -0.320 OA
BRANCH  21  22
ATOM     22  C   UNL d   1      -5.129  -3.369   3.451  0.00  0.00     0.174 C 
ATOM     23  C   UNL d   1      -5.947  -2.785   4.590  0.00  0.00     0.034 C 
ENDBRANCH  21  22
ENDBRANCH  19  21
ENDBRANCH   3  19
TORSDOF 6
