REMARK  3 active torsions:
REMARK  status: ('A' for Active; 'I' for Inactive)
REMARK    1  A    between atoms: C_3  and  C_1 
REMARK    2  A    between atoms: C_6  and  C_2 
REMARK    3  A    between atoms: O_7  and  N_4 
ROOT
ATOM      1  C   UNL d   1      -1.328  -0.846  -0.957  0.00  0.00    -0.037 C 
ATOM      2  C   UNL d   1      -2.022  -0.063  -0.108  0.00  0.00     0.020 C 
ATOM      3  C   UNL d   1      -1.933  -1.814  -1.935  0.00  0.00     0.050 C 
ENDROOT
BRANCH   1   4
ATOM      4  C   UNL d   1       0.182  -0.844  -0.937  0.00  0.00     0.034 C 
ATOM      5  N   UNL d   1       0.804  -1.940  -1.285  0.00  0.00    -0.273 N 
ATOM      6  HN  UNL d   1       0.332  -2.794  -1.581  1.00  0.00     0.193 HD
ATOM      7  C   UNL d   1       0.937   0.408  -0.527  0.00  0.00     0.070 C 
BRANCH   5   8
ATOM      8  O   UNL d   1       2.194  -1.800  -1.204  0.00  0.00    -0.290 OA
ATOM      9  H   UNL d   1       2.505  -2.692  -1.447  0.00  0.00     0.244 HD
ENDBRANCH   5   8
ENDBRANCH   1   4
BRANCH   2  10
ATOM     10  C   UNL d   1      -3.484  -0.071   0.035  0.00  0.00    -0.036 A 
ATOM     11  C   UNL d   1      -4.079  -0.932   0.965  0.00  0.00     0.011 A 
ATOM     12  C   UNL d   1      -5.465  -0.938   1.139  0.00  0.00     0.001 A 
ATOM     13  C   UNL d   1      -6.264  -0.083   0.382  0.00  0.00     0.000 A 
ATOM     14  C   UNL d   1      -5.678   0.776  -0.549  0.00  0.00     0.001 A 
ATOM     15  C   UNL d   1      -4.292   0.782  -0.724  0.00  0.00     0.011 A 
ENDBRANCH   2  10
TORSDOF 3
