REMARK  3 active torsions:
REMARK  status: ('A' for Active; 'I' for Inactive)
REMARK    1  A    between atoms: C_4  and  C_1 
REMARK       I    between atoms: N_12  and  C_4 
REMARK    2  A    between atoms: C_5  and  CA_6 
REMARK    3  A    between atoms: OXT_13  and  C_5 
ROOT
ATOM      1  C   UNL d   1       0.730   1.200   0.010  0.00  0.00     0.047 A 
ATOM      2  N   UNL d   1      -1.355  -0.070   0.017  0.00  0.00    -0.360 N 
ATOM      3  HN  UNL d   1      -2.374  -0.099   0.023  1.00  0.00     0.165 HD
ATOM      4  CA  UNL d   1      -0.597  -1.204   0.009  0.00  0.00     0.106 A 
ATOM      5  C   UNL d   1      -0.663   1.103   0.017  0.00  0.00     0.105 A 
ATOM      6  C   UNL d   1       1.464   0.011  -0.001  0.00  0.00     0.021 A 
ATOM      7  C   UNL d   1       0.792  -1.213  -0.001  0.00  0.00     0.037 A 
ENDROOT
BRANCH   1   8
ATOM      8  C   UNL d   1       1.335   2.555   0.019  0.00  0.00     0.250 C 
ATOM      9  O   UNL d   1       0.631   3.557   0.026  0.00  0.00    -0.268 OA
ATOM     10  N   UNL d   1       2.697   2.671   0.020  0.00  0.00    -0.366 N 
ATOM     11  H   UNL d   1       3.356   1.909   0.017  0.00  0.00     0.159 HD
ATOM     12  H   UNL d   1       3.072   3.612   0.029  0.00  0.00     0.159 HD
ENDBRANCH   1   8
BRANCH   4  13
ATOM     13  C   UNL d   1      -1.351  -2.491   0.013  0.00  0.00     0.193 C 
ATOM     14  O   UNL d   1      -0.836  -3.595   0.011  0.00  0.00    -0.645 OA
BRANCH  13  15
ATOM     15  OXT UNL d   1      -2.687  -2.267   0.020  0.00  0.00    -0.772 OA
ATOM     16  HXT UNL d   1      -2.849  -1.293   0.021  0.00  0.00     0.167 HD
ENDBRANCH  13  15
ENDBRANCH   4  13
TORSDOF 3
