REMARK  4 active torsions:
REMARK  status: ('A' for Active; 'I' for Inactive)
REMARK    1  A    between atoms: N_2  and  C_1 
REMARK    2  A    between atoms: N_3  and  C_1 
REMARK    3  A    between atoms: C_5  and  N_2 
REMARK    4  A    between atoms: C_6  and  N_3 
ROOT
ATOM      1  C   UNL d   1       1.050  -0.055   0.082  0.00  0.00     0.176 C 
ATOM      2  S   UNL d   1       2.688   0.181   0.355  0.00  0.00    -0.041 SA
ENDROOT
BRANCH   1   3
ATOM      3  N   UNL d   1       0.505  -0.884  -0.859  0.00  0.00    -0.333 N 
ATOM      4  H   UNL d   1      -0.229  -0.451  -1.409  0.00  0.00     0.168 HD
BRANCH   3   5
ATOM      5  C   UNL d   1       0.986  -2.129  -1.314  0.00  0.00     0.035 A 
ATOM      6  C   UNL d   1       1.719  -2.990  -0.492  0.00  0.00     0.053 A 
ATOM      7  C   UNL d   1       2.117  -4.237  -0.971  0.00  0.00     0.036 A 
ATOM      8 CL   UNL d   1       2.992  -5.306   0.057  0.00  0.00    -0.084 Cl
ATOM      9  C   UNL d   1       1.795  -4.635  -2.266  0.00  0.00     0.024 A 
ATOM     10  C   UNL d   1       1.045  -3.789  -3.081  0.00  0.00     0.004 A 
ATOM     11  C   UNL d   1       0.625  -2.547  -2.599  0.00  0.00     0.029 A 
ENDBRANCH   3   5
ENDBRANCH   1   3
BRANCH   1  12
ATOM     12  N   UNL d   1       0.184   0.750   0.773  0.00  0.00    -0.333 N 
ATOM     13  H   UNL d   1       0.660   1.504   1.260  0.00  0.00     0.168 HD
BRANCH  12  14
ATOM     14  C   UNL d   1      -1.182   0.584   1.087  0.00  0.00     0.035 A 
ATOM     15  C   UNL d   1      -1.918  -0.571   0.815  0.00  0.00     0.053 A 
ATOM     16  C   UNL d   1      -3.257  -0.659   1.205  0.00  0.00     0.036 A 
ATOM     17 CL   UNL d   1      -4.152  -2.087   0.853  0.00  0.00    -0.084 Cl
ATOM     18  C   UNL d   1      -3.871   0.389   1.884  0.00  0.00     0.024 A 
ATOM     19  C   UNL d   1      -3.138   1.534   2.182  0.00  0.00     0.004 A 
ATOM     20  C   UNL d   1      -1.801   1.629   1.787  0.00  0.00     0.029 A 
ENDBRANCH  12  14
ENDBRANCH   1  12
TORSDOF 4
