REMARK  6 active torsions:
REMARK  status: ('A' for Active; 'I' for Inactive)
REMARK    1  A    between atoms: C_2  and  C_1 
REMARK       I    between atoms: N_5  and  C_1 
REMARK    2  A    between atoms: C_3  and  C_4 
REMARK    3  A    between atoms: O_9  and  C_3 
REMARK    4  A    between atoms: C_8  and  N_5 
REMARK    5  A    between atoms: O_15  and  C_10 
REMARK    6  A    between atoms: C_16  and  O_15 
ROOT
ATOM      1  C   UNL d   1       1.150  -0.506  -0.288  0.00  0.00     0.245 C 
ATOM      2  N   UNL d   1       0.285  -0.637   0.778  0.00  0.00    -0.324 N 
ATOM      3  O   UNL d   1       0.871  -0.515  -1.481  0.00  0.00    -0.268 OA
ATOM      4  H   UNL d   1       0.676  -0.599   1.711  0.00  0.00     0.169 HD
ENDROOT
BRANCH   2   5
ATOM      5  C   UNL d   1      -1.116  -0.810   0.709  0.00  0.00     0.035 A 
ATOM      6  C   UNL d   1      -1.825  -0.896  -0.487  0.00  0.00     0.032 A 
ATOM      7  C   UNL d   1      -3.217  -1.044  -0.490  0.00  0.00     0.039 A 
ATOM      8  C   UNL d   1      -3.924  -1.105   0.707  0.00  0.00     0.068 A 
ATOM      9  C   UNL d   1      -3.219  -1.042   1.909  0.00  0.00     0.039 A 
ATOM     10  C   UNL d   1      -1.825  -0.895   1.913  0.00  0.00     0.032 A 
BRANCH   8  11
ATOM     11  O   UNL d   1      -5.283  -1.224   0.825  0.00  0.00    -0.352 OA
BRANCH  11  12
ATOM     12  C   UNL d   1      -6.025  -1.209  -0.397  0.00  0.00     0.171 C 
ATOM     13  C   UNL d   1      -7.506  -1.260  -0.070  0.00  0.00     0.034 C 
ENDBRANCH  11  12
ENDBRANCH   8  11
ENDBRANCH   2   5
BRANCH   1  14
ATOM     14  C   UNL d   1       2.563  -0.343   0.139  0.00  0.00     0.081 C 
ATOM     15  C   UNL d   1       3.513  -0.294  -0.807  0.00  0.00     0.086 C 
BRANCH  15  16
ATOM     16  C   UNL d   1       4.917  -0.140  -0.405  0.00  0.00     0.165 C 
ATOM     17  O   UNL d   1       5.289  -0.023   0.751  0.00  0.00    -0.647 OA
BRANCH  16  18
ATOM     18  O   UNL d   1       5.753  -0.148  -1.460  0.00  0.00    -0.773 OA
ATOM     19  H   UNL d   1       5.332  -0.254  -2.333  0.00  0.00     0.167 HD
ENDBRANCH  16  18
ENDBRANCH  15  16
ENDBRANCH   1  14
TORSDOF 6
