REMARK  5 active torsions:
REMARK  status: ('A' for Active; 'I' for Inactive)
REMARK    1  A    between atoms: C_7  and  C_1 
REMARK    2  A    between atoms: C_4  and  C_11 
REMARK    3  A    between atoms: C_21  and  C_6 
REMARK       I    between atoms: C_8  and  N_13 
REMARK       I    between atoms: N_12  and  C_8 
REMARK    4  A    between atoms: C_24  and  N_12 
REMARK    5  A    between atoms: N_13  and  C_21 
ROOT
ATOM      1  C   UNL d   1       4.856   1.594   0.019  0.00  0.00     0.321 C 
ATOM      2  N   UNL d   1       5.984   0.842   0.247  0.00  0.00    -0.309 N 
ATOM      3  N   UNL d   1       3.711   0.837  -0.068  0.00  0.00    -0.337 N 
ATOM      4  O   UNL d   1       4.810   2.814  -0.089  0.00  0.00    -0.247 OA
ATOM      5  H   UNL d   1       5.890  -0.154   0.142  0.00  0.00     0.170 HD
ATOM      6  H   UNL d   1       3.684  -0.156   0.116  0.00  0.00     0.164 HD
ENDROOT
BRANCH   3   7
ATOM      7  C   UNL d   1       2.458   1.539  -0.188  0.00  0.00     0.181 C 
BRANCH   7   8
ATOM      8  C   UNL d   1       1.266   0.641  -0.097  0.00  0.00     0.034 A 
ATOM      9  N   UNL d   1       1.381  -0.724   0.174  0.00  0.00    -0.351 N 
ATOM     10  C   UNL d   1       0.182  -1.285   0.184  0.00  0.00     0.091 A 
ATOM     11  HN  UNL d   1       2.259  -1.216   0.339  1.00  0.00     0.166 HD
ATOM     12  S   UNL d   1      -1.132  -0.203  -0.085  0.00  0.00    -0.081 SA
ATOM     13  C   UNL d   1      -0.034   1.088  -0.245  0.00  0.00     0.078 A 
BRANCH  10  14
ATOM     14  C   UNL d   1      -0.017  -2.691   0.452  0.00  0.00     0.038 A 
ATOM     15  S   UNL d   1      -1.386  -3.567  -0.112  0.00  0.00    -0.099 SA
ATOM     16  C   UNL d   1      -0.860  -5.016   0.619  0.00  0.00     0.050 A 
ATOM     17  C   UNL d   1       0.340  -4.856   1.274  0.00  0.00     0.008 A 
ATOM     18  C   UNL d   1       0.830  -3.518   1.165  0.00  0.00     0.022 A 
ENDBRANCH  10  14
ENDBRANCH   7   8
ENDBRANCH   3   7
BRANCH   2  19
ATOM     19  C   UNL d   1       7.269   1.339   0.584  0.00  0.00     0.036 A 
ATOM     20  C   UNL d   1       7.535   2.688   0.837  0.00  0.00     0.030 A 
ATOM     21  C   UNL d   1       8.798   3.105   1.274  0.00  0.00     0.018 A 
ATOM     22  C   UNL d   1       9.828   2.179   1.465  0.00  0.00     0.048 A 
ATOM     23  C   UNL d   1       9.580   0.832   1.162  0.00  0.00     0.018 A 
ATOM     24  C   UNL d   1       8.312   0.417   0.727  0.00  0.00     0.030 A 
BRANCH  22  25
ATOM     25  C   UNL d   1      11.165   2.606   2.019  0.00  0.00     0.417 C 
ATOM     26  F   UNL d   1      11.246   3.939   2.291  0.00  0.00    -0.166 F 
ATOM     27  F   UNL d   1      11.463   1.974   3.189  0.00  0.00    -0.166 F 
ATOM     28  F   UNL d   1      12.198   2.332   1.175  0.00  0.00    -0.166 F 
ENDBRANCH  22  25
ENDBRANCH   2  19
TORSDOF 5
