REMARK  3 active torsions:
REMARK  status: ('A' for Active; 'I' for Inactive)
REMARK    1  A    between atoms: O_4  and  C_1 
REMARK    2  A    between atoms: C_2  and  O_4 
REMARK    3  A    between atoms: N_5  and  C_3 
REMARK       I    between atoms: C_7  and  N_5 
ROOT
ATOM      1  C   UNL d   1       1.190   1.877   1.402  0.00  0.00     0.106 A 
ATOM      2  C   UNL d   1       0.120   2.484   2.088  0.00  0.00     0.068 A 
ATOM      3  C   UNL d   1       2.480   1.910   1.958  0.00  0.00     0.058 A 
ATOM      4  C   UNL d   1       0.372   3.124   3.314  0.00  0.00     0.034 A 
ATOM      5  C   UNL d   1       2.697   2.516   3.194  0.00  0.00     0.013 A 
ATOM      6  C   UNL d   1       1.651   3.129   3.874  0.00  0.00     0.021 A 
ATOM      7 BR   UNL d   1       4.434   2.538   3.941  0.00  0.00    -0.051 Br
ENDROOT
BRANCH   1   8
ATOM      8  O   UNL d   1       0.976   1.403   0.137  0.00  0.00    -0.253 OA
BRANCH   8   9
ATOM      9  C   UNL d   1       1.653   0.201  -0.201  0.00  0.00     0.530 C 
ATOM     10  F   UNL d   1       1.823  -0.618   0.862  0.00  0.00    -0.144 F 
ATOM     11  F   UNL d   1       2.871   0.502  -0.710  0.00  0.00    -0.144 F 
ATOM     12  F   UNL d   1       0.964  -0.465  -1.151  0.00  0.00    -0.144 F 
ENDBRANCH   8   9
ENDBRANCH   1   8
BRANCH   2  13
ATOM     13  N   UNL d   1      -1.221   2.548   1.639  0.00  0.00    -0.325 N 
ATOM     14  C   UNL d   1      -1.867   1.687   0.770  0.00  0.00     0.218 C 
ATOM     15  O   UNL d   1      -1.438   0.628   0.330  0.00  0.00    -0.274 OA
ATOM     16  C   UNL d   1      -3.254   2.163   0.407  0.00  0.00     0.117 C 
ATOM     17  H   UNL d   1      -1.819   3.190   2.143  0.00  0.00     0.169 HD
ENDBRANCH   2  13
TORSDOF 3
