REMARK  3 active torsions:
REMARK  status: ('A' for Active; 'I' for Inactive)
REMARK    1  A    between atoms: C_10  and  N_1 
REMARK    2  A    between atoms: N_7  and  C_2 
REMARK       I    between atoms: C_6  and  N_7 
REMARK       I    between atoms: N_9  and  C_6 
REMARK    3  A    between atoms: O_21  and  C_16 
ROOT
ATOM      1  N   UNL d   1       1.168  -0.494  -0.248  0.00  0.00    -0.259 N 
ATOM      2  C   UNL d   1      -0.276   1.174  -0.018  0.00  0.00     0.077 C 
ATOM      3  C   UNL d   1       1.073   0.870   0.024  0.00  0.00     0.059 C 
ATOM      4  N   UNL d   1       0.017  -0.951  -0.813  0.00  0.00    -0.302 N 
ATOM      5  HN  UNL d   1      -0.142  -1.846  -1.277  1.00  0.00     0.186 HD
ATOM      6  C   UNL d   1      -0.854   0.038  -0.622  0.00  0.00     0.139 C 
ATOM      7  C   UNL d   1       2.265   1.752   0.155  0.00  0.00     0.073 C 
ENDROOT
BRANCH   2   8
ATOM      8  N   UNL d   1      -0.941   2.356   0.313  0.00  0.00    -0.306 N 
ATOM      9  C   UNL d   1      -0.459   3.310   1.175  0.00  0.00     0.323 C 
ATOM     10  N   UNL d   1      -1.162   4.510   1.198  0.00  0.00    -0.330 N 
ATOM     11  O   UNL d   1       0.556   3.178   1.855  0.00  0.00    -0.247 OA
ATOM     12  C   UNL d   1      -0.560   5.621   1.946  0.00  0.00     0.153 C 
ATOM     13  C   UNL d   1      -2.599   4.692   0.954  0.00  0.00     0.153 C 
ATOM     14  C   UNL d   1      -0.891   6.951   1.274  0.00  0.00     0.187 C 
ATOM     15  O   UNL d   1      -2.312   7.130   1.200  0.00  0.00    -0.388 OA
ATOM     16  C   UNL d   1      -2.912   6.094   0.410  0.00  0.00     0.187 C 
ATOM     17  H   UNL d   1      -1.910   2.387   0.056  0.00  0.00     0.171 HD
ENDBRANCH   2   8
BRANCH   1  18
ATOM     18  C   UNL d   1       2.272  -1.377  -0.054  0.00  0.00     0.056 A 
ATOM     19  C   UNL d   1       3.273  -1.094   0.884  0.00  0.00     0.034 A 
ATOM     20  C   UNL d   1       4.372  -1.946   1.038  0.00  0.00     0.039 A 
ATOM     21  C   UNL d   1       4.475  -3.103   0.268  0.00  0.00     0.068 A 
ATOM     22  C   UNL d   1       3.448  -3.422  -0.623  0.00  0.00     0.039 A 
ATOM     23  C   UNL d   1       2.348  -2.570  -0.783  0.00  0.00     0.034 A 
BRANCH  21  24
ATOM     24  O   UNL d   1       5.495  -4.010   0.346  0.00  0.00    -0.356 OA
ATOM     25  C   UNL d   1       6.749  -3.495   0.783  0.00  0.00     0.210 C 
ENDBRANCH  21  24
ENDBRANCH   1  18
TORSDOF 3
