REMARK  8 active torsions:
REMARK  status: ('A' for Active; 'I' for Inactive)
REMARK    1  A    between atoms: N_2  and  C_1 
REMARK    2  A    between atoms: N_7  and  C_4 
REMARK    3  A    between atoms: S_18  and  C_6 
REMARK    4  A    between atoms: C_10  and  C_14 
REMARK    5  A    between atoms: O_21  and  C_10 
REMARK    6  A    between atoms: C_14  and  C_20 
REMARK    7  A    between atoms: C_20  and  S_18 
REMARK    8  A    between atoms: C_22  and  O_21 
ROOT
ATOM      1  C   UNL d   1       1.598   1.311   0.072  0.00  0.00     0.121 A 
ATOM      2  C   UNL d   1       0.197   1.257   0.013  0.00  0.00     0.063 A 
ATOM      3  C   UNL d   1       0.292  -1.161   0.043  0.00  0.00     0.061 A 
ATOM      4  C   UNL d   1       1.703  -1.074   0.142  0.00  0.00     0.052 A 
ATOM      5  C   UNL d   1       2.385   0.160   0.152  0.00  0.00     0.035 A 
ATOM      6  C   UNL d   1      -0.459   0.023  -0.000  0.00  0.00     0.063 A 
ATOM      7 CL   UNL d   1      -2.186   0.100   0.063  0.00  0.00    -0.082 Cl
ENDROOT
BRANCH   5   8
ATOM      8  S   UNL d   1       4.164   0.043  -0.001  0.00  0.00    -0.127 SA
BRANCH   8   9
ATOM      9  C   UNL d   1       4.854   0.886   1.474  0.00  0.00     0.089 C 
BRANCH   9  10
ATOM     10  C   UNL d   1       4.315   0.401   2.811  0.00  0.00     0.121 C 
BRANCH  10  11
ATOM     11  C   UNL d   1       5.129   1.005   3.932  0.00  0.00     0.259 C 
ATOM     12  O   UNL d   1       6.316   1.286   3.856  0.00  0.00    -0.265 OA
BRANCH  11  13
ATOM     13  O   UNL d   1       4.371   1.097   5.060  0.00  0.00    -0.322 OA
BRANCH  13  14
ATOM     14  C   UNL d   1       5.087   1.442   6.258  0.00  0.00     0.174 C 
ATOM     15  C   UNL d   1       5.583   0.166   6.911  0.00  0.00     0.034 C 
ENDBRANCH  13  14
ENDBRANCH  11  13
ENDBRANCH  10  11
ENDBRANCH   9  10
ENDBRANCH   8   9
ENDBRANCH   5   8
BRANCH   1  16
ATOM     16  N   UNL d   1       2.185   2.629   0.009  0.00  0.00    -0.114 N 
ATOM     17  O   UNL d   1       2.119   3.219  -1.075  0.00  0.00    -0.532 OA
ATOM     18  O   UNL d   1       2.626   3.093   1.066  0.00  0.00    -0.532 OA
ENDBRANCH   1  16
BRANCH   3  19
ATOM     19  N   UNL d   1      -0.285  -2.463  -0.068  0.00  0.00    -0.331 N 
ATOM     20  C   UNL d   1       0.230  -3.624   0.486  0.00  0.00     0.096 A 
ATOM     21  C   UNL d   1      -0.572  -4.689   0.139  0.00  0.00     0.019 A 
ATOM     22  C   UNL d   1      -1.597  -4.187  -0.684  0.00  0.00     0.019 A 
ATOM     23  C   UNL d   1      -1.391  -2.830  -0.809  0.00  0.00     0.096 A 
ENDBRANCH   3  19
TORSDOF 8
