REMARK  5 active torsions:
REMARK  status: ('A' for Active; 'I' for Inactive)
REMARK    1  A    between atoms: C_3  and  S_1 
REMARK    2  A    between atoms: N_9  and  S_1 
REMARK       I    between atoms: C_2  and  N_8 
REMARK    3  A    between atoms: C_10  and  C_2 
REMARK    4  A    between atoms: N_4  and  C_10 
REMARK    5  A    between atoms: N_8  and  C_14 
ROOT
ATOM      1  C   UNL d   1       2.427   7.259  -1.097  0.00  0.00     0.074 A 
ATOM      2  C   UNL d   1       2.037   6.051  -1.679  0.00  0.00     0.027 A 
ATOM      3  C   UNL d   1       1.529   7.978  -0.308  0.00  0.00     0.027 A 
ATOM      4  C   UNL d   1      -0.137   6.226  -0.591  0.00  0.00     0.034 A 
ATOM      5  C   UNL d   1       0.756   5.541  -1.427  0.00  0.00     0.031 A 
ATOM      6  C   UNL d   1       0.247   7.466  -0.070  0.00  0.00     0.031 A 
ENDROOT
BRANCH   4   7
ATOM      7  N   UNL d   1      -1.345   5.581  -0.251  0.00  0.00    -0.326 N 
ATOM      8  C   UNL d   1      -2.339   6.039   0.598  0.00  0.00     0.250 C 
ATOM      9  O   UNL d   1      -2.466   7.191   1.010  0.00  0.00    -0.271 OA
ATOM     10  H   UNL d   1      -1.454   4.607  -0.530  0.00  0.00     0.169 HD
BRANCH   8  11
ATOM     11  C   UNL d   1      -3.372   4.962   0.981  0.00  0.00     0.375 C 
BRANCH  11  12
ATOM     12  N   UNL d   1      -2.769   3.612   1.045  0.00  0.00     0.100 N 
ATOM     13  C   UNL d   1      -1.820   3.473   2.174  0.00  0.00     0.303 C 
ATOM     14  C   UNL d   1      -1.130   2.088   2.117  0.00  0.00     0.302 C 
ATOM     15  N   UNL d   1      -2.031   0.920   2.077  0.00  0.00     0.087 N 
ATOM     16  C   UNL d   1      -3.196   1.158   1.203  0.00  0.00     0.302 C 
ATOM     17  C   UNL d   1      -2.413   0.474   3.410  0.00  0.00     0.310 C 
ATOM     18  C   UNL d   1      -3.810   2.579   1.241  0.00  0.00     0.303 C 
ENDBRANCH  11  12
ENDBRANCH   8  11
ENDBRANCH   4   7
BRANCH   1  19
ATOM     19  S   UNL d   1       4.117   7.777  -1.192  0.00  0.00     0.239 S 
ATOM     20  O   UNL d   1       4.941   6.632  -1.518  0.00  0.00    -0.206 OA
ATOM     21  O   UNL d   1       4.414   8.640  -0.073  0.00  0.00    -0.206 OA
BRANCH  19  22
ATOM     22  N   UNL d   1       4.149   8.759  -2.550  0.00  0.00    -0.225 NA
ATOM     23  H   UNL d   1       4.760   8.342  -3.254  0.00  0.00     0.136 HD
ATOM     24  H   UNL d   1       4.438   9.699  -2.276  0.00  0.00     0.136 HD
ENDBRANCH  19  22
ENDBRANCH   1  19
TORSDOF 5
