REMARK  5 active torsions:
REMARK  status: ('A' for Active; 'I' for Inactive)
REMARK    1  A    between atoms: C_2  and  C_1 
REMARK    2  A    between atoms: C_10  and  C_2 
REMARK    3  A    between atoms: C_12  and  N_3 
REMARK    4  A    between atoms: C_14  and  C_10 
REMARK    5  A    between atoms: N_15  and  C_11 
ROOT
ATOM      1  C   UNL d   1      -0.218  -1.452   0.207  0.00  0.00     0.160 A 
ATOM      2  N   UNL d   1       0.356  -0.647  -0.783  0.00  0.00    -0.222 N 
ATOM      3  N   UNL d   1       0.744   0.510  -0.179  0.00  0.00    -0.219 N 
ATOM      4  HN  UNL d   1       1.226   1.294  -0.621  1.00  0.00     0.210 HD
ATOM      5  N   UNL d   1       0.379   0.426   1.085  0.00  0.00    -0.226 N 
ATOM      6  HN  UNL d   1       0.507   1.166   1.775  1.00  0.00     0.210 HD
ATOM      7  N   UNL d   1      -0.189  -0.780   1.346  0.00  0.00    -0.267 N 
ATOM      8  HN  UNL d   1      -0.530  -1.107   2.251  1.00  0.00     0.190 HD
ENDROOT
BRANCH   1   9
ATOM      9  C   UNL d   1      -0.580  -2.813   0.022  0.00  0.00     0.077 C 
ATOM     10  C   UNL d   1       0.403  -3.719   0.217  0.00  0.00     0.104 C 
BRANCH   9  11
ATOM     11  C   UNL d   1      -1.958  -3.188  -0.446  0.00  0.00     0.197 C 
ATOM     12  O   UNL d   1      -2.144  -4.197  -1.126  0.00  0.00    -0.286 OA
BRANCH  11  13
ATOM     13  C   UNL d   1      -3.128  -2.281  -0.267  0.00  0.00     0.015 A 
ATOM     14  C   UNL d   1      -4.134  -2.348  -1.248  0.00  0.00     0.015 A 
ATOM     15  C   UNL d   1      -5.274  -1.548  -1.160  0.00  0.00     0.001 A 
ATOM     16  C   UNL d   1      -5.417  -0.669  -0.091  0.00  0.00     0.000 A 
ATOM     17  C   UNL d   1      -4.434  -0.606   0.895  0.00  0.00     0.001 A 
ATOM     18  C   UNL d   1      -3.299  -1.422   0.819  0.00  0.00     0.015 A 
ENDBRANCH  11  13
ENDBRANCH   9  11
BRANCH  10  19
ATOM     19  N   UNL d   1       0.482  -5.108   0.194  0.00  0.00    -0.398 N 
ATOM     20  C   UNL d   1      -0.646  -6.004   0.446  0.00  0.00     0.148 C 
ATOM     21  C   UNL d   1       1.715  -5.801  -0.184  0.00  0.00     0.148 C 
ENDBRANCH  10  19
ENDBRANCH   1   9
BRANCH   2  22
ATOM     22  C   UNL d   1       0.589  -0.811  -2.181  0.00  0.00     0.060 A 
ATOM     23  C   UNL d   1      -0.034  -1.800  -2.949  0.00  0.00     0.033 A 
ATOM     24  C   UNL d   1       0.198  -1.877  -4.329  0.00  0.00     0.026 A 
ATOM     25  C   UNL d   1       1.068  -0.985  -4.947  0.00  0.00     0.034 A 
ATOM     26  C   UNL d   1       1.711  -0.007  -4.197  0.00  0.00     0.026 A 
ATOM     27 CL   UNL d   1       1.342  -1.087  -6.640  0.00  0.00    -0.084 Cl
ATOM     28  C   UNL d   1       1.465   0.087  -2.823  0.00  0.00     0.033 A 
ENDBRANCH   2  22
TORSDOF 5
