REMARK  7 active torsions:
REMARK  status: ('A' for Active; 'I' for Inactive)
REMARK       I    between atoms: C_2  and  N_1 
REMARK    1  A    between atoms: C_3  and  N_1 
REMARK    2  A    between atoms: C_8  and  C_2 
REMARK    3  A    between atoms: C_4  and  C_8 
REMARK    4  A    between atoms: C_10  and  C_4 
REMARK    5  A    between atoms: C_7  and  C_10 
REMARK    6  A    between atoms: O_13  and  C_7 
REMARK    7  A    between atoms: C_19  and  C_15 
ROOT
ATOM      1  N   UNL d   1      -1.193   3.258   1.451  0.00  0.00    -0.313 N 
ATOM      2  C   UNL d   1      -0.458   3.337   0.293  0.00  0.00     0.224 C 
ATOM      3  O   UNL d   1      -0.545   4.231  -0.550  0.00  0.00    -0.273 OA
ATOM      4  H   UNL d   1      -0.896   2.648   2.201  0.00  0.00     0.170 HD
ENDROOT
BRANCH   2   5
ATOM      5  C   UNL d   1       0.482   2.172   0.051  0.00  0.00     0.113 C 
BRANCH   5   6
ATOM      6  C   UNL d   1       1.985   2.542  -0.137  0.00  0.00    -0.023 C 
ATOM      7  C   UNL d   1       2.238   3.644  -1.211  0.00  0.00     0.010 C 
ATOM      8  C   UNL d   1       1.840   3.242  -2.628  0.00  0.00     0.001 C 
ATOM      9  C   UNL d   1       2.564   1.971  -3.052  0.00  0.00     0.000 C 
ATOM     10  C   UNL d   1       2.368   0.840  -2.047  0.00  0.00     0.001 C 
ATOM     11  C   UNL d   1       2.733   1.263  -0.614  0.00  0.00     0.010 C 
BRANCH   6  12
ATOM     12  C   UNL d   1       2.595   3.087   1.181  0.00  0.00     0.119 C 
BRANCH  12  13
ATOM     13  C   UNL d   1       2.715   2.125   2.325  0.00  0.00     0.140 C 
ATOM     14  O   UNL d   1       3.752   1.624   2.738  0.00  0.00    -0.650 OA
BRANCH  13  15
ATOM     15  O   UNL d   1       1.546   1.867   2.937  0.00  0.00    -0.776 OA
ATOM     16  H   UNL d   1       1.807   1.289   3.688  0.00  0.00     0.167 HD
ENDBRANCH  13  15
ENDBRANCH  12  13
ENDBRANCH   6  12
ENDBRANCH   5   6
ENDBRANCH   2   5
BRANCH   1  17
ATOM     17  C   UNL d   1      -2.193   4.167   1.824  0.00  0.00     0.107 A 
ATOM     18  N   UNL d   1      -2.536   4.162   3.126  0.00  0.00    -0.352 N 
ATOM     19  C   UNL d   1      -3.416   5.110   3.528  0.00  0.00     0.090 A 
ATOM     20  HN  UNL d   1      -2.151   3.478   3.778  1.00  0.00     0.166 HD
ATOM     21  C   UNL d   1      -3.977   6.073   2.695  0.00  0.00     0.024 A 
ATOM     22  C   UNL d   1      -3.641   6.051   1.345  0.00  0.00    -0.054 A 
ATOM     23  C   UNL d   1      -2.774   5.043   0.914  0.00  0.00     0.055 A 
BRANCH  22  24
ATOM     24  C   UNL d   1      -4.103   7.038   0.304  0.00  0.00     0.034 C 
ATOM     25  C   UNL d   1      -4.732   8.329   0.802  0.00  0.00     0.010 C 
ENDBRANCH  22  24
ENDBRANCH   1  17
TORSDOF 7
