REMARK  4 active torsions:
REMARK  status: ('A' for Active; 'I' for Inactive)
REMARK    1  A    between atoms: N_3  and  C_1 
REMARK       I    between atoms: C_5  and  N_3 
REMARK    2  A    between atoms: C_6  and  C_5 
REMARK    3  A    between atoms: C_7  and  C_8 
REMARK    4  A    between atoms: O_13  and  C_7 
ROOT
ATOM      1  N   UNL d   1       1.384   2.325   0.104  0.00  0.00    -0.323 N 
ATOM      2  C   UNL d   1       2.737   2.132   0.258  0.00  0.00     0.245 C 
ATOM      3  O   UNL d   1       3.352   1.080   0.357  0.00  0.00    -0.268 OA
ATOM      4  H   UNL d   1       1.049   3.279   0.137  0.00  0.00     0.169 HD
ENDROOT
BRANCH   1   5
ATOM      5  C   UNL d   1       0.370   1.369   0.019  0.00  0.00     0.048 A 
ATOM      6  C   UNL d   1       0.410  -0.064  -0.152  0.00  0.00    -0.028 A 
ATOM      7  C   UNL d   1      -0.868  -0.603  -0.104  0.00  0.00     0.058 A 
ATOM      8  C   UNL d   1       1.601  -0.938  -0.374  0.00  0.00     0.051 C 
ATOM      9  S   UNL d   1      -2.093   0.567   0.053  0.00  0.00    -0.111 SA
ATOM     10  C   UNL d   1      -0.939   1.818   0.085  0.00  0.00     0.079 A 
ENDBRANCH   1   5
BRANCH   2  11
ATOM     11  C   UNL d   1       3.464   3.429   0.346  0.00  0.00     0.081 C 
ATOM     12  C   UNL d   1       4.798   3.435   0.480  0.00  0.00     0.086 C 
BRANCH  12  13
ATOM     13  C   UNL d   1       5.485   4.732   0.587  0.00  0.00     0.165 C 
ATOM     14  O   UNL d   1       4.919   5.811   0.549  0.00  0.00    -0.647 OA
BRANCH  13  15
ATOM     15  O   UNL d   1       6.816   4.596   0.732  0.00  0.00    -0.773 OA
ATOM     16  H   UNL d   1       7.148   3.680   0.752  0.00  0.00     0.167 HD
ENDBRANCH  13  15
ENDBRANCH  12  13
ENDBRANCH   2  11
TORSDOF 4
