REMARK  7 active torsions:
REMARK  status: ('A' for Active; 'I' for Inactive)
REMARK    1  A    between atoms: C_2  and  S_1 
REMARK    2  A    between atoms: C_3  and  S_1 
REMARK    3  A    between atoms: C_6  and  C_2 
REMARK    4  A    between atoms: C_13  and  C_6 
REMARK    5  A    between atoms: O_22  and  C_6 
REMARK    6  A    between atoms: O_9  and  C_13 
REMARK    7  A    between atoms: C_10  and  O_9 
ROOT
ATOM      1  C   UNL d   1       0.987   2.513  -0.295  0.00  0.00     0.156 C 
ENDROOT
BRANCH   1   2
ATOM      2  C   UNL d   1       0.471   1.195  -0.864  0.00  0.00     0.179 C 
BRANCH   2   3
ATOM      3  S   UNL d   1       0.992  -0.230   0.054  0.00  0.00     0.178 S 
ATOM      4  O   UNL d   1       0.445  -0.132   1.396  0.00  0.00    -0.223 OA
ATOM      5  O   UNL d   1       2.412  -0.428  -0.160  0.00  0.00    -0.223 OA
BRANCH   3   6
ATOM      6  C   UNL d   1       0.183  -1.578  -0.773  0.00  0.00     0.059 A 
ATOM      7  C   UNL d   1       0.581  -1.900  -2.076  0.00  0.00     0.025 A 
ATOM      8  C   UNL d   1      -0.041  -2.956  -2.744  0.00  0.00     0.025 A 
ATOM      9  C   UNL d   1      -1.040  -3.687  -2.101  0.00  0.00     0.034 A 
ATOM     10  C   UNL d   1      -1.416  -3.379  -0.792  0.00  0.00     0.025 A 
ATOM     11 CL   UNL d   1      -1.811  -4.982  -2.931  0.00  0.00    -0.084 Cl
ATOM     12  C   UNL d   1      -0.802  -2.320  -0.120  0.00  0.00     0.025 A 
ENDBRANCH   3   6
ENDBRANCH   2   3
ENDBRANCH   1   2
BRANCH   1  13
ATOM     13  C   UNL d   1       2.525   2.591  -0.251  0.00  0.00     0.208 C 
BRANCH  13  14
ATOM     14  O   UNL d   1       2.959   3.875   0.212  0.00  0.00    -0.349 OA
BRANCH  14  15
ATOM     15  C   UNL d   1       4.322   4.038   0.258  0.00  0.00     0.069 A 
ATOM     16  C   UNL d   1       4.768   5.362   0.252  0.00  0.00     0.038 A 
ATOM     17  C   UNL d   1       6.137   5.649   0.248  0.00  0.00     0.022 A 
ATOM     18  C   UNL d   1       7.062   4.608   0.268  0.00  0.00     0.011 A 
ATOM     19  C   UNL d   1       6.630   3.286   0.316  0.00  0.00     0.022 A 
ATOM     20 BR   UNL d   1       8.913   4.985   0.223  0.00  0.00    -0.051 Br
ATOM     21  C   UNL d   1       5.261   3.002   0.316  0.00  0.00     0.038 A 
ENDBRANCH  14  15
ENDBRANCH  13  14
ENDBRANCH   1  13
BRANCH   1  22
ATOM     22  O   UNL d   1       0.436   3.553  -1.125  0.00  0.00    -0.392 OA
ATOM     23  H   UNL d   1       1.091   3.796  -1.803  0.00  0.00     0.210 HD
ENDBRANCH   1  22
TORSDOF 7
