REMARK  4 active torsions:
REMARK  status: ('A' for Active; 'I' for Inactive)
REMARK    1  A    between atoms: C_6  and  C_1 
REMARK    2  A    between atoms: N_11  and  C_3 
REMARK    3  A    between atoms: N_5  and  C_4 
REMARK    4  A    between atoms: C_12  and  N_11 
ROOT
ATOM      1  C   UNL d   1      -1.221   3.277  -5.034  0.00  0.00     0.139 C 
ATOM      2  C   UNL d   1      -2.207   3.005  -6.018  0.00  0.00     0.112 C 
ATOM      3  C   UNL d   1      -0.637   4.572  -4.977  0.00  0.00     0.112 C 
ATOM      4  N   UNL d   1      -2.996   2.741  -6.826  0.00  0.00    -0.191 NA
ATOM      5  N   UNL d   1      -0.137   5.619  -4.919  0.00  0.00    -0.191 NA
ATOM      6  C   UNL d   1      -0.807   2.325  -4.182  0.00  0.00     0.122 C 
ENDROOT
BRANCH   6   7
ATOM      7  N   UNL d   1      -1.191   1.006  -4.077  0.00  0.00    -0.362 N 
ATOM      8  H   UNL d   1      -1.783   0.597  -4.799  0.00  0.00     0.165 HD
BRANCH   7   9
ATOM      9  C   UNL d   1      -0.558   0.010  -3.294  0.00  0.00     0.059 A 
ATOM     10  C   UNL d   1      -0.094   0.322  -2.006  0.00  0.00     0.048 A 
ATOM     11  C   UNL d   1       0.500  -0.645  -1.191  0.00  0.00     0.050 A 
ATOM     12  C   UNL d   1       0.641  -1.942  -1.692  0.00  0.00     0.018 A 
ATOM     13  C   UNL d   1       0.203  -2.262  -2.985  0.00  0.00     0.032 A 
ATOM     14  C   UNL d   1      -0.394  -1.304  -3.821  0.00  0.00     0.057 A 
BRANCH  11  15
ATOM     15  C   UNL d   1       0.960  -0.294   0.201  0.00  0.00     0.417 C 
ATOM     16  F   UNL d   1       0.767   1.017   0.522  0.00  0.00    -0.166 F 
ATOM     17  F   UNL d   1       2.289  -0.527   0.384  0.00  0.00    -0.166 F 
ATOM     18  F   UNL d   1       0.315  -1.010   1.163  0.00  0.00    -0.166 F 
ENDBRANCH  11  15
BRANCH  14  19
ATOM     19  N   UNL d   1      -0.873  -1.621  -5.091  0.00  0.00    -0.375 N 
ATOM     20  C   UNL d   1      -1.256  -3.004  -5.436  0.00  0.00     0.149 C 
ATOM     21  C   UNL d   1      -2.313  -2.933  -6.555  0.00  0.00     0.187 C 
ATOM     22  O   UNL d   1      -1.827  -2.217  -7.707  0.00  0.00    -0.388 OA
ATOM     23  C   UNL d   1      -1.411  -0.886  -7.346  0.00  0.00     0.187 C 
ATOM     24  C   UNL d   1      -0.307  -0.928  -6.272  0.00  0.00     0.149 C 
ENDBRANCH  14  19
ENDBRANCH   7   9
ENDBRANCH   6   7
TORSDOF 4
