REMARK  4 active torsions:
REMARK  status: ('A' for Active; 'I' for Inactive)
REMARK    1  A    between atoms: C_2  and  C_14 
REMARK    2  A    between atoms: C_2  and  O_11 
REMARK    3  A    between atoms: C_16  and  O_11 
REMARK    4  A    between atoms: O_25  and  C_22 
ROOT
ATOM      1  C   UNL d   1      -1.341  -1.766  -0.612  0.00  0.00    -0.001 C 
ATOM      2  C   UNL d   1       0.362  -1.627   0.256  0.00  0.00     0.138 C 
ATOM      3  C   UNL d   1       0.202  -1.542  -1.869  0.00  0.00    -0.000 C 
ATOM      4  C   UNL d   1      -0.922  -0.437  -0.804  0.00  0.00     0.002 C 
ATOM      5  C   UNL d   1       0.891  -0.094  -2.152  0.00  0.00     0.027 C 
ATOM      6  C   UNL d   1      -1.879  -1.264  -2.334  0.00  0.00     0.018 C 
ATOM      7  C   UNL d   1       1.920   0.373  -0.629  0.00  0.00    -0.047 A 
ATOM      8  C   UNL d   1      -0.680   0.087  -2.958  0.00  0.00    -0.009 C 
ATOM      9  C   UNL d   1       2.649  -0.793   0.482  0.00  0.00    -0.049 A 
ATOM     10  C   UNL d   1       0.119  -0.364   1.213  0.00  0.00     0.048 C 
ATOM     11  C   UNL d   1      -0.668   0.484   0.351  0.00  0.00     0.009 C 
ATOM     12  C   UNL d   1       1.033  -3.197  -1.067  0.00  0.00     0.010 C 
ATOM     13  C   UNL d   1       2.264   1.694  -0.446  0.00  0.00     0.011 A 
ATOM     14  C   UNL d   1       2.449  -2.706   0.248  0.00  0.00     0.039 C 
ATOM     15  C   UNL d   1       3.454  -0.402   1.524  0.00  0.00     0.044 A 
ATOM     16  C   UNL d   1      -2.565  -1.912   0.279  0.00  0.00     0.019 C 
ATOM     17  C   UNL d   1       3.576   0.989   1.655  0.00  0.00     0.068 A 
ATOM     18  C   UNL d   1       3.055   1.964   0.703  0.00  0.00     0.037 A 
ATOM     19  C   UNL d   1      -0.576  -0.048  -4.478  0.00  0.00     0.011 C 
ENDROOT
BRANCH   2  20
ATOM     20  C   UNL d   1       0.334  -2.686   1.603  0.00  0.00     0.158 C 
ATOM     21  O   UNL d   1       0.909  -2.385   2.665  0.00  0.00    -0.295 OA
ATOM     22  C   UNL d   1      -0.361  -4.022   1.591  0.00  0.00     0.094 C 
ENDBRANCH   2  20
BRANCH   2  23
ATOM     23  O   UNL d   1       1.818  -1.575  -1.085  0.00  0.00    -0.302 OA
BRANCH  23  24
ATOM     24  C   UNL d   1       3.070  -1.514  -1.887  0.00  0.00     0.256 C 
ATOM     25  O   UNL d   1       4.203  -1.252  -1.486  0.00  0.00    -0.266 OA
ATOM     26  C   UNL d   1       2.917  -2.033  -3.306  0.00  0.00     0.126 C 
ENDBRANCH  23  24
ENDBRANCH   2  23
BRANCH  17  27
ATOM     27  O   UNL d   1       4.205   1.559   2.749  0.00  0.00    -0.356 OA
ATOM     28  C   UNL d   1       4.086   0.792   3.951  0.00  0.00     0.210 C 
ENDBRANCH  17  27
TORSDOF 4
