REMARK  5 active torsions:
REMARK  status: ('A' for Active; 'I' for Inactive)
REMARK    1  A    between atoms: C_4  and  C_1 
REMARK    2  A    between atoms: C_2  and  C_5 
REMARK    3  A    between atoms: C_3  and  C_6 
REMARK    4  A    between atoms: O_7  and  C_3 
REMARK    5  A    between atoms: C_8  and  O_7 
ROOT
ATOM      1  C   UNL d   1       0.224   1.163   0.859  0.00  0.00     0.049 A 
ATOM      2  C   UNL d   1       0.405   2.469   2.919  0.00  0.00     0.049 A 
ATOM      3  C   UNL d   1       0.574   3.576   0.750  0.00  0.00     0.041 A 
ATOM      4  C   UNL d   1       0.227   1.239   2.262  0.00  0.00     0.032 A 
ATOM      5  C   UNL d   1       0.577   3.634   2.151  0.00  0.00     0.034 A 
ATOM      6  C   UNL d   1       0.404   2.339   0.114  0.00  0.00     0.034 A 
ENDROOT
BRANCH   3   7
ATOM      7  C   UNL d   1       0.790   4.837  -0.017  0.00  0.00     0.298 C 
ATOM      8  O   UNL d   1       0.831   5.944   0.496  0.00  0.00    -0.259 OA
BRANCH   7   9
ATOM      9  O   UNL d   1       0.925   4.531  -1.359  0.00  0.00    -0.273 OA
BRANCH   9  10
ATOM     10  C   UNL d   1       1.758   5.431  -2.042  0.00  0.00     0.107 A 
ATOM     11  C   UNL d   1       3.096   5.568  -1.650  0.00  0.00     0.076 A 
ATOM     12  N   UNL d   1       3.606   4.843  -0.625  0.00  0.00    -0.363 N 
ATOM     13  C   UNL d   1       3.878   6.492  -2.369  0.00  0.00    -0.007 A 
ATOM     14  C   UNL d   1       4.880   5.074  -0.247  0.00  0.00     0.088 A 
ATOM     15  HN  UNL d   1       3.039   4.140  -0.150  1.00  0.00     0.165 HD
ATOM     16  C   UNL d   1       5.702   5.998  -0.858  0.00  0.00     0.018 A 
ATOM     17  C   UNL d   1       5.197   6.707  -1.942  0.00  0.00     0.015 A 
ATOM     18  C   UNL d   1       3.340   7.171  -3.480  0.00  0.00     0.014 A 
ATOM     19  C   UNL d   1       2.019   6.956  -3.877  0.00  0.00     0.004 A 
ATOM     20  C   UNL d   1       1.217   6.085  -3.151  0.00  0.00     0.040 A 
ENDBRANCH   9  10
ENDBRANCH   7   9
ENDBRANCH   3   7
BRANCH   1  21
ATOM     21  C   UNL d   1       0.048  -0.152   0.137  0.00  0.00     0.417 C 
ATOM     22  F   UNL d   1      -0.207  -1.198   0.970  0.00  0.00    -0.166 F 
ATOM     23  F   UNL d   1       1.150  -0.500  -0.580  0.00  0.00    -0.166 F 
ATOM     24  F   UNL d   1      -0.984  -0.119  -0.750  0.00  0.00    -0.166 F 
ENDBRANCH   1  21
BRANCH   2  25
ATOM     25  C   UNL d   1       0.432   2.549   4.429  0.00  0.00     0.417 C 
ATOM     26  F   UNL d   1       0.184   1.355   5.036  0.00  0.00    -0.166 F 
ATOM     27  F   UNL d   1       1.636   2.966   4.906  0.00  0.00    -0.166 F 
ATOM     28  F   UNL d   1      -0.493   3.417   4.922  0.00  0.00    -0.166 F 
ENDBRANCH   2  25
TORSDOF 5
