REMARK  4 active torsions:
REMARK  status: ('A' for Active; 'I' for Inactive)
REMARK    1  A    between atoms: N_5  and  C_1 
REMARK    2  A    between atoms: S_8  and  C_1 
REMARK    3  A    between atoms: C_4  and  C_12 
REMARK    4  A    between atoms: C_12  and  S_8 
ROOT
ATOM      1  S   UNL d   1       0.167   1.477   0.691  0.00  0.00    -0.093 SA
ENDROOT
BRANCH   1   2
ATOM      2  C   UNL d   1       0.768  -0.081   0.129  0.00  0.00     0.137 C 
ATOM      3  S   UNL d   1       2.115  -0.745   0.892  0.00  0.00    -0.053 SA
BRANCH   2   4
ATOM      4  N   UNL d   1       0.146  -0.621  -0.994  0.00  0.00    -0.367 N 
ATOM      5  C   UNL d   1       0.558  -1.869  -1.635  0.00  0.00     0.124 C 
ATOM      6  C   UNL d   1       0.119  -1.705  -3.080  0.00  0.00     0.021 C 
ATOM      7  C   UNL d   1      -1.185  -0.940  -2.948  0.00  0.00     0.021 C 
ATOM      8  C   UNL d   1      -0.941  -0.012  -1.762  0.00  0.00     0.124 C 
ENDBRANCH   2   4
ENDBRANCH   1   2
BRANCH   1   9
ATOM      9  C   UNL d   1      -1.331   0.993   1.587  0.00  0.00     0.160 C 
BRANCH   9  10
ATOM     10  C   UNL d   1      -1.152  -0.062   2.614  0.00  0.00     0.113 A 
ATOM     11  N   UNL d   1      -1.271  -1.402   2.321  0.00  0.00    -0.333 N 
ATOM     12  C   UNL d   1      -1.113  -1.946   3.497  0.00  0.00     0.260 A 
ATOM     13  HN  UNL d   1      -1.439  -1.852   1.421  1.00  0.00     0.168 HD
ATOM     14  O   UNL d   1      -0.939  -1.053   4.505  0.00  0.00    -0.232 OA
ATOM     15  N   UNL d   1      -0.978   0.213   3.914  0.00  0.00    -0.247 N 
ATOM     16  HN  UNL d   1      -0.896   1.125   4.363  1.00  0.00     0.196 HD
ENDBRANCH   9  10
ENDBRANCH   1   9
TORSDOF 4
