REMARK  6 active torsions:
REMARK  status: ('A' for Active; 'I' for Inactive)
REMARK    1  A    between atoms: C_7  and  C_2 
REMARK    2  A    between atoms: C_6  and  N_3 
REMARK    3  A    between atoms: N_9  and  C_6 
REMARK    4  A    between atoms: C_15  and  N_9 
REMARK    5  A    between atoms: C_11  and  O_14 
REMARK    6  A    between atoms: O_14  and  C_17 
ROOT
ATOM      1  C   UNL d   1       1.073  -0.846   0.423  0.00  0.00     0.049 A 
ATOM      2  C   UNL d   1       2.473  -1.389   0.527  0.00  0.00     0.244 C 
ATOM      3  N   UNL d   1       3.418  -0.246   0.276  0.00  0.00    -0.339 N 
ATOM      4  C   UNL d   1       0.695   0.479   0.317  0.00  0.00    -0.019 A 
ATOM      5  N   UNL d   1      -0.062  -1.614   0.383  0.00  0.00    -0.356 N 
ATOM      6  C   UNL d   1      -0.721   0.517   0.191  0.00  0.00    -0.001 A 
ATOM      7  C   UNL d   1      -1.168  -0.806   0.242  0.00  0.00     0.043 A 
ATOM      8  C   UNL d   1       3.044   1.067   0.859  0.00  0.00     0.131 C 
ATOM      9  C   UNL d   1       1.702   1.574   0.293  0.00  0.00     0.061 C 
ATOM     10  C   UNL d   1      -1.670   1.544   0.029  0.00  0.00     0.014 A 
ATOM     11  C   UNL d   1      -2.522  -1.150   0.150  0.00  0.00     0.030 A 
ATOM     12  C   UNL d   1      -3.028   1.215  -0.070  0.00  0.00     0.001 A 
ATOM     13  C   UNL d   1      -3.444  -0.112  -0.008  0.00  0.00     0.002 A 
ATOM     14  H   UNL d   1      -0.103  -2.624   0.440  0.00  0.00     0.166 HD
ENDROOT
BRANCH   3  15
ATOM     15  C   UNL d   1       4.700  -0.476  -0.212  0.00  0.00     0.175 C 
ATOM     16  S   UNL d   1       4.990  -1.454  -1.545  0.00  0.00    -0.041 SA
BRANCH  15  17
ATOM     17  N   UNL d   1       5.683   0.141   0.551  0.00  0.00    -0.331 N 
ATOM     18  H   UNL d   1       5.563   0.015   1.551  0.00  0.00     0.168 HD
BRANCH  17  19
ATOM     19  C   UNL d   1       6.953   0.567   0.102  0.00  0.00     0.068 A 
ATOM     20  C   UNL d   1       8.100   0.454   0.897  0.00  0.00     0.105 A 
ATOM     21  C   UNL d   1       9.293   1.069   0.489  0.00  0.00     0.039 A 
ATOM     22  C   UNL d   1       9.358   1.776  -0.710  0.00  0.00     0.003 A 
ATOM     23  C   UNL d   1       8.228   1.876  -1.513  0.00  0.00     0.002 A 
ATOM     24  C   UNL d   1       7.035   1.275  -1.112  0.00  0.00     0.032 A 
BRANCH  20  25
ATOM     25  O   UNL d   1       8.192  -0.194   2.096  0.00  0.00    -0.253 OA
BRANCH  25  26
ATOM     26  C   UNL d   1       7.624  -1.495   2.168  0.00  0.00     0.530 C 
ATOM     27  F   UNL d   1       7.477  -2.088   0.967  0.00  0.00    -0.144 F 
ATOM     28  F   UNL d   1       8.426  -2.275   2.924  0.00  0.00    -0.144 F 
ATOM     29  F   UNL d   1       6.420  -1.410   2.776  0.00  0.00    -0.144 F 
ENDBRANCH  25  26
ENDBRANCH  20  25
ENDBRANCH  17  19
ENDBRANCH  15  17
ENDBRANCH   3  15
BRANCH   2  30
ATOM     30  C   UNL d   1       2.777  -2.127   1.866  0.00  0.00     0.413 C 
ATOM     31  F   UNL d   1       1.663  -2.362   2.602  0.00  0.00    -0.168 F 
ATOM     32  F   UNL d   1       3.348  -3.335   1.633  0.00  0.00    -0.168 F 
ATOM     33  F   UNL d   1       3.632  -1.429   2.655  0.00  0.00    -0.168 F 
ENDBRANCH   2  30
TORSDOF 6
