REMARK  4 active torsions:
REMARK  status: ('A' for Active; 'I' for Inactive)
REMARK    1  A    between atoms: S_3  and  C_14 
REMARK    2  A    between atoms: C_15  and  C_4 
REMARK    3  A    between atoms: C_16  and  C_5 
REMARK    4  A    between atoms: C_8  and  C_17 
ROOT
ATOM      1  N   UNL d   1       1.437  -0.594  -0.048  0.00  0.00    -0.349 N 
ATOM      2  HN  UNL d   1       2.320  -1.104  -0.080  1.00  0.00     0.166 HD
ATOM      3  C   UNL d   1       0.241  -1.154  -0.044  0.00  0.00     0.084 A 
ATOM      4  C   UNL d   1       1.323   0.790  -0.004  0.00  0.00     0.050 A 
ATOM      5  S   UNL d   1      -1.076  -0.040   0.032  0.00  0.00    -0.081 SA
ATOM      6  C   UNL d   1       0.026   1.262   0.024  0.00  0.00     0.082 A 
ENDROOT
BRANCH   3   7
ATOM      7  C   UNL d   1      -0.015  -2.605  -0.055  0.00  0.00    -0.002 A 
ATOM      8  C   UNL d   1       0.895  -3.480   0.556  0.00  0.00     0.015 A 
ATOM      9  C   UNL d   1       0.670  -4.864   0.566  0.00  0.00     0.014 A 
ATOM     10  C   UNL d   1      -0.465  -5.406  -0.051  0.00  0.00    -0.008 A 
ATOM     11  C   UNL d   1      -1.369  -4.537  -0.673  0.00  0.00     0.014 A 
ATOM     12  C   UNL d   1      -1.147  -3.156  -0.674  0.00  0.00     0.015 A 
BRANCH  10  13
ATOM     13  C   UNL d   1      -0.710  -6.840  -0.097  0.00  0.00     0.063 A 
ATOM     14  N   UNL d   1      -1.379  -7.418  -1.173  0.00  0.00    -0.292 N 
ATOM     15  N   UNL d   1      -1.493  -8.728  -1.040  0.00  0.00    -0.061 NA
ATOM     16  HN  UNL d   1      -1.738  -6.892  -1.970  1.00  0.00     0.183 HD
ATOM     17  S   UNL d   1      -0.825  -9.296   0.382  0.00  0.00    -0.010 SA
ATOM     18  C   UNL d   1      -0.334  -7.732   0.892  0.00  0.00     0.096 A 
ENDBRANCH  10  13
ENDBRANCH   3   7
BRANCH   4  19
ATOM     19  C   UNL d   1       2.491   1.663  -0.005  0.00  0.00    -0.009 A 
ATOM     20  C   UNL d   1       3.658   1.278  -0.681  0.00  0.00     0.015 A 
ATOM     21  C   UNL d   1       4.783   2.110  -0.693  0.00  0.00     0.024 A 
ATOM     22  C   UNL d   1       4.739   3.338  -0.027  0.00  0.00     0.058 A 
ATOM     23  C   UNL d   1       3.593   3.732   0.663  0.00  0.00     0.024 A 
ATOM     24  C   UNL d   1       2.474   2.894   0.672  0.00  0.00     0.015 A 
BRANCH  22  25
ATOM     25  S   UNL d   1       6.183   4.374  -0.009  0.00  0.00     0.171 S 
ATOM     26  O   UNL d   1       5.833   5.606   0.678  0.00  0.00    -0.223 OA
ATOM     27  O   UNL d   1       7.283   3.551   0.450  0.00  0.00    -0.223 OA
ATOM     28  C   UNL d   1       6.461   4.780  -1.712  0.00  0.00     0.167 C 
ENDBRANCH  22  25
ENDBRANCH   4  19
TORSDOF 4
