REMARK  5 active torsions:
REMARK  status: ('A' for Active; 'I' for Inactive)
REMARK    1  A    between atoms: C_14  and  C_2 
REMARK    2  A    between atoms: S_12  and  C_5 
REMARK       I    between atoms: C_8  and  N_9 
REMARK       I    between atoms: N_11  and  C_8 
REMARK       I    between atoms: N_9  and  C_10 
REMARK    3  A    between atoms: C_10  and  C_18 
REMARK    4  A    between atoms: C_19  and  N_11 
REMARK    5  A    between atoms: C_18  and  S_12 
ROOT
ATOM      1  S   UNL d   1       0.208  -3.352  -0.943  0.00  0.00    -0.083 SA
ENDROOT
BRANCH   1   2
ATOM      2  C   UNL d   1       1.317  -4.284  -1.867  0.00  0.00     0.161 A 
ATOM      3  N   UNL d   1       2.581  -3.853  -2.129  0.00  0.00    -0.320 N 
ATOM      4  C   UNL d   1       3.142  -4.793  -2.962  0.00  0.00     0.132 A 
ATOM      5  H   UNL d   1       2.996  -2.993  -1.808  0.00  0.00     0.169 HD
ATOM      6  N   UNL d   1       2.252  -5.761  -3.128  0.00  0.00    -0.283 N 
ATOM      7  N   UNL d   1       1.103  -5.435  -2.445  0.00  0.00    -0.278 N 
ATOM      8  HN  UNL d   1       2.395  -6.611  -3.674  1.00  0.00     0.188 HD
ATOM      9  HN  UNL d   1       0.246  -5.987  -2.399  1.00  0.00     0.189 HD
BRANCH   4  10
ATOM     10  C   UNL d   1       4.470  -4.735  -3.577  0.00  0.00     0.012 A 
ATOM     11  C   UNL d   1       5.318  -3.629  -3.471  0.00  0.00     0.032 A 
ATOM     12  C   UNL d   1       6.544  -3.668  -4.124  0.00  0.00     0.088 A 
ATOM     13  N   UNL d   1       6.975  -4.715  -4.856  0.00  0.00    -0.375 N 
ATOM     14  C   UNL d   1       6.147  -5.774  -4.946  0.00  0.00     0.088 A 
ATOM     15  HN  UNL d   1       7.883  -4.705  -5.320  1.00  0.00     0.164 HD
ATOM     16  C   UNL d   1       4.908  -5.829  -4.333  0.00  0.00     0.032 A 
ENDBRANCH   4  10
ENDBRANCH   1   2
BRANCH   1  17
ATOM     17  C   UNL d   1      -1.341  -3.716  -1.831  0.00  0.00     0.185 C 
BRANCH  17  18
ATOM     18  C   UNL d   1      -2.165  -4.862  -1.262  0.00  0.00     0.235 C 
ATOM     19  N   UNL d   1      -1.938  -5.189   0.060  0.00  0.00    -0.278 N 
ATOM     20  C   UNL d   1      -2.711  -5.937   0.925  0.00  0.00     0.327 C 
ATOM     21  H   UNL d   1      -1.161  -4.743   0.528  0.00  0.00     0.173 HD
ATOM     22  N   UNL d   1      -3.819  -6.527   0.374  0.00  0.00    -0.309 N 
ATOM     23  O   UNL d   1      -2.364  -5.974   2.104  0.00  0.00    -0.247 OA
ATOM     24  H   UNL d   1      -3.901  -6.428  -0.637  0.00  0.00     0.170 HD
ATOM     25  O   UNL d   1      -3.053  -5.396  -1.931  0.00  0.00    -0.272 OA
BRANCH  22  26
ATOM     26  C   UNL d   1      -4.836  -7.253   1.028  0.00  0.00     0.036 A 
ATOM     27  C   UNL d   1      -4.887  -7.451   2.410  0.00  0.00     0.029 A 
ATOM     28  C   UNL d   1      -5.941  -8.166   2.990  0.00  0.00     0.002 A 
ATOM     29  C   UNL d   1      -6.956  -8.690   2.194  0.00  0.00     0.000 A 
ATOM     30  C   UNL d   1      -6.916  -8.502   0.815  0.00  0.00     0.002 A 
ATOM     31  C   UNL d   1      -5.862  -7.786   0.236  0.00  0.00     0.029 A 
ENDBRANCH  22  26
ENDBRANCH  17  18
ENDBRANCH   1  17
TORSDOF 5
