REMARK  4 active torsions:
REMARK  status: ('A' for Active; 'I' for Inactive)
REMARK    1  A    between atoms: C_4  and  C_1 
REMARK    2  A    between atoms: C_9  and  C_1 
REMARK       I    between atoms: C_7  and  N_2 
REMARK    3  A    between atoms: O_16  and  C_7 
REMARK    4  A    between atoms: C_23  and  O_16 
ROOT
ATOM      1  C   UNL d   1       1.027   0.163   0.054  0.00  0.00     0.073 C 
ATOM      2  N   UNL d   1       0.326   1.256  -0.100  0.00  0.00    -0.300 N 
ATOM      3  HN  UNL d   1      -0.690   1.218  -0.018  1.00  0.00     0.171 HD
ATOM      4  C   UNL d   1       0.937   2.451  -0.367  0.00  0.00     0.365 C 
ATOM      5  O   UNL d   1       1.851   2.620  -1.157  0.00  0.00    -0.238 OA
ENDROOT
BRANCH   1   6
ATOM      6  C   UNL d   1       2.532   0.073   0.128  0.00  0.00     0.060 A 
ATOM      7  N   UNL d   1       3.083  -0.988  -0.511  0.00  0.00    -0.363 N 
ATOM      8  C   UNL d   1       4.434  -1.047  -0.549  0.00  0.00     0.100 A 
ATOM      9  HN  UNL d   1       2.505  -1.708  -0.944  1.00  0.00     0.165 HD
ATOM     10  C   UNL d   1       5.282  -0.079  -0.011  0.00  0.00    -0.011 A 
ATOM     11  C   UNL d   1       4.682   1.003   0.660  0.00  0.00    -0.022 A 
ATOM     12  C   UNL d   1       6.681  -0.133  -0.136  0.00  0.00     0.013 A 
ATOM     13  C   UNL d   1       3.288   1.041   0.779  0.00  0.00     0.044 A 
ATOM     14  C   UNL d   1       5.492   2.035   1.159  0.00  0.00     0.012 A 
ATOM     15  C   UNL d   1       6.878   1.992   0.995  0.00  0.00     0.001 A 
ATOM     16  C   UNL d   1       7.472   0.904   0.360  0.00  0.00     0.001 A 
ENDBRANCH   1   6
BRANCH   1  17
ATOM     17  C   UNL d   1       0.246  -1.127   0.112  0.00  0.00    -0.007 A 
ATOM     18  C   UNL d   1      -0.995  -1.194  -0.544  0.00  0.00     0.015 A 
ATOM     19  C   UNL d   1      -1.720  -2.389  -0.577  0.00  0.00     0.024 A 
ATOM     20  C   UNL d   1      -1.213  -3.523   0.051  0.00  0.00     0.034 A 
ATOM     21  C   UNL d   1       0.004  -3.466   0.729  0.00  0.00     0.024 A 
ATOM     22 CL   UNL d   1      -2.086  -5.003  -0.016  0.00  0.00    -0.084 Cl
ATOM     23  C   UNL d   1       0.727  -2.269   0.769  0.00  0.00     0.015 A 
ENDBRANCH   1  17
BRANCH   4  24
ATOM     24  O   UNL d   1       0.389   3.429   0.397  0.00  0.00    -0.304 OA
BRANCH  24  25
ATOM     25  C   UNL d   1       1.046   4.704   0.347  0.00  0.00     0.176 C 
ATOM     26  C   UNL d   1       0.786   5.444  -0.953  0.00  0.00     0.034 C 
ENDBRANCH  24  25
ENDBRANCH   4  24
TORSDOF 4
