REMARK  2 active torsions:
REMARK  status: ('A' for Active; 'I' for Inactive)
REMARK    1  A    between atoms: C_3  and  N_1 
REMARK    2  A    between atoms: N_2  and  C_4 
ROOT
ATOM      1  C   UNL d   1       0.086   2.265   0.087  0.00  0.00     0.073 A 
ATOM      2  C   UNL d   1      -0.702   3.010   1.000  0.00  0.00     0.073 A 
ATOM      3  C   UNL d   1       0.838   2.996  -0.861  0.00  0.00     0.032 A 
ATOM      4  C   UNL d   1      -0.736   4.419   0.916  0.00  0.00     0.032 A 
ATOM      5  C   UNL d   1       0.817   4.395  -0.910  0.00  0.00     0.002 A 
ATOM      6  C   UNL d   1       0.031   5.106  -0.020  0.00  0.00     0.002 A 
ENDROOT
BRANCH   1   7
ATOM      7  N   UNL d   1       0.111   0.834   0.024  0.00  0.00    -0.243 N 
ATOM      8  C   UNL d   1      -0.906  -0.011   0.381  0.00  0.00     0.255 A 
ATOM      9  C   UNL d   1      -0.446  -1.387   0.161  0.00  0.00     0.080 A 
ATOM     10  O   UNL d   1      -2.047   0.205   0.749  0.00  0.00    -0.268 OA
ATOM     11  C   UNL d   1       0.762  -1.326  -0.390  0.00  0.00     0.080 A 
ATOM     12  C   UNL d   1       1.125   0.089  -0.517  0.00  0.00     0.255 A 
ATOM     13  O   UNL d   1       2.183   0.415  -1.030  0.00  0.00    -0.268 OA
ENDBRANCH   1   7
BRANCH   2  14
ATOM     14  N   UNL d   1      -1.380   2.440   2.097  0.00  0.00    -0.243 N 
ATOM     15  C   UNL d   1      -2.681   2.694   2.422  0.00  0.00     0.255 A 
ATOM     16  C   UNL d   1      -2.977   1.917   3.632  0.00  0.00     0.080 A 
ATOM     17  O   UNL d   1      -3.507   3.408   1.879  0.00  0.00    -0.268 OA
ATOM     18  C   UNL d   1      -1.858   1.298   4.008  0.00  0.00     0.080 A 
ATOM     19  C   UNL d   1      -0.814   1.617   3.024  0.00  0.00     0.255 A 
ATOM     20  O   UNL d   1       0.330   1.207   3.120  0.00  0.00    -0.268 OA
ENDBRANCH   2  14
TORSDOF 2
