REMARK  6 active torsions:
REMARK  status: ('A' for Active; 'I' for Inactive)
REMARK    1  A    between atoms: C_7  and  C_1 
REMARK    2  A    between atoms: C_3  and  C_2 
REMARK    3  A    between atoms: C_4  and  O_12 
REMARK    4  A    between atoms: O_24  and  C_7 
REMARK    5  A    between atoms: O_12  and  C_9 
REMARK    6  A    between atoms: N_23  and  C_16 
ROOT
ATOM      1  C   UNL d   1       0.830   1.263   0.160  0.00  0.00     0.070 A 
ATOM      2  C   UNL d   1       1.571   0.082   0.046  0.00  0.00     0.069 A 
ATOM      3  C   UNL d   1      -0.555   1.165   0.271  0.00  0.00     0.108 A 
ATOM      4  C   UNL d   1      -0.524  -1.117  -0.014  0.00  0.00     0.148 A 
ATOM      5  N   UNL d   1      -1.244   0.001   0.205  0.00  0.00    -0.346 N 
ATOM      6  HN  UNL d   1      -2.258  -0.029   0.315  1.00  0.00     0.167 HD
ATOM      7  C   UNL d   1       0.864  -1.130  -0.063  0.00  0.00     0.073 A 
ENDROOT
BRANCH   4   8
ATOM      8  O   UNL d   1      -1.153  -2.333  -0.253  0.00  0.00    -0.290 OA
BRANCH   8   9
ATOM      9  C   UNL d   1      -2.496  -2.302  -0.555  0.00  0.00     0.121 A 
ATOM     10  C   UNL d   1      -3.023  -1.615  -1.658  0.00  0.00     0.071 A 
ATOM     11  C   UNL d   1      -4.401  -1.625  -1.901  0.00  0.00     0.050 A 
ATOM     12 CL   UNL d   1      -2.029  -0.794  -2.816  0.00  0.00    -0.081 Cl
ATOM     13  C   UNL d   1      -5.261  -2.407  -1.129  0.00  0.00     0.009 A 
ATOM     14  C   UNL d   1      -4.735  -3.108  -0.044  0.00  0.00     0.050 A 
ATOM     15  C   UNL d   1      -3.362  -3.071   0.231  0.00  0.00     0.071 A 
ATOM     16 CL   UNL d   1      -2.773  -4.020   1.552  0.00  0.00    -0.081 Cl
BRANCH  13  17
ATOM     17  N   UNL d   1      -6.644  -2.320  -1.312  0.00  0.00    -0.303 NA
ATOM     18  H   UNL d   1      -7.169  -3.122  -0.976  0.00  0.00     0.124 HD
ATOM     19  H   UNL d   1      -6.934  -2.032  -2.242  0.00  0.00     0.124 HD
ENDBRANCH  13  17
ENDBRANCH   8   9
ENDBRANCH   4   8
BRANCH   2  20
ATOM     20  C   UNL d   1       3.072   0.018   0.046  0.00  0.00     0.418 C 
ATOM     21  F   UNL d   1       3.712   1.148   0.438  0.00  0.00    -0.166 F 
ATOM     22  F   UNL d   1       3.525  -0.950   0.896  0.00  0.00    -0.166 F 
ATOM     23  F   UNL d   1       3.574  -0.310  -1.176  0.00  0.00    -0.166 F 
ENDBRANCH   2  20
BRANCH   1  24
ATOM     24  C   UNL d   1       1.391   2.621   0.192  0.00  0.00     0.295 C 
ATOM     25  O   UNL d   1       0.999   3.482   0.963  0.00  0.00    -0.259 OA
BRANCH  24  26
ATOM     26  O   UNL d   1       2.297   2.772  -0.801  0.00  0.00    -0.322 OA
ATOM     27  C   UNL d   1       2.931   4.056  -0.805  0.00  0.00     0.213 C 
ENDBRANCH  24  26
ENDBRANCH   1  24
TORSDOF 6
