REMARK  6 active torsions:
REMARK  status: ('A' for Active; 'I' for Inactive)
REMARK    1  A    between atoms: C_10  and  C_1 
REMARK       I    between atoms: C_2  and  N_7 
REMARK    2  A    between atoms: C_3  and  C_2 
REMARK    3  A    between atoms: O_17  and  C_4 
REMARK    4  A    between atoms: O_18  and  C_5 
REMARK    5  A    between atoms: O_19  and  C_6 
REMARK    6  A    between atoms: N_7  and  C_11 
ROOT
ATOM      1  C   UNL d   1      -1.266   1.417   4.441  0.00  0.00     0.256 C 
ATOM      2  N   UNL d   1      -0.562   2.451   3.840  0.00  0.00    -0.323 N 
ATOM      3  O   UNL d   1      -2.150   1.528   5.278  0.00  0.00    -0.267 OA
ATOM      4  H   UNL d   1       0.120   2.201   3.139  0.00  0.00     0.169 HD
ENDROOT
BRANCH   1   5
ATOM      5  C   UNL d   1      -0.922   0.051   3.942  0.00  0.00     0.037 A 
ATOM      6  C   UNL d   1       0.366  -0.289   3.523  0.00  0.00     0.057 A 
ATOM      7  C   UNL d   1       0.626  -1.544   2.947  0.00  0.00     0.105 A 
ATOM      8  C   UNL d   1      -0.407  -2.501   2.838  0.00  0.00     0.135 A 
ATOM      9  C   UNL d   1      -1.680  -2.184   3.362  0.00  0.00     0.105 A 
ATOM     10  C   UNL d   1      -1.933  -0.908   3.884  0.00  0.00     0.057 A 
BRANCH   7  11
ATOM     11  O   UNL d   1       1.892  -1.884   2.543  0.00  0.00    -0.353 OA
ATOM     12  C   UNL d   1       2.719  -0.828   2.062  0.00  0.00     0.210 C 
ENDBRANCH   7  11
BRANCH   8  13
ATOM     13  O   UNL d   1      -0.309  -3.729   2.238  0.00  0.00    -0.351 OA
ATOM     14  C   UNL d   1       0.840  -4.074   1.483  0.00  0.00     0.210 C 
ENDBRANCH   8  13
BRANCH   9  15
ATOM     15  O   UNL d   1      -2.794  -2.989   3.374  0.00  0.00    -0.353 OA
ATOM     16  C   UNL d   1      -2.582  -4.394   3.469  0.00  0.00     0.210 C 
ENDBRANCH   9  15
ENDBRANCH   1   5
BRANCH   2  17
ATOM     17  C   UNL d   1      -0.794   3.838   3.970  0.00  0.00     0.035 A 
ATOM     18  C   UNL d   1      -1.810   4.393   4.750  0.00  0.00     0.045 A 
ATOM     19  C   UNL d   1      -2.047   5.780   4.745  0.00  0.00     0.050 A 
ATOM     20  C   UNL d   1      -1.218   6.614   3.978  0.00  0.00     0.016 A 
ATOM     21  C   UNL d   1      -0.181   6.072   3.224  0.00  0.00     0.003 A 
ATOM     22  C   UNL d   1       0.025   4.691   3.216  0.00  0.00     0.029 A 
BRANCH  19  23
ATOM     23  C   UNL d   1      -3.201   6.376   5.511  0.00  0.00     0.417 C 
ATOM     24  F   UNL d   1      -3.934   5.468   6.211  0.00  0.00    -0.166 F 
ATOM     25  F   UNL d   1      -4.085   7.014   4.692  0.00  0.00    -0.166 F 
ATOM     26  F   UNL d   1      -2.799   7.310   6.418  0.00  0.00    -0.166 F 
ENDBRANCH  19  23
ENDBRANCH   2  17
TORSDOF 6
