REMARK  9 active torsions:
REMARK  status: ('A' for Active; 'I' for Inactive)
REMARK    1  A    between atoms: N_3  and  C_22 
REMARK    2  A    between atoms: N_4  and  C_21 
REMARK    3  A    between atoms: C_17  and  C_7 
REMARK    4  A    between atoms: C_8  and  C_18 
REMARK    5  A    between atoms: N_15  and  N_13 
REMARK    6  A    between atoms: C_19  and  C_17 
REMARK    7  A    between atoms: C_18  and  C_20 
REMARK    8  A    between atoms: C_27  and  C_19 
REMARK    9  A    between atoms: C_28  and  C_20 
ROOT
ATOM      1  N   UNL d   1       1.686  -1.415  -1.066  0.00  0.00    -0.304 N 
ATOM      2  HN  UNL d   1       1.606  -0.724  -0.320  1.00  0.00     0.186 HD
ATOM      3  C   UNL d   1       0.784  -1.464  -2.002  0.00  0.00     0.038 C 
ENDROOT
BRANCH   1   4
ATOM      4  N   UNL d   1       2.751  -2.293  -1.077  0.00  0.00    -0.304 N 
ATOM      5  C   UNL d   1       3.772  -2.134  -1.867  0.00  0.00     0.038 C 
ATOM      6  HN  UNL d   1       2.738  -3.092  -0.443  1.00  0.00     0.186 HD
BRANCH   5   7
ATOM      7  C   UNL d   1       4.870  -3.210  -1.783  0.00  0.00     0.097 C 
BRANCH   7   8
ATOM      8  C   UNL d   1       4.448  -4.470  -1.013  0.00  0.00     0.172 A 
ATOM      9  O   UNL d   1       4.290  -4.184   0.398  0.00  0.00    -0.307 OA
ATOM     10  C   UNL d   1       5.008  -5.021   1.196  0.00  0.00     0.294 A 
ATOM     11  O   UNL d   1       5.027  -5.041   2.409  0.00  0.00    -0.259 OA
ATOM     12  C   UNL d   1       5.776  -5.872   0.304  0.00  0.00     0.048 A 
ATOM     13  C   UNL d   1       5.476  -5.545  -1.005  0.00  0.00    -0.012 A 
ATOM     14  C   UNL d   1       6.692  -6.849   0.648  0.00  0.00     0.018 A 
ATOM     15  C   UNL d   1       6.100  -6.217  -2.044  0.00  0.00     0.011 A 
ATOM     16  C   UNL d   1       7.042  -7.205  -1.728  0.00  0.00     0.001 A 
ATOM     17  C   UNL d   1       7.336  -7.520  -0.390  0.00  0.00     0.001 A 
ENDBRANCH   7   8
ENDBRANCH   5   7
BRANCH   5  18
ATOM     18  C   UNL d   1       3.910  -1.055  -2.908  0.00  0.00    -0.012 A 
ATOM     19  C   UNL d   1       4.324  -1.401  -4.205  0.00  0.00     0.016 A 
ATOM     20  C   UNL d   1       4.163  -0.506  -5.269  0.00  0.00     0.037 A 
ATOM     21  C   UNL d   1       3.588   0.748  -5.036  0.00  0.00     0.102 A 
ATOM     22  C   UNL d   1       3.232   1.133  -3.738  0.00  0.00     0.037 A 
ATOM     23  C   UNL d   1       3.416   0.237  -2.676  0.00  0.00     0.016 A 
BRANCH  21  24
ATOM     24  N   UNL d   1       3.290   1.629  -6.173  0.00  0.00    -0.116 N 
ATOM     25  O   UNL d   1       2.801   2.739  -5.923  0.00  0.00    -0.532 OA
ATOM     26  O   UNL d   1       3.514   1.196  -7.311  0.00  0.00    -0.532 OA
ENDBRANCH  21  24
ENDBRANCH   5  18
ENDBRANCH   1   4
BRANCH   3  27
ATOM     27  C   UNL d   1      -0.417  -0.533  -1.869  0.00  0.00     0.097 C 
BRANCH  27  28
ATOM     28  C   UNL d   1      -0.642   0.007  -0.458  0.00  0.00     0.172 A 
ATOM     29  O   UNL d   1      -0.887  -1.081   0.463  0.00  0.00    -0.307 OA
ATOM     30  C   UNL d   1      -2.085  -0.984   1.092  0.00  0.00     0.294 A 
ATOM     31  C   UNL d   1      -2.738   0.199   0.557  0.00  0.00     0.048 A 
ATOM     32  O   UNL d   1      -2.551  -1.753   1.918  0.00  0.00    -0.259 OA
ATOM     33  C   UNL d   1      -1.900   0.796  -0.364  0.00  0.00    -0.012 A 
ATOM     34  C   UNL d   1      -4.004   0.673   0.842  0.00  0.00     0.018 A 
ATOM     35  C   UNL d   1      -2.318   1.929  -1.044  0.00  0.00     0.011 A 
ATOM     36  C   UNL d   1      -3.599   2.429  -0.783  0.00  0.00     0.001 A 
ATOM     37  C   UNL d   1      -4.438   1.803   0.155  0.00  0.00     0.001 A 
ENDBRANCH  27  28
ENDBRANCH   3  27
BRANCH   3  38
ATOM     38  C   UNL d   1       0.893  -2.232  -3.289  0.00  0.00    -0.012 A 
ATOM     39  C   UNL d   1       1.437  -3.522  -3.328  0.00  0.00     0.016 A 
ATOM     40  C   UNL d   1       1.921  -4.044  -4.532  0.00  0.00     0.037 A 
ATOM     41  C   UNL d   1       1.789  -3.299  -5.712  0.00  0.00     0.102 A 
ATOM     42  C   UNL d   1       1.124  -2.067  -5.705  0.00  0.00     0.037 A 
ATOM     43  C   UNL d   1       0.685  -1.534  -4.490  0.00  0.00     0.016 A 
BRANCH  41  44
ATOM     44  N   UNL d   1       2.460  -3.747  -6.939  0.00  0.00    -0.116 N 
ATOM     45  O   UNL d   1       3.199  -4.738  -6.857  0.00  0.00    -0.532 OA
ATOM     46  O   UNL d   1       2.293  -3.074  -7.965  0.00  0.00    -0.532 OA
ENDBRANCH  41  44
ENDBRANCH   3  38
TORSDOF 9
