REMARK  2 active torsions:
REMARK  status: ('A' for Active; 'I' for Inactive)
REMARK    1  A    between atoms: N_5  and  C_1 
REMARK    2  A    between atoms: C_6  and  N_5 
ROOT
ATOM      1  N   UNL d   1      -0.451   2.728  -0.242  0.00  0.00    -0.337 N 
ATOM      2  H   UNL d   1      -0.761   2.298  -1.102  0.00  0.00     0.168 HD
ENDROOT
BRANCH   1   3
ATOM      3  C   UNL d   1      -1.088   2.334   0.905  0.00  0.00     0.140 C 
ATOM      4  N   UNL d   1      -0.688   2.633   2.083  0.00  0.00    -0.371 N 
ATOM      5  C   UNL d   1      -1.307   2.251   3.335  0.00  0.00     0.122 C 
ATOM      6  HN  UNL d   1       0.157   3.201   2.147  1.00  0.00     0.161 HD
ATOM      7  C   UNL d   1      -2.239   1.064   3.236  0.00  0.00     0.030 C 
ATOM      8  C   UNL d   1      -3.281   1.314   2.170  0.00  0.00     0.084 C 
ATOM      9  S   UNL d   1      -2.486   1.335   0.553  0.00  0.00    -0.094 SA
ENDBRANCH   1   3
BRANCH   1  10
ATOM     10  C   UNL d   1       0.403   3.834  -0.385  0.00  0.00     0.034 A 
ATOM     11  C   UNL d   1       1.416   3.806  -1.356  0.00  0.00     0.036 A 
ATOM     12  C   UNL d   1       2.346   4.853  -1.467  0.00  0.00    -0.060 A 
ATOM     13  C   UNL d   1       3.469   4.795  -2.460  0.00  0.00     0.048 C 
ATOM     14  C   UNL d   1       2.250   5.949  -0.603  0.00  0.00     0.007 A 
ATOM     15  C   UNL d   1       1.249   5.995   0.361  0.00  0.00     0.003 A 
ATOM     16  C   UNL d   1       0.344   4.939   0.474  0.00  0.00     0.029 A 
ENDBRANCH   1  10
TORSDOF 2
