REMARK  5 active torsions:
REMARK  status: ('A' for Active; 'I' for Inactive)
REMARK    1  A    between atoms: C_11  and  C_1 
REMARK    2  A    between atoms: N_17  and  C_3 
REMARK    3  A    between atoms: S_20  and  C_6 
REMARK    4  A    between atoms: N_22  and  C_10 
REMARK    5  A    between atoms: C_12  and  C_11 
ROOT
ATOM      1  C   UNL d   1      -2.379  -0.574  -0.013  0.00  0.00     0.085 A 
ATOM      2  C   UNL d   1      -0.303   0.593  -0.091  0.00  0.00     0.044 A 
ATOM      3  C   UNL d   1      -1.761   0.668  -0.038  0.00  0.00     0.061 A 
ATOM      4  C   UNL d   1       0.083  -0.741  -0.134  0.00  0.00     0.090 A 
ATOM      5  S   UNL d   1      -1.209  -1.831  -0.103  0.00  0.00    -0.065 SA
ATOM      6  C   UNL d   1       0.773   1.536  -0.076  0.00  0.00     0.039 A 
ATOM      7  C   UNL d   1       2.099   1.048  -0.082  0.00  0.00     0.100 A 
ATOM      8  N   UNL d   1       1.334  -1.229  -0.180  0.00  0.00    -0.339 N 
ATOM      9  HN  UNL d   1       1.522  -2.230  -0.243  1.00  0.00     0.167 HD
ATOM     10  C   UNL d   1       2.317  -0.327  -0.139  0.00  0.00     0.101 A 
ATOM     11  C   UNL d   1       3.232   1.921   0.009  0.00  0.00     0.104 C 
ATOM     12  N   UNL d   1       4.156   2.618   0.093  0.00  0.00    -0.191 NA
ENDROOT
BRANCH   6  13
ATOM     13  S   UNL d   1       0.370   3.277   0.065  0.00  0.00    -0.132 SA
ATOM     14  C   UNL d   1       1.043   3.923  -1.496  0.00  0.00     0.095 C 
ENDBRANCH   6  13
BRANCH  10  15
ATOM     15  N   UNL d   1       3.594  -0.884  -0.217  0.00  0.00    -0.287 NA
ATOM     16  H   UNL d   1       3.493  -1.899  -0.202  0.00  0.00     0.125 HD
ATOM     17  H   UNL d   1       4.234  -0.561   0.502  0.00  0.00     0.125 HD
ENDBRANCH  10  15
BRANCH   3  18
ATOM     18  N   UNL d   1      -2.425   1.847   0.029  0.00  0.00    -0.397 N 
ATOM     19  H   UNL d   1      -1.894   2.713   0.155  0.00  0.00     0.156 HD
ATOM     20  H   UNL d   1      -3.371   1.935   0.389  0.00  0.00     0.156 HD
ENDBRANCH   3  18
BRANCH   1  21
ATOM     21  C   UNL d   1      -3.761  -1.017   0.126  0.00  0.00     0.201 C 
ATOM     22  O   UNL d   1      -4.058  -2.046   0.740  0.00  0.00    -0.286 OA
BRANCH  21  23
ATOM     23  C   UNL d   1      -4.918  -0.283  -0.470  0.00  0.00     0.018 A 
ATOM     24  C   UNL d   1      -4.806   0.558  -1.580  0.00  0.00     0.061 A 
ATOM     25  C   UNL d   1      -5.950   1.166  -2.100  0.00  0.00     0.155 A 
ATOM     26  F   UNL d   1      -5.831   1.986  -3.153  0.00  0.00    -0.203 F 
ATOM     27  C   UNL d   1      -7.204   0.927  -1.546  0.00  0.00     0.154 A 
ATOM     28  C   UNL d   1      -7.337   0.074  -0.461  0.00  0.00     0.046 A 
ATOM     29  F   UNL d   1      -8.294   1.511  -2.061  0.00  0.00    -0.203 F 
ATOM     30  C   UNL d   1      -6.197  -0.529   0.075  0.00  0.00     0.018 A 
ENDBRANCH  21  23
ENDBRANCH   1  21
TORSDOF 5
