REMARK  4 active torsions:
REMARK  status: ('A' for Active; 'I' for Inactive)
REMARK    1  A    between atoms: C_2  and  S_1 
REMARK    2  A    between atoms: C_3  and  S_1 
REMARK    3  A    between atoms: N_13  and  N_4 
REMARK    4  A    between atoms: C_15  and  N_13 
ROOT
ATOM      1  C   UNL d   1       0.357   1.142   1.183  0.00  0.00     0.229 C 
ATOM      2  N   UNL d   1      -0.344   2.155   0.761  0.00  0.00    -0.281 N 
ATOM      3  HN  UNL d   1      -0.674   2.854   1.427  1.00  0.00     0.188 HD
ATOM      4  C   UNL d   1       0.806   0.138   0.265  0.00  0.00     0.132 C 
ATOM      5  N   UNL d   1       1.125  -0.658  -0.520  0.00  0.00    -0.189 NA
ENDROOT
BRANCH   1   6
ATOM      6  S   UNL d   1       0.792   0.933   2.852  0.00  0.00     0.234 S 
ATOM      7  O   UNL d   1       2.233   1.074   2.956  0.00  0.00    -0.215 OA
ATOM      8  O   UNL d   1       0.082  -0.228   3.352  0.00  0.00    -0.215 OA
BRANCH   6   9
ATOM      9  C   UNL d   1       0.148   2.271   3.745  0.00  0.00     0.073 A 
ATOM     10  C   UNL d   1      -1.138   2.268   4.368  0.00  0.00     0.031 A 
ATOM     11  C   UNL d   1      -1.394   3.451   5.027  0.00  0.00     0.051 A 
ATOM     12  S   UNL d   1      -0.096   4.558   4.890  0.00  0.00    -0.112 SA
ATOM     13  C   UNL d   1       0.821   3.457   3.951  0.00  0.00     0.073 A 
ENDBRANCH   6   9
ENDBRANCH   1   6
BRANCH   2  14
ATOM     14  N   UNL d   1      -0.639   2.291  -0.566  0.00  0.00    -0.299 N 
ATOM     15  H   UNL d   1      -0.741   1.484  -1.188  0.00  0.00     0.187 HD
BRANCH  14  16
ATOM     16  C   UNL d   1      -1.430   3.397  -0.950  0.00  0.00     0.048 A 
ATOM     17  C   UNL d   1      -1.772   4.413  -0.046  0.00  0.00     0.032 A 
ATOM     18  C   UNL d   1      -2.498   5.533  -0.457  0.00  0.00     0.026 A 
ATOM     19  C   UNL d   1      -2.870   5.661  -1.791  0.00  0.00     0.034 A 
ATOM     20  C   UNL d   1      -2.513   4.683  -2.715  0.00  0.00     0.026 A 
ATOM     21 CL   UNL d   1      -3.764   7.039  -2.299  0.00  0.00    -0.084 Cl
ATOM     22  C   UNL d   1      -1.787   3.560  -2.297  0.00  0.00     0.032 A 
ENDBRANCH  14  16
ENDBRANCH   2  14
TORSDOF 4
