REMARK  4 active torsions:
REMARK  status: ('A' for Active; 'I' for Inactive)
REMARK    1  A    between atoms: N_2  and  C_1 
REMARK    2  A    between atoms: N_6  and  C_1 
REMARK    3  A    between atoms: C_3  and  N_2 
REMARK    4  A    between atoms: C_8  and  N_6 
ROOT
ATOM      1  C   UNL d   1       0.958  -0.082   0.056  0.00  0.00     0.177 C 
ATOM      2  S   UNL d   1       2.588   0.058   0.427  0.00  0.00    -0.040 SA
ENDROOT
BRANCH   1   3
ATOM      3  N   UNL d   1       0.433  -0.600  -1.091  0.00  0.00    -0.319 N 
ATOM      4  H   UNL d   1      -0.290  -0.047  -1.530  0.00  0.00     0.169 HD
BRANCH   3   5
ATOM      5  C   UNL d   1       0.943  -1.586  -1.940  0.00  0.00     0.107 A 
ATOM      6  N   UNL d   1       0.496  -1.519  -3.211  0.00  0.00    -0.351 N 
ATOM      7  C   UNL d   1       0.923  -2.482  -4.067  0.00  0.00     0.113 A 
ATOM      8  HN  UNL d   1      -0.135  -0.777  -3.515  1.00  0.00     0.166 HD
ATOM      9  C   UNL d   1       1.738  -3.540  -3.697  0.00  0.00     0.049 A 
ATOM     10  C   UNL d   1       2.147  -3.618  -2.375  0.00  0.00     0.029 A 
ATOM     11 CL   UNL d   1       2.216  -4.731  -4.835  0.00  0.00    -0.083 Cl
ATOM     12  C   UNL d   1       1.745  -2.626  -1.480  0.00  0.00     0.050 A 
ENDBRANCH   3   5
ENDBRANCH   1   3
BRANCH   1  13
ATOM     13  N   UNL d   1       0.080   0.477   0.945  0.00  0.00    -0.333 N 
ATOM     14  H   UNL d   1       0.547   1.045   1.645  0.00  0.00     0.168 HD
BRANCH  13  15
ATOM     15  C   UNL d   1      -1.293   0.239   1.172  0.00  0.00     0.037 A 
ATOM     16  C   UNL d   1      -2.035  -0.769   0.555  0.00  0.00     0.071 A 
ATOM     17  C   UNL d   1      -3.369  -0.962   0.906  0.00  0.00     0.118 A 
ATOM     18  F   UNL d   1      -4.066  -1.942   0.315  0.00  0.00    -0.206 F 
ATOM     19  C   UNL d   1      -3.985  -0.176   1.870  0.00  0.00     0.042 A 
ATOM     20  C   UNL d   1      -3.254   0.826   2.499  0.00  0.00     0.005 A 
ATOM     21  C   UNL d   1      -1.914   1.029   2.152  0.00  0.00     0.029 A 
ENDBRANCH  13  15
ENDBRANCH   1  13
TORSDOF 4
