REMARK  0 active torsions:
REMARK  status: ('A' for Active; 'I' for Inactive)
ROOT
ATOM      1  C   UNL d   1       1.238  -0.681   0.009  0.00  0.00    -0.043 A 
ATOM      2  C   UNL d   1       1.250   0.722   0.093  0.00  0.00    -0.043 A 
ATOM      3  C   UNL d   1      -1.251  -0.668   0.117  0.00  0.00    -0.043 A 
ATOM      4  C   UNL d   1      -1.236   0.736   0.200  0.00  0.00    -0.043 A 
ATOM      5  C   UNL d   1      -0.011  -1.337   0.025  0.00  0.00     0.017 A 
ATOM      6  C   UNL d   1       0.012   1.391   0.221  0.00  0.00     0.017 A 
ATOM      7  C   UNL d   1       2.549   1.537   0.093  0.00  0.00    -0.020 C 
ATOM      8  C   UNL d   1       2.521  -1.511  -0.142  0.00  0.00    -0.020 C 
ATOM      9  C   UNL d   1      -2.552  -1.486   0.175  0.00  0.00    -0.020 C 
ATOM     10  C   UNL d   1      -2.538   1.535   0.263  0.00  0.00    -0.020 C 
ATOM     11  C   UNL d   1       3.777  -0.686   0.216  0.00  0.00     0.015 C 
ATOM     12  C   UNL d   1       3.747   0.699  -0.408  0.00  0.00     0.015 C 
ATOM     13  C   UNL d   1      -3.841  -0.644  -0.049  0.00  0.00     0.015 C 
ATOM     14  C   UNL d   1      -3.603   0.773  -0.551  0.00  0.00     0.015 C 
ATOM     15  C   UNL d   1       2.617  -2.007  -1.602  0.00  0.00     0.020 C 
ATOM     16  C   UNL d   1       2.821   2.033   1.531  0.00  0.00     0.020 C 
ATOM     17  C   UNL d   1       2.461   2.770  -0.838  0.00  0.00     0.020 C 
ATOM     18  C   UNL d   1      -2.639  -2.139   1.576  0.00  0.00     0.020 C 
ATOM     19  C   UNL d   1      -2.555  -2.631  -0.869  0.00  0.00     0.020 C 
ATOM     20  C   UNL d   1       2.529  -2.746   0.790  0.00  0.00     0.020 C 
ATOM     21  C   UNL d   1      -2.964   1.723   1.732  0.00  0.00     0.020 C 
ATOM     22  C   UNL d   1      -2.428   2.945  -0.370  0.00  0.00     0.020 C 
ENDROOT
TORSDOF 0
