REMARK  8 active torsions:
REMARK  status: ('A' for Active; 'I' for Inactive)
REMARK    1  A    between atoms: N_10  and  C_1 
REMARK    2  A    between atoms: C_11  and  C_2 
REMARK    3  A    between atoms: C_16  and  C_5 
REMARK    4  A    between atoms: C_6  and  S_15 
REMARK       I    between atoms: C_14  and  N_10 
REMARK    5  A    between atoms: O_20  and  C_11 
REMARK    6  A    between atoms: C_19  and  C_14 
REMARK    7  A    between atoms: S_15  and  C_19 
REMARK    8  A    between atoms: C_25  and  O_20 
ROOT
ATOM      1  N   UNL d   1      -0.241   2.646   0.135  0.00  0.00    -0.320 N 
ATOM      2  C   UNL d   1       0.184   3.615  -0.756  0.00  0.00     0.232 C 
ATOM      3  O   UNL d   1       1.084   3.482  -1.584  0.00  0.00    -0.272 OA
ATOM      4  H   UNL d   1      -1.216   2.711   0.434  0.00  0.00     0.169 HD
ENDROOT
BRANCH   1   5
ATOM      5  C   UNL d   1       0.295   1.378   0.117  0.00  0.00     0.093 A 
ATOM      6  C   UNL d   1       1.558   0.848  -0.044  0.00  0.00     0.074 A 
ATOM      7  C   UNL d   1       1.458  -0.592  -0.135  0.00  0.00     0.040 A 
ATOM      8  C   UNL d   1       0.179  -1.094   0.037  0.00  0.00     0.018 A 
ATOM      9  S   UNL d   1      -0.907   0.198   0.342  0.00  0.00    -0.071 SA
BRANCH   6  10
ATOM     10  C   UNL d   1       2.850   1.540  -0.061  0.00  0.00     0.296 C 
ATOM     11  O   UNL d   1       3.875   0.990  -0.448  0.00  0.00    -0.259 OA
BRANCH  10  12
ATOM     12  O   UNL d   1       2.833   2.754   0.569  0.00  0.00    -0.318 OA
BRANCH  12  13
ATOM     13  C   UNL d   1       4.119   3.279   0.934  0.00  0.00     0.174 C 
ATOM     14  C   UNL d   1       4.785   4.038  -0.199  0.00  0.00     0.034 C 
ENDBRANCH  12  13
ENDBRANCH  10  12
ENDBRANCH   6  10
BRANCH   8  15
ATOM     15  C   UNL d   1      -0.282  -2.497  -0.010  0.00  0.00    -0.019 A 
ATOM     16  C   UNL d   1       0.477  -3.461  -0.696  0.00  0.00     0.013 A 
ATOM     17  C   UNL d   1       0.075  -4.799  -0.750  0.00  0.00     0.001 A 
ATOM     18  C   UNL d   1      -1.100  -5.199  -0.122  0.00  0.00     0.000 A 
ATOM     19  C   UNL d   1      -1.871  -4.262   0.559  0.00  0.00     0.001 A 
ATOM     20  C   UNL d   1      -1.465  -2.925   0.617  0.00  0.00     0.013 A 
ENDBRANCH   8  15
ENDBRANCH   1   5
BRANCH   2  21
ATOM     21  C   UNL d   1      -0.635   4.891  -0.669  0.00  0.00     0.185 C 
BRANCH  21  22
ATOM     22  S   UNL d   1      -2.072   4.794  -1.774  0.00  0.00    -0.085 SA
BRANCH  22  23
ATOM     23  C   UNL d   1      -3.171   3.834  -0.857  0.00  0.00     0.145 A 
ATOM     24  N   UNL d   1      -3.047   3.425   0.383  0.00  0.00    -0.335 N 
ATOM     25  C   UNL d   1      -4.233   2.765   0.647  0.00  0.00     0.061 A 
ATOM     26  HN  UNL d   1      -2.254   3.562   1.011  1.00  0.00     0.168 HD
ATOM     27  C   UNL d   1      -4.693   2.169   1.832  0.00  0.00     0.032 A 
ATOM     28  C   UNL d   1      -5.049   2.732  -0.482  0.00  0.00     0.061 A 
ATOM     29  C   UNL d   1      -5.955   1.556   1.833  0.00  0.00     0.002 A 
ATOM     30  C   UNL d   1      -6.741   1.527   0.678  0.00  0.00     0.002 A 
ATOM     31  C   UNL d   1      -6.302   2.117  -0.512  0.00  0.00     0.032 A 
ATOM     32  N   UNL d   1      -4.335   3.419  -1.431  0.00  0.00    -0.335 N 
ATOM     33  H   UNL d   1      -4.620   3.612  -2.378  0.00  0.00     0.168 HD
ENDBRANCH  22  23
ENDBRANCH  21  22
ENDBRANCH   2  21
TORSDOF 8
