REMARK  3 active torsions:
REMARK  status: ('A' for Active; 'I' for Inactive)
REMARK    1  A    between atoms: C_2  and  C_1 
REMARK       I    between atoms: N_5  and  C_2 
REMARK    2  A    between atoms: C_3  and  C_4 
REMARK    3  A    between atoms: C_6  and  N_5 
ROOT
ATOM      1  C   UNL d   1       0.659   1.228  -0.331  0.00  0.00     0.062 A 
ATOM      2  C   UNL d   1      -0.304   0.687   0.538  0.00  0.00     0.066 A 
ATOM      3  N   UNL d   1       0.980  -1.001  -1.315  0.00  0.00    -0.374 N 
ATOM      4  HN  UNL d   1       1.464  -1.604  -1.980  1.00  0.00     0.164 HD
ATOM      5  C   UNL d   1       1.262   0.324  -1.219  0.00  0.00     0.105 A 
ATOM      6  C   UNL d   1      -0.617  -0.688   0.435  0.00  0.00     0.034 A 
ATOM      7  C   UNL d   1       0.036  -1.478  -0.492  0.00  0.00     0.088 A 
ENDROOT
BRANCH   1   8
ATOM      8  C   UNL d   1       1.085   2.657  -0.521  0.00  0.00     0.258 C 
ATOM      9  N   UNL d   1       0.624   3.651   0.325  0.00  0.00    -0.321 N 
ATOM     10  H   UNL d   1       0.280   3.416   1.251  0.00  0.00     0.169 HD
ATOM     11  O   UNL d   1       1.857   2.878  -1.453  0.00  0.00    -0.267 OA
BRANCH   9  12
ATOM     12  C   UNL d   1       0.750   5.054   0.107  0.00  0.00     0.056 A 
ATOM     13  C   UNL d   1       0.441   5.948   1.152  0.00  0.00     0.060 A 
ATOM     14 CL   UNL d   1      -0.075   5.373   2.700  0.00  0.00    -0.082 Cl
ATOM     15  C   UNL d   1       0.546   7.332   0.974  0.00  0.00     0.026 A 
ATOM     16  C   UNL d   1       0.949   7.851  -0.256  0.00  0.00     0.002 A 
ATOM     17  C   UNL d   1       1.238   6.984  -1.305  0.00  0.00     0.002 A 
ATOM     18  C   UNL d   1       1.133   5.599  -1.125  0.00  0.00     0.031 A 
ENDBRANCH   9  12
ENDBRANCH   1   8
BRANCH   2  19
ATOM     19  C   UNL d   1      -1.051   1.481   1.564  0.00  0.00     0.418 C 
ATOM     20  F   UNL d   1      -0.224   2.248   2.324  0.00  0.00    -0.166 F 
ATOM     21  F   UNL d   1      -1.957   2.330   1.014  0.00  0.00    -0.166 F 
ATOM     22  F   UNL d   1      -1.746   0.716   2.451  0.00  0.00    -0.166 F 
ENDBRANCH   2  19
TORSDOF 3
