REMARK  1 active torsions:
REMARK  status: ('A' for Active; 'I' for Inactive)
REMARK    1  A    between atoms: C_8  and  C_4 
ROOT
ATOM      1  C   UNL d   1      -2.316   0.605  -0.609  0.00  0.00     0.003 C 
ATOM      2  C   UNL d   1      -1.049   1.384  -0.711  0.00  0.00     0.190 C 
ATOM      3  C   UNL d   1       0.226   0.686  -0.370  0.00  0.00     0.031 A 
ATOM      4  C   UNL d   1      -3.323   0.916  -1.448  0.00  0.00     0.023 C 
ATOM      5  S   UNL d   1      -1.155  -1.733   0.021  0.00  0.00    -0.124 SA
ATOM      6  C   UNL d   1       0.288  -0.690  -0.106  0.00  0.00     0.015 A 
ATOM      7  C   UNL d   1      -2.331  -0.434   0.470  0.00  0.00     0.122 C 
ATOM      8  O   UNL d   1      -1.053   2.563  -1.054  0.00  0.00    -0.287 OA
ATOM      9  C   UNL d   1       1.405   1.448  -0.357  0.00  0.00     0.017 A 
ATOM     10  C   UNL d   1       1.534  -1.297   0.110  0.00  0.00     0.019 A 
ATOM     11  C   UNL d   1       2.635   0.838  -0.109  0.00  0.00     0.001 A 
ATOM     12  C   UNL d   1       2.700  -0.535   0.107  0.00  0.00     0.001 A 
ENDROOT
BRANCH   4  13
ATOM     13  C   UNL d   1      -4.604   0.213  -1.362  0.00  0.00    -0.035 A 
ATOM     14  C   UNL d   1      -5.683   0.845  -0.738  0.00  0.00     0.023 A 
ATOM     15  C   UNL d   1      -6.785   0.097  -0.300  0.00  0.00    -0.025 A 
ATOM     16  C   UNL d   1      -7.831   0.699   0.415  0.00  0.00     0.012 A 
ATOM     17  C   UNL d   1      -6.806  -1.300  -0.519  0.00  0.00    -0.026 A 
ATOM     18  C   UNL d   1      -8.853  -0.075   0.963  0.00  0.00     0.001 A 
ATOM     19  C   UNL d   1      -8.847  -1.457   0.794  0.00  0.00     0.001 A 
ATOM     20  C   UNL d   1      -7.841  -2.065   0.042  0.00  0.00     0.012 A 
ATOM     21  C   UNL d   1      -5.777  -1.899  -1.258  0.00  0.00     0.013 A 
ATOM     22  C   UNL d   1      -4.685  -1.143  -1.690  0.00  0.00     0.012 A 
ENDBRANCH   4  13
TORSDOF 1
