REMARK  3 active torsions:
REMARK  status: ('A' for Active; 'I' for Inactive)
REMARK    1  A    between atoms: C_4  and  N_1 
REMARK    2  A    between atoms: S_6  and  C_4 
REMARK    3  A    between atoms: C_7  and  S_6 
ROOT
ATOM      1  C   UNL d   1       2.214  -2.313  -0.112  0.00  0.00     0.213 C 
ENDROOT
BRANCH   1   2
ATOM      2  N   UNL d   1       1.811  -0.904  -0.119  0.00  0.00    -0.321 N 
ATOM      3  C   UNL d   1       1.424  -0.181   1.014  0.00  0.00     0.147 A 
ATOM      4  S   UNL d   1       1.000   1.485   0.555  0.00  0.00    -0.058 SA
ATOM      5  S   UNL d   1       1.313  -0.707   2.594  0.00  0.00    -0.052 SA
ATOM      6  C   UNL d   1       1.331   1.157  -1.147  0.00  0.00     0.034 A 
ATOM      7  C   UNL d   1       1.754  -0.158  -1.330  0.00  0.00     0.054 A 
ATOM      8  C   UNL d   1       1.203   2.042  -2.208  0.00  0.00     0.021 A 
ATOM      9  C   UNL d   1       2.062  -0.610  -2.609  0.00  0.00     0.031 A 
ATOM     10  C   UNL d   1       1.940   0.272  -3.689  0.00  0.00     0.002 A 
ATOM     11  C   UNL d   1       1.512   1.591  -3.490  0.00  0.00     0.002 A 
ENDBRANCH   1   2
BRANCH   1  12
ATOM     12  S   UNL d   1       4.009  -2.500  -0.299  0.00  0.00    -0.073 SA
BRANCH  12  13
ATOM     13  C   UNL d   1       4.097  -4.252  -0.569  0.00  0.00     0.145 A 
ATOM     14  N   UNL d   1       3.046  -5.022  -0.234  0.00  0.00    -0.341 N 
ATOM     15  C   UNL d   1       3.172  -6.353  -0.437  0.00  0.00     0.008 A 
ATOM     16  HN  UNL d   1       2.194  -4.620   0.156  1.00  0.00     0.167 HD
ATOM     17  C   UNL d   1       2.017  -7.227  -0.048  0.00  0.00     0.068 C 
ATOM     18  C   UNL d   1       4.314  -6.916  -0.969  0.00  0.00     0.041 A 
ATOM     19  C   UNL d   1       5.324  -6.042  -1.288  0.00  0.00     0.092 A 
ATOM     20  N   UNL d   1       5.241  -4.712  -1.101  0.00  0.00    -0.347 N 
ATOM     21  HN  UNL d   1       6.007  -4.086  -1.350  1.00  0.00     0.167 HD
ENDBRANCH  12  13
ENDBRANCH   1  12
TORSDOF 3
