REMARK  4 active torsions:
REMARK  status: ('A' for Active; 'I' for Inactive)
REMARK    1  A    between atoms: N_6  and  S_1 
REMARK    2  A    between atoms: C_12  and  S_1 
REMARK    3  A    between atoms: C_2  and  C_5 
REMARK       I    between atoms: C_5  and  N_10 
REMARK    4  A    between atoms: N_10  and  N_6 
ROOT
ATOM      1  N   UNL d   1       0.554  -1.516  -0.496  0.00  0.00    -0.220 N 
ATOM      2  H   UNL d   1      -0.092  -2.051   0.091  0.00  0.00     0.200 HD
ENDROOT
BRANCH   1   3
ATOM      3  S   UNL d   1       1.119   0.011  -0.056  0.00  0.00     0.276 S 
ATOM      4  O   UNL d   1       0.554   0.956  -0.998  0.00  0.00    -0.199 OA
ATOM      5  O   UNL d   1       2.553  -0.096   0.105  0.00  0.00    -0.199 OA
BRANCH   3   6
ATOM      6  C   UNL d   1       0.393   0.301   1.533  0.00  0.00     0.081 A 
ATOM      7  C   UNL d   1       1.109  -0.030   2.688  0.00  0.00     0.027 A 
ATOM      8  C   UNL d   1       0.595   0.317   3.941  0.00  0.00     0.025 A 
ATOM      9  C   UNL d   1      -0.621   0.995   4.030  0.00  0.00     0.034 A 
ATOM     10  C   UNL d   1      -1.333   1.329   2.877  0.00  0.00     0.025 A 
ATOM     11 CL   UNL d   1      -1.237   1.444   5.572  0.00  0.00    -0.084 Cl
ATOM     12  C   UNL d   1      -0.824   0.986   1.621  0.00  0.00     0.027 A 
ENDBRANCH   3   6
ENDBRANCH   1   3
BRANCH   1  13
ATOM     13  N   UNL d   1       0.955  -2.018  -1.795  0.00  0.00    -0.256 N 
ATOM     14  C   UNL d   1       0.497  -3.234  -2.276  0.00  0.00     0.280 C 
ATOM     15  O   UNL d   1      -0.245  -3.939  -1.594  0.00  0.00    -0.265 OA
ATOM     16  H   UNL d   1       1.574  -1.425  -2.344  0.00  0.00     0.191 HD
BRANCH  14  17
ATOM     17  C   UNL d   1       0.951  -3.584  -3.607  0.00  0.00     0.115 A 
ATOM     18  C   UNL d   1       0.740  -4.721  -4.380  0.00  0.00     0.046 A 
ATOM     19  N   UNL d   1       1.351  -4.691  -5.634  0.00  0.00    -0.298 N 
ATOM     20  C   UNL d   1      -0.026  -5.950  -4.051  0.00  0.00     0.071 C 
ATOM     21  N   UNL d   1       2.012  -3.569  -5.841  0.00  0.00    -0.269 N 
ATOM     22  HN  UNL d   1       1.292  -5.450  -6.313  1.00  0.00     0.187 HD
ATOM     23  S   UNL d   1       1.926  -2.525  -4.552  0.00  0.00     0.009 SA
ATOM     24  HN  UNL d   1       2.521  -3.364  -6.701  1.00  0.00     0.195 HD
ENDBRANCH  14  17
ENDBRANCH   1  13
TORSDOF 4
