REMARK  8 active torsions:
REMARK  status: ('A' for Active; 'I' for Inactive)
REMARK    1  A    between atoms: C_2  and  C_1 
REMARK       I    between atoms: N_6  and  C_2 
REMARK    2  A    between atoms: C_5  and  C_3 
REMARK    3  A    between atoms: C_4  and  C_7 
REMARK    4  A    between atoms: C_7  and  N_6 
REMARK    5  A    between atoms: S_19  and  C_11 
REMARK    6  A    between atoms: O_21  and  C_13 
REMARK    7  A    between atoms: O_20  and  C_14 
REMARK    8  A    between atoms: C_26  and  S_19 
ROOT
ATOM      1  C   UNL d   1       0.894   2.519   1.036  0.00  0.00     0.255 C 
ATOM      2  N   UNL d   1       0.389   3.662   0.414  0.00  0.00    -0.348 N 
ATOM      3  O   UNL d   1       1.960   2.510   1.654  0.00  0.00    -0.267 OA
ATOM      4  C   UNL d   1      -1.044   3.932   0.334  0.00  0.00     0.153 C 
ENDROOT
BRANCH   1   5
ATOM      5  C   UNL d   1       0.135   1.242   1.053  0.00  0.00     0.062 A 
ATOM      6  C   UNL d   1      -0.565   0.640   0.003  0.00  0.00     0.067 A 
ATOM      7  C   UNL d   1      -1.201  -0.599   0.255  0.00  0.00     0.054 A 
ATOM      8  C   UNL d   1      -1.097  -1.208   1.497  0.00  0.00     0.070 A 
ATOM      9  N   UNL d   1      -0.398  -0.657   2.502  0.00  0.00    -0.360 N 
ATOM     10  C   UNL d   1       0.207   0.533   2.255  0.00  0.00     0.106 A 
ATOM     11  HN  UNL d   1      -0.324  -1.113   3.412  1.00  0.00     0.166 HD
BRANCH   6  12
ATOM     12  C   UNL d   1      -0.720   1.188  -1.386  0.00  0.00     0.418 C 
ATOM     13  F   UNL d   1       0.095   2.210  -1.734  0.00  0.00    -0.166 F 
ATOM     14  F   UNL d   1      -0.510   0.228  -2.339  0.00  0.00    -0.166 F 
ATOM     15  F   UNL d   1      -1.988   1.636  -1.606  0.00  0.00    -0.166 F 
ENDBRANCH   6  12
BRANCH   8  16
ATOM     16  S   UNL d   1      -1.876  -2.790   1.746  0.00  0.00    -0.113 SA
BRANCH  16  17
ATOM     17  C   UNL d   1      -1.894  -2.875   3.566  0.00  0.00     0.076 C 
ATOM     18  C   UNL d   1      -2.530  -4.183   4.007  0.00  0.00     0.016 C 
ENDBRANCH  16  17
ENDBRANCH   8  16
ENDBRANCH   1   5
BRANCH   2  19
ATOM     19  C   UNL d   1       1.239   4.863   0.439  0.00  0.00     0.169 C 
BRANCH  19  20
ATOM     20  C   UNL d   1       2.260   5.130  -0.670  0.00  0.00     0.026 A 
ATOM     21  C   UNL d   1       2.521   6.495  -0.994  0.00  0.00     0.078 A 
ATOM     22  C   UNL d   1       3.629   6.852  -1.774  0.00  0.00     0.037 A 
ATOM     23  C   UNL d   1       4.525   5.884  -2.200  0.00  0.00     0.005 A 
ATOM     24  C   UNL d   1       4.274   4.549  -1.917  0.00  0.00     0.037 A 
ATOM     25  C   UNL d   1       3.120   4.155  -1.219  0.00  0.00     0.078 A 
BRANCH  21  26
ATOM     26  O   UNL d   1       1.645   7.426  -0.482  0.00  0.00    -0.355 OA
ATOM     27  C   UNL d   1       1.983   8.801  -0.623  0.00  0.00     0.210 C 
ENDBRANCH  21  26
BRANCH  25  28
ATOM     28  O   UNL d   1       2.901   2.828  -0.973  0.00  0.00    -0.355 OA
ATOM     29  C   UNL d   1       3.102   1.938  -2.072  0.00  0.00     0.210 C 
ENDBRANCH  25  28
ENDBRANCH  19  20
ENDBRANCH   2  19
TORSDOF 8
