REMARK  4 active torsions:
REMARK  status: ('A' for Active; 'I' for Inactive)
REMARK    1  A    between atoms: C_2  and  C_1 
REMARK       I    between atoms: N_3  and  C_1 
REMARK    2  A    between atoms: C_6  and  N_3 
REMARK    3  A    between atoms: C_20  and  N_3 
REMARK    4  A    between atoms: C_4  and  C_5 
ROOT
ATOM      1  C   UNL d   1       0.948  -0.346  -0.302  0.00  0.00     0.260 C 
ATOM      2  N   UNL d   1       0.269   0.377  -1.310  0.00  0.00    -0.312 N 
ATOM      3  O   UNL d   1       2.163  -0.553  -0.287  0.00  0.00    -0.267 OA
ENDROOT
BRANCH   1   4
ATOM      4  C   UNL d   1       0.220  -0.848   0.877  0.00  0.00     0.062 A 
ATOM      5  C   UNL d   1       0.639  -0.553   2.185  0.00  0.00     0.066 A 
ATOM      6  C   UNL d   1      -0.090  -1.098   3.255  0.00  0.00     0.034 A 
ATOM      7  C   UNL d   1      -1.182  -1.906   2.985  0.00  0.00     0.088 A 
ATOM      8  N   UNL d   1      -1.569  -2.234   1.738  0.00  0.00    -0.374 N 
ATOM      9  C   UNL d   1      -0.844  -1.727   0.715  0.00  0.00     0.105 A 
ATOM     10  HN  UNL d   1      -2.374  -2.839   1.572  1.00  0.00     0.164 HD
BRANCH   5  11
ATOM     11  C   UNL d   1       1.865   0.273   2.470  0.00  0.00     0.418 C 
ATOM     12  F   UNL d   1       2.019   1.345   1.647  0.00  0.00    -0.166 F 
ATOM     13  F   UNL d   1       1.830   0.809   3.730  0.00  0.00    -0.166 F 
ATOM     14  F   UNL d   1       3.017  -0.446   2.426  0.00  0.00    -0.166 F 
ENDBRANCH   5  11
ENDBRANCH   1   4
BRANCH   2  15
ATOM     15  C   UNL d   1       1.098   0.961  -2.330  0.00  0.00     0.059 A 
ATOM     16  C   UNL d   1       1.863   0.171  -3.213  0.00  0.00     0.062 A 
ATOM     17  C   UNL d   1       2.667   0.770  -4.189  0.00  0.00     0.050 A 
ATOM     18 CL   UNL d   1       1.743  -1.558  -3.247  0.00  0.00    -0.082 Cl
ATOM     19  C   UNL d   1       2.702   2.158  -4.299  0.00  0.00     0.035 A 
ATOM     20  C   UNL d   1       1.948   2.954  -3.442  0.00  0.00     0.026 A 
ATOM     21 CL   UNL d   1       3.666   2.895  -5.518  0.00  0.00    -0.084 Cl
ATOM     22  C   UNL d   1       1.157   2.359  -2.456  0.00  0.00     0.033 A 
ENDBRANCH   2  15
BRANCH   2  23
ATOM     23  C   UNL d   1      -1.105   0.894  -1.149  0.00  0.00     0.128 C 
ATOM     24  C   UNL d   1      -1.820   1.321  -2.432  0.00  0.00     0.027 C 
ENDBRANCH   2  23
TORSDOF 4
