REMARK  3 active torsions:
REMARK  status: ('A' for Active; 'I' for Inactive)
REMARK    1  A    between atoms: C_15  and  C_3 
REMARK    2  A    between atoms: C_7  and  S_14 
REMARK    3  A    between atoms: S_14  and  C_15 
ROOT
ATOM      1  C   UNL d   1       4.459   6.323  -0.062  0.00  0.00     0.049 A 
ATOM      2  C   UNL d   1       2.814   4.522   0.009  0.00  0.00     0.023 A 
ATOM      3  C   UNL d   1       4.151   4.959  -0.042  0.00  0.00     0.052 A 
ATOM      4  C   UNL d   1       3.444   7.279  -0.030  0.00  0.00     0.041 A 
ATOM      5  C   UNL d   1       1.808   5.501   0.061  0.00  0.00     0.028 A 
ATOM      6  C   UNL d   1       2.103   6.881   0.029  0.00  0.00    -0.039 A 
ATOM      7 CL   UNL d   1       5.494   3.864  -0.080  0.00  0.00    -0.083 Cl
ATOM      8 CL   UNL d   1       3.917   8.939  -0.056  0.00  0.00    -0.084 Cl
ATOM      9  C   UNL d   1       0.947   7.843   0.060  0.00  0.00     0.050 C 
ENDROOT
BRANCH   2  10
ATOM     10  S   UNL d   1       2.417   2.770   0.100  0.00  0.00    -0.121 SA
BRANCH  10  11
ATOM     11  C   UNL d   1       0.863   2.603  -0.848  0.00  0.00     0.158 C 
BRANCH  11  12
ATOM     12  C   UNL d   1       0.961   3.064  -2.257  0.00  0.00     0.113 A 
ATOM     13  N   UNL d   1       0.573   4.326  -2.646  0.00  0.00    -0.333 N 
ATOM     14  C   UNL d   1       0.801   4.289  -3.935  0.00  0.00     0.260 A 
ATOM     15  HN  UNL d   1       0.203   5.090  -2.079  1.00  0.00     0.168 HD
ATOM     16  O   UNL d   1       1.272   3.098  -4.380  0.00  0.00    -0.232 OA
ATOM     17  N   UNL d   1       1.368   2.270  -3.258  0.00  0.00    -0.247 N 
ATOM     18  HN  UNL d   1       1.673   1.298  -3.212  1.00  0.00     0.196 HD
ENDBRANCH  11  12
ENDBRANCH  10  11
ENDBRANCH   2  10
TORSDOF 3
