REMARK  2 active torsions:
REMARK  status: ('A' for Active; 'I' for Inactive)
REMARK    1  A    between atoms: C_2  and  N_1 
REMARK    2  A    between atoms: C_12  and  C_5 
ROOT
ATOM      1  C   UNL d   1       3.300  -0.034  -0.157  0.00  0.00     0.129 A 
ATOM      2  C   UNL d   1       4.155   0.600   0.729  0.00  0.00     0.091 A 
ATOM      3  N   UNL d   1       5.689  -0.332  -0.638  0.00  0.00    -0.059 NA
ATOM      4  S   UNL d   1       4.252  -0.907  -1.276  0.00  0.00     0.021 SA
ATOM      5  N   UNL d   1       5.506   0.440   0.421  0.00  0.00    -0.289 N 
ATOM      6  HN  UNL d   1       6.265   0.869   0.951  1.00  0.00     0.183 HD
ENDROOT
BRANCH   1   7
ATOM      7  N   UNL d   1       1.940  -0.044  -0.314  0.00  0.00    -0.234 N 
ATOM      8  C   UNL d   1       1.220   1.076  -0.636  0.00  0.00     0.267 A 
ATOM      9  C   UNL d   1      -0.167   0.625  -0.757  0.00  0.00     0.048 A 
ATOM     10  O   UNL d   1       1.585   2.217  -0.848  0.00  0.00    -0.267 OA
ATOM     11  C   UNL d   1      -1.305   1.322  -1.114  0.00  0.00     0.018 A 
ATOM     12  C   UNL d   1      -0.202  -0.730  -0.466  0.00  0.00     0.048 A 
ATOM     13  C   UNL d   1      -2.509   0.608  -1.138  0.00  0.00     0.001 A 
ATOM     14  C   UNL d   1      -2.548  -0.762  -0.803  0.00  0.00     0.001 A 
ATOM     15  C   UNL d   1      -1.380  -1.451  -0.463  0.00  0.00     0.018 A 
ATOM     16  C   UNL d   1       1.169  -1.170  -0.207  0.00  0.00     0.267 A 
ATOM     17  O   UNL d   1       1.469  -2.309   0.085  0.00  0.00    -0.267 OA
ENDBRANCH   1   7
BRANCH   2  18
ATOM     18  C   UNL d   1       3.754   1.256   1.971  0.00  0.00    -0.005 A 
ATOM     19  C   UNL d   1       2.645   0.800   2.703  0.00  0.00     0.015 A 
ATOM     20  C   UNL d   1       2.330   1.349   3.949  0.00  0.00     0.024 A 
ATOM     21  C   UNL d   1       3.136   2.348   4.483  0.00  0.00     0.034 A 
ATOM     22  C   UNL d   1       4.237   2.819   3.772  0.00  0.00     0.024 A 
ATOM     23 CL   UNL d   1       2.786   2.973   6.047  0.00  0.00    -0.084 Cl
ATOM     24  C   UNL d   1       4.546   2.275   2.518  0.00  0.00     0.015 A 
ENDBRANCH   2  18
TORSDOF 2
