REMARK  2 active torsions:
REMARK  status: ('A' for Active; 'I' for Inactive)
REMARK    1  A    between atoms: C_2  and  C_1 
REMARK    2  A    between atoms: N_4  and  C_3 
REMARK       I    between atoms: C_7  and  N_4 
ROOT
ATOM      1  C   UNL d   1       1.529   1.324  -0.025  0.00  0.00     0.076 A 
ATOM      2  C   UNL d   1       2.347   0.197   0.181  0.00  0.00     0.049 A 
ATOM      3  N   UNL d   1      -3.023  -0.400  -0.221  0.00  0.00    -0.191 NA
ATOM      4  C   UNL d   1      -1.868  -0.279  -0.152  0.00  0.00     0.099 C 
ATOM      5  C   UNL d   1       0.131   1.148  -0.130  0.00  0.00     0.041 A 
ATOM      6  C   UNL d   1       1.754  -1.075   0.220  0.00  0.00     0.032 A 
ATOM      7  C   UNL d   1      -0.447  -0.123  -0.061  0.00  0.00     0.045 A 
ATOM      8  C   UNL d   1       0.371  -1.236   0.099  0.00  0.00     0.025 A 
ENDROOT
BRANCH   1   9
ATOM      9  C   UNL d   1       2.057   2.737  -0.051  0.00  0.00     0.419 C 
ATOM     10  F   UNL d   1       3.414   2.822  -0.162  0.00  0.00    -0.166 F 
ATOM     11  F   UNL d   1       1.559   3.460  -1.093  0.00  0.00    -0.166 F 
ATOM     12  F   UNL d   1       1.732   3.431   1.073  0.00  0.00    -0.166 F 
ENDBRANCH   1   9
BRANCH   2  13
ATOM     13  N   UNL d   1       3.749   0.335   0.309  0.00  0.00    -0.327 N 
ATOM     14  C   UNL d   1       4.573  -0.542   0.995  0.00  0.00     0.218 C 
ATOM     15  O   UNL d   1       4.198  -1.466   1.709  0.00  0.00    -0.274 OA
ATOM     16  C   UNL d   1       6.039  -0.233   0.840  0.00  0.00     0.117 C 
ATOM     17  H   UNL d   1       4.162   1.228   0.052  0.00  0.00     0.169 HD
ENDBRANCH   2  13
TORSDOF 2
