REMARK  4 active torsions:
REMARK  status: ('A' for Active; 'I' for Inactive)
REMARK    1  A    between atoms: N_2  and  C_1 
REMARK    2  A    between atoms: N_5  and  C_1 
REMARK    3  A    between atoms: C_7  and  N_2 
REMARK    4  A    between atoms: C_13  and  N_5 
ROOT
ATOM      1  N   UNL d   1       0.594   1.159   0.003  0.00  0.00    -0.333 N 
ATOM      2  H   UNL d   1       0.080   1.396   0.841  0.00  0.00     0.168 HD
ENDROOT
BRANCH   1   3
ATOM      3  C   UNL d   1       1.044  -0.139   0.006  0.00  0.00     0.172 C 
ATOM      4  S   UNL d   1       2.564  -0.690  -0.417  0.00  0.00    -0.041 SA
BRANCH   3   5
ATOM      5  N   UNL d   1       0.156  -1.069   0.467  0.00  0.00    -0.362 N 
ATOM      6  H   UNL d   1       0.550  -2.004   0.487  0.00  0.00     0.162 HD
BRANCH   5   7
ATOM      7  C   UNL d   1      -1.296  -0.974   0.486  0.00  0.00     0.083 C 
ATOM      8  C   UNL d   1      -1.855  -0.426   1.796  0.00  0.00     0.025 C 
ATOM      9  C   UNL d   1      -3.275  -0.985   1.893  0.00  0.00     0.002 C 
ATOM     10  C   UNL d   1      -3.367  -2.123   0.879  0.00  0.00     0.002 C 
ATOM     11  C   UNL d   1      -1.943  -2.355   0.400  0.00  0.00     0.025 C 
ENDBRANCH   5   7
ENDBRANCH   3   5
ENDBRANCH   1   3
BRANCH   1  12
ATOM     12  C   UNL d   1       1.113   2.242  -0.738  0.00  0.00     0.035 A 
ATOM     13  C   UNL d   1       1.552   2.095  -2.058  0.00  0.00     0.055 A 
ATOM     14  C   UNL d   1       2.032   3.196  -2.774  0.00  0.00     0.058 A 
ATOM     15 CL   UNL d   1       2.529   2.936  -4.410  0.00  0.00    -0.082 Cl
ATOM     16  C   UNL d   1       2.078   4.456  -2.170  0.00  0.00     0.055 A 
ATOM     17  C   UNL d   1       1.617   4.610  -0.861  0.00  0.00     0.028 A 
ATOM     18 CL   UNL d   1       2.679   5.855  -2.985  0.00  0.00    -0.083 Cl
ATOM     19  C   UNL d   1       1.117   3.511  -0.154  0.00  0.00     0.031 A 
ENDBRANCH   1  12
TORSDOF 4
