REMARK  2 active torsions:
REMARK  status: ('A' for Active; 'I' for Inactive)
REMARK    1  A    between atoms: C_2  and  N_1 
REMARK    2  A    between atoms: C_6  and  C_3 
ROOT
ATOM      1  C   UNL d   1       0.263  -2.528  -2.772  0.00  0.00    -0.013 A 
ATOM      2  C   UNL d   1      -0.830  -2.124  -3.555  0.00  0.00     0.044 A 
ATOM      3 CL   UNL d   1      -1.506  -0.539  -3.421  0.00  0.00    -0.083 Cl
ATOM      4  C   UNL d   1       0.769  -3.827  -2.932  0.00  0.00     0.013 A 
ATOM      5  C   UNL d   1      -1.406  -3.007  -4.474  0.00  0.00     0.024 A 
ATOM      6  C   UNL d   1       0.194  -4.705  -3.852  0.00  0.00     0.001 A 
ATOM      7  C   UNL d   1      -0.893  -4.297  -4.622  0.00  0.00     0.002 A 
ENDROOT
BRANCH   1   8
ATOM      8  C   UNL d   1       0.911  -1.655  -1.788  0.00  0.00     0.036 C 
ATOM      9  C   UNL d   1       1.970  -0.909  -2.125  0.00  0.00     0.168 C 
BRANCH   9  10
ATOM     10  N   UNL d   1       2.622  -0.099  -1.125  0.00  0.00    -0.127 N 
ATOM     11  O   UNL d   1       3.586   0.569  -1.521  0.00  0.00    -0.532 OA
ATOM     12  O   UNL d   1       2.207  -0.132   0.040  0.00  0.00    -0.532 OA
ENDBRANCH   9  10
ENDBRANCH   1   8
TORSDOF 2
