REMARK  3 active torsions:
REMARK  status: ('A' for Active; 'I' for Inactive)
REMARK       I    between atoms: C_2  and  N_1 
REMARK    1  A    between atoms: C_3  and  C_2 
REMARK    2  A    between atoms: O_19  and  C_9 
REMARK    3  A    between atoms: O_18  and  C_10 
ROOT
ATOM      1  N   UNL d   1       2.405   0.714   0.123  0.00  0.00    -0.343 N 
ATOM      2  C   UNL d   1       3.553   1.382   0.587  0.00  0.00     0.261 C 
ATOM      3  C   UNL d   1      -0.082   0.714  -0.137  0.00  0.00    -0.031 A 
ATOM      4  C   UNL d   1       1.229   1.407  -0.401  0.00  0.00     0.165 C 
ATOM      5  C   UNL d   1      -0.135  -0.683  -0.117  0.00  0.00    -0.046 A 
ATOM      6  C   UNL d   1      -1.260   1.455   0.010  0.00  0.00     0.049 A 
ATOM      7  C   UNL d   1      -2.499   0.831   0.200  0.00  0.00     0.102 A 
ATOM      8  C   UNL d   1      -2.552  -0.578   0.199  0.00  0.00     0.102 A 
ATOM      9  C   UNL d   1      -1.367  -1.317   0.039  0.00  0.00     0.047 A 
ATOM     10  C   UNL d   1       2.278  -0.710   0.455  0.00  0.00     0.131 C 
ATOM     11  O   UNL d   1       4.380   0.763   1.262  0.00  0.00    -0.267 OA
ATOM     12  C   UNL d   1       1.155  -1.436  -0.290  0.00  0.00     0.059 C 
ENDROOT
BRANCH   2  13
ATOM     13  C   UNL d   1       3.734   2.797   0.260  0.00  0.00     0.072 A 
ATOM     14  S   UNL d   1       4.526   3.807   1.407  0.00  0.00    -0.097 SA
ATOM     15  C   UNL d   1       4.353   5.192   0.423  0.00  0.00     0.050 A 
ATOM     16  C   UNL d   1       3.730   4.904  -0.768  0.00  0.00     0.009 A 
ATOM     17  C   UNL d   1       3.408   3.518  -0.878  0.00  0.00     0.025 A 
ENDBRANCH   2  13
BRANCH   7  18
ATOM     18  O   UNL d   1      -3.662   1.535   0.366  0.00  0.00    -0.353 OA
ATOM     19  C   UNL d   1      -3.581   2.954   0.468  0.00  0.00     0.210 C 
ENDBRANCH   7  18
BRANCH   8  20
ATOM     20  O   UNL d   1      -3.647  -1.390   0.343  0.00  0.00    -0.353 OA
ATOM     21  C   UNL d   1      -4.923  -0.799   0.531  0.00  0.00     0.210 C 
ENDBRANCH   8  20
TORSDOF 3
