REMARK  4 active torsions:
REMARK  status: ('A' for Active; 'I' for Inactive)
REMARK    1  A    between atoms: S_11  and  C_3 
REMARK    2  A    between atoms: C_9  and  C_8 
REMARK    3  A    between atoms: C_12  and  C_9 
REMARK    4  A    between atoms: C_10  and  S_11 
ROOT
ATOM      1  S   UNL d   1       4.362  -2.084  -0.003  0.00  0.00    -0.077 SA
ENDROOT
BRANCH   1   2
ATOM      2  C   UNL d   1       3.850  -3.738   0.079  0.00  0.00     0.056 C 
ATOM      3  C   UNL d   1       4.753  -4.713  -0.108  0.00  0.00     0.063 C 
BRANCH   3   4
ATOM      4  C   UNL d   1       4.358  -6.144  -0.043  0.00  0.00     0.182 C 
ATOM      5  O   UNL d   1       3.328  -6.510   0.511  0.00  0.00    -0.288 OA
BRANCH   4   6
ATOM      6  C   UNL d   1       5.285  -7.141  -0.650  0.00  0.00     0.014 A 
ATOM      7  C   UNL d   1       5.324  -8.434  -0.111  0.00  0.00     0.017 A 
ATOM      8  C   UNL d   1       6.150  -9.410  -0.678  0.00  0.00     0.020 A 
ATOM      9  C   UNL d   1       6.926  -9.097  -1.792  0.00  0.00     0.011 A 
ATOM     10  C   UNL d   1       6.891  -7.815  -2.340  0.00  0.00     0.020 A 
ATOM     11 BR   UNL d   1       8.016 -10.424  -2.582  0.00  0.00    -0.051 Br
ATOM     12  C   UNL d   1       6.070  -6.836  -1.772  0.00  0.00     0.017 A 
ENDBRANCH   4   6
ENDBRANCH   3   4
ENDBRANCH   1   2
BRANCH   1  13
ATOM     13  C   UNL d   1       2.852  -1.214   0.212  0.00  0.00     0.117 A 
ATOM     14  N   UNL d   1       1.681  -1.788   0.379  0.00  0.00    -0.344 N 
ATOM     15  C   UNL d   1       0.697  -0.819   0.522  0.00  0.00     0.052 A 
ATOM     16  HN  UNL d   1       1.520  -2.795   0.401  1.00  0.00     0.167 HD
ATOM     17  C   UNL d   1       1.144   0.502   0.452  0.00  0.00     0.034 A 
ATOM     18  C   UNL d   1      -0.679  -1.056   0.726  0.00  0.00     0.054 A 
ATOM     19  C   UNL d   1       0.272   1.598   0.575  0.00  0.00     0.023 A 
ATOM     20  S   UNL d   1       2.845   0.503   0.205  0.00  0.00    -0.063 SA
ATOM     21  C   UNL d   1      -1.085   1.338   0.777  0.00  0.00     0.025 A 
ATOM     22  C   UNL d   1      -1.551   0.029   0.852  0.00  0.00     0.036 A 
ATOM     23 CL   UNL d   1      -3.230  -0.258   1.102  0.00  0.00    -0.084 Cl
ENDBRANCH   1  13
TORSDOF 4
