REMARK  3 active torsions:
REMARK  status: ('A' for Active; 'I' for Inactive)
REMARK    1  A    between atoms: N_6  and  N_1 
REMARK    2  A    between atoms: C_13  and  C_2 
REMARK    3  A    between atoms: C_10  and  C_9 
ROOT
ATOM      1  N   UNL d   1       0.866  -0.717  -0.086  0.00  0.00    -0.211 N 
ATOM      2  C   UNL d   1       0.862   0.658  -0.040  0.00  0.00     0.154 A 
ATOM      3  C   UNL d   1      -0.461  -1.091   0.062  0.00  0.00     0.214 A 
ATOM      4  N   UNL d   1      -0.336   1.179   0.048  0.00  0.00    -0.281 N 
ATOM      5  HN  UNL d   1      -0.584   2.168   0.089  1.00  0.00     0.188 HD
ATOM      6  N   UNL d   1      -1.181   0.103   0.071  0.00  0.00    -0.273 N 
ATOM      7  S   UNL d   1      -1.193  -2.569   0.255  0.00  0.00    -0.037 SA
ATOM      8  H   UNL d   1      -2.177   0.209   0.220  0.00  0.00     0.189 HD
ENDROOT
BRANCH   1   9
ATOM      9  N   UNL d   1       1.995  -1.469   0.055  0.00  0.00    -0.300 N 
ATOM     10  C   UNL d   1       2.054  -2.616  -0.541  0.00  0.00     0.126 C 
ATOM     11  HN  UNL d   1       2.776  -1.134   0.618  1.00  0.00     0.186 HD
BRANCH  10  12
ATOM     12  C   UNL d   1       3.264  -3.398  -0.450  0.00  0.00     0.021 A 
ATOM     13  S   UNL d   1       3.354  -4.905  -1.251  0.00  0.00    -0.101 SA
ATOM     14  C   UNL d   1       4.976  -5.141  -0.759  0.00  0.00     0.050 A 
ATOM     15  C   UNL d   1       5.439  -4.096   0.010  0.00  0.00     0.008 A 
ATOM     16  C   UNL d   1       4.446  -3.092   0.196  0.00  0.00     0.021 A 
ENDBRANCH  10  12
ENDBRANCH   1   9
BRANCH   2  17
ATOM     17  C   UNL d   1       2.092   1.485  -0.088  0.00  0.00     0.011 A 
ATOM     18  C   UNL d   1       3.258   1.069  -0.742  0.00  0.00     0.015 A 
ATOM     19  C   UNL d   1       4.380   1.901  -0.787  0.00  0.00     0.001 A 
ATOM     20  C   UNL d   1       4.339   3.162  -0.196  0.00  0.00     0.000 A 
ATOM     21  C   UNL d   1       3.177   3.592   0.442  0.00  0.00     0.001 A 
ATOM     22  C   UNL d   1       2.057   2.759   0.494  0.00  0.00     0.015 A 
ENDBRANCH   2  17
TORSDOF 3
