REMARK  4 active torsions:
REMARK  status: ('A' for Active; 'I' for Inactive)
REMARK    1  A    between atoms: C_9  and  N_1 
REMARK    2  A    between atoms: C_7  and  C_2 
REMARK    3  A    between atoms: N_10  and  C_8 
REMARK    4  A    between atoms: C_11  and  N_10 
ROOT
ATOM      1  N   UNL d   1       0.219  -0.444  -1.090  0.00  0.00    -0.225 N 
ATOM      2  C   UNL d   1       1.049  -0.719   0.001  0.00  0.00     0.139 A 
ATOM      3  N   UNL d   1      -0.859  -0.029   0.726  0.00  0.00    -0.007 NA
ATOM      4  N   UNL d   1      -0.993  -0.081  -0.588  0.00  0.00     0.001 NA
ATOM      5  N   UNL d   1       0.391  -0.419   1.105  0.00  0.00    -0.270 N 
ATOM      6  HN  UNL d   1       0.748  -0.469   2.059  1.00  0.00     0.185 HD
ENDROOT
BRANCH   2   7
ATOM      7  C   UNL d   1       2.359  -1.234  -0.110  0.00  0.00     0.068 C 
ATOM      8  C   UNL d   1       2.585  -2.556  -0.180  0.00  0.00     0.094 C 
BRANCH   8   9
ATOM      9  N   UNL d   1       3.802  -3.235  -0.241  0.00  0.00    -0.361 N 
ATOM     10  C   UNL d   1       5.101  -2.556  -0.157  0.00  0.00     0.155 C 
BRANCH   9  11
ATOM     11  C   UNL d   1       3.892  -4.659  -0.253  0.00  0.00     0.033 A 
ATOM     12  C   UNL d   1       2.975  -5.443  -0.977  0.00  0.00     0.029 A 
ATOM     13  C   UNL d   1       3.067  -6.838  -1.008  0.00  0.00     0.002 A 
ATOM     14  C   UNL d   1       4.079  -7.491  -0.307  0.00  0.00     0.000 A 
ATOM     15  C   UNL d   1       4.995  -6.745   0.426  0.00  0.00     0.002 A 
ATOM     16  C   UNL d   1       4.900  -5.349   0.450  0.00  0.00     0.029 A 
ENDBRANCH   9  11
ENDBRANCH   8   9
ENDBRANCH   2   7
BRANCH   1  17
ATOM     17  C   UNL d   1       0.431  -0.437  -2.499  0.00  0.00     0.056 A 
ATOM     18  C   UNL d   1      -0.689  -0.374  -3.347  0.00  0.00     0.032 A 
ATOM     19  C   UNL d   1      -0.532  -0.316  -4.734  0.00  0.00     0.009 A 
ATOM     20  C   UNL d   1       0.744  -0.297  -5.302  0.00  0.00    -0.062 A 
ATOM     21  C   UNL d   1       1.859  -0.366  -4.462  0.00  0.00     0.009 A 
ATOM     22  C   UNL d   1       0.897  -0.193  -6.791  0.00  0.00     0.048 C 
ATOM     23  C   UNL d   1       1.708  -0.440  -3.070  0.00  0.00     0.032 A 
ENDBRANCH   1  17
TORSDOF 4
