REMARK  7 active torsions:
REMARK  status: ('A' for Active; 'I' for Inactive)
REMARK    1  A    between atoms: C_6  and  C_1 
REMARK    2  A    between atoms: N_9  and  C_3 
REMARK       I    between atoms: C_10  and  N_9 
REMARK    3  A    between atoms: C_19  and  C_10 
REMARK    4  A    between atoms: C_11  and  C_20 
REMARK    5  A    between atoms: O_18  and  C_11 
REMARK    6  A    between atoms: S_17  and  C_19 
REMARK    7  A    between atoms: C_20  and  S_17 
ROOT
ATOM      1  C   UNL d   1      -0.146   1.101   0.185  0.00  0.00     0.177 A 
ATOM      2  S   UNL d   1       1.155  -0.003   0.414  0.00  0.00    -0.029 SA
ATOM      3  C   UNL d   1       0.083  -1.260  -0.001  0.00  0.00     0.168 A 
ATOM      4  N   UNL d   1      -1.277   0.509  -0.157  0.00  0.00    -0.288 N 
ATOM      5  HN  UNL d   1      -2.147   1.009  -0.340  1.00  0.00     0.187 HD
ATOM      6  N   UNL d   1      -1.145  -0.863  -0.239  0.00  0.00    -0.279 N 
ATOM      7  HN  UNL d   1      -1.914  -1.496  -0.459  1.00  0.00     0.189 HD
ENDROOT
BRANCH   3   8
ATOM      8  N   UNL d   1       0.456  -2.580  -0.036  0.00  0.00    -0.305 N 
ATOM      9  C   UNL d   1       1.746  -3.058  -0.030  0.00  0.00     0.232 C 
ATOM     10  O   UNL d   1       2.785  -2.393  -0.055  0.00  0.00    -0.272 OA
ATOM     11  H   UNL d   1      -0.310  -3.213  -0.238  0.00  0.00     0.171 HD
BRANCH   9  12
ATOM     12  C   UNL d   1       1.836  -4.572  -0.105  0.00  0.00     0.177 C 
BRANCH  12  13
ATOM     13  S   UNL d   1       1.878  -5.114  -1.843  0.00  0.00    -0.149 SA
BRANCH  13  14
ATOM     14  C   UNL d   1       3.334  -4.205  -2.474  0.00  0.00     0.184 C 
BRANCH  14  15
ATOM     15  C   UNL d   1       4.611  -4.565  -1.748  0.00  0.00     0.149 C 
ATOM     16  O   UNL d   1       5.298  -5.539  -2.022  0.00  0.00    -0.649 OA
BRANCH  15  17
ATOM     17  O   UNL d   1       4.935  -3.725  -0.737  0.00  0.00    -0.776 OA
ATOM     18  H   UNL d   1       4.290  -2.996  -0.565  0.00  0.00     0.167 HD
ENDBRANCH  15  17
ENDBRANCH  14  15
ENDBRANCH  13  14
ENDBRANCH  12  13
ENDBRANCH   9  12
ENDBRANCH   3   8
BRANCH   1  19
ATOM     19  C   UNL d   1       0.054   2.569   0.370  0.00  0.00     0.440 C 
ATOM     20  F   UNL d   1       1.294   2.888   0.833  0.00  0.00    -0.164 F 
ATOM     21  F   UNL d   1      -0.105   3.256  -0.792  0.00  0.00    -0.164 F 
ATOM     22  F   UNL d   1      -0.828   3.097   1.261  0.00  0.00    -0.164 F 
ENDBRANCH   1  19
TORSDOF 7
