REMARK  10 active torsions:
REMARK  status: ('A' for Active; 'I' for Inactive)
REMARK    1  A    between atoms: C_8  and  C_1 
REMARK    2  A    between atoms: C_12  and  N_2 
REMARK    3  A    between atoms: S_11  and  C_5 
REMARK    4  A    between atoms: C_9  and  N_14 
REMARK    5  A    between atoms: N_13  and  C_9 
REMARK    6  A    between atoms: C_10  and  C_23 
REMARK       I    between atoms: N_15  and  C_10 
REMARK    7  A    between atoms: C_23  and  S_11 
REMARK    8  A    between atoms: C_19  and  N_13 
REMARK    9  A    between atoms: N_14  and  N_15 
REMARK   10  A    between atoms: O_27  and  C_17 
ROOT
ATOM      1  C   UNL d   1      -0.717  -0.758   0.196  0.00  0.00     0.142 A 
ATOM      2  N   UNL d   1      -0.303   0.577   0.003  0.00  0.00    -0.275 N 
ATOM      3  N   UNL d   1       0.263  -1.562  -0.177  0.00  0.00    -0.282 N 
ATOM      4  HN  UNL d   1       0.231  -2.582  -0.153  1.00  0.00     0.188 HD
ATOM      5  C   UNL d   1       0.992   0.444  -0.493  0.00  0.00     0.168 A 
ATOM      6  N   UNL d   1       1.319  -0.819  -0.597  0.00  0.00    -0.278 N 
ATOM      7  HN  UNL d   1       2.211  -1.181  -0.934  1.00  0.00     0.189 HD
ENDROOT
BRANCH   5   8
ATOM      8  S   UNL d   1       2.106   1.729  -0.854  0.00  0.00    -0.083 SA
BRANCH   8   9
ATOM      9  C   UNL d   1       3.656   1.086  -0.168  0.00  0.00     0.186 C 
BRANCH   9  10
ATOM     10  C   UNL d   1       4.152  -0.176  -0.839  0.00  0.00     0.245 C 
ATOM     11  N   UNL d   1       4.271  -0.100  -2.223  0.00  0.00    -0.267 N 
ATOM     12  H   UNL d   1       3.959   0.704  -2.756  0.00  0.00     0.190 HD
ATOM     13  O   UNL d   1       4.513  -1.151  -0.175  0.00  0.00    -0.271 OA
BRANCH  11  14
ATOM     14  N   UNL d   1       4.815  -1.192  -2.920  0.00  0.00    -0.274 N 
ATOM     15  H   UNL d   1       4.171  -1.951  -3.106  0.00  0.00     0.189 HD
BRANCH  14  16
ATOM     16  C   UNL d   1       6.158  -1.458  -2.842  0.00  0.00     0.191 C 
ATOM     17  S   UNL d   1       7.343  -0.268  -2.763  0.00  0.00    -0.039 SA
BRANCH  16  18
ATOM     18  N   UNL d   1       6.574  -2.756  -2.924  0.00  0.00    -0.332 N 
ATOM     19  H   UNL d   1       7.576  -2.824  -3.067  0.00  0.00     0.168 HD
BRANCH  18  20
ATOM     20  C   UNL d   1       5.932  -3.988  -2.662  0.00  0.00     0.034 A 
ATOM     21  C   UNL d   1       4.673  -4.132  -2.076  0.00  0.00     0.036 A 
ATOM     22  C   UNL d   1       4.109  -5.402  -1.841  0.00  0.00    -0.054 A 
ATOM     23  C   UNL d   1       2.723  -5.486  -1.259  0.00  0.00     0.049 C 
ATOM     24  C   UNL d   1       4.857  -6.557  -2.127  0.00  0.00    -0.056 A 
ATOM     25  C   UNL d   1       6.136  -6.415  -2.679  0.00  0.00     0.009 A 
ATOM     26  C   UNL d   1       4.325  -7.931  -1.826  0.00  0.00     0.049 C 
ATOM     27  C   UNL d   1       6.662  -5.147  -2.948  0.00  0.00     0.030 A 
ENDBRANCH  18  20
ENDBRANCH  16  18
ENDBRANCH  14  16
ENDBRANCH  11  14
ENDBRANCH   9  10
ENDBRANCH   8   9
ENDBRANCH   5   8
BRANCH   2  28
ATOM     28  C   UNL d   1      -1.051   1.776   0.240  0.00  0.00     0.043 A 
ATOM     29  C   UNL d   1      -1.963   1.857   1.303  0.00  0.00     0.030 A 
ATOM     30  C   UNL d   1      -2.772   2.988   1.461  0.00  0.00     0.002 A 
ATOM     31  C   UNL d   1      -2.655   4.064   0.585  0.00  0.00     0.000 A 
ATOM     32  C   UNL d   1      -1.726   4.011  -0.450  0.00  0.00     0.002 A 
ATOM     33  C   UNL d   1      -0.935   2.872  -0.628  0.00  0.00     0.030 A 
ENDBRANCH   2  28
BRANCH   1  34
ATOM     34  C   UNL d   1      -2.040  -1.253   0.613  0.00  0.00     0.043 A 
ATOM     35  C   UNL d   1      -2.214  -2.330   1.507  0.00  0.00     0.082 A 
ATOM     36  C   UNL d   1      -3.506  -2.767   1.841  0.00  0.00     0.038 A 
ATOM     37  C   UNL d   1      -4.634  -2.150   1.306  0.00  0.00     0.003 A 
ATOM     38  C   UNL d   1      -4.479  -1.119   0.389  0.00  0.00     0.001 A 
ATOM     39  C   UNL d   1      -3.198  -0.694   0.031  0.00  0.00     0.018 A 
BRANCH  35  40
ATOM     40  O   UNL d   1      -1.228  -3.130   2.023  0.00  0.00    -0.355 OA
ATOM     41  C   UNL d   1      -0.203  -2.469   2.755  0.00  0.00     0.210 C 
ENDBRANCH  35  40
ENDBRANCH   1  34
TORSDOF 10
