REMARK  6 active torsions:
REMARK  status: ('A' for Active; 'I' for Inactive)
REMARK    1  A    between atoms: C_2  and  C_1 
REMARK    2  A    between atoms: O_5  and  C_1 
REMARK    3  A    between atoms: O_7  and  C_2 
REMARK       I    between atoms: C_3  and  N_8 
REMARK       I    between atoms: N_6  and  C_3 
REMARK    4  A    between atoms: C_4  and  N_6 
REMARK    5  A    between atoms: C_16  and  O_5 
REMARK    6  A    between atoms: N_8  and  O_7 
ROOT
ATOM      1  C   UNL d   1       0.519  -0.511   4.143  0.00  0.00     0.322 C 
ATOM      2  N   UNL d   1       0.987   0.387   5.091  0.00  0.00    -0.312 N 
ATOM      3  N   UNL d   1       0.531   0.045   2.869  0.00  0.00    -0.118 NA
ATOM      4  O   UNL d   1       0.153  -1.659   4.369  0.00  0.00    -0.252 OA
ATOM      5  H   UNL d   1       1.120   1.336   4.777  0.00  0.00     0.170 HD
ATOM      6  H   UNL d   1       0.309   1.030   2.786  0.00  0.00     0.165 HD
ENDROOT
BRANCH   3   7
ATOM      7  O   UNL d   1      -0.194  -0.747   1.931  0.00  0.00    -0.276 OA
BRANCH   7   8
ATOM      8  C   UNL d   1       0.650  -1.161   0.839  0.00  0.00     0.163 C 
ATOM      9  C   UNL d   1      -0.257  -2.035  -0.040  0.00  0.00     0.059 C 
ATOM     10  C   UNL d   1       1.819  -2.011   1.352  0.00  0.00     0.059 C 
BRANCH   8  11
ATOM     11  C   UNL d   1       1.162   0.047   0.015  0.00  0.00     0.295 C 
ATOM     12  O   UNL d   1       0.969   1.225   0.313  0.00  0.00    -0.262 OA
BRANCH  11  13
ATOM     13  O   UNL d   1       1.877  -0.363  -1.072  0.00  0.00    -0.309 OA
BRANCH  13  14
ATOM     14  C   UNL d   1       2.460   0.605  -1.988  0.00  0.00     0.060 C 
ATOM     15  C   UNL d   1       3.451   1.533  -1.270  0.00  0.00     0.045 C 
ATOM     16  C   UNL d   1       3.219  -0.240  -3.023  0.00  0.00     0.045 C 
ATOM     17  C   UNL d   1       1.368   1.395  -2.722  0.00  0.00     0.045 C 
ENDBRANCH  13  14
ENDBRANCH  11  13
ENDBRANCH   8  11
ENDBRANCH   7   8
ENDBRANCH   3   7
BRANCH   2  18
ATOM     18  C   UNL d   1       1.115   0.146   6.478  0.00  0.00     0.039 A 
ATOM     19  C   UNL d   1       1.083  -1.131   7.046  0.00  0.00     0.053 A 
ATOM     20  C   UNL d   1       1.155  -1.288   8.432  0.00  0.00     0.037 A 
ATOM     21 CL   UNL d   1       1.107  -2.867   9.115  0.00  0.00    -0.084 Cl
ATOM     22  C   UNL d   1       1.261  -0.182   9.268  0.00  0.00     0.048 A 
ATOM     23  C   UNL d   1       1.326   1.086   8.703  0.00  0.00     0.037 A 
ATOM     24  C   UNL d   1       1.271   1.256   7.317  0.00  0.00     0.053 A 
ATOM     25 CL   UNL d   1       1.455   2.466   9.724  0.00  0.00    -0.084 Cl
ENDBRANCH   2  18
TORSDOF 6
