REMARK  6 active torsions:
REMARK  status: ('A' for Active; 'I' for Inactive)
REMARK    1  A    between atoms: S_10  and  C_1 
REMARK    2  A    between atoms: N_14  and  C_5 
REMARK    3  A    between atoms: C_8  and  C_9 
REMARK    4  A    between atoms: O_11  and  C_8 
REMARK    5  A    between atoms: C_9  and  S_10 
REMARK    6  A    between atoms: C_13  and  O_11 
ROOT
ATOM      1  S   UNL d   1       3.180  -1.041  -0.230  0.00  0.00    -0.084 SA
ENDROOT
BRANCH   1   2
ATOM      2  C   UNL d   1       4.234   0.462  -0.050  0.00  0.00     0.095 C 
ATOM      3  C   UNL d   1       4.175   0.946   1.402  0.00  0.00     0.038 C 
ATOM      4  C   UNL d   1       5.682   0.039  -0.357  0.00  0.00     0.038 C 
BRANCH   2   5
ATOM      5  C   UNL d   1       3.874   1.577  -1.054  0.00  0.00     0.278 C 
ATOM      6  O   UNL d   1       4.098   2.767  -0.846  0.00  0.00    -0.263 OA
BRANCH   5   7
ATOM      7  O   UNL d   1       3.412   1.075  -2.231  0.00  0.00    -0.310 OA
BRANCH   7   8
ATOM      8  C   UNL d   1       3.098   1.924  -3.368  0.00  0.00     0.060 C 
ATOM      9  C   UNL d   1       4.345   2.659  -3.874  0.00  0.00     0.045 C 
ATOM     10  C   UNL d   1       2.615   0.947  -4.454  0.00  0.00     0.045 C 
ATOM     11  C   UNL d   1       1.964   2.904  -3.051  0.00  0.00     0.045 C 
ENDBRANCH   7   8
ENDBRANCH   5   7
ENDBRANCH   2   5
ENDBRANCH   1   2
BRANCH   1  12
ATOM     12  C   UNL d   1       1.554  -0.414  -0.106  0.00  0.00     0.131 A 
ATOM     13  S   UNL d   1       0.172  -1.421  -0.236  0.00  0.00    -0.027 SA
ATOM     14  C   UNL d   1      -0.784  -0.018   0.024  0.00  0.00     0.159 A 
ATOM     15  N   UNL d   1      -0.082   1.082   0.169  0.00  0.00    -0.279 N 
ATOM     16  N   UNL d   1       1.276   0.856   0.092  0.00  0.00    -0.286 N 
ATOM     17  HN  UNL d   1      -0.496   2.002   0.322  1.00  0.00     0.189 HD
ATOM     18  HN  UNL d   1       1.982   1.587   0.178  1.00  0.00     0.188 HD
BRANCH  14  19
ATOM     19  N   UNL d   1      -2.128  -0.079   0.058  0.00  0.00    -0.379 N 
ATOM     20  H   UNL d   1      -2.590  -0.868  -0.376  0.00  0.00     0.158 HD
ATOM     21  H   UNL d   1      -2.621   0.803  -0.032  0.00  0.00     0.158 HD
ENDBRANCH  14  19
ENDBRANCH   1  12
TORSDOF 6
