REMARK  3 active torsions:
REMARK  status: ('A' for Active; 'I' for Inactive)
REMARK    1  A    between atoms: C_2  and  C_1 
REMARK    2  A    between atoms: C_14  and  C_6 
REMARK    3  A    between atoms: C_16  and  C_7 
ROOT
ATOM      1  C   UNL d   1      -0.220  -2.567  -0.054  0.00  0.00     0.183 A 
ATOM      2  C   UNL d   1      -0.791  -4.588  -0.457  0.00  0.00     0.175 A 
ATOM      3  O   UNL d   1      -0.973  -3.316  -0.936  0.00  0.00    -0.272 OA
ATOM      4  N   UNL d   1       0.366  -3.325   0.852  0.00  0.00    -0.277 N 
ATOM      5  HN  UNL d   1       0.972  -3.006   1.608  1.00  0.00     0.189 HD
ATOM      6  N   UNL d   1       0.007  -4.622   0.589  0.00  0.00    -0.277 N 
ATOM      7  HN  UNL d   1       0.302  -5.452   1.103  1.00  0.00     0.189 HD
ENDROOT
BRANCH   1   8
ATOM      8  C   UNL d   1      -0.079  -1.143  -0.090  0.00  0.00     0.082 A 
ATOM      9  S   UNL d   1      -0.888  -0.171  -1.243  0.00  0.00    -0.065 SA
ATOM     10  C   UNL d   1      -0.216   1.247  -0.535  0.00  0.00     0.085 A 
ATOM     11  N   UNL d   1       0.609   1.018   0.468  0.00  0.00    -0.352 N 
ATOM     12  C   UNL d   1       0.677  -0.337   0.749  0.00  0.00     0.027 A 
ATOM     13  HN  UNL d   1       1.126   1.740   0.968  1.00  0.00     0.166 HD
ATOM     14  C   UNL d   1       1.526  -0.765   1.895  0.00  0.00     0.070 C 
BRANCH  10  15
ATOM     15  C   UNL d   1      -0.535   2.595  -1.035  0.00  0.00    -0.002 A 
ATOM     16  C   UNL d   1      -1.756   2.908  -1.653  0.00  0.00     0.014 A 
ATOM     17  C   UNL d   1      -2.039   4.215  -2.059  0.00  0.00     0.001 A 
ATOM     18  C   UNL d   1      -1.105   5.229  -1.856  0.00  0.00     0.000 A 
ATOM     19  C   UNL d   1       0.115   4.937  -1.251  0.00  0.00     0.001 A 
ATOM     20  C   UNL d   1       0.395   3.631  -0.841  0.00  0.00     0.014 A 
ENDBRANCH  10  15
ENDBRANCH   1   8
BRANCH   2  21
ATOM     21  C   UNL d   1      -1.470  -5.685  -1.143  0.00  0.00     0.028 A 
ATOM     22  C   UNL d   1      -1.911  -6.844  -0.433  0.00  0.00    -0.011 A 
ATOM     23  C   UNL d   1      -2.447  -7.931  -1.170  0.00  0.00    -0.025 A 
ATOM     24  C   UNL d   1      -1.858  -6.988   0.978  0.00  0.00     0.013 A 
ATOM     25  C   UNL d   1      -2.856  -9.101  -0.506  0.00  0.00     0.012 A 
ATOM     26  C   UNL d   1      -2.566  -7.841  -2.564  0.00  0.00     0.012 A 
ATOM     27  C   UNL d   1      -2.765  -9.214   0.880  0.00  0.00     0.001 A 
ATOM     28  C   UNL d   1      -2.274  -8.153   1.624  0.00  0.00     0.001 A 
ATOM     29  C   UNL d   1      -2.171  -6.692  -3.245  0.00  0.00     0.002 A 
ATOM     30  C   UNL d   1      -1.627  -5.623  -2.540  0.00  0.00     0.017 A 
ENDBRANCH   2  21
TORSDOF 3
