REMARK  4 active torsions:
REMARK  status: ('A' for Active; 'I' for Inactive)
REMARK    1  A    between atoms: C_2  and  C_1 
REMARK       I    between atoms: N_5  and  C_1 
REMARK    2  A    between atoms: C_3  and  C_4 
REMARK    3  A    between atoms: O_9  and  C_3 
REMARK    4  A    between atoms: C_8  and  N_5 
ROOT
ATOM      1  C   UNL d   1      -3.160  -0.007  -0.524  0.00  0.00     0.245 C 
ATOM      2  N   UNL d   1      -1.924   0.028   0.071  0.00  0.00    -0.324 N 
ATOM      3  O   UNL d   1      -4.017  -0.878  -0.440  0.00  0.00    -0.268 OA
ATOM      4  H   UNL d   1      -1.438   0.917   0.099  0.00  0.00     0.169 HD
ENDROOT
BRANCH   2   5
ATOM      5  C   UNL d   1      -1.294  -1.043   0.740  0.00  0.00     0.035 A 
ATOM      6  C   UNL d   1      -1.699  -2.372   0.599  0.00  0.00     0.030 A 
ATOM      7  C   UNL d   1      -0.991  -3.399   1.229  0.00  0.00     0.009 A 
ATOM      8  C   UNL d   1       0.125  -3.115   2.022  0.00  0.00    -0.062 A 
ATOM      9  C   UNL d   1       0.517  -1.783   2.183  0.00  0.00     0.009 A 
ATOM     10  C   UNL d   1       0.889  -4.236   2.662  0.00  0.00     0.048 C 
ATOM     11  C   UNL d   1      -0.181  -0.756   1.536  0.00  0.00     0.030 A 
ENDBRANCH   2   5
BRANCH   1  12
ATOM     12  C   UNL d   1      -3.457   1.211  -1.300  0.00  0.00     0.081 C 
ATOM     13  C   UNL d   1      -4.607   1.897  -1.229  0.00  0.00     0.086 C 
BRANCH  13  14
ATOM     14  C   UNL d   1      -5.787   1.748  -0.356  0.00  0.00     0.165 C 
ATOM     15  O   UNL d   1      -6.538   2.696  -0.185  0.00  0.00    -0.647 OA
BRANCH  14  16
ATOM     16  O   UNL d   1      -5.996   0.554   0.215  0.00  0.00    -0.773 OA
ATOM     17  H   UNL d   1      -5.388  -0.176  -0.051  0.00  0.00     0.167 HD
ENDBRANCH  14  16
ENDBRANCH  13  14
ENDBRANCH   1  12
TORSDOF 4
