REMARK  3 active torsions:
REMARK  status: ('A' for Active; 'I' for Inactive)
REMARK       I    between atoms: N_2  and  C_5 
REMARK       I    between atoms: C_6  and  N_2 
REMARK    1  A    between atoms: C_5  and  C_3 
REMARK    2  A    between atoms: C_7  and  C_4 
REMARK       I    between atoms: N_11  and  C_6 
REMARK    3  A    between atoms: C_19  and  N_11 
ROOT
ATOM      1  N   UNL d   1      -1.809   2.721   0.433  0.00  0.00    -0.274 N 
ATOM      2  C   UNL d   1      -0.514   2.348   0.117  0.00  0.00     0.266 C 
ATOM      3  C   UNL d   1      -2.990   2.229  -0.099  0.00  0.00     0.327 C 
ATOM      4  N   UNL d   1      -4.087   2.873   0.454  0.00  0.00    -0.307 N 
ATOM      5  O   UNL d   1      -3.076   1.310  -0.896  0.00  0.00    -0.247 OA
ATOM      6  O   UNL d   1       0.280   3.284  -0.035  0.00  0.00    -0.267 OA
ATOM      7  H   UNL d   1      -1.833   3.715   0.591  0.00  0.00     0.173 HD
ATOM      8  H   UNL d   1      -4.027   3.869   0.604  0.00  0.00     0.170 HD
ENDROOT
BRANCH   2   9
ATOM      9  C   UNL d   1      -0.094   0.956  -0.002  0.00  0.00     0.073 C 
ATOM     10  S   UNL d   1      -1.041  -0.404   0.435  0.00  0.00    -0.084 SA
ATOM     11  C   UNL d   1       0.091  -1.503  -0.213  0.00  0.00     0.022 C 
ATOM     12  C   UNL d   1       1.279  -0.874  -0.521  0.00  0.00     0.022 C 
ATOM     13  C   UNL d   1       1.171   0.541  -0.395  0.00  0.00     0.026 C 
BRANCH  11  14
ATOM     14  C   UNL d   1      -0.215  -2.890  -0.398  0.00  0.00     0.021 A 
ATOM     15  S   UNL d   1      -0.642  -3.477  -1.951  0.00  0.00    -0.101 SA
ATOM     16  C   UNL d   1      -0.805  -5.078  -1.372  0.00  0.00     0.050 A 
ATOM     17  C   UNL d   1      -0.536  -5.167  -0.023  0.00  0.00     0.008 A 
ATOM     18  C   UNL d   1      -0.200  -3.901   0.542  0.00  0.00     0.021 A 
ENDBRANCH  11  14
ENDBRANCH   2   9
BRANCH   4  19
ATOM     19  C   UNL d   1      -5.344   2.266   0.649  0.00  0.00     0.051 A 
ATOM     20  C   UNL d   1      -5.531   0.885   0.701  0.00  0.00     0.117 A 
ATOM     21  N   UNL d   1      -6.712   0.289   0.999  0.00  0.00    -0.373 N 
ATOM     22  C   UNL d   1      -7.760   1.103   1.234  0.00  0.00     0.088 A 
ATOM     23  HN  UNL d   1      -6.803  -0.726   1.044  1.00  0.00     0.164 HD
ATOM     24  C   UNL d   1      -7.683   2.486   1.190  0.00  0.00     0.019 A 
ATOM     25  C   UNL d   1      -6.452   3.074   0.904  0.00  0.00     0.032 A 
ENDBRANCH   4  19
TORSDOF 3
