REMARK  3 active torsions:
REMARK  status: ('A' for Active; 'I' for Inactive)
REMARK    1  A    between atoms: C_7  and  C_1 
REMARK       I    between atoms: N_13  and  C_7 
REMARK    2  A    between atoms: C_9  and  C_23 
REMARK    3  A    between atoms: C_23  and  N_13 
ROOT
ATOM      1  C   UNL d   1       0.212   3.113   0.162  0.00  0.00     0.254 C 
ATOM      2  N   UNL d   1      -1.050   3.664   0.102  0.00  0.00    -0.351 N 
ATOM      3  O   UNL d   1       1.200   3.839   0.272  0.00  0.00    -0.268 OA
ATOM      4  H   UNL d   1      -1.892   3.099   0.036  0.00  0.00     0.163 HD
ENDROOT
BRANCH   2   5
ATOM      5  C   UNL d   1      -1.151   5.105   0.163  0.00  0.00     0.180 C 
BRANCH   5   6
ATOM      6  C   UNL d   1      -2.551   5.620   0.106  0.00  0.00     0.034 A 
ATOM      7  N   UNL d   1      -3.636   4.761   0.003  0.00  0.00    -0.351 N 
ATOM      8  C   UNL d   1      -4.765   5.446  -0.023  0.00  0.00     0.091 A 
ATOM      9  HN  UNL d   1      -3.572   3.744  -0.046  1.00  0.00     0.166 HD
ATOM     10  C   UNL d   1      -6.064   4.817  -0.121  0.00  0.00     0.038 A 
ATOM     11  S   UNL d   1      -4.579   7.156   0.066  0.00  0.00    -0.081 SA
ATOM     12  S   UNL d   1      -6.207   3.103  -0.180  0.00  0.00    -0.099 SA
ATOM     13  C   UNL d   1      -7.314   5.413  -0.181  0.00  0.00     0.022 A 
ATOM     14  C   UNL d   1      -7.908   3.173  -0.287  0.00  0.00     0.050 A 
ATOM     15  C   UNL d   1      -8.376   4.466  -0.279  0.00  0.00     0.008 A 
ATOM     16  C   UNL d   1      -2.885   6.964   0.148  0.00  0.00     0.078 A 
ENDBRANCH   5   6
ENDBRANCH   2   5
BRANCH   1  17
ATOM     17  C   UNL d   1       0.419   1.635   0.083  0.00  0.00     0.069 A 
ATOM     18  C   UNL d   1      -0.574   0.653  -0.071  0.00  0.00     0.096 A 
ATOM     19  C   UNL d   1      -0.211  -0.710  -0.134  0.00  0.00     0.003 A 
ATOM     20  O   UNL d   1      -1.891   1.025  -0.146  0.00  0.00    -0.325 OA
ATOM     21  C   UNL d   1      -1.258  -1.771  -0.297  0.00  0.00     0.212 C 
ATOM     22  C   UNL d   1       1.138  -1.085  -0.082  0.00  0.00     0.054 A 
ATOM     23  O   UNL d   1      -2.538  -1.263   0.045  0.00  0.00    -0.362 OA
ATOM     24  C   UNL d   1      -2.751  -0.021  -0.610  0.00  0.00     0.345 C 
ATOM     25  C   UNL d   1       2.112  -0.113   0.058  0.00  0.00     0.118 A 
ATOM     26  C   UNL d   1       1.767   1.226   0.145  0.00  0.00     0.062 A 
ATOM     27  F   UNL d   1       3.401  -0.470   0.103  0.00  0.00    -0.206 F 
ENDBRANCH   1  17
TORSDOF 3
