REMARK  3 active torsions:
REMARK  status: ('A' for Active; 'I' for Inactive)
REMARK    1  A    between atoms: C_2  and  C_1 
REMARK       I    between atoms: N_3  and  C_2 
REMARK       I    between atoms: C_4  and  N_3 
REMARK    2  A    between atoms: C_17  and  N_3 
REMARK       I    between atoms: N_10  and  C_4 
REMARK    3  A    between atoms: C_19  and  N_10 
ROOT
ATOM      1  C   UNL d   1       2.794   1.576   0.123  0.00  0.00     0.263 C 
ATOM      2  N   UNL d   1       4.069   0.937   0.172  0.00  0.00    -0.261 N 
ATOM      3  C   UNL d   1       5.280   1.583   0.553  0.00  0.00     0.326 C 
ATOM      4  N   UNL d   1       6.349   0.730   0.690  0.00  0.00    -0.338 N 
ATOM      5  O   UNL d   1       1.756   0.911   0.182  0.00  0.00    -0.267 OA
ATOM      6  O   UNL d   1       5.435   2.786   0.704  0.00  0.00    -0.247 OA
ATOM      7  H   UNL d   1       6.149  -0.073   1.265  0.00  0.00     0.164 HD
ENDROOT
BRANCH   2   8
ATOM      8  C   UNL d   1       4.043  -0.553   0.039  0.00  0.00     0.098 C 
ATOM      9  C   UNL d   1       3.464  -1.253   1.286  0.00  0.00     0.026 C 
ATOM     10  C   UNL d   1       3.585  -2.773   1.190  0.00  0.00     0.002 C 
ATOM     11  C   UNL d   1       3.021  -3.321  -0.119  0.00  0.00     0.000 C 
ATOM     12  C   UNL d   1       3.601  -2.611  -1.342  0.00  0.00     0.002 C 
ATOM     13  C   UNL d   1       3.412  -1.091  -1.259  0.00  0.00     0.026 C 
ENDBRANCH   2   8
BRANCH   1  14
ATOM     14  C   UNL d   1       2.667   3.036  -0.049  0.00  0.00     0.054 A 
ATOM     15  C   UNL d   1       1.596   3.776   0.460  0.00  0.00     0.071 A 
ATOM     16  C   UNL d   1       0.492   3.401   1.311  0.00  0.00     0.157 A 
ATOM     17  S   UNL d   1       1.659   5.427  -0.028  0.00  0.00    -0.097 SA
ATOM     18  N   UNL d   1      -0.699   3.914   1.272  0.00  0.00    -0.359 N 
ATOM     19  O   UNL d   1       0.795   2.487   2.268  0.00  0.00    -0.332 OA
ATOM     20  C   UNL d   1      -1.428   3.245   2.362  0.00  0.00     0.046 A 
ATOM     21  HN  UNL d   1      -1.052   4.623   0.629  1.00  0.00     0.162 HD
ATOM     22  C   UNL d   1      -2.014   4.317   3.281  0.00  0.00     0.040 C 
ATOM     23  C   UNL d   1      -2.552   2.401   1.760  0.00  0.00     0.040 C 
ATOM     24  C   UNL d   1      -0.378   2.391   3.070  0.00  0.00     0.207 A 
ATOM     25  C   UNL d   1       3.089   5.190  -0.910  0.00  0.00     0.051 A 
ATOM     26  C   UNL d   1       3.493   3.876  -0.882  0.00  0.00     0.026 A 
ENDBRANCH   1  14
BRANCH   4  27
ATOM     27  C   UNL d   1       7.760   1.094   0.744  0.00  0.00     0.086 C 
ATOM     28  C   UNL d   1       8.278   1.905  -0.446  0.00  0.00     0.025 C 
ATOM     29  C   UNL d   1       9.811   1.903  -0.425  0.00  0.00     0.002 C 
ATOM     30  C   UNL d   1      10.390   2.364   0.917  0.00  0.00     0.000 C 
ATOM     31  C   UNL d   1       9.712   1.740   2.140  0.00  0.00     0.002 C 
ATOM     32  C   UNL d   1       8.185   1.764   2.048  0.00  0.00     0.025 C 
ENDBRANCH   4  27
TORSDOF 3
