REMARK  3 active torsions:
REMARK  status: ('A' for Active; 'I' for Inactive)
REMARK    1  A    between atoms: C_2  and  N_1 
REMARK    2  A    between atoms: C_10  and  C_3 
REMARK    3  A    between atoms: C_13  and  C_4 
ROOT
ATOM      1  C   UNL d   1       3.358  -0.016  -0.148  0.00  0.00     0.147 A 
ATOM      2  C   UNL d   1       5.457  -0.379  -0.810  0.00  0.00     0.147 A 
ATOM      3  C   UNL d   1       4.081  -0.594  -1.181  0.00  0.00     0.053 A 
ATOM      4  N   UNL d   1       5.542   0.322   0.343  0.00  0.00    -0.292 N 
ATOM      5  HN  UNL d   1       6.387   0.624   0.827  1.00  0.00     0.187 HD
ATOM      6  N   UNL d   1       4.272   0.532   0.707  0.00  0.00    -0.279 N 
ATOM      7  C   UNL d   1       3.993   1.329   1.877  0.00  0.00     0.179 C 
ENDROOT
BRANCH   1   8
ATOM      8  N   UNL d   1       1.992   0.035   0.002  0.00  0.00    -0.226 N 
ATOM      9  C   UNL d   1       1.233  -0.879   0.781  0.00  0.00     0.267 A 
ATOM     10  C   UNL d   1      -0.163  -0.460   0.657  0.00  0.00     0.048 A 
ATOM     11  O   UNL d   1       1.705  -1.804   1.400  0.00  0.00    -0.267 OA
ATOM     12  C   UNL d   1      -1.298  -1.030   1.198  0.00  0.00     0.018 A 
ATOM     13  C   UNL d   1      -0.215   0.688  -0.131  0.00  0.00     0.048 A 
ATOM     14  C   UNL d   1      -2.518  -0.403   0.934  0.00  0.00     0.001 A 
ATOM     15  C   UNL d   1      -2.570   0.772   0.147  0.00  0.00     0.001 A 
ATOM     16  C   UNL d   1      -1.409   1.330  -0.399  0.00  0.00     0.018 A 
ATOM     17  C   UNL d   1       1.145   1.030  -0.555  0.00  0.00     0.267 A 
ATOM     18  O   UNL d   1       1.534   1.981  -1.196  0.00  0.00    -0.267 OA
ENDBRANCH   1   8
BRANCH   3  19
ATOM     19  C   UNL d   1       3.494  -1.229  -2.360  0.00  0.00    -0.020 A 
ATOM     20  C   UNL d   1       2.397  -2.098  -2.259  0.00  0.00     0.012 A 
ATOM     21  C   UNL d   1       1.813  -2.658  -3.399  0.00  0.00     0.001 A 
ATOM     22  C   UNL d   1       2.353  -2.401  -4.654  0.00  0.00     0.000 A 
ATOM     23  C   UNL d   1       3.465  -1.573  -4.771  0.00  0.00     0.001 A 
ATOM     24  C   UNL d   1       4.017  -0.972  -3.635  0.00  0.00     0.012 A 
ENDBRANCH   3  19
BRANCH   2  25
ATOM     25  C   UNL d   1       6.722  -0.815  -1.516  0.00  0.00     0.434 C 
ATOM     26  F   UNL d   1       6.499  -1.662  -2.554  0.00  0.00    -0.165 F 
ATOM     27  F   UNL d   1       7.401   0.247  -2.028  0.00  0.00    -0.165 F 
ATOM     28  F   UNL d   1       7.577  -1.465  -0.680  0.00  0.00    -0.165 F 
ENDBRANCH   2  25
TORSDOF 3
