REMARK  3 active torsions:
REMARK  status: ('A' for Active; 'I' for Inactive)
REMARK    1  A    between atoms: C_6  and  C_1 
REMARK    2  A    between atoms: C_10  and  C_6 
REMARK    3  A    between atoms: O_20  and  C_17 
ROOT
ATOM      1  C   UNL d   1      -2.388   0.109   0.020  0.00  0.00     0.128 A 
ATOM      2  O   UNL d   1      -1.797   1.253   0.481  0.00  0.00    -0.304 OA
ATOM      3  C   UNL d   1      -0.451   1.116   0.327  0.00  0.00     0.108 A 
ATOM      4  C   UNL d   1      -0.161  -0.124  -0.232  0.00  0.00     0.004 A 
ATOM      5  C   UNL d   1      -1.412  -0.777  -0.399  0.00  0.00     0.055 A 
ATOM      6  C   UNL d   1       0.521   2.061   0.660  0.00  0.00     0.070 A 
ATOM      7  C   UNL d   1       1.852   1.730   0.400  0.00  0.00     0.050 A 
ATOM      8  C   UNL d   1       1.184  -0.444  -0.494  0.00  0.00     0.038 A 
ATOM      9  C   UNL d   1       2.172   0.498  -0.171  0.00  0.00     0.036 A 
ATOM     10 CL   UNL d   1       0.109   3.575   1.353  0.00  0.00    -0.081 Cl
ATOM     11 CL   UNL d   1       3.822   0.122  -0.491  0.00  0.00    -0.084 Cl
ENDROOT
BRANCH   1  12
ATOM     12  C   UNL d   1      -3.830  -0.009   0.054  0.00  0.00     0.215 C 
ATOM     13  O   UNL d   1      -4.411  -1.090   0.138  0.00  0.00    -0.284 OA
BRANCH  12  14
ATOM     14  C   UNL d   1      -4.656   1.229  -0.062  0.00  0.00     0.017 A 
ATOM     15  C   UNL d   1      -5.905   1.286   0.567  0.00  0.00     0.018 A 
ATOM     16  C   UNL d   1      -6.709   2.427   0.443  0.00  0.00     0.037 A 
ATOM     17  C   UNL d   1      -6.273   3.509  -0.323  0.00  0.00     0.068 A 
ATOM     18  C   UNL d   1      -5.027   3.456  -0.946  0.00  0.00     0.037 A 
ATOM     19  C   UNL d   1      -4.225   2.319  -0.833  0.00  0.00     0.018 A 
BRANCH  17  20
ATOM     20  O   UNL d   1      -6.955   4.681  -0.495  0.00  0.00    -0.356 OA
ATOM     21  C   UNL d   1      -8.374   4.569  -0.500  0.00  0.00     0.210 C 
ENDBRANCH  17  20
ENDBRANCH  12  14
ENDBRANCH   1  12
TORSDOF 3
