REMARK  5 active torsions:
REMARK  status: ('A' for Active; 'I' for Inactive)
REMARK    1  A    between atoms: C_2  and  S_1 
REMARK    2  A    between atoms: N_6  and  S_1 
REMARK    3  A    between atoms: C_11  and  C_3 
REMARK    4  A    between atoms: C_5  and  N_9 
REMARK    5  A    between atoms: O_28  and  C_11 
ROOT
ATOM      1  N   UNL d   1      -0.749   1.536  -0.458  0.00  0.00    -0.304 N 
ATOM      2  N   UNL d   1      -1.512   3.483   1.609  0.00  0.00    -0.363 N 
ATOM      3  C   UNL d   1      -0.297   2.949  -0.566  0.00  0.00     0.155 C 
ATOM      4  C   UNL d   1      -2.111   1.474   0.124  0.00  0.00     0.155 C 
ATOM      5  C   UNL d   1      -0.288   3.658   0.803  0.00  0.00     0.145 C 
ATOM      6  C   UNL d   1      -2.280   2.231   1.456  0.00  0.00     0.145 C 
ENDROOT
BRANCH   1   7
ATOM      7  S   UNL d   1       0.393   0.376  -0.002  0.00  0.00     0.262 S 
ATOM      8  O   UNL d   1       1.435   1.033   0.764  0.00  0.00    -0.200 OA
ATOM      9  O   UNL d   1      -0.253  -0.814   0.502  0.00  0.00    -0.200 OA
BRANCH   7  10
ATOM     10  C   UNL d   1       1.217  -0.166  -1.451  0.00  0.00     0.103 A 
ATOM     11  C   UNL d   1       0.683  -0.918  -2.496  0.00  0.00     0.103 A 
ATOM     12  S   UNL d   1       1.878  -1.193  -3.720  0.00  0.00    -0.094 SA
ATOM     13  C   UNL d   1       3.082  -0.356  -2.866  0.00  0.00     0.052 A 
ATOM     14  C   UNL d   1       2.611   0.132  -1.672  0.00  0.00     0.034 A 
BRANCH  11  15
ATOM     15  C   UNL d   1      -0.626  -1.503  -2.754  0.00  0.00     0.301 C 
ATOM     16  O   UNL d   1      -0.910  -2.230  -3.703  0.00  0.00    -0.259 OA
BRANCH  15  17
ATOM     17  O   UNL d   1      -1.527  -1.134  -1.812  0.00  0.00    -0.322 OA
ATOM     18  C   UNL d   1      -2.808  -1.756  -1.935  0.00  0.00     0.213 C 
ENDBRANCH  15  17
ENDBRANCH  11  15
ENDBRANCH   7  10
ENDBRANCH   1   7
BRANCH   2  19
ATOM     19  C   UNL d   1      -2.319   4.614   1.755  0.00  0.00     0.124 A 
ATOM     20  C   UNL d   1      -2.705   5.149   3.008  0.00  0.00     0.076 A 
ATOM     21  S   UNL d   1      -2.287   4.676   4.613  0.00  0.00    -0.095 SA
ATOM     22  C   UNL d   1      -3.570   6.243   3.048  0.00  0.00     0.060 A 
ATOM     23  C   UNL d   1      -3.225   5.922   5.321  0.00  0.00     0.059 A 
ATOM     24  C   UNL d   1      -3.877   6.694   4.379  0.00  0.00    -0.027 A 
ATOM     25  C   UNL d   1      -4.785   7.842   4.691  0.00  0.00     0.051 C 
ATOM     26  N   UNL d   1      -4.069   6.809   1.920  0.00  0.00    -0.351 N 
ATOM     27  C   UNL d   1      -3.646   6.248   0.793  0.00  0.00     0.182 A 
ATOM     28  HN  UNL d   1      -4.715   7.598   1.937  1.00  0.00     0.166 HD
ATOM     29  N   UNL d   1      -2.806   5.211   0.644  0.00  0.00    -0.338 N 
ATOM     30  HN  UNL d   1      -2.542   4.882  -0.284  1.00  0.00     0.168 HD
ENDBRANCH   2  19
TORSDOF 5
