REMARK  3 active torsions:
REMARK  status: ('A' for Active; 'I' for Inactive)
REMARK    1  A    between atoms: C_9  and  C_3 
REMARK    2  A    between atoms: O_15  and  C_7 
REMARK    3  A    between atoms: O_19  and  C_16 
ROOT
ATOM      1  N   UNL d   1       2.213   1.207   0.056  0.00  0.00    -0.355 N 
ATOM      2  HN  UNL d   1       3.007   1.783   0.338  1.00  0.00     0.162 HD
ATOM      3  C   UNL d   1       1.026   1.494   0.467  0.00  0.00     0.053 C 
ATOM      4  C   UNL d   1      -0.212   0.723   0.125  0.00  0.00     0.020 A 
ATOM      5  N   UNL d   1       0.866  -1.502   0.376  0.00  0.00    -0.323 N 
ATOM      6  C   UNL d   1       2.162  -1.224   0.021  0.00  0.00     0.271 C 
ATOM      7  C   UNL d   1       2.418   0.060  -0.811  0.00  0.00     0.312 C 
ATOM      8  C   UNL d   1      -0.255  -0.681   0.185  0.00  0.00     0.047 A 
ATOM      9  C   UNL d   1      -1.388   1.442  -0.152  0.00  0.00     0.040 A 
ATOM     10  O   UNL d   1       3.051  -2.027   0.313  0.00  0.00    -0.268 OA
ATOM     11  C   UNL d   1      -1.489  -1.337   0.070  0.00  0.00     0.032 A 
ATOM     12  C   UNL d   1      -2.600   0.770  -0.297  0.00  0.00     0.035 A 
ATOM     13  C   UNL d   1      -2.658  -0.614  -0.176  0.00  0.00     0.026 A 
ATOM     14 CL   UNL d   1      -4.041   1.661  -0.592  0.00  0.00    -0.084 Cl
ATOM     15  H   UNL d   1       0.740  -2.454   0.698  0.00  0.00     0.169 HD
ENDROOT
BRANCH   3  16
ATOM     16  C   UNL d   1       0.914   2.685   1.378  0.00  0.00    -0.006 A 
ATOM     17  C   UNL d   1       1.807   3.751   1.203  0.00  0.00     0.050 A 
ATOM     18  C   UNL d   1       1.741   4.848   2.055  0.00  0.00     0.066 A 
ATOM     19  C   UNL d   1       0.799   4.902   3.077  0.00  0.00     0.036 A 
ATOM     20  C   UNL d   1      -0.080   3.837   3.265  0.00  0.00     0.004 A 
ATOM     21  C   UNL d   1      -0.018   2.723   2.424  0.00  0.00     0.014 A 
BRANCH  18  22
ATOM     22  O   UNL d   1       2.596   5.902   1.925  0.00  0.00    -0.361 OA
ATOM     23  H   UNL d   1       3.246   5.691   1.233  0.00  0.00     0.217 HD
ENDBRANCH  18  22
ENDBRANCH   3  16
BRANCH   7  24
ATOM     24  O   UNL d   1       3.724   0.032  -1.363  0.00  0.00    -0.368 OA
ATOM     25  H   UNL d   1       4.304  -0.048  -0.585  0.00  0.00     0.212 HD
ENDBRANCH   7  24
TORSDOF 3
