REMARK  4 active torsions:
REMARK  status: ('A' for Active; 'I' for Inactive)
REMARK    1  A    between atoms: C_2  and  S_1 
REMARK    2  A    between atoms: O_4  and  S_1 
REMARK    3  A    between atoms: C_14  and  O_4 
REMARK    4  A    between atoms: C_9  and  C_10 
ROOT
ATOM      1  S   UNL d   1       1.400   1.538  -0.066  0.00  0.00     0.304 S 
ATOM      2  O   UNL d   1       1.711   2.932   0.201  0.00  0.00    -0.193 OA
ATOM      3  O   UNL d   1       2.464   0.590  -0.329  0.00  0.00    -0.193 OA
ENDROOT
BRANCH   1   4
ATOM      4  C   UNL d   1       0.364   1.519  -1.512  0.00  0.00     0.108 A 
ATOM      5  C   UNL d   1      -0.222   0.335  -1.968  0.00  0.00     0.059 A 
ATOM      6  C   UNL d   1      -0.987   0.352  -3.142  0.00  0.00     0.049 A 
ATOM      7 CL   UNL d   1      -0.064  -1.184  -1.166  0.00  0.00    -0.083 Cl
ATOM      8  C   UNL d   1      -1.163   1.542  -3.846  0.00  0.00     0.035 A 
ATOM      9  C   UNL d   1      -0.584   2.724  -3.393  0.00  0.00     0.025 A 
ATOM     10 CL   UNL d   1      -2.102   1.551  -5.287  0.00  0.00    -0.084 Cl
ATOM     11  C   UNL d   1       0.183   2.715  -2.227  0.00  0.00     0.029 A 
ENDBRANCH   1   4
BRANCH   1  12
ATOM     12  O   UNL d   1       0.429   1.000   1.133  0.00  0.00    -0.229 OA
BRANCH  12  13
ATOM     13  C   UNL d   1       0.873   0.902   2.428  0.00  0.00     0.089 A 
ATOM     14  C   UNL d   1      -0.093   1.013   3.427  0.00  0.00     0.039 A 
ATOM     15  C   UNL d   1       0.261   0.874   4.777  0.00  0.00     0.011 A 
ATOM     16  C   UNL d   1       1.586   0.604   5.166  0.00  0.00    -0.050 A 
ATOM     17  C   UNL d   1       2.540   0.506   4.141  0.00  0.00     0.011 A 
ATOM     18  C   UNL d   1       2.191   0.648   2.792  0.00  0.00     0.039 A 
BRANCH  16  19
ATOM     19  C   UNL d   1       1.949   0.411   6.650  0.00  0.00    -0.024 C 
ATOM     20  C   UNL d   1       3.440   0.070   6.882  0.00  0.00     0.019 C 
ATOM     21  C   UNL d   1       1.646   1.700   7.441  0.00  0.00     0.019 C 
ATOM     22  C   UNL d   1       1.125  -0.750   7.248  0.00  0.00     0.019 C 
ENDBRANCH  16  19
ENDBRANCH  12  13
ENDBRANCH   1  12
TORSDOF 4
