REMARK  4 active torsions:
REMARK  status: ('A' for Active; 'I' for Inactive)
REMARK    1  A    between atoms: C_2  and  C_1 
REMARK    2  A    between atoms: O_10  and  C_2 
REMARK    3  A    between atoms: C_9  and  C_3 
REMARK    4  A    between atoms: C_13  and  O_10 
ROOT
ATOM      1  C   UNL d   1       0.927   0.077   0.108  0.00  0.00     0.120 C 
ATOM      2  C   UNL d   1       0.256   0.581  -0.946  0.00  0.00     0.041 C 
ATOM      3  C   UNL d   1       0.282  -0.415   1.277  0.00  0.00     0.105 C 
ATOM      4  N   UNL d   1      -0.257  -0.815   2.225  0.00  0.00    -0.191 NA
ENDROOT
BRANCH   1   5
ATOM      5  C   UNL d   1       2.400  -0.035  -0.025  0.00  0.00     0.303 C 
ATOM      6  O   UNL d   1       3.029   0.332  -1.008  0.00  0.00    -0.258 OA
BRANCH   5   7
ATOM      7  O   UNL d   1       2.921  -0.679   1.048  0.00  0.00    -0.317 OA
BRANCH   7   8
ATOM      8  C   UNL d   1       4.263  -1.163   0.898  0.00  0.00     0.174 C 
ATOM      9  C   UNL d   1       4.204  -2.553   0.292  0.00  0.00     0.034 C 
ENDBRANCH   7   8
ENDBRANCH   5   7
ENDBRANCH   1   5
BRANCH   2  10
ATOM     10  C   UNL d   1      -1.203   0.653  -1.023  0.00  0.00    -0.019 A 
ATOM     11  C   UNL d   1      -1.938  -0.380  -1.598  0.00  0.00     0.099 A 
ATOM     12  N   UNL d   1      -3.289  -0.405  -1.659  0.00  0.00    -0.374 N 
ATOM     13  C   UNL d   1      -3.938   0.649  -1.115  0.00  0.00     0.087 A 
ATOM     14  HN  UNL d   1      -3.792  -1.179  -2.094  1.00  0.00     0.164 HD
ATOM     15  C   UNL d   1      -3.295   1.727  -0.530  0.00  0.00     0.018 A 
ATOM     16  C   UNL d   1      -1.905   1.732  -0.485  0.00  0.00     0.014 A 
ENDBRANCH   2  10
TORSDOF 4
