REMARK  5 active torsions:
REMARK  status: ('A' for Active; 'I' for Inactive)
REMARK    1  A    between atoms: C_15  and  C_1 
REMARK    2  A    between atoms: C_10  and  C_7 
REMARK    3  A    between atoms: C_11  and  C_7 
REMARK    4  A    between atoms: N_8  and  O_14 
REMARK    5  A    between atoms: O_14  and  C_15 
ROOT
ATOM      1  C   UNL d   1      -3.049   5.181  -0.286  0.00  0.00     0.074 C 
ATOM      2  N   UNL d   1      -3.759   4.172  -0.718  0.00  0.00    -0.265 N 
ATOM      3  HN  UNL d   1      -3.758   3.858  -1.688  1.00  0.00     0.194 HD
ENDROOT
BRANCH   2   4
ATOM      4  O   UNL d   1      -4.528   3.564   0.294  0.00  0.00    -0.275 OA
BRANCH   4   5
ATOM      5  C   UNL d   1      -4.879   2.226  -0.066  0.00  0.00     0.241 C 
BRANCH   5   6
ATOM      6  C   UNL d   1      -6.397   2.038  -0.111  0.00  0.00    -0.019 C 
ATOM      7  C   UNL d   1      -7.095   2.127  -1.348  0.00  0.00    -0.046 C 
ATOM      8  C   UNL d   1      -8.512   2.060  -1.363  0.00  0.00    -0.049 C 
ATOM      9  C   UNL d   1      -6.324   2.332  -2.633  0.00  0.00     0.049 C 
ATOM     10  C   UNL d   1      -9.299   2.303  -2.635  0.00  0.00     0.049 C 
ATOM     11  C   UNL d   1      -9.220   1.722  -0.177  0.00  0.00    -0.049 C 
ATOM     12  C   UNL d   1      -8.522   1.551   1.048  0.00  0.00    -0.049 C 
ATOM     13  C   UNL d   1     -10.727   1.561  -0.254  0.00  0.00     0.049 C 
ATOM     14  C   UNL d   1      -7.122   1.788   1.095  0.00  0.00    -0.046 C 
ATOM     15  C   UNL d   1      -9.308   1.136   2.273  0.00  0.00     0.049 C 
ATOM     16  C   UNL d   1      -6.357   1.753   2.401  0.00  0.00     0.049 C 
ENDBRANCH   5   6
ENDBRANCH   4   5
ENDBRANCH   2   4
BRANCH   1  17
ATOM     17  C   UNL d   1      -2.173   5.894  -1.294  0.00  0.00    -0.007 A 
ATOM     18  C   UNL d   1      -1.868   7.257  -1.158  0.00  0.00     0.015 A 
ATOM     19  C   UNL d   1      -0.980   7.873  -2.047  0.00  0.00     0.024 A 
ATOM     20  C   UNL d   1      -0.422   7.138  -3.091  0.00  0.00     0.034 A 
ATOM     21  C   UNL d   1      -0.756   5.794  -3.262  0.00  0.00     0.024 A 
ATOM     22 CL   UNL d   1       0.687   7.890  -4.168  0.00  0.00    -0.084 Cl
ATOM     23  C   UNL d   1      -1.632   5.173  -2.365  0.00  0.00     0.015 A 
ENDBRANCH   1  17
BRANCH   1  24
ATOM     24  C   UNL d   1      -2.990   5.652   1.142  0.00  0.00    -0.007 A 
ATOM     25  C   UNL d   1      -1.750   5.963   1.723  0.00  0.00     0.014 A 
ATOM     26  C   UNL d   1      -1.680   6.423   3.039  0.00  0.00     0.001 A 
ATOM     27  C   UNL d   1      -2.845   6.538   3.799  0.00  0.00     0.000 A 
ATOM     28  C   UNL d   1      -4.077   6.211   3.237  0.00  0.00     0.001 A 
ATOM     29  C   UNL d   1      -4.154   5.791   1.906  0.00  0.00     0.014 A 
ENDBRANCH   1  24
TORSDOF 5
