REMARK  6 active torsions:
REMARK  status: ('A' for Active; 'I' for Inactive)
REMARK    1  A    between atoms: C_2  and  N_1 
REMARK    2  A    between atoms: N_7  and  C_2 
REMARK    3  A    between atoms: C_17  and  C_4 
REMARK    4  A    between atoms: C_5  and  C_6 
REMARK    5  A    between atoms: C_10  and  N_7 
REMARK    6  A    between atoms: C_8  and  C_16 
ROOT
ATOM      1  N   UNL d   1      -2.574   0.202  -0.241  0.00  0.00    -0.345 N 
ATOM      2  C   UNL d   1      -0.241   0.747   0.275  0.00  0.00    -0.017 A 
ATOM      3  C   UNL d   1      -1.668   1.253   0.300  0.00  0.00     0.154 C 
ATOM      4  C   UNL d   1       0.070  -0.593   0.114  0.00  0.00    -0.007 A 
ATOM      5  C   UNL d   1      -2.344  -1.164   0.290  0.00  0.00     0.131 C 
ATOM      6  S   UNL d   1       1.740  -0.901   0.125  0.00  0.00    -0.106 SA
ATOM      7  C   UNL d   1      -0.942  -1.677  -0.081  0.00  0.00     0.067 C 
ATOM      8  C   UNL d   1       0.954   1.529   0.411  0.00  0.00     0.018 A 
ATOM      9  C   UNL d   1       2.095   0.757   0.350  0.00  0.00     0.051 A 
ENDROOT
BRANCH   1  10
ATOM     10  C   UNL d   1      -3.658   0.509  -1.078  0.00  0.00     0.175 C 
ATOM     11  S   UNL d   1      -5.066  -0.410  -1.169  0.00  0.00    -0.041 SA
BRANCH  10  12
ATOM     12  N   UNL d   1      -3.400   1.575  -1.936  0.00  0.00    -0.332 N 
ATOM     13  H   UNL d   1      -2.521   1.458  -2.436  0.00  0.00     0.168 HD
BRANCH  12  14
ATOM     14  C   UNL d   1      -4.343   2.474  -2.509  0.00  0.00     0.049 A 
ATOM     15  C   UNL d   1      -4.151   3.023  -3.791  0.00  0.00     0.074 A 
ATOM     16  C   UNL d   1      -5.010   4.056  -4.230  0.00  0.00     0.018 A 
ATOM     17  C   UNL d   1      -6.062   4.505  -3.438  0.00  0.00     0.001 A 
ATOM     18  C   UNL d   1      -6.286   3.914  -2.202  0.00  0.00     0.002 A 
ATOM     19  C   UNL d   1      -5.426   2.917  -1.738  0.00  0.00     0.030 A 
BRANCH  15  20
ATOM     20  C   UNL d   1      -3.141   2.511  -4.787  0.00  0.00     0.419 C 
ATOM     21  F   UNL d   1      -2.366   1.490  -4.327  0.00  0.00    -0.166 F 
ATOM     22  F   UNL d   1      -3.728   2.048  -5.928  0.00  0.00    -0.166 F 
ATOM     23  F   UNL d   1      -2.271   3.479  -5.190  0.00  0.00    -0.166 F 
ENDBRANCH  15  20
ENDBRANCH  12  14
ENDBRANCH  10  12
ENDBRANCH   1  10
BRANCH   3  24
ATOM     24  C   UNL d   1      -2.007   1.652   1.747  0.00  0.00    -0.031 A 
ATOM     25  C   UNL d   1      -2.950   2.671   1.959  0.00  0.00     0.010 A 
ATOM     26  C   UNL d   1      -3.285   3.098   3.252  0.00  0.00     0.017 A 
ATOM     27  C   UNL d   1      -2.692   2.512   4.380  0.00  0.00     0.047 A 
ATOM     28  C   UNL d   1      -1.772   1.479   4.183  0.00  0.00     0.017 A 
ATOM     29  C   UNL d   1      -1.443   1.051   2.890  0.00  0.00     0.010 A 
BRANCH  27  30
ATOM     30  C   UNL d   1      -3.046   2.996   5.766  0.00  0.00     0.417 C 
ATOM     31  F   UNL d   1      -2.385   2.340   6.760  0.00  0.00    -0.166 F 
ATOM     32  F   UNL d   1      -2.766   4.317   5.945  0.00  0.00    -0.166 F 
ATOM     33  F   UNL d   1      -4.372   2.856   6.048  0.00  0.00    -0.166 F 
ENDBRANCH  27  30
ENDBRANCH   3  24
TORSDOF 6
