REMARK  7 active torsions:
REMARK  status: ('A' for Active; 'I' for Inactive)
REMARK    1  A    between atoms: C_9  and  N_1 
REMARK    2  A    between atoms: S_8  and  C_2 
REMARK    3  A    between atoms: O_17  and  C_3 
REMARK    4  A    between atoms: C_16  and  S_8 
REMARK    5  A    between atoms: C_10  and  C_16 
REMARK       I    between atoms: N_11  and  C_10 
REMARK    6  A    between atoms: C_20  and  N_11 
REMARK    7  A    between atoms: C_21  and  C_12 
ROOT
ATOM      1  N   UNL d   1       1.504  -6.277  -2.191  0.00  0.00    -0.254 N 
ATOM      2  C   UNL d   1       1.466  -4.920  -1.907  0.00  0.00     0.169 A 
ATOM      3  C   UNL d   1       1.965  -6.299  -3.504  0.00  0.00     0.245 A 
ATOM      4  N   UNL d   1       1.782  -4.212  -2.970  0.00  0.00    -0.276 N 
ATOM      5  HN  UNL d   1       1.803  -3.194  -3.029  1.00  0.00     0.189 HD
ATOM      6  N   UNL d   1       2.075  -5.084  -3.983  0.00  0.00    -0.263 N 
ATOM      7  HN  UNL d   1       2.334  -4.833  -4.938  1.00  0.00     0.190 HD
ENDROOT
BRANCH   2   8
ATOM      8  S   UNL d   1       0.996  -4.178  -0.408  0.00  0.00    -0.083 SA
BRANCH   8   9
ATOM      9  C   UNL d   1       2.478  -3.157  -0.102  0.00  0.00     0.185 C 
BRANCH   9  10
ATOM     10  C   UNL d   1       3.755  -3.994  -0.026  0.00  0.00     0.231 C 
ATOM     11  N   UNL d   1       4.900  -3.219   0.124  0.00  0.00    -0.327 N 
ATOM     12  H   UNL d   1       4.787  -2.254   0.407  0.00  0.00     0.169 HD
ATOM     13  O   UNL d   1       3.752  -5.221  -0.069  0.00  0.00    -0.272 OA
BRANCH  11  14
ATOM     14  C   UNL d   1       6.227  -3.677  -0.034  0.00  0.00     0.034 A 
ATOM     15  C   UNL d   1       6.540  -4.893  -0.643  0.00  0.00     0.030 A 
ATOM     16  C   UNL d   1       7.869  -5.269  -0.848  0.00  0.00     0.010 A 
ATOM     17  C   UNL d   1       8.922  -4.439  -0.450  0.00  0.00    -0.055 A 
ATOM     18  C   UNL d   1       8.608  -3.228   0.182  0.00  0.00     0.010 A 
ATOM     19  C   UNL d   1       7.273  -2.847   0.381  0.00  0.00     0.030 A 
BRANCH  17  20
ATOM     20  C   UNL d   1      10.364  -4.811  -0.745  0.00  0.00     0.010 C 
ATOM     21  C   UNL d   1      10.761  -6.139  -0.092  0.00  0.00     0.015 C 
ATOM     22  C   UNL d   1      10.611  -4.860  -2.257  0.00  0.00     0.015 C 
ENDBRANCH  17  20
ENDBRANCH  11  14
ENDBRANCH   9  10
ENDBRANCH   8   9
ENDBRANCH   2   8
BRANCH   1  23
ATOM     23  C   UNL d   1       1.203  -7.419  -1.399  0.00  0.00     0.060 A 
ATOM     24  C   UNL d   1       0.740  -8.584  -2.010  0.00  0.00     0.117 A 
ATOM     25  N   UNL d   1       0.524  -9.750  -1.357  0.00  0.00    -0.373 N 
ATOM     26  C   UNL d   1       0.753  -9.757  -0.028  0.00  0.00     0.088 A 
ATOM     27  HN  UNL d   1       0.203 -10.585  -1.848  1.00  0.00     0.164 HD
ATOM     28  C   UNL d   1       1.175  -8.645   0.677  0.00  0.00     0.019 A 
ATOM     29  C   UNL d   1       1.398  -7.457  -0.019  0.00  0.00     0.033 A 
ENDBRANCH   1  23
BRANCH   3  30
ATOM     30  O   UNL d   1       2.360  -7.368  -4.186  0.00  0.00    -0.331 OA
ATOM     31  H   UNL d   1       2.745  -8.003  -3.558  0.00  0.00     0.221 HD
ENDBRANCH   3  30
TORSDOF 7
