REMARK  5 active torsions:
REMARK  status: ('A' for Active; 'I' for Inactive)
REMARK    1  A    between atoms: S_11  and  C_3 
REMARK    2  A    between atoms: C_9  and  C_8 
REMARK    3  A    between atoms: C_12  and  C_9 
REMARK    4  A    between atoms: C_10  and  S_11 
REMARK    5  A    between atoms: O_23  and  C_18 
ROOT
ATOM      1  C   UNL d   1       4.750  -4.710  -0.019  0.00  0.00     0.063 C 
ATOM      2  C   UNL d   1       3.834  -3.734   0.075  0.00  0.00     0.056 C 
ENDROOT
BRANCH   2   3
ATOM      3  S   UNL d   1       4.352  -2.081  -0.013  0.00  0.00    -0.077 SA
BRANCH   3   4
ATOM      4  C   UNL d   1       2.850  -1.206   0.232  0.00  0.00     0.117 A 
ATOM      5  N   UNL d   1       1.685  -1.776   0.444  0.00  0.00    -0.344 N 
ATOM      6  C   UNL d   1       0.706  -0.803   0.596  0.00  0.00     0.052 A 
ATOM      7  HN  UNL d   1       1.524  -2.782   0.489  1.00  0.00     0.167 HD
ATOM      8  C   UNL d   1       1.154   0.516   0.501  0.00  0.00     0.034 A 
ATOM      9  C   UNL d   1      -0.664  -1.038   0.831  0.00  0.00     0.054 A 
ATOM     10  C   UNL d   1       0.284   1.614   0.635  0.00  0.00     0.023 A 
ATOM     11  S   UNL d   1       2.847   0.512   0.212  0.00  0.00    -0.063 SA
ATOM     12  C   UNL d   1      -1.070   1.357   0.867  0.00  0.00     0.025 A 
ATOM     13  C   UNL d   1      -1.533   0.049   0.963  0.00  0.00     0.036 A 
ATOM     14 CL   UNL d   1      -3.207  -0.234   1.249  0.00  0.00    -0.084 Cl
ENDBRANCH   3   4
ENDBRANCH   2   3
BRANCH   1  15
ATOM     15  C   UNL d   1       4.370  -6.145   0.049  0.00  0.00     0.182 C 
ATOM     16  O   UNL d   1       3.215  -6.519  -0.116  0.00  0.00    -0.288 OA
BRANCH  15  17
ATOM     17  C   UNL d   1       5.467  -7.130   0.275  0.00  0.00     0.014 A 
ATOM     18  C   UNL d   1       6.609  -6.809   1.020  0.00  0.00     0.018 A 
ATOM     19  C   UNL d   1       7.630  -7.751   1.195  0.00  0.00     0.037 A 
ATOM     20  C   UNL d   1       7.515  -9.022   0.633  0.00  0.00     0.068 A 
ATOM     21  C   UNL d   1       6.355  -9.360  -0.068  0.00  0.00     0.037 A 
ATOM     22  C   UNL d   1       5.335  -8.419  -0.252  0.00  0.00     0.018 A 
BRANCH  20  23
ATOM     23  O   UNL d   1       8.444 -10.019   0.751  0.00  0.00    -0.356 OA
ATOM     24  C   UNL d   1       9.796  -9.587   0.870  0.00  0.00     0.210 C 
ENDBRANCH  20  23
ENDBRANCH  15  17
ENDBRANCH   1  15
TORSDOF 5
