REMARK  4 active torsions:
REMARK  status: ('A' for Active; 'I' for Inactive)
REMARK    1  A    between atoms: C_5  and  C_1 
REMARK    2  A    between atoms: C_8  and  C_2 
REMARK    3  A    between atoms: O_13  and  C_8 
REMARK    4  A    between atoms: C_19  and  O_13 
ROOT
ATOM      1  C   UNL d   1      -1.361   0.868  -0.212  0.00  0.00     0.089 A 
ATOM      2  C   UNL d   1      -0.030   1.286   0.102  0.00  0.00     0.121 A 
ATOM      3  N   UNL d   1      -1.359  -0.394  -0.677  0.00  0.00    -0.257 N 
ATOM      4  HN  UNL d   1      -2.166  -0.928  -1.003  1.00  0.00     0.195 HD
ATOM      5  C   UNL d   1       0.738   0.178  -0.168  0.00  0.00     0.182 A 
ATOM      6  O   UNL d   1      -0.051  -0.822  -0.626  0.00  0.00    -0.219 OA
ATOM      7  N   UNL d   1       2.054  -0.076  -0.055  0.00  0.00    -0.377 N 
ATOM      8  H   UNL d   1       2.705   0.700   0.038  0.00  0.00     0.158 HD
ATOM      9  H   UNL d   1       2.441  -0.900  -0.509  0.00  0.00     0.158 HD
ENDROOT
BRANCH   1  10
ATOM     10  C   UNL d   1      -2.623   1.605  -0.129  0.00  0.00     0.037 A 
ATOM     11  C   UNL d   1      -2.839   2.775  -0.882  0.00  0.00     0.048 A 
ATOM     12 CL   UNL d   1      -1.665   3.408  -1.989  0.00  0.00    -0.083 Cl
ATOM     13  C   UNL d   1      -4.048   3.478  -0.787  0.00  0.00     0.025 A 
ATOM     14  C   UNL d   1      -5.072   3.012   0.032  0.00  0.00     0.003 A 
ATOM     15  C   UNL d   1      -4.887   1.843   0.763  0.00  0.00     0.025 A 
ATOM     16  C   UNL d   1      -3.672   1.148   0.694  0.00  0.00     0.048 A 
ATOM     17 CL   UNL d   1      -3.540  -0.263   1.693  0.00  0.00    -0.083 Cl
ENDBRANCH   1  10
BRANCH   2  18
ATOM     18  C   UNL d   1       0.498   2.533   0.595  0.00  0.00     0.300 C 
ATOM     19  O   UNL d   1       1.687   2.833   0.516  0.00  0.00    -0.259 OA
BRANCH  18  20
ATOM     20  O   UNL d   1      -0.449   3.328   1.173  0.00  0.00    -0.318 OA
BRANCH  20  21
ATOM     21  C   UNL d   1       0.039   4.567   1.708  0.00  0.00     0.174 C 
ATOM     22  C   UNL d   1       0.647   4.344   3.081  0.00  0.00     0.034 C 
ENDBRANCH  20  21
ENDBRANCH  18  20
ENDBRANCH   2  18
TORSDOF 4
