REMARK  5 active torsions:
REMARK  status: ('A' for Active; 'I' for Inactive)
REMARK    1  A    between atoms: C_2  and  C_1 
REMARK       I    between atoms: N_4  and  C_1 
REMARK       I    between atoms: C_3  and  N_5 
REMARK       I    between atoms: N_6  and  C_3 
REMARK    2  A    between atoms: C_10  and  N_4 
REMARK    3  A    between atoms: N_5  and  C_11 
REMARK    4  A    between atoms: C_12  and  N_6 
REMARK    5  A    between atoms: O_13  and  C_7 
ROOT
ATOM      1  C   UNL d   1      -1.293   1.182  -0.032  0.00  0.00     0.035 A 
ATOM      2  C   UNL d   1      -4.099   1.312   0.357  0.00  0.00     0.036 A 
ATOM      3  C   UNL d   1      -2.094   0.049  -0.178  0.00  0.00     0.032 A 
ATOM      4  C   UNL d   1      -1.924   2.405   0.202  0.00  0.00     0.032 A 
ATOM      5  C   UNL d   1      -3.314   2.468   0.395  0.00  0.00     0.032 A 
ATOM      6  C   UNL d   1      -3.482   0.113   0.004  0.00  0.00     0.032 A 
ENDROOT
BRANCH   1   7
ATOM      7  N   UNL d   1       0.123   1.162  -0.102  0.00  0.00    -0.323 N 
ATOM      8  C   UNL d   1       0.916   0.029  -0.211  0.00  0.00     0.259 C 
ATOM      9  O   UNL d   1       0.515  -1.131  -0.228  0.00  0.00    -0.267 OA
ATOM     10  H   UNL d   1       0.575   2.064  -0.058  0.00  0.00     0.169 HD
BRANCH   8  11
ATOM     11  C   UNL d   1       2.385   0.225  -0.381  0.00  0.00     0.065 A 
ATOM     12  C   UNL d   1       3.121  -0.767  -1.057  0.00  0.00     0.081 A 
ATOM     13  C   UNL d   1       4.477  -0.599  -1.324  0.00  0.00     0.037 A 
ATOM     14  C   UNL d   1       5.128   0.553  -0.893  0.00  0.00     0.003 A 
ATOM     15  C   UNL d   1       4.428   1.519  -0.169  0.00  0.00     0.001 A 
ATOM     16  C   UNL d   1       3.062   1.357   0.094  0.00  0.00     0.020 A 
BRANCH  12  17
ATOM     17  O   UNL d   1       2.570  -1.943  -1.496  0.00  0.00    -0.360 OA
ATOM     18  H   UNL d   1       1.667  -2.010  -1.110  0.00  0.00     0.217 HD
ENDBRANCH  12  17
ENDBRANCH   8  11
ENDBRANCH   1   7
BRANCH   2  19
ATOM     19  N   UNL d   1      -5.467   1.254   0.721  0.00  0.00    -0.309 N 
ATOM     20  C   UNL d   1      -6.202   2.276   1.309  0.00  0.00     0.325 C 
ATOM     21  N   UNL d   1      -7.425   1.825   1.781  0.00  0.00    -0.309 N 
ATOM     22  O   UNL d   1      -5.787   3.422   1.432  0.00  0.00    -0.247 OA
ATOM     23  H   UNL d   1      -7.666   0.861   1.611  0.00  0.00     0.170 HD
ATOM     24  H   UNL d   1      -5.891   0.340   0.700  0.00  0.00     0.170 HD
BRANCH  21  25
ATOM     25  C   UNL d   1      -8.335   2.564   2.581  0.00  0.00     0.036 A 
ATOM     26  C   UNL d   1      -8.145   3.905   2.935  0.00  0.00     0.029 A 
ATOM     27  C   UNL d   1      -9.039   4.565   3.780  0.00  0.00     0.002 A 
ATOM     28  C   UNL d   1     -10.149   3.897   4.280  0.00  0.00     0.000 A 
ATOM     29  C   UNL d   1     -10.372   2.571   3.919  0.00  0.00     0.002 A 
ATOM     30  C   UNL d   1      -9.471   1.907   3.072  0.00  0.00     0.029 A 
ENDBRANCH  21  25
ENDBRANCH   2  19
TORSDOF 5
