REMARK  4 active torsions:
REMARK  status: ('A' for Active; 'I' for Inactive)
REMARK    1  A    between atoms: C_2  and  C_1 
REMARK       I    between atoms: N_4  and  C_2 
REMARK    2  A    between atoms: C_8  and  N_6 
REMARK    3  A    between atoms: C_18  and  C_8 
REMARK    4  A    between atoms: C_19  and  C_8 
ROOT
ATOM      1  C   UNL d   1       0.234   3.035   0.080  0.00  0.00     0.256 C 
ATOM      2  N   UNL d   1      -1.095   3.489   0.070  0.00  0.00    -0.345 N 
ATOM      3  N   UNL d   1      -3.962   3.875  -0.641  0.00  0.00     0.105 N 
ATOM      4  O   UNL d   1       1.053   3.433  -0.750  0.00  0.00    -0.267 OA
ATOM      5  C   UNL d   1      -2.170   3.120   0.999  0.00  0.00     0.156 C 
ATOM      6  C   UNL d   1      -1.488   4.496  -0.925  0.00  0.00     0.156 C 
ATOM      7  C   UNL d   1      -2.844   4.159  -1.587  0.00  0.00     0.293 C 
ATOM      8  C   UNL d   1      -3.490   2.826   0.282  0.00  0.00     0.293 C 
ENDROOT
BRANCH   1   9
ATOM      9  C   UNL d   1       0.715   2.071   1.120  0.00  0.00     0.069 A 
ATOM     10  C   UNL d   1       1.627   1.039   0.805  0.00  0.00     0.096 A 
ATOM     11  C   UNL d   1       2.077   0.154   1.803  0.00  0.00     0.003 A 
ATOM     12  O   UNL d   1       2.049   0.884  -0.491  0.00  0.00    -0.325 OA
ATOM     13  C   UNL d   1       3.108  -0.888   1.481  0.00  0.00     0.212 C 
ATOM     14  C   UNL d   1       1.605   0.287   3.111  0.00  0.00     0.054 A 
ATOM     15  O   UNL d   1       3.168  -1.131   0.085  0.00  0.00    -0.362 OA
ATOM     16  C   UNL d   1       3.241   0.107  -0.611  0.00  0.00     0.345 C 
ATOM     17  C   UNL d   1       0.746   1.330   3.423  0.00  0.00     0.118 A 
ATOM     18  C   UNL d   1       0.345   2.245   2.459  0.00  0.00     0.062 A 
ATOM     19  F   UNL d   1       0.299   1.462   4.678  0.00  0.00    -0.206 F 
ENDBRANCH   1   9
BRANCH   3  20
ATOM     20  C   UNL d   1      -4.471   5.114   0.026  0.00  0.00     0.289 C 
BRANCH  20  21
ATOM     21  C   UNL d   1      -5.026   6.090  -1.022  0.00  0.00    -0.021 A 
ATOM     22  C   UNL d   1      -6.085   5.720  -1.868  0.00  0.00     0.010 A 
ATOM     23  C   UNL d   1      -6.520   6.560  -2.887  0.00  0.00     0.001 A 
ATOM     24  C   UNL d   1      -5.892   7.793  -3.082  0.00  0.00     0.000 A 
ATOM     25  C   UNL d   1      -4.848   8.182  -2.249  0.00  0.00     0.001 A 
ATOM     26  C   UNL d   1      -4.416   7.346  -1.219  0.00  0.00     0.010 A 
ENDBRANCH  20  21
BRANCH  20  27
ATOM     27  C   UNL d   1      -5.509   4.883   1.141  0.00  0.00    -0.021 A 
ATOM     28  C   UNL d   1      -5.529   5.737   2.259  0.00  0.00     0.010 A 
ATOM     29  C   UNL d   1      -6.440   5.540   3.301  0.00  0.00     0.001 A 
ATOM     30  C   UNL d   1      -7.351   4.487   3.242  0.00  0.00     0.000 A 
ATOM     31  C   UNL d   1      -7.367   3.649   2.132  0.00  0.00     0.001 A 
ATOM     32  C   UNL d   1      -6.468   3.857   1.082  0.00  0.00     0.010 A 
ENDBRANCH  20  27
ENDBRANCH   3  20
TORSDOF 4
