REMARK  6 active torsions:
REMARK  status: ('A' for Active; 'I' for Inactive)
REMARK    1  A    between atoms: C_18  and  N_1 
REMARK    2  A    between atoms: C_13  and  C_2 
REMARK    3  A    between atoms: S_11  and  C_5 
REMARK       I    between atoms: N_6  and  C_10 
REMARK    4  A    between atoms: C_10  and  C_15 
REMARK    5  A    between atoms: C_15  and  S_11 
REMARK    6  A    between atoms: C_19  and  C_18 
ROOT
ATOM      1  N   UNL d   1      -0.245  -1.254   0.256  0.00  0.00    -0.307 N 
ATOM      2  C   UNL d   1       0.951  -0.606  -0.002  0.00  0.00     0.135 C 
ATOM      3  N   UNL d   1       0.682   0.679  -0.180  0.00  0.00    -0.283 N 
ATOM      4  HN  UNL d   1       1.354   1.390  -0.470  1.00  0.00     0.188 HD
ATOM      5  C   UNL d   1      -1.179  -0.256   0.390  0.00  0.00     0.163 C 
ATOM      6  N   UNL d   1      -0.643   0.899   0.089  0.00  0.00    -0.278 N 
ATOM      7  HN  UNL d   1      -1.124   1.799   0.060  1.00  0.00     0.189 HD
ENDROOT
BRANCH   5   8
ATOM      8  S   UNL d   1      -2.794  -0.510   0.949  0.00  0.00    -0.083 SA
BRANCH   8   9
ATOM      9  C   UNL d   1      -3.539   1.123   0.642  0.00  0.00     0.185 C 
BRANCH   9  10
ATOM     10  C   UNL d   1      -4.941   1.139   1.209  0.00  0.00     0.234 C 
ATOM     11  N   UNL d   1      -5.191   1.439   2.537  0.00  0.00    -0.317 N 
ATOM     12  C   UNL d   1      -4.370   1.810   3.622  0.00  0.00     0.043 A 
ATOM     13  C   UNL d   1      -6.572   1.292   3.029  0.00  0.00     0.137 A 
ATOM     14  C   UNL d   1      -5.150   1.918   4.781  0.00  0.00    -0.030 A 
ATOM     15  C   UNL d   1      -3.013   2.066   3.699  0.00  0.00     0.030 A 
ATOM     16  C   UNL d   1      -4.605   2.244   6.018  0.00  0.00     0.009 A 
ATOM     17  C   UNL d   1      -6.598   1.674   4.506  0.00  0.00     0.061 A 
ATOM     18  C   UNL d   1      -3.237   2.490   6.092  0.00  0.00     0.001 A 
ATOM     19  C   UNL d   1      -2.451   2.414   4.938  0.00  0.00     0.002 A 
ATOM     20  O   UNL d   1      -5.882   0.841   0.458  0.00  0.00    -0.272 OA
ENDBRANCH   9  10
ENDBRANCH   8   9
ENDBRANCH   5   8
BRANCH   1  21
ATOM     21  C   UNL d   1      -0.516  -2.683   0.190  0.00  0.00     0.159 C 
BRANCH  21  22
ATOM     22  C   UNL d   1      -0.494  -3.358   1.534  0.00  0.00    -0.017 C 
ATOM     23  C   UNL d   1      -0.059  -4.613   1.728  0.00  0.00     0.008 C 
ENDBRANCH  21  22
ENDBRANCH   1  21
BRANCH   2  24
ATOM     24  C   UNL d   1       2.307  -1.172  -0.055  0.00  0.00     0.010 A 
ATOM     25  C   UNL d   1       3.260  -0.591  -0.910  0.00  0.00     0.017 A 
ATOM     26  C   UNL d   1       4.592  -1.023  -0.906  0.00  0.00     0.025 A 
ATOM     27  C   UNL d   1       4.985  -2.045  -0.048  0.00  0.00     0.034 A 
ATOM     28  C   UNL d   1       4.057  -2.638   0.803  0.00  0.00     0.025 A 
ATOM     29 CL   UNL d   1       6.626  -2.555  -0.010  0.00  0.00    -0.084 Cl
ATOM     30  C   UNL d   1       2.730  -2.193   0.805  0.00  0.00     0.017 A 
ENDBRANCH   2  24
TORSDOF 6
