REMARK  3 active torsions:
REMARK  status: ('A' for Active; 'I' for Inactive)
REMARK    1  A    between atoms: C_2  and  N_1 
REMARK    2  A    between atoms: N_3  and  C_8 
REMARK    3  A    between atoms: C_7  and  C_5 
ROOT
ATOM      1  C   UNL d   1       0.314   0.154   1.272  0.00  0.00     0.116 A 
ATOM      2  C   UNL d   1      -0.783  -0.694   1.489  0.00  0.00     0.076 A 
ATOM      3  C   UNL d   1       0.742   1.109   2.229  0.00  0.00     0.001 A 
ATOM      4  C   UNL d   1      -1.432  -0.569   2.694  0.00  0.00     0.107 A 
ATOM      5  C   UNL d   1      -1.037   0.348   3.640  0.00  0.00     0.105 A 
ATOM      6  C   UNL d   1       0.035   1.200   3.440  0.00  0.00     0.053 A 
ATOM      7  O   UNL d   1      -2.505  -1.300   3.095  0.00  0.00    -0.323 OA
ATOM      8  O   UNL d   1      -1.819   0.308   4.753  0.00  0.00    -0.323 OA
ATOM      9  C   UNL d   1      -2.721  -0.770   4.420  0.00  0.00     0.352 A 
ENDROOT
BRANCH   3  10
ATOM     10  C   UNL d   1       1.855   2.046   2.007  0.00  0.00     0.037 C 
ATOM     11  C   UNL d   1       3.114   1.751   2.353  0.00  0.00     0.168 C 
BRANCH  11  12
ATOM     12  N   UNL d   1       4.168   2.710   2.096  0.00  0.00    -0.127 N 
ATOM     13  O   UNL d   1       3.876   3.784   1.555  0.00  0.00    -0.532 OA
ATOM     14  O   UNL d   1       5.300   2.375   2.459  0.00  0.00    -0.532 OA
ENDBRANCH  11  12
ENDBRANCH   3  10
BRANCH   1  15
ATOM     15  N   UNL d   1       1.009   0.019   0.006  0.00  0.00    -0.115 N 
ATOM     16  O   UNL d   1       0.344   0.199  -1.022  0.00  0.00    -0.532 OA
ATOM     17  O   UNL d   1       2.207  -0.290   0.051  0.00  0.00    -0.532 OA
ENDBRANCH   1  15
TORSDOF 3
