REMARK  6 active torsions:
REMARK  status: ('A' for Active; 'I' for Inactive)
REMARK    1  A    between atoms: C_13  and  N_1 
REMARK    2  A    between atoms: C_7  and  C_2 
REMARK    3  A    between atoms: O_15  and  C_8 
REMARK    4  A    between atoms: O_16  and  C_9 
REMARK    5  A    between atoms: O_17  and  C_10 
REMARK    6  A    between atoms: C_18  and  C_13 
ROOT
ATOM      1  N   UNL d   1       0.217   0.411   1.171  0.00  0.00    -0.303 N 
ATOM      2  C   UNL d   1       0.849   0.808   0.017  0.00  0.00     0.135 A 
ATOM      3  N   UNL d   1       0.256   0.399  -1.071  0.00  0.00    -0.282 N 
ATOM      4  HN  UNL d   1       0.548   0.558  -2.036  1.00  0.00     0.188 HD
ATOM      5  C   UNL d   1      -0.889  -0.291   0.747  0.00  0.00     0.194 A 
ATOM      6  N   UNL d   1      -0.838  -0.287  -0.636  0.00  0.00    -0.274 N 
ATOM      7  S   UNL d   1      -2.099  -1.027   1.607  0.00  0.00    -0.039 SA
ATOM      8  H   UNL d   1      -1.509  -0.701  -1.269  0.00  0.00     0.189 HD
ENDROOT
BRANCH   2   9
ATOM      9  C   UNL d   1       2.089   1.622  -0.042  0.00  0.00     0.015 A 
ATOM     10  C   UNL d   1       2.971   1.436  -1.115  0.00  0.00     0.055 A 
ATOM     11  C   UNL d   1       4.134   2.219  -1.255  0.00  0.00     0.105 A 
ATOM     12  C   UNL d   1       4.432   3.208  -0.288  0.00  0.00     0.135 A 
ATOM     13  C   UNL d   1       3.521   3.410   0.765  0.00  0.00     0.105 A 
ATOM     14  C   UNL d   1       2.367   2.631   0.869  0.00  0.00     0.055 A 
BRANCH  11  15
ATOM     15  O   UNL d   1       5.003   2.062  -2.303  0.00  0.00    -0.353 OA
ATOM     16  C   UNL d   1       4.712   1.092  -3.300  0.00  0.00     0.210 C 
ENDBRANCH  11  15
BRANCH  12  17
ATOM     17  O   UNL d   1       5.545   4.005  -0.236  0.00  0.00    -0.351 OA
ATOM     18  C   UNL d   1       6.538   3.928  -1.243  0.00  0.00     0.210 C 
ENDBRANCH  12  17
BRANCH  13  19
ATOM     19  O   UNL d   1       3.655   4.287   1.815  0.00  0.00    -0.353 OA
ATOM     20  C   UNL d   1       4.160   5.578   1.502  0.00  0.00     0.210 C 
ENDBRANCH  13  19
ENDBRANCH   2   9
BRANCH   1  21
ATOM     21  C   UNL d   1       0.613   0.578   2.571  0.00  0.00     0.171 C 
BRANCH  21  22
ATOM     22  C   UNL d   1       0.098   1.842   3.236  0.00  0.00    -0.040 A 
ATOM     23  C   UNL d   1      -0.807   2.721   2.617  0.00  0.00     0.009 A 
ATOM     24  C   UNL d   1      -1.149   3.933   3.219  0.00  0.00     0.001 A 
ATOM     25  C   UNL d   1      -0.617   4.271   4.460  0.00  0.00     0.000 A 
ATOM     26  C   UNL d   1       0.250   3.394   5.106  0.00  0.00     0.001 A 
ATOM     27  C   UNL d   1       0.605   2.187   4.500  0.00  0.00     0.009 A 
ENDBRANCH  21  22
ENDBRANCH   1  21
TORSDOF 6
