REMARK  6 active torsions:
REMARK  status: ('A' for Active; 'I' for Inactive)
REMARK    1  A    between atoms: C_10  and  S_1 
REMARK    2  A    between atoms: N_17  and  S_1 
REMARK    3  A    between atoms: C_6  and  S_15 
REMARK       I    between atoms: C_13  and  N_16 
REMARK    4  A    between atoms: C_24  and  C_13 
REMARK    5  A    between atoms: S_15  and  C_24 
REMARK    6  A    between atoms: N_16  and  C_25 
ROOT
ATOM      1  C   UNL d   1      -1.359   0.083  -6.575  0.00  0.00     0.231 C 
ATOM      2  N   UNL d   1      -1.045   1.042  -5.625  0.00  0.00    -0.327 N 
ATOM      3  O   UNL d   1      -1.352  -1.133  -6.396  0.00  0.00    -0.272 OA
ATOM      4  H   UNL d   1      -1.251   2.009  -5.854  0.00  0.00     0.169 HD
ENDROOT
BRANCH   1   5
ATOM      5  C   UNL d   1      -1.811   0.645  -7.911  0.00  0.00     0.186 C 
BRANCH   5   6
ATOM      6  S   UNL d   1      -0.523   1.636  -8.699  0.00  0.00    -0.075 SA
BRANCH   6   7
ATOM      7  C   UNL d   1       0.803   0.513  -8.759  0.00  0.00     0.204 A 
ATOM      8  O   UNL d   1       0.678  -0.843  -8.891  0.00  0.00    -0.265 OA
ATOM      9  C   UNL d   1       1.992  -1.259  -8.893  0.00  0.00     0.199 A 
ATOM     10  C   UNL d   1       2.425  -2.620  -9.016  0.00  0.00     0.127 A 
ATOM     11  N   UNL d   1       2.825  -0.240  -8.778  0.00  0.00    -0.275 N 
ATOM     12  O   UNL d   1       1.569  -3.682  -9.178  0.00  0.00    -0.318 OA
ATOM     13  C   UNL d   1       3.725  -3.105  -9.004  0.00  0.00     0.043 A 
ATOM     14  C   UNL d   1       2.320  -4.811  -9.264  0.00  0.00     0.142 A 
ATOM     15  C   UNL d   1       3.657  -4.509  -9.162  0.00  0.00     0.027 A 
ATOM     16  N   UNL d   1       2.059   0.900  -8.700  0.00  0.00    -0.272 N 
ATOM     17  HN  UNL d   1       3.844  -0.288  -8.753  1.00  0.00     0.189 HD
ATOM     18  HN  UNL d   1       2.398   1.858  -8.612  1.00  0.00     0.189 HD
ENDBRANCH   6   7
ENDBRANCH   5   6
ENDBRANCH   1   5
BRANCH   2  19
ATOM     19  C   UNL d   1      -0.532   0.796  -4.332  0.00  0.00     0.034 A 
ATOM     20  C   UNL d   1      -0.014  -0.442  -3.938  0.00  0.00     0.031 A 
ATOM     21  C   UNL d   1       0.464  -0.637  -2.640  0.00  0.00     0.027 A 
ATOM     22  C   UNL d   1       0.417   0.412  -1.725  0.00  0.00     0.074 A 
ATOM     23  C   UNL d   1      -0.071   1.663  -2.107  0.00  0.00     0.027 A 
ATOM     24  C   UNL d   1      -0.534   1.855  -3.414  0.00  0.00     0.031 A 
BRANCH  22  25
ATOM     25  S   UNL d   1       0.964   0.145  -0.067  0.00  0.00     0.239 S 
ATOM     26  O   UNL d   1       0.648   1.304   0.732  0.00  0.00    -0.206 OA
ATOM     27  O   UNL d   1       2.281  -0.443  -0.098  0.00  0.00    -0.206 OA
BRANCH  25  28
ATOM     28  N   UNL d   1      -0.080  -1.058   0.468  0.00  0.00    -0.225 NA
ATOM     29  H   UNL d   1      -0.727  -0.678   1.158  0.00  0.00     0.136 HD
ATOM     30  H   UNL d   1       0.459  -1.856   0.804  0.00  0.00     0.136 HD
ENDBRANCH  25  28
ENDBRANCH  22  25
ENDBRANCH   2  19
TORSDOF 6
