REMARK  7 active torsions:
REMARK  status: ('A' for Active; 'I' for Inactive)
REMARK    1  A    between atoms: C_7  and  N_1 
REMARK    2  A    between atoms: C_6  and  C_2 
REMARK    3  A    between atoms: O_14  and  C_2 
REMARK    4  A    between atoms: C_8  and  C_6 
REMARK    5  A    between atoms: N_9  and  C_7 
REMARK    6  A    between atoms: C_13  and  C_8 
REMARK    7  A    between atoms: O_25  and  C_21 
ROOT
ATOM      1  N   UNL d   1      -1.671   0.484   0.404  0.00  0.00    -0.287 N 
ATOM      2  C   UNL d   1      -0.987  -1.736  -0.142  0.00  0.00     0.175 C 
ATOM      3  C   UNL d   1      -2.170  -0.815   0.286  0.00  0.00     0.266 C 
ATOM      4  C   UNL d   1       0.188  -0.831   0.156  0.00  0.00     0.014 A 
ATOM      5  C   UNL d   1      -0.269   0.473   0.392  0.00  0.00     0.049 A 
ATOM      6  C   UNL d   1       0.617   1.511   0.616  0.00  0.00     0.032 A 
ATOM      7  C   UNL d   1       1.542  -1.134   0.157  0.00  0.00     0.032 A 
ATOM      8  O   UNL d   1      -3.301  -1.200   0.550  0.00  0.00    -0.269 OA
ATOM      9  C   UNL d   1       2.440  -0.093   0.388  0.00  0.00     0.011 A 
ATOM     10  C   UNL d   1       1.987   1.218   0.614  0.00  0.00     0.021 A 
ATOM     11 BR   UNL d   1       4.296  -0.454   0.377  0.00  0.00    -0.051 Br
ENDROOT
BRANCH   2  12
ATOM     12  C   UNL d   1      -0.972  -2.027  -1.644  0.00  0.00     0.137 C 
BRANCH  12  13
ATOM     13  C   UNL d   1      -2.212  -2.749  -2.112  0.00  0.00     0.163 C 
ATOM     14  O   UNL d   1      -3.278  -2.141  -2.221  0.00  0.00    -0.292 OA
BRANCH  13  15
ATOM     15  C   UNL d   1      -2.139  -4.175  -2.549  0.00  0.00     0.010 A 
ATOM     16  C   UNL d   1      -1.046  -5.005  -2.281  0.00  0.00     0.018 A 
ATOM     17  C   UNL d   1      -1.003  -6.296  -2.821  0.00  0.00     0.037 A 
ATOM     18  C   UNL d   1      -2.045  -6.779  -3.616  0.00  0.00     0.068 A 
ATOM     19  C   UNL d   1      -3.167  -5.981  -3.823  0.00  0.00     0.037 A 
ATOM     20  C   UNL d   1      -3.211  -4.685  -3.298  0.00  0.00     0.018 A 
BRANCH  18  21
ATOM     21  O   UNL d   1      -1.845  -8.030  -4.129  0.00  0.00    -0.356 OA
ATOM     22  C   UNL d   1      -2.742  -8.459  -5.147  0.00  0.00     0.210 C 
ENDBRANCH  18  21
ENDBRANCH  13  15
ENDBRANCH  12  13
ENDBRANCH   2  12
BRANCH   2  23
ATOM     23  O   UNL d   1      -0.886  -2.929   0.613  0.00  0.00    -0.375 OA
ATOM     24  H   UNL d   1      -1.800  -3.147   0.886  0.00  0.00     0.211 HD
ENDBRANCH   2  23
BRANCH   1  25
ATOM     25  C   UNL d   1      -2.507   1.608   0.737  0.00  0.00     0.405 C 
BRANCH  25  26
ATOM     26  N   UNL d   1      -2.783   2.427  -0.453  0.00  0.00     0.110 N 
ATOM     27  C   UNL d   1      -3.624   3.595  -0.088  0.00  0.00     0.300 C 
ATOM     28  C   UNL d   1      -5.095   3.249   0.222  0.00  0.00     0.198 C 
ATOM     29  O   UNL d   1      -5.707   2.546  -0.864  0.00  0.00    -0.388 OA
ATOM     30  C   UNL d   1      -4.972   1.354  -1.180  0.00  0.00     0.198 C 
ATOM     31  C   UNL d   1      -3.509   1.690  -1.520  0.00  0.00     0.300 C 
ENDBRANCH  25  26
ENDBRANCH   1  25
TORSDOF 7
