REMARK  3 active torsions:
REMARK  status: ('A' for Active; 'I' for Inactive)
REMARK    1  A    between atoms: C_8  and  C_4 
REMARK    2  A    between atoms: O_14  and  C_7 
REMARK    3  A    between atoms: O_15  and  C_10 
ROOT
ATOM      1  C   UNL d   1       1.876   0.516   0.131  0.00  0.00    -0.002 A 
ATOM      2  C   UNL d   1       0.823   1.567   0.275  0.00  0.00     0.189 A 
ATOM      3  C   UNL d   1      -0.436   0.866   0.548  0.00  0.00     0.021 A 
ATOM      4  C   UNL d   1       3.172   0.814  -0.036  0.00  0.00     0.023 C 
ATOM      5  C   UNL d   1      -0.210  -0.512   0.550  0.00  0.00    -0.040 A 
ATOM      6  C   UNL d   1       1.220  -0.839   0.247  0.00  0.00     0.082 A 
ATOM      7  O   UNL d   1       0.974   2.770   0.193  0.00  0.00    -0.287 OA
ATOM      8  C   UNL d   1      -1.682   1.413   0.797  0.00  0.00     0.016 A 
ATOM      9  C   UNL d   1      -1.248  -1.390   0.811  0.00  0.00     0.008 A 
ATOM     10  C   UNL d   1      -2.731   0.532   1.063  0.00  0.00     0.001 A 
ATOM     11  C   UNL d   1      -2.515  -0.858   1.073  0.00  0.00     0.001 A 
ENDROOT
BRANCH   4  12
ATOM     12  C   UNL d   1       4.174  -0.245  -0.152  0.00  0.00    -0.033 A 
ATOM     13  C   UNL d   1       4.482  -0.776  -1.412  0.00  0.00     0.051 A 
ATOM     14  C   UNL d   1       5.351  -1.865  -1.528  0.00  0.00     0.102 A 
ATOM     15  C   UNL d   1       5.917  -2.404  -0.364  0.00  0.00     0.099 A 
ATOM     16  C   UNL d   1       5.629  -1.871   0.893  0.00  0.00     0.040 A 
ATOM     17  C   UNL d   1       4.754  -0.790   0.998  0.00  0.00     0.014 A 
BRANCH  14  18
ATOM     18  O   UNL d   1       5.690  -2.474  -2.708  0.00  0.00    -0.353 OA
ATOM     19  C   UNL d   1       5.120  -1.953  -3.900  0.00  0.00     0.210 C 
ENDBRANCH  14  18
BRANCH  15  20
ATOM     20  O   UNL d   1       6.758  -3.480  -0.466  0.00  0.00    -0.358 OA
ATOM     21  H   UNL d   1       7.081  -3.718   0.416  0.00  0.00     0.217 HD
ENDBRANCH  15  20
ENDBRANCH   4  12
TORSDOF 3
