REMARK  5 active torsions:
REMARK  status: ('A' for Active; 'I' for Inactive)
REMARK       I    between atoms: N_3  and  C_1 
REMARK    1  A    between atoms: C_8  and  C_1 
REMARK    2  A    between atoms: S_5  and  C_2 
REMARK    3  A    between atoms: C_4  and  N_3 
REMARK    4  A    between atoms: C_12  and  S_5 
REMARK    5  A    between atoms: O_22  and  C_14 
ROOT
ATOM      1  C   UNL d   1       0.396  -1.208  -3.259  0.00  0.00     0.101 A 
ATOM      2  C   UNL d   1       0.927  -1.388  -1.970  0.00  0.00     0.069 A 
ATOM      3  N   UNL d   1       0.991  -1.718  -4.366  0.00  0.00    -0.358 N 
ATOM      4  HN  UNL d   1       0.591  -1.578  -5.294  1.00  0.00     0.166 HD
ATOM      5  C   UNL d   1       2.115  -2.103  -1.833  0.00  0.00     0.034 A 
ATOM      6  C   UNL d   1       2.134  -2.419  -4.194  0.00  0.00     0.089 A 
ATOM      7  C   UNL d   1       2.728  -2.636  -2.961  0.00  0.00     0.019 A 
ENDROOT
BRANCH   2   8
ATOM      8  N   UNL d   1       0.358  -0.807  -0.811  0.00  0.00    -0.320 N 
ATOM      9  C   UNL d   1      -0.586  -1.525  -0.085  0.00  0.00     0.256 C 
ATOM     10  O   UNL d   1      -1.032  -2.619  -0.406  0.00  0.00    -0.267 OA
ATOM     11  H   UNL d   1       1.022  -0.338  -0.207  0.00  0.00     0.169 HD
BRANCH   9  12
ATOM     12  C   UNL d   1      -0.991  -0.899   1.210  0.00  0.00     0.032 A 
ATOM     13  C   UNL d   1      -0.949   0.490   1.390  0.00  0.00     0.020 A 
ATOM     14  C   UNL d   1      -1.364   1.062   2.600  0.00  0.00     0.038 A 
ATOM     15  C   UNL d   1      -1.828   0.252   3.636  0.00  0.00     0.068 A 
ATOM     16  C   UNL d   1      -1.881  -1.132   3.452  0.00  0.00     0.038 A 
ATOM     17  C   UNL d   1      -1.460  -1.710   2.248  0.00  0.00     0.020 A 
BRANCH  15  18
ATOM     18  O   UNL d   1      -2.310   0.697   4.835  0.00  0.00    -0.356 OA
ATOM     19  C   UNL d   1      -1.819   1.955   5.288  0.00  0.00     0.210 C 
ENDBRANCH  15  18
ENDBRANCH   9  12
ENDBRANCH   2   8
BRANCH   1  20
ATOM     20  S   UNL d   1      -0.956  -0.089  -3.580  0.00  0.00    -0.070 SA
BRANCH  20  21
ATOM     21  C   UNL d   1      -2.412  -1.113  -3.684  0.00  0.00     0.007 A 
ATOM     22  C   UNL d   1      -2.449  -2.480  -3.395  0.00  0.00     0.020 A 
ATOM     23  C   UNL d   1      -3.659  -3.183  -3.423  0.00  0.00     0.025 A 
ATOM     24  C   UNL d   1      -4.841  -2.523  -3.749  0.00  0.00     0.034 A 
ATOM     25  C   UNL d   1      -4.821  -1.169  -4.068  0.00  0.00     0.025 A 
ATOM     26 CL   UNL d   1      -6.334  -3.378  -3.741  0.00  0.00    -0.084 Cl
ATOM     27  C   UNL d   1      -3.610  -0.471  -4.037  0.00  0.00     0.020 A 
ENDBRANCH  20  21
ENDBRANCH   1  20
TORSDOF 5
