REMARK  4 active torsions:
REMARK  status: ('A' for Active; 'I' for Inactive)
REMARK    1  A    between atoms: N_2  and  C_1 
REMARK    2  A    between atoms: N_3  and  C_1 
REMARK    3  A    between atoms: C_5  and  N_2 
REMARK    4  A    between atoms: C_7  and  N_3 
ROOT
ATOM      1  N   UNL d   1       0.442  -1.118   0.291  0.00  0.00    -0.333 N 
ATOM      2  H   UNL d   1      -0.466  -1.267  -0.132  0.00  0.00     0.168 HD
ENDROOT
BRANCH   1   3
ATOM      3  C   UNL d   1       0.946   0.141   0.098  0.00  0.00     0.176 C 
ATOM      4  S   UNL d   1       2.488   0.510  -0.452  0.00  0.00    -0.041 SA
BRANCH   3   5
ATOM      5  N   UNL d   1       0.079   1.188   0.244  0.00  0.00    -0.333 N 
ATOM      6  H   UNL d   1       0.450   2.053  -0.138  0.00  0.00     0.168 HD
BRANCH   5   7
ATOM      7  C   UNL d   1      -1.105   1.314   1.002  0.00  0.00     0.037 A 
ATOM      8  C   UNL d   1      -1.585   0.344   1.883  0.00  0.00     0.071 A 
ATOM      9  C   UNL d   1      -2.739   0.590   2.623  0.00  0.00     0.118 A 
ATOM     10  F   UNL d   1      -3.188  -0.349   3.467  0.00  0.00    -0.206 F 
ATOM     11  C   UNL d   1      -3.423   1.793   2.517  0.00  0.00     0.042 A 
ATOM     12  C   UNL d   1      -2.942   2.776   1.659  0.00  0.00     0.005 A 
ATOM     13  C   UNL d   1      -1.787   2.536   0.907  0.00  0.00     0.029 A 
ENDBRANCH   5   7
ENDBRANCH   3   5
ENDBRANCH   1   3
BRANCH   1  14
ATOM     14  C   UNL d   1       1.133  -2.264   0.736  0.00  0.00     0.035 A 
ATOM     15  C   UNL d   1       0.681  -3.522   0.328  0.00  0.00     0.041 A 
ATOM     16  C   UNL d   1       1.339  -4.693   0.748  0.00  0.00    -0.024 A 
ATOM     17  C   UNL d   1       0.946  -5.964   0.295  0.00  0.00     0.012 A 
ATOM     18  C   UNL d   1       2.434  -4.592   1.637  0.00  0.00    -0.026 A 
ATOM     19  C   UNL d   1       1.628  -7.111   0.705  0.00  0.00     0.001 A 
ATOM     20  C   UNL d   1       2.704  -7.007   1.582  0.00  0.00     0.001 A 
ATOM     21  C   UNL d   1       3.101  -5.755   2.051  0.00  0.00     0.012 A 
ATOM     22  C   UNL d   1       2.837  -3.329   2.087  0.00  0.00     0.014 A 
ATOM     23  C   UNL d   1       2.195  -2.175   1.636  0.00  0.00     0.030 A 
ENDBRANCH   1  14
TORSDOF 4
