REMARK  9 active torsions:
REMARK  status: ('A' for Active; 'I' for Inactive)
REMARK    1  A    between atoms: C_17  and  N_2 
REMARK    2  A    between atoms: C_15  and  C_3 
REMARK    3  A    between atoms: C_4  and  N_16 
REMARK    4  A    between atoms: S_25  and  C_8 
REMARK    5  A    between atoms: C_27  and  C_15 
REMARK       I    between atoms: N_16  and  C_26 
REMARK    6  A    between atoms: C_38  and  C_22 
REMARK    7  A    between atoms: C_30  and  S_25 
REMARK    8  A    between atoms: C_26  and  C_30 
REMARK    9  A    between atoms: O_37  and  C_33 
ROOT
ATOM      1  N   UNL d   1       4.977   2.955  -0.460  0.00  0.00    -0.320 N 
ATOM      2  C   UNL d   1       4.983   1.586  -0.690  0.00  0.00     0.232 C 
ATOM      3  O   UNL d   1       4.013   0.846  -0.490  0.00  0.00    -0.272 OA
ATOM      4  H   UNL d   1       5.571   3.547  -1.037  0.00  0.00     0.169 HD
ENDROOT
BRANCH   2   5
ATOM      5  C   UNL d   1       6.200   1.018  -1.393  0.00  0.00     0.185 C 
BRANCH   5   6
ATOM      6  S   UNL d   1       7.775   1.388  -0.575  0.00  0.00    -0.083 SA
BRANCH   6   7
ATOM      7  C   UNL d   1       8.825   0.493  -1.631  0.00  0.00     0.163 A 
ATOM      8  N   UNL d   1       9.985   0.948  -2.211  0.00  0.00    -0.305 N 
ATOM      9  C   UNL d   1      10.453  -0.098  -2.994  0.00  0.00     0.145 A 
ATOM     10  C   UNL d   1      11.539  -0.122  -3.931  0.00  0.00     0.092 A 
ATOM     11  N   UNL d   1       9.629  -1.120  -2.843  0.00  0.00    -0.282 N 
ATOM     12  C   UNL d   1      11.653  -0.834  -5.128  0.00  0.00     0.044 A 
ATOM     13  S   UNL d   1      13.026   0.714  -3.730  0.00  0.00     0.007 SA
ATOM     14  N   UNL d   1      12.848  -0.630  -5.816  0.00  0.00    -0.298 N 
ATOM     15  C   UNL d   1      10.676  -1.753  -5.771  0.00  0.00     0.071 C 
ATOM     16  N   UNL d   1      13.660   0.184  -5.174  0.00  0.00    -0.269 N 
ATOM     17  HN  UNL d   1      13.069  -1.062  -6.714  1.00  0.00     0.187 HD
ATOM     18  HN  UNL d   1      14.578   0.460  -5.524  1.00  0.00     0.195 HD
ATOM     19  N   UNL d   1       8.614  -0.752  -1.995  0.00  0.00    -0.278 N 
ATOM     20  HN  UNL d   1       9.730  -2.034  -3.285  1.00  0.00     0.188 HD
ATOM     21  HN  UNL d   1       7.835  -1.341  -1.700  1.00  0.00     0.189 HD
BRANCH   8  22
ATOM     22  C   UNL d   1      10.634   2.219  -1.995  0.00  0.00     0.094 A 
ATOM     23  C   UNL d   1       9.947   3.534  -1.735  0.00  0.00     0.028 A 
ATOM     24  C   UNL d   1      10.689   3.319  -3.025  0.00  0.00     0.028 A 
ENDBRANCH   8  22
ENDBRANCH   6   7
ENDBRANCH   5   6
ENDBRANCH   2   5
BRANCH   1  25
ATOM     25  C   UNL d   1       3.929   3.597   0.195  0.00  0.00     0.091 A 
ATOM     26  C   UNL d   1       3.383   4.848  -0.050  0.00  0.00     0.050 A 
ATOM     27  C   UNL d   1       2.403   5.179   0.955  0.00  0.00     0.033 A 
ATOM     28  C   UNL d   1       2.253   4.195   1.912  0.00  0.00    -0.015 A 
ATOM     29  S   UNL d   1       3.247   2.851   1.570  0.00  0.00    -0.076 SA
BRANCH  26  30
ATOM     30  C   UNL d   1       3.783   5.675  -1.187  0.00  0.00     0.195 C 
ATOM     31  O   UNL d   1       4.942   5.673  -1.599  0.00  0.00    -0.287 OA
BRANCH  30  32
ATOM     32  C   UNL d   1       2.761   6.484  -1.931  0.00  0.00     0.015 A 
ATOM     33  C   UNL d   1       1.425   6.073  -2.048  0.00  0.00     0.018 A 
ATOM     34  C   UNL d   1       0.528   6.791  -2.853  0.00  0.00     0.037 A 
ATOM     35  C   UNL d   1       0.960   7.914  -3.559  0.00  0.00     0.068 A 
ATOM     36  C   UNL d   1       2.277   8.348  -3.414  0.00  0.00     0.037 A 
ATOM     37  C   UNL d   1       3.179   7.632  -2.618  0.00  0.00     0.018 A 
BRANCH  35  38
ATOM     38  O   UNL d   1       0.171   8.669  -4.381  0.00  0.00    -0.356 OA
ATOM     39  C   UNL d   1      -0.822   7.945  -5.104  0.00  0.00     0.210 C 
ENDBRANCH  35  38
ENDBRANCH  30  32
ENDBRANCH  26  30
BRANCH  28  40
ATOM     40  C   UNL d   1       1.411   4.205   3.155  0.00  0.00     0.042 C 
ATOM     41  C   UNL d   1      -0.013   3.733   2.910  0.00  0.00     0.010 C 
ENDBRANCH  28  40
ENDBRANCH   1  25
TORSDOF 9
