REMARK  3 active torsions:
REMARK  status: ('A' for Active; 'I' for Inactive)
REMARK       I    between atoms: N_3  and  C_1 
REMARK       I    between atoms: N_5  and  C_1 
REMARK       I    between atoms: C_2  and  N_4 
REMARK    1  A    between atoms: O_6  and  C_2 
REMARK    2  A    between atoms: C_9  and  N_5 
REMARK    3  A    between atoms: C_15  and  O_6 
ROOT
ATOM      1  C   UNL d   1       0.716   0.055   0.098  0.00  0.00     0.322 C 
ATOM      2  C   UNL d   1      -2.692  -2.890   3.257  0.00  0.00     0.363 C 
ATOM      3  N   UNL d   1       0.173  -1.026   0.788  0.00  0.00    -0.332 N 
ATOM      4  N   UNL d   1      -2.130  -1.794   2.593  0.00  0.00    -0.326 N 
ATOM      5  N   UNL d   1       0.344   0.201  -1.224  0.00  0.00    -0.309 N 
ATOM      6  O   UNL d   1       1.514   0.802   0.664  0.00  0.00    -0.247 OA
ATOM      7  O   UNL d   1      -3.099  -3.875   2.645  0.00  0.00    -0.238 OA
ATOM      8  C   UNL d   1      -0.894  -1.940   0.371  0.00  0.00     0.147 C 
ATOM      9  C   UNL d   1      -2.219  -1.736   1.130  0.00  0.00     0.148 C 
ATOM     10  C   UNL d   1      -0.107  -0.375   3.172  0.00  0.00     0.040 C 
ATOM     11  C   UNL d   1      -1.618  -0.604   3.269  0.00  0.00     0.129 C 
ATOM     12  C   UNL d   1       0.646  -1.226   2.157  0.00  0.00     0.129 C 
ATOM     13  H   UNL d   1      -0.080  -0.597  -1.666  0.00  0.00     0.170 HD
ENDROOT
BRANCH   5  14
ATOM     14  C   UNL d   1       0.894   1.162  -2.119  0.00  0.00     0.038 A 
ATOM     15  C   UNL d   1       1.588   2.299  -1.699  0.00  0.00     0.054 A 
ATOM     16  C   UNL d   1       2.286   3.093  -2.614  0.00  0.00     0.042 A 
ATOM     17 CL   UNL d   1       3.177   4.442  -2.000  0.00  0.00    -0.084 Cl
ATOM     18  C   UNL d   1       2.284   2.780  -3.979  0.00  0.00    -0.040 A 
ATOM     19  C   UNL d   1       1.477   1.719  -4.414  0.00  0.00     0.011 A 
ATOM     20  C   UNL d   1       3.139   3.530  -4.962  0.00  0.00     0.050 C 
ATOM     21  C   UNL d   1       0.783   0.922  -3.493  0.00  0.00     0.030 A 
ENDBRANCH   5  14
BRANCH   2  22
ATOM     22  O   UNL d   1      -2.762  -2.764   4.603  0.00  0.00    -0.294 OA
BRANCH  22  23
ATOM     23  C   UNL d   1      -3.346  -3.829   5.410  0.00  0.00     0.061 C 
ATOM     24  C   UNL d   1      -2.601  -5.159   5.199  0.00  0.00     0.046 C 
ATOM     25  C   UNL d   1      -3.182  -3.404   6.881  0.00  0.00     0.046 C 
ATOM     26  C   UNL d   1      -4.850  -3.989   5.136  0.00  0.00     0.046 C 
ENDBRANCH  22  23
ENDBRANCH   2  22
TORSDOF 3
