REMARK  3 active torsions:
REMARK  status: ('A' for Active; 'I' for Inactive)
REMARK    1  A    between atoms: S_10  and  C_3 
REMARK    2  A    between atoms: C_4  and  C_5 
REMARK    3  A    between atoms: O_14  and  C_9 
ROOT
ATOM      1  N   UNL d   1      -0.726   1.220   0.005  0.00  0.00    -0.318 N 
ATOM      2  HN  UNL d   1      -1.248   2.096   0.006  1.00  0.00     0.170 HD
ATOM      3  C   UNL d   1      -1.337   0.031   0.002  0.00  0.00     0.143 A 
ATOM      4  C   UNL d   1       0.643  -1.143   0.003  0.00  0.00     0.122 A 
ATOM      5  N   UNL d   1      -0.713  -1.156   0.000  0.00  0.00    -0.333 N 
ATOM      6  HN  UNL d   1      -1.236  -2.032  -0.003  1.00  0.00     0.168 HD
ATOM      7  C   UNL d   1       1.359   0.042   0.007  0.00  0.00     0.090 A 
ATOM      8  C   UNL d   1       0.609   1.192   0.008  0.00  0.00     0.143 A 
ENDROOT
BRANCH   4   9
ATOM      9  C   UNL d   1       1.405  -2.457  -0.005  0.00  0.00     0.432 C 
ATOM     10  F   UNL d   1       0.620  -3.568   0.009  0.00  0.00    -0.165 F 
ATOM     11  F   UNL d   1       2.209  -2.578  -1.101  0.00  0.00    -0.165 F 
ATOM     12  F   UNL d   1       2.240  -2.574   1.069  0.00  0.00    -0.165 F 
ENDBRANCH   4   9
BRANCH   8  13
ATOM     13  O   UNL d   1       1.201   2.420   0.010  0.00  0.00    -0.346 OA
ATOM     14  H   UNL d   1       2.163   2.314   0.010  0.00  0.00     0.219 HD
ENDBRANCH   8  13
BRANCH   3  15
ATOM     15  S   UNL d   1      -3.102   0.033  -0.004  0.00  0.00    -0.107 SA
ATOM     16  H   UNL d   1      -3.187   1.368  -0.009  0.00  0.00     0.110 HD
ENDBRANCH   3  15
TORSDOF 3
