REMARK  5 active torsions:
REMARK  status: ('A' for Active; 'I' for Inactive)
REMARK    1  A    between atoms: C_21  and  N_1 
REMARK    2  A    between atoms: S_18  and  C_7 
REMARK    3  A    between atoms: C_8  and  N_15 
REMARK       I    between atoms: N_15  and  C_19 
REMARK    4  A    between atoms: C_30  and  S_18 
REMARK    5  A    between atoms: C_19  and  C_30 
ROOT
ATOM      1  N   UNL d   1      -0.310  -1.438   0.232  0.00  0.00    -0.273 N 
ATOM      2  C   UNL d   1       0.892  -0.757   0.025  0.00  0.00     0.163 C 
ATOM      3  N   UNL d   1       0.670   0.544  -0.032  0.00  0.00    -0.281 N 
ATOM      4  HN  UNL d   1       1.358   1.261  -0.266  1.00  0.00     0.188 HD
ATOM      5  C   UNL d   1      -1.211  -0.404   0.491  0.00  0.00     0.168 C 
ATOM      6  N   UNL d   1      -0.641   0.761   0.278  0.00  0.00    -0.278 N 
ATOM      7  HN  UNL d   1      -1.100   1.670   0.334  1.00  0.00     0.189 HD
ATOM      8  C   UNL d   1       2.216  -1.310  -0.011  0.00  0.00     0.120 A 
ATOM      9  O   UNL d   1       2.567  -2.463   0.648  0.00  0.00    -0.319 OA
ATOM     10  C   UNL d   1       3.344  -0.824  -0.656  0.00  0.00     0.043 A 
ATOM     11  C   UNL d   1       3.871  -2.722   0.383  0.00  0.00     0.142 A 
ATOM     12  C   UNL d   1       4.398  -1.743  -0.421  0.00  0.00     0.027 A 
ENDROOT
BRANCH   5  13
ATOM     13  S   UNL d   1      -2.893  -0.561   0.926  0.00  0.00    -0.083 SA
BRANCH  13  14
ATOM     14  C   UNL d   1      -3.472   1.155   0.803  0.00  0.00     0.185 C 
BRANCH  14  15
ATOM     15  C   UNL d   1      -4.889   1.381   1.320  0.00  0.00     0.233 C 
ATOM     16  N   UNL d   1      -5.409   0.414   2.151  0.00  0.00    -0.305 N 
ATOM     17  H   UNL d   1      -4.862  -0.402   2.388  0.00  0.00     0.171 HD
ATOM     18  O   UNL d   1      -5.469   2.426   1.012  0.00  0.00    -0.272 OA
BRANCH  16  19
ATOM     19  C   UNL d   1      -6.692   0.491   2.634  0.00  0.00     0.168 A 
ATOM     20  S   UNL d   1      -7.185  -0.801   3.639  0.00  0.00    -0.032 SA
ATOM     21  C   UNL d   1      -8.732  -0.042   3.731  0.00  0.00     0.109 A 
ATOM     22  C   UNL d   1      -9.881  -0.568   4.427  0.00  0.00     0.040 A 
ATOM     23  N   UNL d   1      -8.802   1.084   3.046  0.00  0.00    -0.291 N 
ATOM     24  S   UNL d   1      -9.781  -1.657   5.749  0.00  0.00    -0.099 SA
ATOM     25  C   UNL d   1     -11.203  -0.254   4.152  0.00  0.00     0.022 A 
ATOM     26  C   UNL d   1     -11.480  -1.702   5.942  0.00  0.00     0.050 A 
ATOM     27  C   UNL d   1     -12.124  -0.914   5.016  0.00  0.00     0.008 A 
ATOM     28  N   UNL d   1      -7.612   1.400   2.424  0.00  0.00    -0.279 N 
ATOM     29  HN  UNL d   1      -9.644   1.657   2.984  1.00  0.00     0.187 HD
ATOM     30  HN  UNL d   1      -7.465   2.241   1.866  1.00  0.00     0.189 HD
ENDBRANCH  16  19
ENDBRANCH  14  15
ENDBRANCH  13  14
ENDBRANCH   5  13
BRANCH   1  31
ATOM     31  C   UNL d   1      -0.533  -2.852   0.124  0.00  0.00     0.043 A 
ATOM     32  C   UNL d   1      -1.539  -3.502   0.849  0.00  0.00     0.030 A 
ATOM     33  C   UNL d   1      -1.746  -4.880   0.710  0.00  0.00     0.002 A 
ATOM     34  C   UNL d   1      -0.932  -5.633  -0.128  0.00  0.00     0.000 A 
ATOM     35  C   UNL d   1       0.077  -5.007  -0.849  0.00  0.00     0.002 A 
ATOM     36  C   UNL d   1       0.261  -3.626  -0.741  0.00  0.00     0.030 A 
ENDBRANCH   1  31
TORSDOF 5
