REMARK  6 active torsions:
REMARK  status: ('A' for Active; 'I' for Inactive)
REMARK    1  A    between atoms: N_9  and  S_1 
REMARK    2  A    between atoms: C_14  and  S_1 
REMARK    3  A    between atoms: C_7  and  C_2 
REMARK    4  A    between atoms: C_6  and  C_13 
REMARK    5  A    between atoms: C_13  and  N_9 
REMARK    6  A    between atoms: C_18  and  C_14 
ROOT
ATOM      1  N   UNL d   1       0.519   1.013  -1.359  0.00  0.00    -0.214 NA
ATOM      2  H   UNL d   1      -0.485   1.002  -1.557  0.00  0.00     0.140 HD
ENDROOT
BRANCH   1   3
ATOM      3  S   UNL d   1       0.930   0.013  -0.049  0.00  0.00     0.213 S 
ATOM      4  O   UNL d   1       0.125   0.484   1.055  0.00  0.00    -0.211 OA
ATOM      5  O   UNL d   1       2.375  -0.007   0.013  0.00  0.00    -0.211 OA
BRANCH   3   6
ATOM      6  C   UNL d   1       0.312  -1.583  -0.609  0.00  0.00     0.195 C 
BRANCH   6   7
ATOM      7  C   UNL d   1       0.574  -2.633   0.442  0.00  0.00    -0.043 A 
ATOM      8  C   UNL d   1      -0.348  -2.862   1.476  0.00  0.00     0.008 A 
ATOM      9  C   UNL d   1      -0.117  -3.859   2.426  0.00  0.00     0.001 A 
ATOM     10  C   UNL d   1       1.036  -4.636   2.358  0.00  0.00     0.000 A 
ATOM     11  C   UNL d   1       1.966  -4.411   1.345  0.00  0.00     0.001 A 
ATOM     12  C   UNL d   1       1.738  -3.413   0.394  0.00  0.00     0.008 A 
ENDBRANCH   6   7
ENDBRANCH   3   6
ENDBRANCH   1   3
BRANCH   1  13
ATOM     13  C   UNL d   1       0.931   2.418  -1.133  0.00  0.00     0.161 C 
BRANCH  13  14
ATOM     14  C   UNL d   1       0.622   3.223  -2.363  0.00  0.00     0.030 A 
ATOM     15  N   UNL d   1      -0.689   3.306  -2.845  0.00  0.00    -0.351 N 
ATOM     16  C   UNL d   1      -0.738   4.090  -3.912  0.00  0.00     0.091 A 
ATOM     17  HN  UNL d   1      -1.493   2.831  -2.434  1.00  0.00     0.166 HD
ATOM     18  S   UNL d   1       0.783   4.758  -4.380  0.00  0.00    -0.081 SA
ATOM     19  C   UNL d   1       1.545   3.950  -3.088  0.00  0.00     0.078 A 
BRANCH  16  20
ATOM     20  C   UNL d   1      -1.973   4.369  -4.621  0.00  0.00     0.038 A 
ATOM     21  S   UNL d   1      -2.038   5.288  -6.078  0.00  0.00    -0.099 SA
ATOM     22  C   UNL d   1      -3.730   5.126  -6.211  0.00  0.00     0.050 A 
ATOM     23  C   UNL d   1      -4.256   4.391  -5.175  0.00  0.00     0.008 A 
ATOM     24  C   UNL d   1      -3.246   3.956  -4.261  0.00  0.00     0.022 A 
ENDBRANCH  16  20
ENDBRANCH  13  14
ENDBRANCH   1  13
TORSDOF 6
