REMARK  3 active torsions:
REMARK  status: ('A' for Active; 'I' for Inactive)
REMARK       I    between atoms: N_2  and  C_1 
REMARK       I    between atoms: N_3  and  C_1 
REMARK    1  A    between atoms: C_8  and  N_2 
REMARK    2  A    between atoms: C_10  and  N_3 
REMARK       I    between atoms: C_4  and  N_5 
REMARK    3  A    between atoms: N_5  and  C_9 
ROOT
ATOM      1  C   UNL d   1       1.100  -0.010  -0.021  0.00  0.00     0.325 C 
ATOM      2  N   UNL d   1       0.540   0.766   0.983  0.00  0.00    -0.309 N 
ATOM      3  N   UNL d   1       0.302  -1.103  -0.326  0.00  0.00    -0.309 N 
ATOM      4  O   UNL d   1       2.176   0.231  -0.556  0.00  0.00    -0.247 OA
ATOM      5  H   UNL d   1      -0.240   0.371   1.485  0.00  0.00     0.170 HD
ATOM      6  H   UNL d   1      -0.618  -1.129   0.083  0.00  0.00     0.170 HD
ENDROOT
BRANCH   2   7
ATOM      7  C   UNL d   1       1.124   1.923   1.548  0.00  0.00     0.036 A 
ATOM      8  C   UNL d   1       2.200   2.605   0.977  0.00  0.00     0.032 A 
ATOM      9  C   UNL d   1       2.788   3.694   1.629  0.00  0.00     0.032 A 
ATOM     10  C   UNL d   1       2.302   4.134   2.861  0.00  0.00     0.034 A 
ATOM     11  C   UNL d   1       1.195   3.485   3.410  0.00  0.00     0.032 A 
ATOM     12  C   UNL d   1       0.606   2.393   2.756  0.00  0.00     0.032 A 
BRANCH  10  13
ATOM     13  N   UNL d   1       2.980   5.207   3.475  0.00  0.00    -0.328 N 
ATOM     14  C   UNL d   1       2.700   5.781   4.700  0.00  0.00     0.218 C 
ATOM     15  O   UNL d   1       1.796   5.469   5.468  0.00  0.00    -0.274 OA
ATOM     16  C   UNL d   1       3.647   6.899   5.063  0.00  0.00     0.117 C 
ATOM     17  H   UNL d   1       3.773   5.573   2.963  0.00  0.00     0.169 HD
ENDBRANCH  10  13
ENDBRANCH   2   7
BRANCH   3  18
ATOM     18  C   UNL d   1       0.620  -2.148  -1.226  0.00  0.00     0.036 A 
ATOM     19  C   UNL d   1       1.839  -2.250  -1.903  0.00  0.00     0.029 A 
ATOM     20  C   UNL d   1       2.090  -3.310  -2.778  0.00  0.00     0.002 A 
ATOM     21  C   UNL d   1       1.124  -4.289  -2.982  0.00  0.00     0.000 A 
ATOM     22  C   UNL d   1      -0.092  -4.207  -2.309  0.00  0.00     0.002 A 
ATOM     23  C   UNL d   1      -0.343  -3.143  -1.436  0.00  0.00     0.029 A 
ENDBRANCH   3  18
TORSDOF 3
