REMARK  4 active torsions:
REMARK  status: ('A' for Active; 'I' for Inactive)
REMARK    1  A    between atoms: C_6  and  C_1 
REMARK    2  A    between atoms: C_9  and  N_3 
REMARK    3  A    between atoms: C_7  and  C_6 
REMARK    4  A    between atoms: C_8  and  C_10 
ROOT
ATOM      1  C   UNL d   1      -0.293  -1.204   0.009  0.00  0.00     0.044 A 
ATOM      2  C   UNL d   1       1.014  -0.714   0.004  0.00  0.00     0.027 A 
ATOM      3  N   UNL d   1       0.967   0.692  -0.028  0.00  0.00    -0.319 N 
ATOM      4  C   UNL d   1      -1.141  -0.070   0.063  0.00  0.00     0.042 A 
ATOM      5  C   UNL d   1      -0.373   1.070   0.011  0.00  0.00     0.014 A 
ATOM      6  C   UNL d   1       2.293  -1.480   0.158  0.00  0.00     0.070 C 
ATOM      7  C   UNL d   1      -0.889   2.468  -0.085  0.00  0.00     0.068 C 
ENDROOT
BRANCH   3   8
ATOM      8  C   UNL d   1       2.093   1.580  -0.063  0.00  0.00     0.039 A 
ATOM      9  C   UNL d   1       3.211   1.290  -0.851  0.00  0.00     0.031 A 
ATOM     10  C   UNL d   1       4.319   2.149  -0.858  0.00  0.00     0.018 A 
ATOM     11  C   UNL d   1       4.322   3.317  -0.084  0.00  0.00     0.048 A 
ATOM     12  C   UNL d   1       3.193   3.616   0.689  0.00  0.00     0.018 A 
ATOM     13  C   UNL d   1       2.090   2.752   0.706  0.00  0.00     0.031 A 
BRANCH  11  14
ATOM     14  C   UNL d   1       5.509   4.252  -0.072  0.00  0.00     0.417 C 
ATOM     15  F   UNL d   1       6.596   3.760  -0.731  0.00  0.00    -0.166 F 
ATOM     16  F   UNL d   1       5.231   5.452  -0.652  0.00  0.00    -0.166 F 
ATOM     17  F   UNL d   1       5.937   4.537   1.190  0.00  0.00    -0.166 F 
ENDBRANCH  11  14
ENDBRANCH   3   8
BRANCH   1  18
ATOM     18  C   UNL d   1      -0.794  -2.588   0.038  0.00  0.00     0.267 C 
ATOM     19  O   UNL d   1      -1.860  -2.818   0.622  0.00  0.00    -0.282 OA
BRANCH  18  20
ATOM     20  C   UNL d   1      -0.042  -3.706  -0.679  0.00  0.00     0.456 C 
ATOM     21  F   UNL d   1       0.959  -3.282  -1.501  0.00  0.00    -0.163 F 
ATOM     22  F   UNL d   1       0.530  -4.584   0.195  0.00  0.00    -0.163 F 
ATOM     23  F   UNL d   1      -0.869  -4.448  -1.470  0.00  0.00    -0.163 F 
ENDBRANCH  18  20
ENDBRANCH   1  18
TORSDOF 4
