REMARK  3 active torsions:
REMARK  status: ('A' for Active; 'I' for Inactive)
REMARK    1  A    between atoms: C_10  and  C_5 
REMARK    2  A    between atoms: N_13  and  C_8 
REMARK    3  A    between atoms: O_14  and  C_9 
ROOT
ATOM      1  N   UNL d   1      -0.326   1.118   0.119  0.00  0.00    -0.322 N 
ATOM      2  HN  UNL d   1      -0.875   1.975   0.192  1.00  0.00     0.169 HD
ATOM      3  N   UNL d   1       1.753   0.036  -0.032  0.00  0.00    -0.311 N 
ATOM      4  HN  UNL d   1       2.772   0.065  -0.068  1.00  0.00     0.170 HD
ATOM      5  C   UNL d   1       1.011   1.135   0.096  0.00  0.00     0.090 A 
ATOM      6  N   UNL d   1      -0.253  -1.217  -0.089  0.00  0.00    -0.298 N 
ATOM      7  HN  UNL d   1      -0.731  -2.114  -0.169  1.00  0.00     0.172 HD
ATOM      8  C   UNL d   1      -0.895  -0.072   0.044  0.00  0.00     0.159 A 
ATOM      9  C   UNL d   1       1.070  -1.099  -0.110  0.00  0.00     0.226 A 
ENDROOT
BRANCH   5  10
ATOM     10  C   UNL d   1       1.689   2.474   0.255  0.00  0.00     0.053 A 
ATOM     11  C   UNL d   1       2.959   2.636   1.057  0.00  0.00     0.013 A 
ATOM     12  C   UNL d   1       1.660   3.128   1.621  0.00  0.00     0.013 A 
ENDBRANCH   5  10
BRANCH   9  13
ATOM     13  O   UNL d   1       1.854  -2.229  -0.216  0.00  0.00    -0.327 OA
ATOM     14  C   UNL d   1       1.102  -3.436  -0.191  0.00  0.00     0.213 C 
ENDBRANCH   9  13
BRANCH   8  15
ATOM     15  N   UNL d   1      -2.275  -0.115   0.084  0.00  0.00    -0.274 NA
ATOM     16  H   UNL d   1      -2.623  -0.949  -0.363  0.00  0.00     0.127 HD
ATOM     17  H   UNL d   1      -2.662   0.771  -0.209  0.00  0.00     0.127 HD
ENDBRANCH   8  15
TORSDOF 3
