REMARK  5 active torsions:
REMARK  status: ('A' for Active; 'I' for Inactive)
REMARK       I    between atoms: N_4  and  C_1 
REMARK       I    between atoms: N_5  and  C_1 
REMARK    1  A    between atoms: C_13  and  N_4 
REMARK    2  A    between atoms: C_14  and  N_5 
REMARK    3  A    between atoms: O_10  and  C_6 
REMARK    4  A    between atoms: C_7  and  C_8 
REMARK    5  A    between atoms: C_16  and  O_10 
ROOT
ATOM      1  N   UNL d   1       1.567   4.067  -2.557  0.00  0.00    -0.344 N 
ATOM      2  HN  UNL d   1       1.346   5.063  -2.584  1.00  0.00     0.167 HD
ATOM      3  C   UNL d   1       2.608   3.561  -3.242  0.00  0.00     0.148 A 
ATOM      4  C   UNL d   1       1.093   1.840  -1.712  0.00  0.00     0.051 A 
ATOM      5  C   UNL d   1       0.827   3.203  -1.831  0.00  0.00     0.119 A 
ATOM      6  C   UNL d   1       2.995   2.232  -3.156  0.00  0.00     0.059 A 
ATOM      7  C   UNL d   1       2.228   1.361  -2.371  0.00  0.00     0.035 A 
ENDROOT
BRANCH   4   8
ATOM      8  N   UNL d   1       0.285   0.944  -0.967  0.00  0.00    -0.307 N 
ATOM      9  C   UNL d   1      -1.004   1.233  -0.559  0.00  0.00     0.325 C 
ATOM     10  N   UNL d   1      -1.562   0.237   0.216  0.00  0.00    -0.309 N 
ATOM     11  O   UNL d   1      -1.590   2.269  -0.863  0.00  0.00    -0.247 OA
ATOM     12  H   UNL d   1      -0.958  -0.514   0.500  0.00  0.00     0.170 HD
ATOM     13  H   UNL d   1       0.583  -0.016  -0.915  0.00  0.00     0.170 HD
BRANCH  10  14
ATOM     14  C   UNL d   1      -2.889   0.213   0.712  0.00  0.00     0.036 A 
ATOM     15  C   UNL d   1      -3.836   1.214   0.460  0.00  0.00     0.032 A 
ATOM     16  C   UNL d   1      -5.135   1.123   0.965  0.00  0.00     0.044 A 
ATOM     17  C   UNL d   1      -5.493   0.022   1.725  0.00  0.00     0.116 A 
ATOM     18  C   UNL d   1      -4.574  -0.984   1.993  0.00  0.00     0.044 A 
ATOM     19  F   UNL d   1      -6.739  -0.073   2.205  0.00  0.00    -0.206 F 
ATOM     20  C   UNL d   1      -3.270  -0.888   1.490  0.00  0.00     0.032 A 
ENDBRANCH  10  14
ENDBRANCH   4   8
BRANCH   3  21
ATOM     21  O   UNL d   1       3.331   4.409  -4.071  0.00  0.00    -0.294 OA
BRANCH  21  22
ATOM     22  C   UNL d   1       2.636   5.450  -4.656  0.00  0.00     0.077 A 
ATOM     23  C   UNL d   1       3.286   6.674  -4.789  0.00  0.00     0.038 A 
ATOM     24  C   UNL d   1       2.641   7.751  -5.418  0.00  0.00     0.011 A 
ATOM     25  C   UNL d   1       1.335   7.630  -5.936  0.00  0.00    -0.050 A 
ATOM     26  C   UNL d   1       0.702   6.386  -5.782  0.00  0.00     0.011 A 
ATOM     27  C   UNL d   1       1.348   5.308  -5.173  0.00  0.00     0.038 A 
BRANCH  25  28
ATOM     28  C   UNL d   1       0.651   8.806  -6.656  0.00  0.00    -0.024 C 
ATOM     29  C   UNL d   1      -0.771   8.470  -7.164  0.00  0.00     0.019 C 
ATOM     30  C   UNL d   1       0.525  10.017  -5.708  0.00  0.00     0.019 C 
ATOM     31  C   UNL d   1       1.484   9.220  -7.889  0.00  0.00     0.019 C 
ENDBRANCH  25  28
ENDBRANCH  21  22
ENDBRANCH   3  21
TORSDOF 5
