REMARK  5 active torsions:
REMARK  status: ('A' for Active; 'I' for Inactive)
REMARK    1  A    between atoms: C_2  and  C_1 
REMARK    2  A    between atoms: N_3  and  C_1 
REMARK    3  A    between atoms: C_8  and  N_3 
REMARK    4  A    between atoms: O_11  and  N_4 
REMARK    5  A    between atoms: C_6  and  C_7 
ROOT
ATOM      1  N   UNL d   1       0.257   3.583  -1.788  0.00  0.00    -0.376 N 
ATOM      2  H   UNL d   1       0.506   3.720  -0.813  0.00  0.00     0.160 HD
ENDROOT
BRANCH   1   3
ATOM      3  C   UNL d   1       1.305   4.135  -2.695  0.00  0.00     0.063 C 
ATOM      4  C   UNL d   1       2.671   3.869  -2.018  0.00  0.00     0.044 C 
ATOM      5  C   UNL d   1       1.355   3.388  -4.040  0.00  0.00     0.044 C 
BRANCH   3   6
ATOM      6  C   UNL d   1       1.134   5.673  -2.849  0.00  0.00     0.033 C 
ATOM      7  N   UNL d   1       0.988   6.193  -4.037  0.00  0.00    -0.275 N 
ATOM      8  HN  UNL d   1       0.967   5.651  -4.901  1.00  0.00     0.193 HD
ATOM      9  C   UNL d   1       1.178   6.531  -1.595  0.00  0.00     0.068 C 
BRANCH   7  10
ATOM     10  O   UNL d   1       0.863   7.586  -3.978  0.00  0.00    -0.290 OA
ATOM     11  H   UNL d   1       0.653   7.816  -4.901  0.00  0.00     0.244 HD
ENDBRANCH   7  10
ENDBRANCH   3   6
ENDBRANCH   1   3
BRANCH   1  12
ATOM     12  C   UNL d   1      -1.113   3.775  -1.971  0.00  0.00     0.028 A 
ATOM     13  C   UNL d   1      -1.748   3.799  -3.209  0.00  0.00     0.029 A 
ATOM     14  C   UNL d   1      -3.139   3.929  -3.326  0.00  0.00     0.010 A 
ATOM     15  C   UNL d   1      -3.970   4.035  -2.204  0.00  0.00    -0.051 A 
ATOM     16  C   UNL d   1      -3.342   3.977  -0.954  0.00  0.00     0.010 A 
ATOM     17  C   UNL d   1      -1.946   3.832  -0.846  0.00  0.00     0.029 A 
BRANCH  15  18
ATOM     18  C   UNL d   1      -5.487   4.201  -2.387  0.00  0.00    -0.024 C 
ATOM     19  C   UNL d   1      -6.264   4.342  -1.060  0.00  0.00     0.019 C 
ATOM     20  C   UNL d   1      -5.769   5.470  -3.221  0.00  0.00     0.019 C 
ATOM     21  C   UNL d   1      -6.060   2.973  -3.128  0.00  0.00     0.019 C 
ENDBRANCH  15  18
ENDBRANCH   1  12
TORSDOF 5
