REMARK  2 active torsions:
REMARK  status: ('A' for Active; 'I' for Inactive)
REMARK    1  A    between atoms: N_3  and  C_1 
REMARK    2  A    between atoms: C_10  and  C_2 
ROOT
ATOM      1  C   UNL d   1       1.428  -0.266   0.070  0.00  0.00     0.029 A 
ATOM      2  C   UNL d   1      -1.412   0.247  -0.133  0.00  0.00    -0.026 A 
ATOM      3  C   UNL d   1       0.481  -1.298  -0.003  0.00  0.00     0.030 A 
ATOM      4  C   UNL d   1       0.906   1.035   0.039  0.00  0.00     0.030 A 
ATOM      5  C   UNL d   1      -0.897  -1.055  -0.115  0.00  0.00     0.014 A 
ATOM      6  C   UNL d   1      -0.476   1.288  -0.055  0.00  0.00     0.014 A 
ENDROOT
BRANCH   2   7
ATOM      7  C   UNL d   1      -2.869   0.504  -0.212  0.00  0.00    -0.023 A 
ATOM      8  C   UNL d   1      -3.388   1.594  -0.927  0.00  0.00     0.029 A 
ATOM      9  C   UNL d   1      -4.762   1.789  -0.973  0.00  0.00     0.088 A 
ATOM     10  N   UNL d   1      -5.657   0.981  -0.371  0.00  0.00    -0.375 N 
ATOM     11  C   UNL d   1      -5.154  -0.064   0.314  0.00  0.00     0.088 A 
ATOM     12  HN  UNL d   1      -6.661   1.152  -0.431  1.00  0.00     0.164 HD
ATOM     13  C   UNL d   1      -3.797  -0.335   0.421  0.00  0.00     0.029 A 
ENDBRANCH   2   7
BRANCH   1  14
ATOM     14  N   UNL d   1       2.783  -0.542   0.243  0.00  0.00    -0.390 N 
ATOM     15  C   UNL d   1       3.381  -1.645  -0.514  0.00  0.00     0.149 C 
ATOM     16  C   UNL d   1       3.717   0.539   0.555  0.00  0.00     0.149 C 
ENDBRANCH   1  14
TORSDOF 2
