REMARK  5 active torsions:
REMARK  status: ('A' for Active; 'I' for Inactive)
REMARK    1  A    between atoms: C_2  and  N_1 
REMARK       I    between atoms: C_3  and  N_1 
REMARK    2  A    between atoms: C_7  and  C_3 
REMARK    3  A    between atoms: C_4  and  O_6 
REMARK    4  A    between atoms: O_6  and  C_5 
REMARK    5  A    between atoms: S_13  and  C_8 
ROOT
ATOM      1  C   UNL d   1       0.407   0.556  -0.918  0.00  0.00     0.085 A 
ATOM      2  C   UNL d   1       0.794   0.400  -2.263  0.00  0.00     0.106 A 
ATOM      3  C   UNL d   1      -0.784   1.244  -0.616  0.00  0.00     0.029 A 
ATOM      4  C   UNL d   1       0.035   0.981  -3.282  0.00  0.00     0.039 A 
ATOM      5  C   UNL d   1      -1.133   1.681  -2.978  0.00  0.00     0.004 A 
ATOM      6  C   UNL d   1      -1.544   1.807  -1.651  0.00  0.00     0.021 A 
ENDROOT
BRANCH   1   7
ATOM      7  N   UNL d   1       1.164   0.006   0.146  0.00  0.00    -0.323 N 
ATOM      8  C   UNL d   1       2.483   0.373   0.365  0.00  0.00     0.230 C 
ATOM      9  O   UNL d   1       3.083   1.177  -0.350  0.00  0.00    -0.272 OA
ATOM     10  H   UNL d   1       0.618  -0.136   0.991  0.00  0.00     0.169 HD
BRANCH   8  11
ATOM     11  C   UNL d   1       3.177  -0.347   1.539  0.00  0.00     0.030 C 
ATOM     12  C   UNL d   1       3.604  -1.736   1.049  0.00  0.00     0.025 C 
ATOM     13  C   UNL d   1       4.428   0.456   1.941  0.00  0.00     0.025 C 
ATOM     14  C   UNL d   1       2.286  -0.500   2.782  0.00  0.00     0.025 C 
ENDBRANCH   8  11
ENDBRANCH   1   7
BRANCH   2  15
ATOM     15  O   UNL d   1       1.934  -0.242  -2.653  0.00  0.00    -0.253 OA
BRANCH  15  16
ATOM     16  C   UNL d   1       1.939  -1.647  -2.436  0.00  0.00     0.530 C 
ATOM     17  F   UNL d   1       1.000  -2.086  -1.569  0.00  0.00    -0.144 F 
ATOM     18  F   UNL d   1       1.743  -2.278  -3.617  0.00  0.00    -0.144 F 
ATOM     19  F   UNL d   1       3.153  -2.016  -1.970  0.00  0.00    -0.144 F 
ENDBRANCH  15  16
ENDBRANCH   2  15
BRANCH   3  20
ATOM     20  S   UNL d   1      -1.340   1.512   1.071  0.00  0.00    -0.132 SA
ATOM     21  C   UNL d   1      -0.103   2.736   1.597  0.00  0.00     0.095 C 
ENDBRANCH   3  20
TORSDOF 5
