REMARK  7 active torsions:
REMARK  status: ('A' for Active; 'I' for Inactive)
REMARK    1  A    between atoms: O_9  and  C_1 
REMARK       I    between atoms: N_14  and  C_1 
REMARK    2  A    between atoms: N_2  and  O_9 
REMARK    3  A    between atoms: C_4  and  C_6 
REMARK    4  A    between atoms: C_20  and  N_14 
REMARK    5  A    between atoms: O_18  and  C_16 
REMARK    6  A    between atoms: C_22  and  C_20 
REMARK    7  A    between atoms: C_23  and  C_22 
ROOT
ATOM      1  N   UNL d   1       0.996  -1.232   1.906  0.00  0.00    -0.260 N 
ATOM      2  HN  UNL d   1       0.511  -0.773   1.134  1.00  0.00     0.194 HD
ATOM      3  C   UNL d   1       0.408  -1.836   2.903  0.00  0.00     0.039 C 
ATOM      4  C   UNL d   1       1.179  -2.531   4.013  0.00  0.00     0.071 C 
ENDROOT
BRANCH   3   5
ATOM      5  C   UNL d   1      -1.085  -1.874   2.951  0.00  0.00    -0.011 A 
ATOM      6  C   UNL d   1      -1.780  -1.887   4.167  0.00  0.00     0.025 A 
ATOM      7  C   UNL d   1      -3.187  -1.935   4.194  0.00  0.00    -0.025 A 
ATOM      8  C   UNL d   1      -3.899  -1.960   5.403  0.00  0.00     0.015 A 
ATOM      9  C   UNL d   1      -3.904  -1.958   2.978  0.00  0.00    -0.023 A 
ATOM     10  C   UNL d   1      -5.298  -2.007   5.417  0.00  0.00     0.037 A 
ATOM     11  C   UNL d   1      -6.008  -2.029   4.219  0.00  0.00     0.069 A 
ATOM     12  C   UNL d   1      -5.308  -2.003   3.009  0.00  0.00     0.049 A 
ATOM     13  C   UNL d   1      -3.197  -1.932   1.765  0.00  0.00     0.013 A 
ATOM     14  C   UNL d   1      -1.800  -1.888   1.750  0.00  0.00     0.014 A 
BRANCH  11  15
ATOM     15  O   UNL d   1      -7.369  -2.075   4.092  0.00  0.00    -0.356 OA
ATOM     16  C   UNL d   1      -8.127  -2.120   5.295  0.00  0.00     0.210 C 
ENDBRANCH  11  15
ENDBRANCH   3   5
BRANCH   1  17
ATOM     17  O   UNL d   1       2.406  -1.304   2.049  0.00  0.00    -0.181 OA
BRANCH  17  18
ATOM     18  C   UNL d   1       3.093  -0.821   0.954  0.00  0.00     0.382 C 
ATOM     19  O   UNL d   1       4.313  -0.927   0.869  0.00  0.00    -0.236 OA
ATOM     20  N   UNL d   1       2.312  -0.238  -0.005  0.00  0.00    -0.335 N 
ATOM     21  H   UNL d   1       1.320  -0.273   0.206  0.00  0.00     0.164 HD
BRANCH  20  22
ATOM     22  C   UNL d   1       2.802   0.134  -1.315  0.00  0.00     0.125 C 
BRANCH  22  23
ATOM     23  C   UNL d   1       2.618  -0.987  -2.341  0.00  0.00     0.019 C 
BRANCH  23  24
ATOM     24  C   UNL d   1       1.141  -1.326  -2.559  0.00  0.00    -0.003 C 
ATOM     25  C   UNL d   1       0.950  -2.425  -3.591  0.00  0.00     0.005 C 
ENDBRANCH  23  24
ENDBRANCH  22  23
ENDBRANCH  20  22
ENDBRANCH  17  18
ENDBRANCH   1  17
TORSDOF 7
