REMARK  2 active torsions:
REMARK  status: ('A' for Active; 'I' for Inactive)
REMARK    1  A    between atoms: C_8  and  N_3 
REMARK    2  A    between atoms: C_10  and  C_8 
REMARK       I    between atoms: N_9  and  C_10 
REMARK       I    between atoms: C_11  and  N_9 
REMARK       I    between atoms: N_18  and  C_11 
ROOT
ATOM      1  N   UNL d   1      -0.644   0.654  -0.004  0.00  0.00    -0.248 N 
ATOM      2  C   UNL d   1      -1.425  -0.417   0.231  0.00  0.00     0.117 A 
ATOM      3  N   UNL d   1      -2.793   1.216   0.124  0.00  0.00    -0.232 N 
ATOM      4  C   UNL d   1      -1.509   1.714  -0.176  0.00  0.00     0.350 A 
ATOM      5  N   UNL d   1      -2.697  -0.154   0.318  0.00  0.00    -0.281 N 
ATOM      6  HN  UNL d   1      -3.458  -0.812   0.490  1.00  0.00     0.188 HD
ATOM      7  C   UNL d   1       0.764   0.638  -0.092  0.00  0.00     0.062 A 
ATOM      8  S   UNL d   1       0.574  -2.116  -0.563  0.00  0.00    -0.120 SA
ATOM      9  C   UNL d   1      -0.881  -1.794   0.450  0.00  0.00     0.158 C 
ATOM     10  C   UNL d   1       1.445  -0.585  -0.265  0.00  0.00     0.028 A 
ATOM     11  O   UNL d   1      -1.284   2.850  -0.571  0.00  0.00    -0.244 OA
ATOM     12  C   UNL d   1       1.520   1.811   0.037  0.00  0.00     0.031 A 
ATOM     13  C   UNL d   1       2.845  -0.624  -0.277  0.00  0.00     0.021 A 
ATOM     14  C   UNL d   1       2.919   1.762   0.048  0.00  0.00     0.002 A 
ATOM     15  C   UNL d   1       3.580   0.545  -0.100  0.00  0.00     0.002 A 
ENDROOT
BRANCH   3  16
ATOM     16  C   UNL d   1      -4.057   1.710  -0.405  0.00  0.00     0.257 C 
BRANCH  16  17
ATOM     17  C   UNL d   1      -4.535   3.161  -0.301  0.00  0.00     0.245 C 
ATOM     18  N   UNL d   1      -3.598   4.157  -0.473  0.00  0.00    -0.278 N 
ATOM     19  C   UNL d   1      -3.812   5.480  -0.783  0.00  0.00     0.322 C 
ATOM     20  H   UNL d   1      -2.607   3.916  -0.477  0.00  0.00     0.173 HD
ATOM     21  O   UNL d   1      -2.867   6.251  -0.922  0.00  0.00    -0.247 OA
ATOM     22  N   UNL d   1      -5.113   5.847  -0.969  0.00  0.00    -0.347 N 
ATOM     23  C   UNL d   1      -5.502   7.177  -1.352  0.00  0.00     0.151 C 
ATOM     24  H   UNL d   1      -5.829   5.157  -0.747  0.00  0.00     0.163 HD
ATOM     25  O   UNL d   1      -5.746   3.399  -0.254  0.00  0.00    -0.271 OA
ENDBRANCH  16  17
ENDBRANCH   3  16
TORSDOF 2
