REMARK  4 active torsions:
REMARK  status: ('A' for Active; 'I' for Inactive)
REMARK    1  A    between atoms: O_12  and  C_7 
REMARK    2  A    between atoms: C_14  and  O_12 
REMARK    3  A    between atoms: C_15  and  O_20 
REMARK    4  A    between atoms: O_20  and  C_19 
ROOT
ATOM      1  C   UNL d   1       0.896  -0.012  -0.708  0.00  0.00    -0.046 C 
ATOM      2  C   UNL d   1       3.872   0.310  -1.069  0.00  0.00    -0.010 C 
ATOM      3  C   UNL d   1       1.560   1.347  -0.544  0.00  0.00     0.024 C 
ATOM      4  C   UNL d   1       3.036   1.204  -0.099  0.00  0.00     0.005 C 
ATOM      5  C   UNL d   1      -0.560  -0.124  -0.379  0.00  0.00    -0.023 A 
ATOM      6  C   UNL d   1       1.622  -1.002  -1.261  0.00  0.00    -0.018 C 
ATOM      7  C   UNL d   1       4.347   1.365  -2.109  0.00  0.00     0.140 C 
ATOM      8  C   UNL d   1      -1.313   1.060  -0.192  0.00  0.00    -0.045 A 
ATOM      9  C   UNL d   1       3.056  -0.848  -1.712  0.00  0.00     0.040 C 
ATOM     10  C   UNL d   1       0.756   2.254   0.398  0.00  0.00     0.014 C 
ATOM     11  C   UNL d   1       3.743   2.581  -0.103  0.00  0.00     0.009 C 
ATOM     12  C   UNL d   1      -1.242  -1.346  -0.250  0.00  0.00     0.015 A 
ATOM     13  C   UNL d   1      -2.705   1.017  -0.030  0.00  0.00     0.045 A 
ATOM     14  C   UNL d   1      -0.648   2.406  -0.162  0.00  0.00     0.040 C 
ATOM     15  C   UNL d   1       4.753   2.553  -1.231  0.00  0.00     0.034 C 
ATOM     16  C   UNL d   1      -3.357  -0.202   0.064  0.00  0.00     0.079 A 
ATOM     17  C   UNL d   1      -2.630  -1.387  -0.026  0.00  0.00     0.038 A 
ATOM     18  C   UNL d   1       5.075  -0.319  -0.325  0.00  0.00     0.018 C 
ENDROOT
BRANCH   7  19
ATOM     19  O   UNL d   1       5.483   0.978  -2.891  0.00  0.00    -0.316 OA
BRANCH  19  20
ATOM     20  C   UNL d   1       5.776   1.860  -3.892  0.00  0.00     0.255 C 
ATOM     21  O   UNL d   1       5.012   2.707  -4.342  0.00  0.00    -0.266 OA
ATOM     22  C   UNL d   1       7.216   1.753  -4.284  0.00  0.00     0.126 C 
ENDBRANCH  19  20
ENDBRANCH   7  19
BRANCH  16  23
ATOM     23  O   UNL d   1      -4.762  -0.308   0.149  0.00  0.00    -0.279 OA
BRANCH  23  24
ATOM     24  C   UNL d   1      -5.537   0.679   0.763  0.00  0.00     0.260 C 
ATOM     25  O   UNL d   1      -5.132   1.624   1.431  0.00  0.00    -0.265 OA
ATOM     26  C   UNL d   1      -6.984   0.440   0.468  0.00  0.00     0.126 C 
ENDBRANCH  23  24
ENDBRANCH  16  23
TORSDOF 4
