REMARK  6 active torsions:
REMARK  status: ('A' for Active; 'I' for Inactive)
REMARK    1  A    between atoms: C_4  and  C_1 
REMARK    2  A    between atoms: N_2  and  C_4 
REMARK    3  A    between atoms: C_11  and  C_5 
REMARK    4  A    between atoms: N_13  and  C_7 
REMARK    5  A    between atoms: S_12  and  C_11 
REMARK    6  A    between atoms: C_14  and  S_12 
ROOT
ATOM      1  C   UNL d   1      -3.642   5.566  -0.506  0.00  0.00     0.050 A 
ATOM      2  C   UNL d   1      -3.689   6.954  -0.333  0.00  0.00    -0.028 A 
ATOM      3  S   UNL d   1      -5.216   4.938  -0.851  0.00  0.00    -0.098 SA
ATOM      4  C   UNL d   1      -5.963   6.444  -0.621  0.00  0.00     0.051 A 
ATOM      5  C   UNL d   1      -5.048   7.432  -0.358  0.00  0.00     0.016 A 
ENDROOT
BRANCH   2   6
ATOM      6  C   UNL d   1      -2.514   7.883  -0.133  0.00  0.00     0.119 C 
BRANCH   6   7
ATOM      7  S   UNL d   1      -1.407   7.841  -1.590  0.00  0.00    -0.125 SA
BRANCH   7   8
ATOM      8  C   UNL d   1      -0.340   9.238  -1.297  0.00  0.00     0.001 A 
ATOM      9  C   UNL d   1       1.049   9.059  -1.382  0.00  0.00     0.020 A 
ATOM     10  C   UNL d   1       1.912  10.156  -1.313  0.00  0.00     0.025 A 
ATOM     11  C   UNL d   1       1.390  11.438  -1.159  0.00  0.00     0.034 A 
ATOM     12  C   UNL d   1       0.015  11.626  -1.050  0.00  0.00     0.025 A 
ATOM     13 CL   UNL d   1       2.444  12.797  -1.132  0.00  0.00    -0.084 Cl
ATOM     14  C   UNL d   1      -0.848  10.528  -1.123  0.00  0.00     0.020 A 
ENDBRANCH   7   8
ENDBRANCH   6   7
ENDBRANCH   2   6
BRANCH   1  15
ATOM     15  C   UNL d   1      -2.492   4.660  -0.405  0.00  0.00     0.119 C 
ATOM     16  S   UNL d   1      -2.289   3.361  -1.459  0.00  0.00    -0.059 SA
BRANCH  15  17
ATOM     17  N   UNL d   1      -1.541   5.026   0.509  0.00  0.00    -0.342 N 
ATOM     18  C   UNL d   1      -1.763   4.998   1.781  0.00  0.00     0.178 C 
ATOM     19  HN  UNL d   1      -0.627   5.332   0.174  1.00  0.00     0.167 HD
BRANCH  18  20
ATOM     20  N   UNL d   1      -2.809   4.639   2.608  0.00  0.00    -0.386 N 
ATOM     21  C   UNL d   1      -3.657   3.485   2.335  0.00  0.00     0.149 C 
ATOM     22  C   UNL d   1      -2.663   4.912   4.040  0.00  0.00     0.149 C 
ENDBRANCH  18  20
ENDBRANCH  15  17
ENDBRANCH   1  15
TORSDOF 6
