REMARK  4 active torsions:
REMARK  status: ('A' for Active; 'I' for Inactive)
REMARK    1  A    between atoms: C_5  and  N_1 
REMARK    2  A    between atoms: C_3  and  C_2 
REMARK       I    between atoms: N_11  and  C_3 
REMARK    3  A    between atoms: C_4  and  C_14 
REMARK    4  A    between atoms: N_7  and  N_11 
ROOT
ATOM      1  C   UNL d   1       2.253  -1.405  -0.071  0.00  0.00     0.287 C 
ATOM      2  N   UNL d   1       3.344  -0.910   0.639  0.00  0.00    -0.265 N 
ATOM      3  O   UNL d   1       2.311  -2.422  -0.760  0.00  0.00    -0.264 OA
ATOM      4  H   UNL d   1       3.256  -0.093   1.228  0.00  0.00     0.190 HD
ENDROOT
BRANCH   1   5
ATOM      5  C   UNL d   1       1.032  -0.625   0.060  0.00  0.00     0.109 A 
ATOM      6  N   UNL d   1      -0.270  -1.138  -0.009  0.00  0.00    -0.318 N 
ATOM      7  C   UNL d   1      -1.138  -0.059  -0.087  0.00  0.00     0.098 A 
ATOM      8  C   UNL d   1      -0.431   1.113   0.012  0.00  0.00     0.020 A 
ATOM      9  C   UNL d   1       0.928   0.761   0.117  0.00  0.00     0.037 A 
BRANCH   6  10
ATOM     10  C   UNL d   1      -0.705  -2.501   0.029  0.00  0.00     0.039 A 
ATOM     11  C   UNL d   1       0.027  -3.478   0.719  0.00  0.00     0.033 A 
ATOM     12  C   UNL d   1      -0.413  -4.806   0.740  0.00  0.00     0.044 A 
ATOM     13  C   UNL d   1      -1.584  -5.154   0.081  0.00  0.00     0.116 A 
ATOM     14  C   UNL d   1      -2.334  -4.199  -0.592  0.00  0.00     0.044 A 
ATOM     15  F   UNL d   1      -1.998  -6.428   0.095  0.00  0.00    -0.206 F 
ATOM     16  C   UNL d   1      -1.901  -2.869  -0.613  0.00  0.00     0.033 A 
ENDBRANCH   6  10
ENDBRANCH   1   5
BRANCH   2  17
ATOM     17  N   UNL d   1       4.513  -1.612   0.610  0.00  0.00    -0.308 N 
ATOM     18  C   UNL d   1       5.507  -1.169   1.308  0.00  0.00     0.123 C 
ATOM     19  HN  UNL d   1       4.601  -2.462   0.053  1.00  0.00     0.186 HD
BRANCH  18  20
ATOM     20  C   UNL d   1       6.787  -1.909   1.344  0.00  0.00     0.041 A 
ATOM     21  C   UNL d   1       7.154  -2.723   0.266  0.00  0.00     0.129 A 
ATOM     22  F   UNL d   1       6.413  -2.782  -0.849  0.00  0.00    -0.205 F 
ATOM     23  C   UNL d   1       8.327  -3.476   0.295  0.00  0.00     0.043 A 
ATOM     24  C   UNL d   1       9.158  -3.424   1.409  0.00  0.00     0.005 A 
ATOM     25  C   UNL d   1       8.816  -2.604   2.485  0.00  0.00     0.025 A 
ATOM     26  C   UNL d   1       7.637  -1.844   2.454  0.00  0.00     0.048 A 
ATOM     27 CL   UNL d   1       7.283  -0.877   3.843  0.00  0.00    -0.083 Cl
ENDBRANCH  18  20
ENDBRANCH   2  17
TORSDOF 4
