REMARK  4 active torsions:
REMARK  status: ('A' for Active; 'I' for Inactive)
REMARK    1  A    between atoms: C_10  and  N_1 
REMARK    2  A    between atoms: S_9  and  C_5 
REMARK    3  A    between atoms: C_17  and  S_9 
REMARK    4  A    between atoms: C_12  and  C_17 
REMARK       I    between atoms: N_18  and  C_12 
ROOT
ATOM      1  N   UNL d   1      -0.300  -1.322  -0.088  0.00  0.00    -0.273 N 
ATOM      2  C   UNL d   1       0.937  -0.682  -0.026  0.00  0.00     0.163 A 
ATOM      3  N   UNL d   1       0.773   0.628  -0.043  0.00  0.00    -0.281 N 
ATOM      4  HN  UNL d   1       1.514   1.326   0.027  1.00  0.00     0.188 HD
ATOM      5  C   UNL d   1      -1.196  -0.264  -0.195  0.00  0.00     0.168 A 
ATOM      6  N   UNL d   1      -0.562   0.886  -0.169  0.00  0.00    -0.278 N 
ATOM      7  HN  UNL d   1      -0.992   1.809  -0.232  1.00  0.00     0.189 HD
ATOM      8  C   UNL d   1       2.230  -1.298  -0.058  0.00  0.00     0.120 A 
ATOM      9  O   UNL d   1       2.503  -2.431  -0.783  0.00  0.00    -0.319 OA
ATOM     10  C   UNL d   1       3.391  -0.902   0.586  0.00  0.00     0.043 A 
ATOM     11  C   UNL d   1       3.799  -2.763  -0.569  0.00  0.00     0.142 A 
ATOM     12  C   UNL d   1       4.391  -1.857   0.275  0.00  0.00     0.027 A 
ENDROOT
BRANCH   5  13
ATOM     13  S   UNL d   1      -2.929  -0.387  -0.152  0.00  0.00    -0.083 SA
BRANCH  13  14
ATOM     14  C   UNL d   1      -3.410   1.142  -1.003  0.00  0.00     0.184 C 
BRANCH  14  15
ATOM     15  C   UNL d   1      -2.948   1.119  -2.448  0.00  0.00     0.225 C 
ATOM     16  O   UNL d   1      -3.482   0.448  -3.325  0.00  0.00    -0.273 OA
ATOM     17  N   UNL d   1      -1.864   1.903  -2.730  0.00  0.00    -0.369 N 
ATOM     18  H   UNL d   1      -1.198   2.116  -1.991  0.00  0.00     0.159 HD
ATOM     19  H   UNL d   1      -1.480   1.809  -3.662  0.00  0.00     0.159 HD
ENDBRANCH  14  15
ENDBRANCH  13  14
ENDBRANCH   5  13
BRANCH   1  20
ATOM     20  C   UNL d   1      -0.558  -2.725  -0.031  0.00  0.00     0.043 A 
ATOM     21  C   UNL d   1       0.237  -3.558   0.772  0.00  0.00     0.030 A 
ATOM     22  C   UNL d   1       0.027  -4.939   0.791  0.00  0.00     0.002 A 
ATOM     23  C   UNL d   1      -0.993  -5.499   0.029  0.00  0.00     0.000 A 
ATOM     24  C   UNL d   1      -1.803  -4.680  -0.754  0.00  0.00     0.002 A 
ATOM     25  C   UNL d   1      -1.586  -3.299  -0.791  0.00  0.00     0.030 A 
ENDBRANCH   1  20
TORSDOF 4
