REMARK  5 active torsions:
REMARK  status: ('A' for Active; 'I' for Inactive)
REMARK    1  A    between atoms: C_6  and  N_1 
REMARK    2  A    between atoms: N_9  and  C_6 
REMARK    3  A    between atoms: C_11  and  N_9 
REMARK    4  A    between atoms: O_10  and  C_12 
REMARK    5  A    between atoms: C_13  and  O_10 
ROOT
ATOM      1  N   UNL d   1       3.931   1.291   0.091  0.00  0.00    -0.276 NA
ATOM      2  H   UNL d   1       3.759   0.312  -0.155  0.00  0.00     0.129 HD
ENDROOT
BRANCH   1   3
ATOM      3  C   UNL d   1       3.423   1.572   1.423  0.00  0.00     0.230 C 
BRANCH   3   4
ATOM      4  N   UNL d   1       2.319   0.704   1.747  0.00  0.00    -0.267 N 
ATOM      5  C   UNL d   1       2.239  -0.624   1.429  0.00  0.00     0.262 C 
ATOM      6  C   UNL d   1       1.127  -1.176   2.199  0.00  0.00     0.048 A 
ATOM      7  O   UNL d   1       2.946  -1.282   0.693  0.00  0.00    -0.267 OA
ATOM      8  C   UNL d   1       0.590  -2.449   2.208  0.00  0.00     0.018 A 
ATOM      9  C   UNL d   1       0.663  -0.177   3.032  0.00  0.00     0.048 A 
ATOM     10  C   UNL d   1      -0.459  -2.690   3.100  0.00  0.00     0.001 A 
ATOM     11  C   UNL d   1      -0.927  -1.673   3.958  0.00  0.00     0.001 A 
ATOM     12  C   UNL d   1      -0.358  -0.395   3.935  0.00  0.00     0.018 A 
ATOM     13  C   UNL d   1       1.474   1.013   2.780  0.00  0.00     0.262 C 
ATOM     14  O   UNL d   1       1.417   2.027   3.448  0.00  0.00    -0.267 OA
ENDBRANCH   3   4
ENDBRANCH   1   3
BRANCH   1  15
ATOM     15  C   UNL d   1       5.284   1.599  -0.140  0.00  0.00     0.009 A 
ATOM     16  C   UNL d   1       5.980   0.877  -1.119  0.00  0.00     0.026 A 
ATOM     17  C   UNL d   1       7.324   1.142  -1.398  0.00  0.00     0.039 A 
ATOM     18  C   UNL d   1       8.001   2.128  -0.681  0.00  0.00     0.076 A 
ATOM     19  C   UNL d   1       7.296   2.924   0.220  0.00  0.00     0.039 A 
ATOM     20  C   UNL d   1       5.943   2.673   0.471  0.00  0.00     0.026 A 
BRANCH  18  21
ATOM     21  O   UNL d   1       9.334   2.425  -0.849  0.00  0.00    -0.311 OA
BRANCH  21  22
ATOM     22  C   UNL d   1      10.233   1.399  -1.043  0.00  0.00     0.076 A 
ATOM     23  C   UNL d   1      11.370   1.716  -1.792  0.00  0.00     0.037 A 
ATOM     24  C   UNL d   1      12.326   0.735  -2.063  0.00  0.00     0.003 A 
ATOM     25  C   UNL d   1      12.150  -0.562  -1.583  0.00  0.00     0.000 A 
ATOM     26  C   UNL d   1      11.041  -0.870  -0.798  0.00  0.00     0.003 A 
ATOM     27  C   UNL d   1      10.098   0.116  -0.505  0.00  0.00     0.037 A 
ENDBRANCH  21  22
ENDBRANCH  18  21
ENDBRANCH   1  15
TORSDOF 5
