REMARK  9 active torsions:
REMARK  status: ('A' for Active; 'I' for Inactive)
REMARK    1  A    between atoms: O_12  and  C_1 
REMARK       I    between atoms: N_5  and  C_8 
REMARK    2  A    between atoms: C_13  and  N_5 
REMARK    3  A    between atoms: C_14  and  N_5 
REMARK    4  A    between atoms: C_18  and  C_6 
REMARK    5  A    between atoms: C_8  and  C_16 
REMARK    6  A    between atoms: C_16  and  O_12 
REMARK    7  A    between atoms: C_15  and  C_13 
REMARK    8  A    between atoms: O_25  and  C_15 
REMARK    9  A    between atoms: C_30  and  O_25 
ROOT
ATOM      1  C   UNL d   1      -0.091   1.060  -0.648  0.00  0.00     0.165 A 
ATOM      2  C   UNL d   1      -1.358   0.568  -0.960  0.00  0.00     0.101 A 
ATOM      3  N   UNL d   1       0.932   0.277  -0.240  0.00  0.00    -0.335 N 
ATOM      4  HN  UNL d   1       1.849   0.682  -0.051  1.00  0.00     0.168 HD
ATOM      5  C   UNL d   1       0.725  -1.048  -0.087  0.00  0.00     0.044 A 
ATOM      6  C   UNL d   1      -1.583  -0.808  -0.792  0.00  0.00    -0.035 A 
ATOM      7  C   UNL d   1      -2.377   1.454  -1.441  0.00  0.00     0.104 C 
ATOM      8  N   UNL d   1      -3.217   2.135  -1.861  0.00  0.00    -0.191 NA
ATOM      9  C   UNL d   1      -0.521  -1.613  -0.344  0.00  0.00     0.038 A 
ATOM     10  C   UNL d   1      -2.912  -1.479  -1.012  0.00  0.00     0.050 C 
ENDROOT
BRANCH   1  11
ATOM     11  O   UNL d   1       0.149   2.421  -0.747  0.00  0.00    -0.325 OA
BRANCH  11  12
ATOM     12  C   UNL d   1       1.471   2.770  -0.333  0.00  0.00     0.280 C 
BRANCH  12  13
ATOM     13  C   UNL d   1       1.694   4.286  -0.233  0.00  0.00     0.249 C 
ATOM     14  N   UNL d   1       2.367   4.932  -1.273  0.00  0.00    -0.307 N 
ATOM     15  O   UNL d   1       1.361   4.884   0.796  0.00  0.00    -0.271 OA
BRANCH  14  16
ATOM     16  C   UNL d   1       2.678   6.365  -1.099  0.00  0.00     0.243 C 
BRANCH  16  17
ATOM     17  C   UNL d   1       4.081   6.783  -0.661  0.00  0.00     0.277 C 
ATOM     18  O   UNL d   1       4.382   7.958  -0.470  0.00  0.00    -0.263 OA
BRANCH  17  19
ATOM     19  O   UNL d   1       4.974   5.755  -0.640  0.00  0.00    -0.321 OA
BRANCH  19  20
ATOM     20  C   UNL d   1       6.359   6.139  -0.717  0.00  0.00     0.174 C 
ATOM     21  C   UNL d   1       7.038   6.069   0.634  0.00  0.00     0.034 C 
ENDBRANCH  19  20
ENDBRANCH  17  19
ENDBRANCH  16  17
ENDBRANCH  14  16
BRANCH  14  22
ATOM     22  C   UNL d   1       2.450   4.429  -2.603  0.00  0.00     0.037 A 
ATOM     23  C   UNL d   1       1.313   3.944  -3.260  0.00  0.00     0.031 A 
ATOM     24  C   UNL d   1       1.387   3.529  -4.595  0.00  0.00     0.026 A 
ATOM     25  C   UNL d   1       2.599   3.595  -5.276  0.00  0.00     0.034 A 
ATOM     26  C   UNL d   1       3.738   4.069  -4.634  0.00  0.00     0.026 A 
ATOM     27 CL   UNL d   1       2.689   3.107  -6.922  0.00  0.00    -0.084 Cl
ATOM     28  C   UNL d   1       3.659   4.496  -3.306  0.00  0.00     0.031 A 
ENDBRANCH  14  22
ENDBRANCH  12  13
ENDBRANCH  11  12
ENDBRANCH   1  11
BRANCH   5  29
ATOM     29  C   UNL d   1       1.879  -1.818   0.418  0.00  0.00    -0.009 A 
ATOM     30  C   UNL d   1       2.842  -1.204   1.242  0.00  0.00     0.013 A 
ATOM     31  C   UNL d   1       3.916  -1.923   1.773  0.00  0.00     0.001 A 
ATOM     32  C   UNL d   1       4.054  -3.276   1.484  0.00  0.00     0.000 A 
ATOM     33  C   UNL d   1       3.134  -3.903   0.649  0.00  0.00     0.001 A 
ATOM     34  C   UNL d   1       2.062  -3.179   0.117  0.00  0.00     0.013 A 
ENDBRANCH   5  29
TORSDOF 9
