REMARK  9 active torsions:
REMARK  status: ('A' for Active; 'I' for Inactive)
REMARK    1  A    between atoms: C_3  and  S_1 
REMARK    2  A    between atoms: C_4  and  S_1 
REMARK    3  A    between atoms: C_2  and  C_5 
REMARK    4  A    between atoms: C_18  and  C_4 
REMARK    5  A    between atoms: N_8  and  C_9 
REMARK       I    between atoms: C_12  and  N_8 
REMARK    6  A    between atoms: C_14  and  O_16 
REMARK    7  A    between atoms: O_16  and  C_23 
REMARK    8  A    between atoms: C_23  and  C_18 
REMARK    9  A    between atoms: O_24  and  C_18 
ROOT
ATOM      1  C   UNL d   1       1.055  -2.209  -1.032  0.00  0.00     0.156 C 
ENDROOT
BRANCH   1   2
ATOM      2  C   UNL d   1       0.313  -1.554   0.127  0.00  0.00     0.181 C 
BRANCH   2   3
ATOM      3  S   UNL d   1       0.677   0.176   0.264  0.00  0.00     0.193 S 
ATOM      4  O   UNL d   1       2.057   0.349   0.683  0.00  0.00    -0.221 OA
ATOM      5  O   UNL d   1       0.197   0.835  -0.939  0.00  0.00    -0.221 OA
BRANCH   3   6
ATOM      6  C   UNL d   1      -0.322   0.772   1.609  0.00  0.00     0.128 A 
ATOM      7  N   UNL d   1      -1.215  -0.115   2.117  0.00  0.00    -0.356 N 
ATOM      8  C   UNL d   1      -1.887   0.292   3.218  0.00  0.00     0.105 A 
ATOM      9  HN  UNL d   1      -1.370  -1.030   1.695  1.00  0.00     0.166 HD
ATOM     10  C   UNL d   1      -1.709   1.532   3.824  0.00  0.00     0.063 A 
ATOM     11  C   UNL d   1      -0.797   2.423   3.242  0.00  0.00     0.020 A 
ATOM     12  C   UNL d   1      -0.082   2.039   2.114  0.00  0.00     0.042 A 
BRANCH  10  13
ATOM     13  C   UNL d   1      -2.449   1.888   5.078  0.00  0.00     0.418 C 
ATOM     14  F   UNL d   1      -3.280   0.905   5.521  0.00  0.00    -0.166 F 
ATOM     15  F   UNL d   1      -1.608   2.160   6.113  0.00  0.00    -0.166 F 
ATOM     16  F   UNL d   1      -3.226   2.996   4.928  0.00  0.00    -0.166 F 
ENDBRANCH  10  13
ENDBRANCH   3   6
ENDBRANCH   2   3
ENDBRANCH   1   2
BRANCH   1  17
ATOM     17  C   UNL d   1       2.583  -2.272  -0.875  0.00  0.00     0.208 C 
BRANCH  17  18
ATOM     18  O   UNL d   1       2.924  -2.909   0.356  0.00  0.00    -0.346 OA
BRANCH  18  19
ATOM     19  C   UNL d   1       3.491  -4.151   0.351  0.00  0.00     0.095 A 
ATOM     20  C   UNL d   1       4.232  -4.545   1.486  0.00  0.00     0.068 A 
ATOM     21  C   UNL d   1       4.946  -5.753   1.442  0.00  0.00     0.032 A 
ATOM     22  C   UNL d   1       4.871  -6.596   0.332  0.00  0.00     0.002 A 
ATOM     23  C   UNL d   1       4.083  -6.241  -0.751  0.00  0.00     0.003 A 
ATOM     24  C   UNL d   1       3.397  -5.027  -0.740  0.00  0.00     0.039 A 
BRANCH  20  25
ATOM     25  N   UNL d   1       4.375  -3.797   2.682  0.00  0.00    -0.325 N 
ATOM     26  C   UNL d   1       3.504  -2.865   3.219  0.00  0.00     0.218 C 
ATOM     27  O   UNL d   1       2.361  -2.605   2.857  0.00  0.00    -0.274 OA
ATOM     28  C   UNL d   1       4.095  -2.203   4.441  0.00  0.00     0.117 C 
ATOM     29  H   UNL d   1       5.106  -4.115   3.305  0.00  0.00     0.169 HD
ENDBRANCH  20  25
ENDBRANCH  18  19
ENDBRANCH  17  18
ENDBRANCH   1  17
BRANCH   1  30
ATOM     30  O   UNL d   1       0.542  -3.548  -1.176  0.00  0.00    -0.392 OA
ATOM     31  H   UNL d   1       0.775  -4.020  -0.352  0.00  0.00     0.210 HD
ENDBRANCH   1  30
TORSDOF 9
