REMARK  1 active torsions:
REMARK  status: ('A' for Active; 'I' for Inactive)
REMARK       I    between atoms: C_2  and  N_1 
REMARK       I    between atoms: N_9  and  C_2 
REMARK    1  A    between atoms: C_12  and  N_9 
ROOT
ATOM      1  N   UNL d   1       0.659   1.472   0.633  0.00  0.00    -0.293 N 
ATOM      2  C   UNL d   1       0.944   2.243   1.779  0.00  0.00     0.328 C 
ATOM      3  C   UNL d   1       1.633   1.460  -0.463  0.00  0.00     0.099 C 
ATOM      4  N   UNL d   1       0.974  -1.470   0.050  0.00  0.00    -0.325 N 
ATOM      5  C   UNL d   1      -0.427   0.574   0.495  0.00  0.00     0.066 A 
ATOM      6  C   UNL d   1       2.209  -1.049  -0.330  0.00  0.00     0.224 C 
ATOM      7  C   UNL d   1       2.671   0.378  -0.262  0.00  0.00     0.128 C 
ATOM      8  C   UNL d   1      -0.246  -0.795   0.231  0.00  0.00     0.062 A 
ATOM      9  N   UNL d   1       0.018   2.173   2.798  0.00  0.00    -0.309 N 
ATOM     10  O   UNL d   1       1.983   2.911   1.845  0.00  0.00    -0.246 OA
ATOM     11  O   UNL d   1       2.993  -1.922  -0.713  0.00  0.00    -0.273 OA
ATOM     12  C   UNL d   1       0.989   1.453  -1.861  0.00  0.00     0.033 C 
ATOM     13  C   UNL d   1      -1.723   1.119   0.463  0.00  0.00     0.032 A 
ATOM     14  C   UNL d   1      -1.382  -1.601   0.044  0.00  0.00     0.032 A 
ATOM     15  C   UNL d   1      -2.829   0.316   0.190  0.00  0.00     0.002 A 
ATOM     16  C   UNL d   1      -2.660  -1.048  -0.007  0.00  0.00     0.002 A 
ATOM     17  H   UNL d   1       0.918  -2.478  -0.060  0.00  0.00     0.169 HD
ATOM     18  H   UNL d   1      -0.811   1.631   2.612  0.00  0.00     0.170 HD
ENDROOT
BRANCH   9  19
ATOM     19  C   UNL d   1       0.100   2.710   4.102  0.00  0.00     0.036 A 
ATOM     20  C   UNL d   1       1.228   3.352   4.622  0.00  0.00     0.032 A 
ATOM     21  C   UNL d   1       1.269   3.733   5.969  0.00  0.00     0.044 A 
ATOM     22  C   UNL d   1       0.175   3.492   6.789  0.00  0.00     0.116 A 
ATOM     23  C   UNL d   1      -0.977   2.909   6.280  0.00  0.00     0.044 A 
ATOM     24  F   UNL d   1       0.234   3.817   8.087  0.00  0.00    -0.206 F 
ATOM     25  C   UNL d   1      -1.014   2.521   4.937  0.00  0.00     0.032 A 
ENDBRANCH   9  19
TORSDOF 1
