REMARK  4 active torsions:
REMARK  status: ('A' for Active; 'I' for Inactive)
REMARK    1  A    between atoms: C_8  and  N_1 
REMARK    2  A    between atoms: C_4  and  C_3 
REMARK       I    between atoms: N_7  and  C_4 
REMARK    3  A    between atoms: C_16  and  N_7 
REMARK    4  A    between atoms: C_9  and  C_8 
ROOT
ATOM      1  N   UNL d   1      -1.913  -0.860   0.028  0.00  0.00    -0.324 N 
ATOM      2  C   UNL d   1      -1.500   0.454   0.042  0.00  0.00     0.255 A 
ATOM      3  C   UNL d   1      -0.807  -1.812   0.160  0.00  0.00     0.214 A 
ATOM      4  C   UNL d   1       0.376  -0.893   0.308  0.00  0.00    -0.011 A 
ATOM      5  C   UNL d   1      -0.039   0.435   0.186  0.00  0.00     0.041 A 
ATOM      6  O   UNL d   1      -2.175   1.462  -0.042  0.00  0.00    -0.267 OA
ATOM      7  C   UNL d   1       1.716  -1.189   0.491  0.00  0.00     0.011 A 
ATOM      8  C   UNL d   1       0.845   1.496   0.183  0.00  0.00     0.017 A 
ATOM      9  C   UNL d   1       2.631  -0.130   0.496  0.00  0.00     0.001 A 
ATOM     10  C   UNL d   1       2.201   1.200   0.328  0.00  0.00     0.001 A 
ENDROOT
BRANCH   3  11
ATOM     11  C   UNL d   1      -0.749  -2.721  -1.093  0.00  0.00     0.245 C 
ATOM     12  N   UNL d   1      -0.110  -2.213  -2.213  0.00  0.00    -0.354 N 
ATOM     13  H   UNL d   1       0.208  -1.251  -2.185  0.00  0.00     0.162 HD
ATOM     14  O   UNL d   1      -1.356  -3.795  -1.123  0.00  0.00    -0.271 OA
BRANCH  12  15
ATOM     15  C   UNL d   1      -0.254  -2.838  -3.526  0.00  0.00     0.084 C 
ATOM     16  C   UNL d   1       1.041  -2.758  -4.343  0.00  0.00     0.025 C 
ATOM     17  C   UNL d   1       1.343  -1.356  -4.866  0.00  0.00     0.002 C 
ATOM     18  C   UNL d   1       0.156  -0.755  -5.612  0.00  0.00     0.000 C 
ATOM     19  C   UNL d   1      -1.122  -0.798  -4.780  0.00  0.00     0.002 C 
ATOM     20  C   UNL d   1      -1.430  -2.213  -4.289  0.00  0.00     0.025 C 
ENDBRANCH  12  15
ENDBRANCH   3  11
BRANCH   1  21
ATOM     21  C   UNL d   1      -3.302  -1.274  -0.018  0.00  0.00     0.192 C 
BRANCH  21  22
ATOM     22  C   UNL d   1      -3.839  -1.446   1.355  0.00  0.00     0.070 A 
ATOM     23  O   UNL d   1      -3.719  -2.684   1.918  0.00  0.00    -0.325 OA
ATOM     24  C   UNL d   1      -4.307  -2.623   3.140  0.00  0.00     0.142 A 
ATOM     25  C   UNL d   1      -4.800  -1.361   3.377  0.00  0.00     0.027 A 
ATOM     26  C   UNL d   1      -4.498  -0.598   2.223  0.00  0.00     0.036 A 
ENDBRANCH  21  22
ENDBRANCH   1  21
TORSDOF 4
