REMARK  6 active torsions:
REMARK  status: ('A' for Active; 'I' for Inactive)
REMARK    1  A    between atoms: C_10  and  N_1 
REMARK    2  A    between atoms: C_8  and  C_2 
REMARK    3  A    between atoms: C_7  and  C_9 
REMARK    4  A    between atoms: C_11  and  N_15 
REMARK    5  A    between atoms: N_15  and  C_13 
REMARK    6  A    between atoms: O_27  and  C_14 
ROOT
ATOM      1  C   UNL d   1       2.337  -1.318  -0.015  0.00  0.00     0.068 C 
ATOM      2  C   UNL d   1       2.482  -2.634  -0.218  0.00  0.00     0.092 C 
ENDROOT
BRANCH   2   3
ATOM      3  N   UNL d   1       3.660  -3.345  -0.234  0.00  0.00    -0.364 N 
ATOM      4  H   UNL d   1       4.508  -2.826  -0.060  0.00  0.00     0.165 HD
BRANCH   3   5
ATOM      5  C   UNL d   1       3.821  -4.694  -0.611  0.00  0.00     0.066 A 
ATOM      6  C   UNL d   1       2.914  -5.244  -1.548  0.00  0.00     0.048 A 
ATOM      7  C   UNL d   1       2.928  -6.598  -1.921  0.00  0.00     0.050 A 
ATOM      8  C   UNL d   1       3.876  -7.434  -1.341  0.00  0.00     0.019 A 
ATOM      9  C   UNL d   1       4.788  -6.915  -0.423  0.00  0.00     0.040 A 
ATOM     10  C   UNL d   1       4.778  -5.559  -0.044  0.00  0.00     0.094 A 
BRANCH   7  11
ATOM     11  C   UNL d   1       1.932  -7.138  -2.915  0.00  0.00     0.417 C 
ATOM     12  F   UNL d   1       1.090  -6.191  -3.417  0.00  0.00    -0.166 F 
ATOM     13  F   UNL d   1       2.532  -7.710  -3.996  0.00  0.00    -0.166 F 
ATOM     14  F   UNL d   1       1.132  -8.101  -2.379  0.00  0.00    -0.166 F 
ENDBRANCH   7  11
BRANCH  10  15
ATOM     15  O   UNL d   1       5.754  -5.319   0.884  0.00  0.00    -0.354 OA
ATOM     16  C   UNL d   1       5.906  -4.052   1.490  0.00  0.00     0.210 C 
ENDBRANCH  10  15
ENDBRANCH   3   5
ENDBRANCH   2   3
BRANCH   1  17
ATOM     17  C   UNL d   1       1.041  -0.741   0.030  0.00  0.00     0.139 C 
ATOM     18  N   UNL d   1       0.827   0.624  -0.151  0.00  0.00    -0.225 N 
ATOM     19  N   UNL d   1      -0.422   0.910   0.292  0.00  0.00     0.001 NA
ATOM     20  N   UNL d   1      -0.997  -0.257   0.532  0.00  0.00    -0.007 NA
ATOM     21  N   UNL d   1      -0.114  -1.283   0.368  0.00  0.00    -0.270 N 
ATOM     22  HN  UNL d   1      -0.308  -2.278   0.483  1.00  0.00     0.185 HD
BRANCH  18  23
ATOM     23  C   UNL d   1       1.658   1.634  -0.698  0.00  0.00     0.056 A 
ATOM     24  C   UNL d   1       2.629   1.327  -1.664  0.00  0.00     0.034 A 
ATOM     25  C   UNL d   1       3.462   2.334  -2.155  0.00  0.00     0.044 A 
ATOM     26  C   UNL d   1       3.323   3.634  -1.684  0.00  0.00     0.116 A 
ATOM     27  C   UNL d   1       2.341   3.958  -0.755  0.00  0.00     0.044 A 
ATOM     28  F   UNL d   1       4.145   4.589  -2.136  0.00  0.00    -0.206 F 
ATOM     29  C   UNL d   1       1.488   2.961  -0.274  0.00  0.00     0.034 A 
ENDBRANCH  18  23
ENDBRANCH   1  17
TORSDOF 6
