REMARK  6 active torsions:
REMARK  status: ('A' for Active; 'I' for Inactive)
REMARK    1  A    between atoms: C_11  and  N_1 
REMARK    2  A    between atoms: C_8  and  C_2 
REMARK       I    between atoms: C_7  and  N_10 
REMARK    3  A    between atoms: C_9  and  C_7 
REMARK    4  A    between atoms: O_22  and  C_8 
REMARK    5  A    between atoms: N_10  and  C_20 
REMARK    6  A    between atoms: C_26  and  O_22 
ROOT
ATOM      1  C   UNL d   1      -0.509  -2.480  -0.106  0.00  0.00     0.056 A 
ATOM      2  C   UNL d   1       0.577  -3.356   0.080  0.00  0.00     0.034 A 
ATOM      3  C   UNL d   1      -1.757  -3.043  -0.364  0.00  0.00     0.034 A 
ATOM      4  C   UNL d   1      -0.857  -5.302  -0.174  0.00  0.00     0.035 A 
ATOM      5  C   UNL d   1      -1.927  -4.437  -0.397  0.00  0.00     0.032 A 
ATOM      6  C   UNL d   1       0.404  -4.747   0.050  0.00  0.00     0.032 A 
ENDROOT
BRANCH   1   7
ATOM      7  N   UNL d   1      -0.276  -1.064  -0.034  0.00  0.00    -0.260 N 
ATOM      8  N   UNL d   1       1.013  -0.645   0.076  0.00  0.00    -0.297 N 
ATOM      9  C   UNL d   1       0.978   0.683   0.028  0.00  0.00     0.041 A 
ATOM     10  HN  UNL d   1       1.841  -1.233   0.175  1.00  0.00     0.187 HD
ATOM     11  C   UNL d   1       2.260   1.435   0.047  0.00  0.00     0.071 C 
ATOM     12  C   UNL d   1      -0.347   1.176  -0.048  0.00  0.00     0.087 A 
ATOM     13  C   UNL d   1      -1.146   0.030  -0.053  0.00  0.00     0.049 A 
ATOM     14  C   UNL d   1      -2.632  -0.061  -0.068  0.00  0.00     0.071 C 
BRANCH  12  15
ATOM     15  C   UNL d   1      -0.787   2.566  -0.146  0.00  0.00     0.297 C 
ATOM     16  O   UNL d   1      -1.949   2.911  -0.304  0.00  0.00    -0.259 OA
BRANCH  15  17
ATOM     17  O   UNL d   1       0.265   3.436  -0.133  0.00  0.00    -0.318 OA
BRANCH  17  18
ATOM     18  C   UNL d   1       0.011   4.740  -0.669  0.00  0.00     0.174 C 
ATOM     19  C   UNL d   1       0.224   4.682  -2.171  0.00  0.00     0.034 C 
ENDBRANCH  17  18
ENDBRANCH  15  17
ENDBRANCH  12  15
ENDBRANCH   1   7
BRANCH   4  20
ATOM     20  N   UNL d   1      -0.974  -6.707  -0.129  0.00  0.00    -0.323 N 
ATOM     21  C   UNL d   1      -2.121  -7.467  -0.289  0.00  0.00     0.263 C 
ATOM     22  O   UNL d   1      -3.216  -7.008  -0.614  0.00  0.00    -0.267 OA
ATOM     23  H   UNL d   1      -0.135  -7.226   0.094  0.00  0.00     0.169 HD
BRANCH  21  24
ATOM     24  C   UNL d   1      -1.971  -8.896  -0.022  0.00  0.00     0.072 A 
ATOM     25  S   UNL d   1      -0.480  -9.609   0.435  0.00  0.00    -0.097 SA
ATOM     26  C   UNL d   1      -1.193 -11.153   0.615  0.00  0.00     0.050 A 
ATOM     27  C   UNL d   1      -2.535 -11.142   0.309  0.00  0.00     0.009 A 
ATOM     28  C   UNL d   1      -2.978  -9.845  -0.071  0.00  0.00     0.025 A 
ENDBRANCH  21  24
ENDBRANCH   4  20
TORSDOF 6
