REMARK  3 active torsions:
REMARK  status: ('A' for Active; 'I' for Inactive)
REMARK    1  A    between atoms: C_8  and  C_1 
REMARK    2  A    between atoms: C_10  and  N_6 
REMARK    3  A    between atoms: C_11  and  C_7 
REMARK       I    between atoms: N_9  and  C_8 
ROOT
ATOM      1  C   UNL d   1      -0.176  -1.054   0.139  0.00  0.00     0.191 C 
ATOM      2  N   UNL d   1       1.124  -0.622  -0.018  0.00  0.00    -0.321 N 
ATOM      3  HN  UNL d   1       1.963  -1.195  -0.100  1.00  0.00     0.169 HD
ATOM      4  N   UNL d   1      -1.051  -0.039   0.270  0.00  0.00    -0.272 N 
ATOM      5  HN  UNL d   1      -2.042  -0.083   0.507  1.00  0.00     0.189 HD
ATOM      6  N   UNL d   1      -0.295   1.057   0.011  0.00  0.00    -0.237 N 
ATOM      7  C   UNL d   1       1.045   0.695  -0.039  0.00  0.00     0.139 C 
ENDROOT
BRANCH   1   8
ATOM      8  C   UNL d   1      -0.571  -2.485   0.254  0.00  0.00     0.289 C 
ATOM      9  N   UNL d   1       0.304  -3.481  -0.222  0.00  0.00    -0.345 N 
ATOM     10  C   UNL d   1       1.443  -3.288  -1.119  0.00  0.00     0.126 C 
ATOM     11  C   UNL d   1       0.052  -4.875   0.131  0.00  0.00     0.126 C 
ATOM     12  C   UNL d   1       2.718  -3.824  -0.473  0.00  0.00     0.020 C 
ATOM     13  C   UNL d   1       2.542  -5.291  -0.076  0.00  0.00     0.003 C 
ATOM     14  C   UNL d   1       1.292  -5.488   0.784  0.00  0.00     0.020 C 
ATOM     15  O   UNL d   1      -1.640  -2.801   0.783  0.00  0.00    -0.264 OA
ENDBRANCH   1   8
BRANCH   7  16
ATOM     16  C   UNL d   1       2.216   1.577  -0.050  0.00  0.00     0.010 A 
ATOM     17  C   UNL d   1       3.338   1.209  -0.804  0.00  0.00     0.015 A 
ATOM     18  C   UNL d   1       4.464   2.034  -0.858  0.00  0.00     0.001 A 
ATOM     19  C   UNL d   1       4.481   3.235  -0.151  0.00  0.00     0.000 A 
ATOM     20  C   UNL d   1       3.387   3.597   0.630  0.00  0.00     0.001 A 
ATOM     21  C   UNL d   1       2.270   2.763   0.699  0.00  0.00     0.015 A 
ENDBRANCH   7  16
BRANCH   6  22
ATOM     22  C   UNL d   1      -0.905   2.325  -0.186  0.00  0.00     0.058 A 
ATOM     23  C   UNL d   1      -2.095   2.629   0.487  0.00  0.00     0.031 A 
ATOM     24  C   UNL d   1      -2.653   3.905   0.371  0.00  0.00     0.002 A 
ATOM     25  C   UNL d   1      -2.053   4.863  -0.446  0.00  0.00     0.000 A 
ATOM     26  C   UNL d   1      -0.901   4.545  -1.163  0.00  0.00     0.002 A 
ATOM     27  C   UNL d   1      -0.328   3.279  -1.038  0.00  0.00     0.031 A 
ENDBRANCH   6  22
TORSDOF 3
