REMARK  6 active torsions:
REMARK  status: ('A' for Active; 'I' for Inactive)
REMARK    1  A    between atoms: N_2  and  C_1 
REMARK       I    between atoms: C_5  and  N_2 
REMARK    2  A    between atoms: C_11  and  C_5 
REMARK    3  A    between atoms: C_8  and  C_6 
REMARK    4  A    between atoms: C_10  and  C_8 
REMARK    5  A    between atoms: O_19  and  C_10 
REMARK    6  A    between atoms: C_21  and  O_19 
ROOT
ATOM      1  C   UNL d   1       0.334  -1.149  -0.076  0.00  0.00     0.151 A 
ATOM      2  N   UNL d   1       1.476  -0.521  -0.172  0.00  0.00    -0.339 N 
ATOM      3  HN  UNL d   1       2.383  -0.974  -0.287  1.00  0.00     0.168 HD
ATOM      4  C   UNL d   1       1.280   0.851  -0.095  0.00  0.00     0.027 A 
ATOM      5  S   UNL d   1      -1.051  -0.167   0.092  0.00  0.00    -0.064 SA
ATOM      6  C   UNL d   1      -0.051   1.226  -0.007  0.00  0.00     0.078 A 
ENDROOT
BRANCH   1   7
ATOM      7  N   UNL d   1       0.084  -2.498  -0.075  0.00  0.00    -0.303 N 
ATOM      8  C   UNL d   1       1.065  -3.399  -0.424  0.00  0.00     0.257 C 
ATOM      9  O   UNL d   1       2.184  -3.134  -0.848  0.00  0.00    -0.267 OA
ATOM     10  H   UNL d   1      -0.866  -2.785   0.093  0.00  0.00     0.171 HD
BRANCH   8  11
ATOM     11  C   UNL d   1       0.706  -4.842  -0.320  0.00  0.00     0.032 A 
ATOM     12  C   UNL d   1       1.306  -5.731  -1.230  0.00  0.00     0.020 A 
ATOM     13  C   UNL d   1       1.087  -7.104  -1.129  0.00  0.00     0.043 A 
ATOM     14  C   UNL d   1       0.278  -7.592  -0.112  0.00  0.00     0.116 A 
ATOM     15  C   UNL d   1      -0.330  -6.725   0.796  0.00  0.00     0.043 A 
ATOM     16  F   UNL d   1       0.090  -8.912   0.008  0.00  0.00    -0.206 F 
ATOM     17  C   UNL d   1      -0.118  -5.345   0.696  0.00  0.00     0.020 A 
ENDBRANCH   8  11
ENDBRANCH   1   7
BRANCH   4  18
ATOM     18  C   UNL d   1       2.479   1.746  -0.146  0.00  0.00     0.168 C 
BRANCH  18  19
ATOM     19  C   UNL d   1       2.613   2.622   1.082  0.00  0.00     0.264 C 
ATOM     20  O   UNL d   1       1.774   2.768   1.961  0.00  0.00    -0.265 OA
BRANCH  19  21
ATOM     21  O   UNL d   1       3.811   3.284   1.042  0.00  0.00    -0.322 OA
BRANCH  21  22
ATOM     22  C   UNL d   1       4.059   4.188   2.132  0.00  0.00     0.174 C 
ATOM     23  C   UNL d   1       4.629   3.441   3.323  0.00  0.00     0.034 C 
ENDBRANCH  21  22
ENDBRANCH  19  21
ENDBRANCH  18  19
ENDBRANCH   4  18
TORSDOF 6
