REMARK  6 active torsions:
REMARK  status: ('A' for Active; 'I' for Inactive)
REMARK    1  A    between atoms: C_8  and  N_1 
REMARK    2  A    between atoms: C_7  and  N_3 
REMARK    3  A    between atoms: C_20  and  C_8 
REMARK    4  A    between atoms: O_23  and  C_11 
REMARK    5  A    between atoms: O_25  and  C_12 
REMARK    6  A    between atoms: C_19  and  C_20 
ROOT
ATOM      1  N   UNL d   1      -0.364   0.917  -0.034  0.00  0.00    -0.297 N 
ATOM      2  C   UNL d   1       0.779   0.495   0.606  0.00  0.00     0.150 C 
ATOM      3  N   UNL d   1       1.485   1.285   1.347  0.00  0.00    -0.336 N 
ATOM      4  HN  UNL d   1       1.146   2.232   1.517  1.00  0.00     0.168 HD
ATOM      5  C   UNL d   1      -0.978  -0.013  -0.851  0.00  0.00     0.235 C 
ATOM      6  S   UNL d   1       1.109  -1.182   0.237  0.00  0.00    -0.084 SA
ATOM      7  C   UNL d   1      -0.451  -1.402  -0.623  0.00  0.00     0.185 C 
ATOM      8  O   UNL d   1      -1.849   0.225  -1.678  0.00  0.00    -0.272 OA
ENDROOT
BRANCH   1   9
ATOM      9  C   UNL d   1      -0.695   2.341  -0.148  0.00  0.00     0.138 C 
BRANCH   9  10
ATOM     10  C   UNL d   1      -2.185   2.674   0.011  0.00  0.00     0.059 C 
BRANCH  10  11
ATOM     11  C   UNL d   1      -2.449   4.156  -0.141  0.00  0.00    -0.054 A 
ATOM     12  C   UNL d   1      -2.587   4.979   0.989  0.00  0.00     0.046 A 
ATOM     13  C   UNL d   1      -2.850   6.354   0.864  0.00  0.00     0.102 A 
ATOM     14  C   UNL d   1      -2.940   6.915  -0.422  0.00  0.00     0.101 A 
ATOM     15  C   UNL d   1      -2.812   6.089  -1.547  0.00  0.00     0.040 A 
ATOM     16  C   UNL d   1      -2.564   4.724  -1.411  0.00  0.00     0.010 A 
BRANCH  13  17
ATOM     17  O   UNL d   1      -3.046   7.181   1.939  0.00  0.00    -0.353 OA
ATOM     18  C   UNL d   1      -3.076   6.598   3.235  0.00  0.00     0.210 C 
ENDBRANCH  13  17
BRANCH  14  19
ATOM     19  O   UNL d   1      -3.199   8.223  -0.748  0.00  0.00    -0.353 OA
ATOM     20  C   UNL d   1      -2.772   9.217   0.174  0.00  0.00     0.210 C 
ENDBRANCH  14  19
ENDBRANCH  10  11
ENDBRANCH   9  10
ENDBRANCH   1   9
BRANCH   3  21
ATOM     21  C   UNL d   1       2.703   0.889   1.929  0.00  0.00     0.040 A 
ATOM     22  C   UNL d   1       3.887   1.589   1.622  0.00  0.00    -0.034 A 
ATOM     23  C   UNL d   1       5.109   1.173   2.184  0.00  0.00     0.032 A 
ATOM     24  C   UNL d   1       3.901   2.788   0.714  0.00  0.00     0.050 C 
ATOM     25  C   UNL d   1       5.151   0.093   3.062  0.00  0.00     0.034 A 
ATOM     26  C   UNL d   1       3.980  -0.567   3.415  0.00  0.00     0.026 A 
ATOM     27 CL   UNL d   1       6.655  -0.415   3.724  0.00  0.00    -0.084 Cl
ATOM     28  C   UNL d   1       2.763  -0.154   2.867  0.00  0.00     0.032 A 
ENDBRANCH   3  21
TORSDOF 6
