REMARK  4 active torsions:
REMARK  status: ('A' for Active; 'I' for Inactive)
REMARK    1  A    between atoms: N_7  and  N_1 
REMARK    2  A    between atoms: C_10  and  N_2 
REMARK       I    between atoms: C_8  and  N_7 
REMARK    3  A    between atoms: C_13  and  C_8 
REMARK    4  A    between atoms: N_9  and  C_13 
ROOT
ATOM      1  N   UNL d   1       0.478   1.314  -0.025  0.00  0.00    -0.248 N 
ATOM      2  N   UNL d   1      -0.897  -1.006   0.118  0.00  0.00    -0.308 N 
ATOM      3  C   UNL d   1      -1.642   0.163   0.351  0.00  0.00     0.244 C 
ATOM      4  C   UNL d   1       1.076   0.300  -0.762  0.00  0.00     0.257 C 
ATOM      5  C   UNL d   1      -0.961   1.453  -0.088  0.00  0.00     0.255 C 
ATOM      6  C   UNL d   1       0.200  -0.965  -0.860  0.00  0.00     0.236 C 
ATOM      7  O   UNL d   1       2.149   0.415  -1.342  0.00  0.00    -0.270 OA
ATOM      8  O   UNL d   1      -2.809   0.187   0.743  0.00  0.00    -0.271 OA
ENDROOT
BRANCH   1   9
ATOM      9  N   UNL d   1       1.167   2.535   0.166  0.00  0.00    -0.263 N 
ATOM     10  C   UNL d   1       1.331   3.000   1.468  0.00  0.00     0.264 C 
ATOM     11  O   UNL d   1       0.859   2.440   2.449  0.00  0.00    -0.270 OA
ATOM     12  H   UNL d   1       1.679   2.938  -0.612  0.00  0.00     0.190 HD
BRANCH  10  13
ATOM     13  C   UNL d   1       2.162   4.288   1.601  0.00  0.00     0.376 C 
BRANCH  13  14
ATOM     14  N   UNL d   1       1.700   5.328   0.662  0.00  0.00     0.101 N 
ATOM     15  C   UNL d   1       0.330   5.816   0.943  0.00  0.00     0.299 C 
ATOM     16  C   UNL d   1       0.192   7.073   1.822  0.00  0.00     0.198 C 
ATOM     17  O   UNL d   1       1.079   8.110   1.400  0.00  0.00    -0.388 OA
ATOM     18  C   UNL d   1       2.426   7.646   1.488  0.00  0.00     0.198 C 
ATOM     19  C   UNL d   1       2.656   6.450   0.550  0.00  0.00     0.299 C 
ENDBRANCH  13  14
ENDBRANCH  10  13
ENDBRANCH   1   9
BRANCH   2  20
ATOM     20  C   UNL d   1      -1.413  -2.270   0.548  0.00  0.00     0.037 A 
ATOM     21  C   UNL d   1      -1.329  -3.417  -0.252  0.00  0.00     0.030 A 
ATOM     22  C   UNL d   1      -1.853  -4.638   0.194  0.00  0.00     0.002 A 
ATOM     23  C   UNL d   1      -2.429  -4.737   1.458  0.00  0.00     0.000 A 
ATOM     24  C   UNL d   1      -2.499  -3.612   2.273  0.00  0.00     0.002 A 
ATOM     25  C   UNL d   1      -2.005  -2.387   1.815  0.00  0.00     0.030 A 
ENDBRANCH   2  20
TORSDOF 4
