REMARK  3 active torsions:
REMARK  status: ('A' for Active; 'I' for Inactive)
REMARK    1  A    between atoms: N_7  and  C_1 
REMARK    2  A    between atoms: C_9  and  C_2 
REMARK    3  A    between atoms: N_15  and  C_10 
ROOT
ATOM      1  C   UNL d   1      -1.568   0.283   0.007  0.00  0.00     0.150 A 
ATOM      2  C   UNL d   1      -0.127  -1.428   0.034  0.00  0.00     0.057 A 
ATOM      3  N   UNL d   1      -1.462  -1.030   0.007  0.00  0.00    -0.335 N 
ATOM      4  HN  UNL d   1      -2.254  -1.672  -0.011  1.00  0.00     0.168 HD
ATOM      5  C   UNL d   1       0.788  -0.386   0.009  0.00  0.00     0.010 A 
ATOM      6  S   UNL d   1      -0.053   1.108   0.026  0.00  0.00    -0.057 SA
ATOM      7  C   UNL d   1       2.277  -0.368  -0.045  0.00  0.00     0.059 C 
ENDROOT
BRANCH   2   8
ATOM      8  C   UNL d   1       0.213  -2.852   0.035  0.00  0.00    -0.007 A 
ATOM      9  C   UNL d   1      -0.601  -3.760  -0.655  0.00  0.00     0.038 A 
ATOM     10  C   UNL d   1      -0.289  -5.126  -0.682  0.00  0.00     0.040 A 
ATOM     11 CL   UNL d   1      -1.346  -6.182  -1.551  0.00  0.00    -0.084 Cl
ATOM     12  C   UNL d   1       0.846  -5.618  -0.021  0.00  0.00    -0.040 A 
ATOM     13  C   UNL d   1       1.644  -4.713   0.690  0.00  0.00     0.009 A 
ATOM     14  C   UNL d   1       1.221  -7.073  -0.036  0.00  0.00     0.050 C 
ATOM     15  C   UNL d   1       1.321  -3.353   0.730  0.00  0.00     0.014 A 
ENDBRANCH   2   8
BRANCH   1  16
ATOM     16  N   UNL d   1      -2.676   1.066  -0.006  0.00  0.00    -0.333 N 
ATOM     17  C   UNL d   1      -3.816   0.466  -0.060  0.00  0.00     0.179 C 
ATOM     18  HN  UNL d   1      -2.610   2.084   0.024  1.00  0.00     0.168 HD
BRANCH  17  19
ATOM     19  N   UNL d   1      -5.043   1.097  -0.084  0.00  0.00    -0.386 N 
ATOM     20  C   UNL d   1      -5.155   2.549  -0.049  0.00  0.00     0.149 C 
ATOM     21  C   UNL d   1      -6.293   0.365  -0.139  0.00  0.00     0.149 C 
ENDBRANCH  17  19
ENDBRANCH   1  16
TORSDOF 3
