REMARK  7 active torsions:
REMARK  status: ('A' for Active; 'I' for Inactive)
REMARK    1  A    between atoms: C_16  and  N_1 
REMARK    2  A    between atoms: C_2  and  N_13 
REMARK    3  A    between atoms: C_21  and  C_4 
REMARK    4  A    between atoms: S_17  and  C_7 
REMARK       I    between atoms: N_13  and  C_18 
REMARK    5  A    between atoms: C_27  and  C_16 
REMARK    6  A    between atoms: C_25  and  S_17 
REMARK    7  A    between atoms: C_18  and  C_25 
ROOT
ATOM      1  C   UNL d   1      -6.913  -3.607   0.589  0.00  0.00     0.098 C 
ATOM      2  C   UNL d   1      -7.046  -4.518   1.615  0.00  0.00     0.085 C 
ATOM      3  C   UNL d   1      -8.409  -4.744   1.924  0.00  0.00    -0.021 C 
ATOM      4  C   UNL d   1      -9.181  -4.484   0.810  0.00  0.00    -0.007 C 
ATOM      5  S   UNL d   1      -8.375  -3.460  -0.294  0.00  0.00    -0.075 SA
ATOM      6  C   UNL d   1      -5.970  -5.255   2.200  0.00  0.00     0.103 C 
ATOM      7  N   UNL d   1      -5.139  -5.980   2.585  0.00  0.00    -0.191 NA
ATOM      8  C   UNL d   1      -8.987  -5.509   3.060  0.00  0.00     0.042 C 
ATOM      9  C   UNL d   1     -10.533  -5.104   0.610  0.00  0.00     0.051 C 
ATOM     10  C   UNL d   1      -9.586  -6.772   2.467  0.00  0.00     0.009 C 
ATOM     11  C   UNL d   1     -10.660  -6.474   1.380  0.00  0.00    -0.014 C 
ATOM     12  C   UNL d   1     -10.717  -7.670   0.418  0.00  0.00     0.010 C 
ENDROOT
BRANCH   1  13
ATOM     13  N   UNL d   1      -5.826  -2.893   0.119  0.00  0.00    -0.319 N 
ATOM     14  C   UNL d   1      -4.794  -2.583   1.001  0.00  0.00     0.232 C 
ATOM     15  O   UNL d   1      -4.891  -2.740   2.218  0.00  0.00    -0.272 OA
ATOM     16  H   UNL d   1      -5.927  -2.376  -0.746  0.00  0.00     0.169 HD
BRANCH  14  17
ATOM     17  C   UNL d   1      -3.535  -2.025   0.340  0.00  0.00     0.185 C 
BRANCH  17  18
ATOM     18  S   UNL d   1      -2.328  -1.599   1.632  0.00  0.00    -0.083 SA
BRANCH  18  19
ATOM     19  C   UNL d   1      -1.080  -0.796   0.766  0.00  0.00     0.163 C 
ATOM     20  N   UNL d   1      -0.058  -0.120   1.388  0.00  0.00    -0.306 N 
ATOM     21  C   UNL d   1       0.607   0.566   0.384  0.00  0.00     0.135 C 
ATOM     22  N   UNL d   1       0.085   0.161  -0.770  0.00  0.00    -0.283 N 
ATOM     23  N   UNL d   1      -0.982  -0.667  -0.529  0.00  0.00    -0.278 N 
ATOM     24  HN  UNL d   1       0.426   0.425  -1.694  1.00  0.00     0.188 HD
ATOM     25  HN  UNL d   1      -1.584  -1.101  -1.229  1.00  0.00     0.189 HD
BRANCH  20  26
ATOM     26  C   UNL d   1       0.212  -0.142   2.815  0.00  0.00     0.171 C 
BRANCH  26  27
ATOM     27  C   UNL d   1      -0.474   0.959   3.599  0.00  0.00    -0.040 A 
ATOM     28  C   UNL d   1      -1.272   1.955   3.008  0.00  0.00     0.009 A 
ATOM     29  C   UNL d   1      -1.855   2.959   3.780  0.00  0.00     0.001 A 
ATOM     30  C   UNL d   1      -1.656   2.984   5.156  0.00  0.00     0.000 A 
ATOM     31  C   UNL d   1      -0.875   2.003   5.762  0.00  0.00     0.001 A 
ATOM     32  C   UNL d   1      -0.288   0.999   4.990  0.00  0.00     0.009 A 
ENDBRANCH  26  27
ENDBRANCH  20  26
BRANCH  21  33
ATOM     33  C   UNL d   1       1.630   1.630   0.468  0.00  0.00     0.012 A 
ATOM     34  C   UNL d   1       2.095   2.223   1.645  0.00  0.00     0.032 A 
ATOM     35  C   UNL d   1       2.988   3.285   1.570  0.00  0.00     0.088 A 
ATOM     36  N   UNL d   1       3.456   3.796   0.417  0.00  0.00    -0.375 N 
ATOM     37  C   UNL d   1       3.011   3.219  -0.714  0.00  0.00     0.088 A 
ATOM     38  HN  UNL d   1       4.111   4.577   0.402  1.00  0.00     0.164 HD
ATOM     39  C   UNL d   1       2.123   2.154  -0.737  0.00  0.00     0.032 A 
ENDBRANCH  21  33
ENDBRANCH  18  19
ENDBRANCH  17  18
ENDBRANCH  14  17
ENDBRANCH   1  13
TORSDOF 7
