REMARK  5 active torsions:
REMARK  status: ('A' for Active; 'I' for Inactive)
REMARK    1  A    between atoms: N_6  and  C_1 
REMARK    2  A    between atoms: C_8  and  C_2 
REMARK       I    between atoms: C_7  and  N_6 
REMARK       I    between atoms: N_10  and  C_7 
REMARK    3  A    between atoms: O_15  and  C_8 
REMARK    4  A    between atoms: C_14  and  N_10 
REMARK    5  A    between atoms: C_24  and  O_15 
ROOT
ATOM      1  C   UNL d   1       2.368  -0.365   0.447  0.00  0.00     0.095 C 
ATOM      2  C   UNL d   1       1.920   0.923   0.155  0.00  0.00     0.080 C 
ATOM      3  C   UNL d   1       0.475   0.995   0.280  0.00  0.00    -0.026 C 
ATOM      4  C   UNL d   1      -0.064  -0.241   0.574  0.00  0.00    -0.008 C 
ATOM      5  S   UNL d   1       1.112  -1.382   0.968  0.00  0.00    -0.075 SA
ATOM      6  C   UNL d   1      -0.404   2.179  -0.040  0.00  0.00     0.041 C 
ATOM      7  C   UNL d   1      -1.515  -0.599   0.535  0.00  0.00     0.051 C 
ATOM      8  C   UNL d   1      -1.893   1.881   0.214  0.00  0.00     0.009 C 
ATOM      9  C   UNL d   1      -2.314   0.467  -0.242  0.00  0.00    -0.014 C 
ATOM     10  C   UNL d   1      -2.169   0.294  -1.761  0.00  0.00     0.010 C 
ENDROOT
BRANCH   1  11
ATOM     11  N   UNL d   1       3.644  -0.871   0.267  0.00  0.00    -0.302 N 
ATOM     12  C   UNL d   1       4.211  -2.096   0.487  0.00  0.00     0.325 C 
ATOM     13  N   UNL d   1       3.568  -2.958   1.331  0.00  0.00    -0.309 N 
ATOM     14  O   UNL d   1       5.298  -2.305  -0.051  0.00  0.00    -0.247 OA
ATOM     15  H   UNL d   1       2.693  -2.617   1.703  0.00  0.00     0.170 HD
ATOM     16  H   UNL d   1       4.284  -0.262  -0.236  0.00  0.00     0.171 HD
BRANCH  13  17
ATOM     17  C   UNL d   1       4.016  -4.205   1.814  0.00  0.00     0.036 A 
ATOM     18  C   UNL d   1       5.220  -4.802   1.426  0.00  0.00     0.031 A 
ATOM     19  C   UNL d   1       5.638  -6.000   2.007  0.00  0.00     0.026 A 
ATOM     20  C   UNL d   1       4.858  -6.617   2.974  0.00  0.00     0.034 A 
ATOM     21  C   UNL d   1       3.641  -6.056   3.350  0.00  0.00     0.026 A 
ATOM     22 CL   UNL d   1       5.405  -8.066   3.723  0.00  0.00    -0.084 Cl
ATOM     23  C   UNL d   1       3.216  -4.856   2.766  0.00  0.00     0.031 A 
ENDBRANCH  13  17
ENDBRANCH   1  11
BRANCH   2  24
ATOM     24  C   UNL d   1       2.753   2.037  -0.325  0.00  0.00     0.296 C 
ATOM     25  O   UNL d   1       2.305   3.141  -0.599  0.00  0.00    -0.259 OA
BRANCH  24  26
ATOM     26  O   UNL d   1       4.062   1.681  -0.520  0.00  0.00    -0.318 OA
BRANCH  26  27
ATOM     27  C   UNL d   1       4.846   2.610  -1.282  0.00  0.00     0.174 C 
ATOM     28  C   UNL d   1       4.704   2.255  -2.751  0.00  0.00     0.034 C 
ENDBRANCH  26  27
ENDBRANCH  24  26
ENDBRANCH   2  24
TORSDOF 5
