REMARK  2 active torsions:
REMARK  status: ('A' for Active; 'I' for Inactive)
REMARK    1  A    between atoms: C_7  and  C_2 
REMARK    2  A    between atoms: C_10  and  C_6 
ROOT
ATOM      1  C   UNL d   1      -0.474  -0.399  -0.007  0.00  0.00     0.125 A 
ATOM      2  C   UNL d   1       0.276  -1.530  -0.028  0.00  0.00     0.026 A 
ATOM      3  C   UNL d   1       0.216   0.929   0.028  0.00  0.00     0.267 A 
ATOM      4  N   UNL d   1       1.586   0.915   0.062  0.00  0.00    -0.322 N 
ATOM      5  C   UNL d   1       1.737  -1.417   0.013  0.00  0.00     0.046 A 
ATOM      6  C   UNL d   1       2.341  -0.223   0.057  0.00  0.00     0.046 A 
ATOM      7  C   UNL d   1      -1.899  -0.367   0.016  0.00  0.00     0.106 C 
ATOM      8  N   UNL d   1      -3.061  -0.346   0.058  0.00  0.00    -0.191 NA
ATOM      9  O   UNL d   1      -0.396   1.993   0.026  0.00  0.00    -0.266 OA
ATOM     10  H   UNL d   1       2.041   1.822   0.084  0.00  0.00     0.169 HD
ENDROOT
BRANCH   2  11
ATOM     11  C   UNL d   1      -0.364  -2.819  -0.103  0.00  0.00     0.086 A 
ATOM     12  O   UNL d   1      -1.553  -3.045  -0.762  0.00  0.00    -0.322 OA
ATOM     13  C   UNL d   1      -1.869  -4.356  -0.664  0.00  0.00     0.142 A 
ATOM     14  C   UNL d   1      -0.900  -5.027   0.033  0.00  0.00     0.027 A 
ATOM     15  C   UNL d   1       0.059  -4.051   0.394  0.00  0.00     0.040 A 
ENDBRANCH   2  11
BRANCH   6  16
ATOM     16  C   UNL d   1       3.798  -0.086   0.094  0.00  0.00    -0.009 A 
ATOM     17  C   UNL d   1       4.528   0.011  -1.095  0.00  0.00     0.014 A 
ATOM     18  C   UNL d   1       5.916   0.170  -1.058  0.00  0.00     0.007 A 
ATOM     19  C   UNL d   1       6.591   0.233   0.168  0.00  0.00    -0.062 A 
ATOM     20  C   UNL d   1       5.859   0.123   1.355  0.00  0.00     0.007 A 
ATOM     21  C   UNL d   1       8.078   0.430   0.194  0.00  0.00     0.048 C 
ATOM     22  C   UNL d   1       4.471  -0.037   1.319  0.00  0.00     0.014 A 
ENDBRANCH   6  16
TORSDOF 2
