REMARK  3 active torsions:
REMARK  status: ('A' for Active; 'I' for Inactive)
REMARK    1  A    between atoms: C_6  and  C_3 
REMARK    2  A    between atoms: C_7  and  C_6 
REMARK    3  A    between atoms: C_8  and  C_7 
ROOT
ATOM      1  C   UNL d   1       1.311  -2.284  -2.248  0.00  0.00     0.294 A 
ATOM      2  O   UNL d   1       0.475  -2.600  -1.212  0.00  0.00    -0.307 OA
ATOM      3  C   UNL d   1       0.721  -1.778  -0.047  0.00  0.00     0.173 A 
ATOM      4  C   UNL d   1       2.168  -1.204  -1.782  0.00  0.00     0.048 A 
ATOM      5  C   UNL d   1       1.841  -0.905  -0.473  0.00  0.00    -0.012 A 
ATOM      6  O   UNL d   1       1.330  -2.809  -3.343  0.00  0.00    -0.259 OA
ATOM      7  C   UNL d   1       3.159  -0.533  -2.478  0.00  0.00     0.018 A 
ATOM      8  C   UNL d   1       2.508   0.107   0.198  0.00  0.00     0.011 A 
ATOM      9  C   UNL d   1       3.513   0.805  -0.483  0.00  0.00     0.001 A 
ATOM     10  C   UNL d   1       3.837   0.487  -1.813  0.00  0.00     0.001 A 
ENDROOT
BRANCH   3  11
ATOM     11  C   UNL d   1       0.924  -2.664   1.174  0.00  0.00     0.121 C 
BRANCH  11  12
ATOM     12  C   UNL d   1       2.146  -3.552   1.056  0.00  0.00     0.162 C 
ATOM     13  O   UNL d   1       3.255  -3.126   1.382  0.00  0.00    -0.292 OA
BRANCH  12  14
ATOM     14  C   UNL d   1       2.041  -4.946   0.528  0.00  0.00     0.010 A 
ATOM     15  C   UNL d   1       3.199  -5.520  -0.025  0.00  0.00     0.018 A 
ATOM     16  C   UNL d   1       3.196  -6.848  -0.460  0.00  0.00     0.043 A 
ATOM     17  C   UNL d   1       2.038  -7.603  -0.337  0.00  0.00     0.116 A 
ATOM     18  C   UNL d   1       0.878  -7.048   0.192  0.00  0.00     0.043 A 
ATOM     19  F   UNL d   1       2.042  -8.887  -0.717  0.00  0.00    -0.206 F 
ATOM     20  C   UNL d   1       0.874  -5.715   0.621  0.00  0.00     0.018 A 
ENDBRANCH  12  14
ENDBRANCH  11  12
ENDBRANCH   3  11
TORSDOF 3
