REMARK  5 active torsions:
REMARK  status: ('A' for Active; 'I' for Inactive)
REMARK    1  A    between atoms: C_2  and  S_1 
REMARK    2  A    between atoms: N_8  and  S_1 
REMARK    3  A    between atoms: C_4  and  C_15 
REMARK    4  A    between atoms: C_20  and  N_8 
REMARK    5  A    between atoms: C_22  and  C_20 
ROOT
ATOM      1  N   UNL d   1       0.386  -1.351  -0.964  0.00  0.00    -0.311 N 
ATOM      2  H   UNL d   1      -0.518  -1.759  -0.730  0.00  0.00     0.172 HD
ENDROOT
BRANCH   1   3
ATOM      3  S   UNL d   1       0.795   0.044  -0.155  0.00  0.00     0.262 S 
ATOM      4  O   UNL d   1       0.070   0.058   1.094  0.00  0.00    -0.200 OA
ATOM      5  O   UNL d   1       2.240   0.150  -0.192  0.00  0.00    -0.200 OA
BRANCH   3   6
ATOM      6  C   UNL d   1       0.145   1.341  -1.161  0.00  0.00     0.118 A 
ATOM      7  C   UNL d   1      -1.229   1.396  -1.377  0.00  0.00     0.142 A 
ATOM      8  C   UNL d   1      -1.788   2.452  -2.088  0.00  0.00     0.086 A 
ATOM      9  F   UNL d   1      -2.038   0.432  -0.919  0.00  0.00    -0.204 F 
ATOM     10  C   UNL d   1      -0.957   3.454  -2.576  0.00  0.00     0.119 A 
ATOM     11  C   UNL d   1       0.421   3.407  -2.378  0.00  0.00     0.044 A 
ATOM     12  F   UNL d   1      -1.491   4.485  -3.243  0.00  0.00    -0.206 F 
ATOM     13  C   UNL d   1       0.982   2.342  -1.668  0.00  0.00     0.031 A 
ENDBRANCH   3   6
ENDBRANCH   1   3
BRANCH   1  14
ATOM     14  C   UNL d   1       1.014  -1.664  -2.239  0.00  0.00     0.170 C 
BRANCH  14  15
ATOM     15  C   UNL d   1       0.491  -2.968  -2.792  0.00  0.00    -0.040 A 
ATOM     16  C   UNL d   1      -0.607  -2.988  -3.661  0.00  0.00     0.010 A 
ATOM     17  C   UNL d   1      -1.143  -4.204  -4.100  0.00  0.00     0.014 A 
ATOM     18  C   UNL d   1      -0.591  -5.423  -3.681  0.00  0.00    -0.008 A 
ATOM     19  C   UNL d   1       0.519  -5.399  -2.825  0.00  0.00     0.014 A 
ATOM     20  C   UNL d   1       1.053  -4.184  -2.382  0.00  0.00     0.010 A 
BRANCH  18  21
ATOM     21  C   UNL d   1      -1.191  -6.679  -4.110  0.00  0.00     0.063 A 
ATOM     22  N   UNL d   1      -2.546  -6.768  -4.412  0.00  0.00    -0.292 N 
ATOM     23  N   UNL d   1      -2.895  -7.993  -4.770  0.00  0.00    -0.061 NA
ATOM     24  HN  UNL d   1      -3.194  -5.982  -4.363  1.00  0.00     0.183 HD
ATOM     25  S   UNL d   1      -1.608  -9.060  -4.772  0.00  0.00    -0.010 SA
ATOM     26  C   UNL d   1      -0.490  -7.864  -4.257  0.00  0.00     0.096 A 
ENDBRANCH  18  21
ENDBRANCH  14  15
ENDBRANCH   1  14
TORSDOF 5
