REMARK  5 active torsions:
REMARK  status: ('A' for Active; 'I' for Inactive)
REMARK    1  A    between atoms: S_2  and  C_1 
REMARK    2  A    between atoms: C_6  and  C_1 
REMARK    3  A    between atoms: C_4  and  C_3 
REMARK    4  A    between atoms: S_15  and  C_5 
REMARK    5  A    between atoms: N_8  and  C_6 
ROOT
ATOM      1  C   UNL d   1       1.043   0.083  -0.035  0.00  0.00     0.121 C 
ATOM      2  C   UNL d   1       0.333  -0.005  -1.173  0.00  0.00     0.046 C 
ENDROOT
BRANCH   1   3
ATOM      3  S   UNL d   1       0.338   0.129   1.562  0.00  0.00     0.180 S 
ATOM      4  O   UNL d   1      -0.887  -0.641   1.619  0.00  0.00    -0.222 OA
ATOM      5  O   UNL d   1       1.371  -0.141   2.548  0.00  0.00    -0.222 OA
ATOM      6  C   UNL d   1      -0.094   1.836   1.760  0.00  0.00     0.167 C 
ENDBRANCH   1   3
BRANCH   1   7
ATOM      7  C   UNL d   1       2.563   0.083  -0.035  0.00  0.00    -0.025 C 
BRANCH   7   8
ATOM      8  N   UNL d   1       3.824   0.083  -0.035  0.00  0.00    -0.365 N 
ATOM      9  HN2 UNL d   1       2.804   0.083  -0.035  1.00  0.00     0.165 HD
ATOM     10  HN1 UNL d   1       4.844   0.083  -0.035  1.00  0.00     0.165 HD
ENDBRANCH   7   8
ENDBRANCH   1   7
BRANCH   2  11
ATOM     11  C   UNL d   1      -1.094  -0.076  -1.305  0.00  0.00    -0.010 A 
ATOM     12  C   UNL d   1      -1.907   0.994  -1.648  0.00  0.00     0.051 A 
ATOM     13  S   UNL d   1      -3.564   0.542  -1.603  0.00  0.00    -0.094 SA
ATOM     14  C   UNL d   1      -3.196  -1.078  -1.226  0.00  0.00     0.052 A 
ATOM     15  C   UNL d   1      -1.840  -1.283  -1.119  0.00  0.00     0.020 A 
BRANCH  12  16
ATOM     16  S   UNL d   1      -1.359   2.639  -1.999  0.00  0.00    -0.126 SA
ATOM     17  C   UNL d   1      -2.696   3.310  -3.014  0.00  0.00     0.096 C 
ENDBRANCH  12  16
ENDBRANCH   2  11
TORSDOF 5
