REMARK  3 active torsions:
REMARK  status: ('A' for Active; 'I' for Inactive)
REMARK    1  A    between atoms: C_10  and  N_2 
REMARK    2  A    between atoms: C_8  and  C_3 
REMARK    3  A    between atoms: C_9  and  N_4 
ROOT
ATOM      1  C   UNL d   1       0.919  -0.767   0.067  0.00  0.00     0.157 A 
ATOM      2  N   UNL d   1       0.903   0.644   0.074  0.00  0.00    -0.290 N 
ATOM      3  C   UNL d   1      -0.386   1.196   0.250  0.00  0.00     0.065 A 
ATOM      4  N   UNL d   1       1.939  -1.541  -0.141  0.00  0.00    -0.322 N 
ATOM      5  HN  UNL d   1       2.853  -1.111  -0.287  1.00  0.00     0.169 HD
ATOM      6  S   UNL d   1      -0.741  -1.337   0.479  0.00  0.00    -0.063 SA
ATOM      7  C   UNL d   1      -1.352   0.285   0.472  0.00  0.00     0.084 A 
ENDROOT
BRANCH   2   8
ATOM      8  C   UNL d   1       2.107   1.416   0.037  0.00  0.00     0.042 A 
ATOM      9  C   UNL d   1       3.179   1.067  -0.804  0.00  0.00     0.033 A 
ATOM     10  C   UNL d   1       4.366   1.811  -0.826  0.00  0.00     0.044 A 
ATOM     11  C   UNL d   1       4.490   2.925  -0.009  0.00  0.00     0.116 A 
ATOM     12  C   UNL d   1       3.456   3.302   0.834  0.00  0.00     0.044 A 
ATOM     13  F   UNL d   1       5.622   3.639  -0.029  0.00  0.00    -0.206 F 
ATOM     14  C   UNL d   1       2.279   2.547   0.862  0.00  0.00     0.033 A 
ENDBRANCH   2   8
BRANCH   4  15
ATOM     15  C   UNL d   1       1.845  -2.930  -0.175  0.00  0.00     0.106 A 
ATOM     16  N   UNL d   1       0.908  -3.481  -0.973  0.00  0.00    -0.352 N 
ATOM     17  C   UNL d   1       0.870  -4.830  -1.040  0.00  0.00     0.089 A 
ATOM     18  HN  UNL d   1       0.256  -2.904  -1.503  1.00  0.00     0.166 HD
ATOM     19  C   UNL d   1       1.762  -5.663  -0.387  0.00  0.00     0.017 A 
ATOM     20  C   UNL d   1       2.754  -5.076   0.388  0.00  0.00     0.005 A 
ATOM     21  C   UNL d   1       2.797  -3.688   0.495  0.00  0.00     0.048 A 
ENDBRANCH   4  15
BRANCH   3  22
ATOM     22  C   UNL d   1      -0.787   2.561   0.125  0.00  0.00     0.032 A 
ATOM     23  S   UNL d   1      -0.670   3.365  -1.395  0.00  0.00    -0.100 SA
ATOM     24  C   UNL d   1      -1.313   4.816  -0.760  0.00  0.00     0.050 A 
ATOM     25  C   UNL d   1      -1.611   4.708   0.578  0.00  0.00     0.008 A 
ATOM     26  C   UNL d   1      -1.320   3.408   1.084  0.00  0.00     0.021 A 
ENDBRANCH   3  22
TORSDOF 3
