REMARK  5 active torsions:
REMARK  status: ('A' for Active; 'I' for Inactive)
REMARK    1  A    between atoms: C_5  and  C_1 
REMARK    2  A    between atoms: S_3  and  C_2 
REMARK    3  A    between atoms: C_9  and  C_4 
REMARK    4  A    between atoms: C_6  and  C_8 
REMARK    5  A    between atoms: O_21  and  C_9 
ROOT
ATOM      1  C   UNL d   1       5.073   2.102  -0.519  0.00  0.00     0.141 C 
ATOM      2  C   UNL d   1       5.737   2.719  -1.514  0.00  0.00     0.072 C 
ATOM      3  C   UNL d   1       4.510   0.803  -0.585  0.00  0.00     0.111 C 
ATOM      4  N   UNL d   1       4.036  -0.257  -0.642  0.00  0.00    -0.191 NA
ENDROOT
BRANCH   1   5
ATOM      5  S   UNL d   1       4.948   2.909   1.016  0.00  0.00     0.181 S 
ATOM      6  O   UNL d   1       4.827   1.933   2.081  0.00  0.00    -0.222 OA
ATOM      7  O   UNL d   1       5.962   3.947   1.111  0.00  0.00    -0.222 OA
ATOM      8  C   UNL d   1       3.382   3.735   0.891  0.00  0.00     0.168 C 
ENDBRANCH   1   5
BRANCH   2   9
ATOM      9  C   UNL d   1       5.971   2.101  -2.776  0.00  0.00     0.078 A 
ATOM     10  O   UNL d   1       5.141   1.165  -3.342  0.00  0.00    -0.310 OA
ATOM     11  C   UNL d   1       5.742   0.646  -4.447  0.00  0.00     0.088 A 
ATOM     12  C   UNL d   1       6.923   1.321  -4.672  0.00  0.00     0.041 A 
ATOM     13  C   UNL d   1       7.046   2.277  -3.635  0.00  0.00     0.040 A 
BRANCH  11  14
ATOM     14  C   UNL d   1       5.240  -0.536  -5.211  0.00  0.00     0.021 A 
ATOM     15  C   UNL d   1       3.908  -0.914  -5.299  0.00  0.00     0.093 A 
ATOM     16  S   UNL d   1       3.757  -2.401  -6.165  0.00  0.00    -0.095 SA
ATOM     17  C   UNL d   1       5.438  -2.530  -6.403  0.00  0.00     0.051 A 
ATOM     18  C   UNL d   1       6.114  -1.456  -5.875  0.00  0.00     0.023 A 
BRANCH  15  19
ATOM     19  C   UNL d   1       2.712  -0.208  -4.861  0.00  0.00     0.300 C 
ATOM     20  O   UNL d   1       2.611   1.003  -4.697  0.00  0.00    -0.259 OA
BRANCH  19  21
ATOM     21  O   UNL d   1       1.674  -1.081  -4.685  0.00  0.00    -0.322 OA
ATOM     22  C   UNL d   1       0.443  -0.480  -4.289  0.00  0.00     0.213 C 
ENDBRANCH  19  21
ENDBRANCH  15  19
ENDBRANCH  11  14
ENDBRANCH   2   9
TORSDOF 5
