REMARK  5 active torsions:
REMARK  status: ('A' for Active; 'I' for Inactive)
REMARK    1  A    between atoms: C_2  and  S_1 
REMARK    2  A    between atoms: N_4  and  S_1 
REMARK    3  A    between atoms: C_3  and  C_8 
REMARK    4  A    between atoms: C_15  and  N_4 
REMARK    5  A    between atoms: C_8  and  C_16 
ROOT
ATOM      1  C   UNL d   1       2.836   3.036   3.748  0.00  0.00     0.049 A 
ATOM      2  C   UNL d   1       2.532   1.791   3.144  0.00  0.00    -0.028 A 
ATOM      3  C   UNL d   1       2.038   3.519   4.794  0.00  0.00     0.030 A 
ATOM      4  C   UNL d   1       1.482   1.030   3.692  0.00  0.00     0.009 A 
ATOM      5  C   UNL d   1       0.966   2.771   5.277  0.00  0.00     0.002 A 
ATOM      6  C   UNL d   1       0.697   1.521   4.735  0.00  0.00     0.001 A 
ENDROOT
BRANCH   1   7
ATOM      7  N   UNL d   1       3.915   3.863   3.295  0.00  0.00    -0.280 N 
ATOM      8  H   UNL d   1       4.298   3.652   2.376  0.00  0.00     0.179 HD
BRANCH   7   9
ATOM      9  S   UNL d   1       5.196   4.242   4.334  0.00  0.00     0.265 S 
ATOM     10  O   UNL d   1       5.028   3.551   5.592  0.00  0.00    -0.200 OA
ATOM     11  O   UNL d   1       6.407   4.095   3.555  0.00  0.00    -0.200 OA
BRANCH   9  12
ATOM     12  C   UNL d   1       5.053   5.987   4.665  0.00  0.00     0.103 A 
ATOM     13  C   UNL d   1       5.322   6.420   5.977  0.00  0.00     0.052 A 
ATOM     14  C   UNL d   1       5.340   7.786   6.284  0.00  0.00     0.057 A 
ATOM     15 CL   UNL d   1       5.739   8.246   7.900  0.00  0.00    -0.083 Cl
ATOM     16  C   UNL d   1       5.068   8.723   5.285  0.00  0.00     0.057 A 
ATOM     17  C   UNL d   1       4.795   8.294   3.985  0.00  0.00     0.051 A 
ATOM     18 CL   UNL d   1       5.080  10.427   5.584  0.00  0.00    -0.082 Cl
ATOM     19  C   UNL d   1       4.801   6.927   3.664  0.00  0.00     0.059 A 
ATOM     20 CL   UNL d   1       4.540   6.537   2.003  0.00  0.00    -0.083 Cl
ENDBRANCH   9  12
ENDBRANCH   7   9
ENDBRANCH   1   7
BRANCH   2  21
ATOM     21  C   UNL d   1       3.298   1.197   1.973  0.00  0.00     0.081 C 
BRANCH  21  22
ATOM     22  C   UNL d   1       2.532   0.815   0.649  0.00  0.00     0.260 C 
ATOM     23  N   UNL d   1       1.681   1.837  -0.007  0.00  0.00     0.093 NA
ATOM     24  C   UNL d   1       0.298   1.831   0.472  0.00  0.00     0.277 C 
ATOM     25  C   UNL d   1       2.240   3.180  -0.006  0.00  0.00     0.310 C 
ATOM     26  C   UNL d   1      -0.396   0.485   0.237  0.00  0.00     0.069 C 
ATOM     27  C   UNL d   1       0.478  -0.712   0.502  0.00  0.00    -0.048 A 
ATOM     28  C   UNL d   1       1.865  -0.565   0.684  0.00  0.00    -0.018 A 
ATOM     29  C   UNL d   1      -0.098  -1.994   0.473  0.00  0.00     0.008 A 
ATOM     30  C   UNL d   1       2.646  -1.726   0.838  0.00  0.00     0.010 A 
ATOM     31  C   UNL d   1       2.065  -2.996   0.806  0.00  0.00     0.001 A 
ATOM     32  C   UNL d   1       0.693  -3.130   0.623  0.00  0.00     0.001 A 
ENDBRANCH  21  22
ENDBRANCH   2  21
TORSDOF 5
