REMARK  7 active torsions:
REMARK  status: ('A' for Active; 'I' for Inactive)
REMARK    1  A    between atoms: C_2  and  S_1 
REMARK    2  A    between atoms: N_14  and  S_1 
REMARK    3  A    between atoms: C_12  and  C_3 
REMARK    4  A    between atoms: C_13  and  C_5 
REMARK    5  A    between atoms: C_11  and  C_19 
REMARK    6  A    between atoms: O_24  and  C_12 
REMARK    7  A    between atoms: C_19  and  N_14 
ROOT
ATOM      1  N   UNL d   1       0.339  -1.643   0.279  0.00  0.00    -0.208 NA
ATOM      2  H   UNL d   1      -0.635  -1.735  -0.022  0.00  0.00     0.140 HD
ENDROOT
BRANCH   1   3
ATOM      3  S   UNL d   1       0.924  -0.085   0.063  0.00  0.00     0.264 S 
ATOM      4  O   UNL d   1       0.210   0.783   0.974  0.00  0.00    -0.204 OA
ATOM      5  O   UNL d   1       2.367  -0.126   0.008  0.00  0.00    -0.204 OA
BRANCH   3   6
ATOM      6  C   UNL d   1       0.426   0.505  -1.557  0.00  0.00     0.186 A 
ATOM      7  C   UNL d   1       0.678   1.720  -2.179  0.00  0.00     0.071 A 
ATOM      8  C   UNL d   1       0.047   1.714  -3.455  0.00  0.00     0.072 A 
ATOM      9  C   UNL d   1      -0.571   0.479  -3.541  0.00  0.00     0.067 A 
ATOM     10  O   UNL d   1      -0.348  -0.252  -2.411  0.00  0.00    -0.301 OA
ATOM     11  C   UNL d   1      -1.393  -0.171  -4.588  0.00  0.00     0.078 C 
BRANCH   8  12
ATOM     12  C   UNL d   1       0.034   2.756  -4.468  0.00  0.00     0.295 C 
ATOM     13  O   UNL d   1      -0.545   2.653  -5.543  0.00  0.00    -0.259 OA
BRANCH  12  14
ATOM     14  O   UNL d   1       0.750   3.851  -4.078  0.00  0.00    -0.322 OA
ATOM     15  C   UNL d   1       0.793   4.907  -5.040  0.00  0.00     0.213 C 
ENDBRANCH  12  14
ENDBRANCH   8  12
ENDBRANCH   3   6
ENDBRANCH   1   3
BRANCH   1  16
ATOM     16  C   UNL d   1       1.181  -2.718  -0.258  0.00  0.00     0.162 C 
BRANCH  16  17
ATOM     17  C   UNL d   1       0.501  -4.020   0.042  0.00  0.00     0.030 A 
ATOM     18  N   UNL d   1      -0.750  -4.273  -0.514  0.00  0.00    -0.351 N 
ATOM     19  C   UNL d   1      -1.195  -5.458  -0.135  0.00  0.00     0.091 A 
ATOM     20  HN  UNL d   1      -1.254  -3.632  -1.128  1.00  0.00     0.166 HD
ATOM     21  S   UNL d   1      -0.132  -6.325   0.908  0.00  0.00    -0.081 SA
ATOM     22  C   UNL d   1       0.984  -5.031   0.851  0.00  0.00     0.078 A 
BRANCH  19  23
ATOM     23  C   UNL d   1      -2.476  -5.962  -0.582  0.00  0.00     0.038 A 
ATOM     24  S   UNL d   1      -3.132  -7.475  -0.094  0.00  0.00    -0.099 SA
ATOM     25  C   UNL d   1      -4.549  -7.252  -1.021  0.00  0.00     0.050 A 
ATOM     26  C   UNL d   1      -4.536  -6.056  -1.700  0.00  0.00     0.008 A 
ATOM     27  C   UNL d   1      -3.344  -5.316  -1.447  0.00  0.00     0.022 A 
ENDBRANCH  19  23
ENDBRANCH  16  17
ENDBRANCH   1  16
TORSDOF 7
