REMARK  3 active torsions:
REMARK  status: ('A' for Active; 'I' for Inactive)
REMARK    1  A    between atoms: C_6  and  C_1 
REMARK    2  A    between atoms: C_8  and  C_6 
REMARK    3  A    between atoms: C_12  and  C_9 
ROOT
ATOM      1  C   UNL d   1       0.023  -1.711  -0.045  0.00  0.00     0.065 A 
ATOM      2  C   UNL d   1       1.096  -0.896   0.030  0.00  0.00     0.102 A 
ATOM      3  C   UNL d   1       0.678   0.491   0.064  0.00  0.00     0.010 A 
ATOM      4  O   UNL d   1       2.437  -1.204   0.075  0.00  0.00    -0.308 OA
ATOM      5  C   UNL d   1      -1.179  -0.837  -0.053  0.00  0.00    -0.008 A 
ATOM      6  C   UNL d   1      -0.772   0.517   0.029  0.00  0.00    -0.012 A 
ATOM      7  C   UNL d   1       3.360  -0.148   0.089  0.00  0.00     0.086 A 
ATOM      8  C   UNL d   1       1.565   1.489   0.092  0.00  0.00     0.018 A 
ATOM      9  C   UNL d   1       2.967   1.145   0.082  0.00  0.00     0.039 A 
ATOM     10  C   UNL d   1      -2.534  -1.119  -0.152  0.00  0.00     0.013 A 
ATOM     11  C   UNL d   1      -1.667   1.574   0.046  0.00  0.00     0.013 A 
ATOM     12  C   UNL d   1      -3.453  -0.058  -0.126  0.00  0.00     0.001 A 
ATOM     13  C   UNL d   1      -3.025   1.275  -0.026  0.00  0.00     0.001 A 
ENDROOT
BRANCH   7  14
ATOM     14  C   UNL d   1       4.787  -0.529   0.036  0.00  0.00    -0.002 A 
ATOM     15  C   UNL d   1       5.771   0.256   0.660  0.00  0.00     0.015 A 
ATOM     16  C   UNL d   1       7.128  -0.050   0.524  0.00  0.00     0.007 A 
ATOM     17  C   UNL d   1       7.536  -1.156  -0.219  0.00  0.00    -0.062 A 
ATOM     18  C   UNL d   1       6.560  -1.976  -0.800  0.00  0.00     0.007 A 
ATOM     19  C   UNL d   1       8.998  -1.428  -0.411  0.00  0.00     0.048 C 
ATOM     20  C   UNL d   1       5.199  -1.668  -0.668  0.00  0.00     0.015 A 
ENDBRANCH   7  14
BRANCH   1  21
ATOM     21  C   UNL d   1       0.158  -3.186  -0.102  0.00  0.00     0.269 C 
ATOM     22  O   UNL d   1       1.143  -3.680  -0.664  0.00  0.00    -0.282 OA
BRANCH  21  23
ATOM     23  C   UNL d   1      -0.926  -4.057   0.512  0.00  0.00     0.456 C 
ATOM     24  F   UNL d   1      -1.756  -3.404   1.372  0.00  0.00    -0.163 F 
ATOM     25  F   UNL d   1      -1.731  -4.609  -0.441  0.00  0.00    -0.163 F 
ATOM     26  F   UNL d   1      -0.414  -5.101   1.224  0.00  0.00    -0.163 F 
ENDBRANCH  21  23
ENDBRANCH   1  21
TORSDOF 3
