REMARK  1 active torsions:
REMARK  status: ('A' for Active; 'I' for Inactive)
REMARK    1  A    between atoms: C_8  and  C_3 
ROOT
ATOM      1  N   UNL d   1       0.458  -0.439   1.046  0.00  0.00    -0.345 N 
ATOM      2  HN  UNL d   1       0.529  -0.763   2.010  1.00  0.00     0.167 HD
ATOM      3  C   UNL d   1       0.321  -1.209  -0.020  0.00  0.00     0.102 A 
ATOM      4  N   UNL d   1       0.414   1.184  -0.664  0.00  0.00    -0.321 N 
ATOM      5  HN  UNL d   1       0.431   2.115  -1.079  1.00  0.00     0.175 HD
ATOM      6  S   UNL d   1       0.286  -0.273  -1.470  0.00  0.00     0.005 SA
ATOM      7  C   UNL d   1       0.490   0.880   0.629  0.00  0.00     0.188 A 
ENDROOT
BRANCH   3   8
ATOM      8  C   UNL d   1       0.258  -2.675  -0.018  0.00  0.00    -0.001 A 
ATOM      9  C   UNL d   1      -0.383  -3.411  -1.026  0.00  0.00     0.015 A 
ATOM     10  C   UNL d   1      -0.414  -4.809  -0.986  0.00  0.00     0.007 A 
ATOM     11  C   UNL d   1       0.191  -5.505   0.066  0.00  0.00    -0.062 A 
ATOM     12  C   UNL d   1       0.821  -4.781   1.082  0.00  0.00     0.007 A 
ATOM     13  C   UNL d   1       0.160  -7.005   0.086  0.00  0.00     0.048 C 
ATOM     14  C   UNL d   1       0.848  -3.383   1.042  0.00  0.00     0.015 A 
ENDBRANCH   3   8
TORSDOF 1
