REMARK  4 active torsions:
REMARK  status: ('A' for Active; 'I' for Inactive)
REMARK    1  A    between atoms: C_8  and  C_2 
REMARK    2  A    between atoms: C_5  and  N_10 
REMARK    3  A    between atoms: N_10  and  C_14 
REMARK    4  A    between atoms: C_14  and  C_15 
ROOT
ATOM      1  C   UNL d   1       2.418  -1.673   0.028  0.00  0.00    -0.008 A 
ATOM      2  C   UNL d   1       2.588  -2.587  -1.022  0.00  0.00     0.014 A 
ATOM      3  C   UNL d   1       3.415  -1.585   1.009  0.00  0.00     0.014 A 
ATOM      4  C   UNL d   1       4.751  -3.259  -0.142  0.00  0.00    -0.041 A 
ATOM      5  C   UNL d   1       3.742  -3.373  -1.107  0.00  0.00     0.010 A 
ATOM      6  C   UNL d   1       4.567  -2.374   0.926  0.00  0.00     0.010 A 
ENDROOT
BRANCH   4   7
ATOM      7  C   UNL d   1       6.002  -4.095  -0.231  0.00  0.00     0.160 C 
BRANCH   7   8
ATOM      8  N   UNL d   1       5.776  -5.439   0.271  0.00  0.00    -0.363 N 
ATOM      9  H   UNL d   1       4.911  -5.576   0.771  0.00  0.00     0.162 HD
BRANCH   8  10
ATOM     10  C   UNL d   1       6.740  -6.382   0.462  0.00  0.00     0.167 C 
ATOM     11  S   UNL d   1       8.379  -6.175   0.222  0.00  0.00    -0.041 SA
ATOM     12  N   UNL d   1       6.312  -7.609   0.866  0.00  0.00    -0.372 N 
ATOM     13  C   UNL d   1       4.985  -8.182   0.769  0.00  0.00     0.148 C 
ATOM     14  H   UNL d   1       7.072  -8.273   0.974  0.00  0.00     0.161 HD
ENDBRANCH   8  10
ENDBRANCH   7   8
ENDBRANCH   4   7
BRANCH   1  15
ATOM     15  C   UNL d   1       1.222  -0.842   0.077  0.00  0.00     0.063 A 
ATOM     16  N   UNL d   1       0.028  -1.258  -0.511  0.00  0.00    -0.292 N 
ATOM     17  N   UNL d   1      -0.934  -0.362  -0.369  0.00  0.00    -0.061 NA
ATOM     18  HN  UNL d   1      -0.090  -2.148  -0.994  1.00  0.00     0.183 HD
ATOM     19  S   UNL d   1      -0.433   1.004   0.452  0.00  0.00    -0.010 SA
ATOM     20  C   UNL d   1       1.163   0.412   0.661  0.00  0.00     0.096 A 
ENDBRANCH   1  15
TORSDOF 4
