REMARK  5 active torsions:
REMARK  status: ('A' for Active; 'I' for Inactive)
REMARK    1  A    between atoms: C_3  and  C_1 
REMARK    2  A    between atoms: C_2  and  C_3 
REMARK    3  A    between atoms: C_7  and  C_3 
REMARK    4  A    between atoms: N_5  and  C_4 
REMARK    5  A    between atoms: O_25  and  C_8 
ROOT
ATOM      1  C   UNL d   1       2.926  -0.853  -0.053  0.00  0.00     0.083 C 
ENDROOT
BRANCH   1   2
ATOM      2  C   UNL d   1       3.275  -1.685  -1.306  0.00  0.00    -0.005 A 
ATOM      3  S   UNL d   1       3.790  -3.320  -1.160  0.00  0.00    -0.070 SA
ATOM      4  C   UNL d   1       3.673  -3.579  -2.838  0.00  0.00     0.144 A 
ATOM      5  C   UNL d   1       3.315  -2.443  -3.526  0.00  0.00     0.045 A 
ATOM      6  C   UNL d   1       3.122  -1.340  -2.643  0.00  0.00     0.018 A 
BRANCH   4   7
ATOM      7  N   UNL d   1       3.900  -4.882  -3.405  0.00  0.00    -0.108 N 
ATOM      8  O   UNL d   1       3.728  -4.988  -4.627  0.00  0.00    -0.531 OA
ATOM      9  O   UNL d   1       4.241  -5.801  -2.647  0.00  0.00    -0.531 OA
ENDBRANCH   4   7
ENDBRANCH   1   2
BRANCH   1  10
ATOM     10  C   UNL d   1       1.448  -0.359  -0.009  0.00  0.00     0.027 C 
ATOM     11  C   UNL d   1       0.438  -0.639  -0.870  0.00  0.00     0.054 C 
ATOM     12  C   UNL d   1      -0.885   0.070  -0.881  0.00  0.00     0.074 C 
ATOM     13  C   UNL d   1      -1.433   0.288   0.528  0.00  0.00    -0.035 C 
ATOM     14  C   UNL d   1      -0.356   1.015   1.341  0.00  0.00     0.092 C 
ATOM     15  C   UNL d   1      -2.700   1.156   0.439  0.00  0.00     0.015 C 
ATOM     16  C   UNL d   1      -1.814  -1.061   1.171  0.00  0.00     0.015 C 
ATOM     17  C   UNL d   1       1.045   0.432   1.212  0.00  0.00     0.159 C 
ATOM     18  O   UNL d   1       1.848   0.590   2.131  0.00  0.00    -0.293 OA
BRANCH  11  19
ATOM     19  O   UNL d   1       0.464  -1.658  -1.794  0.00  0.00    -0.364 OA
ATOM     20  H   UNL d   1       0.969  -2.403  -1.424  0.00  0.00     0.217 HD
ENDBRANCH  11  19
ENDBRANCH   1  10
BRANCH   1  21
ATOM     21  C   UNL d   1       4.016   0.259   0.169  0.00  0.00     0.138 C 
ATOM     22  C   UNL d   1       4.227   1.167  -1.016  0.00  0.00     0.140 C 
ATOM     23  C   UNL d   1       5.483   1.043  -1.852  0.00  0.00     0.088 C 
ATOM     24  O   UNL d   1       3.326   1.931  -1.380  0.00  0.00    -0.297 OA
ATOM     25  C   UNL d   1       6.755   0.696  -1.071  0.00  0.00    -0.035 C 
ATOM     26  C   UNL d   1       6.511  -0.474  -0.113  0.00  0.00     0.088 C 
ATOM     27  C   UNL d   1       7.838   0.260  -2.082  0.00  0.00     0.015 C 
ATOM     28  C   UNL d   1       7.280   1.932  -0.317  0.00  0.00     0.015 C 
ATOM     29  C   UNL d   1       5.281  -0.334   0.753  0.00  0.00     0.140 C 
ATOM     30  O   UNL d   1       5.287  -0.811   1.888  0.00  0.00    -0.297 OA
ENDBRANCH   1  21
TORSDOF 5
