REMARK  5 active torsions:
REMARK  status: ('A' for Active; 'I' for Inactive)
REMARK    1  A    between atoms: C_11  and  N_3 
REMARK    2  A    between atoms: N_14  and  C_9 
REMARK    3  A    between atoms: C_19  and  C_11 
REMARK    4  A    between atoms: N_15  and  N_14 
REMARK    5  A    between atoms: C_21  and  C_18 
ROOT
ATOM      1  C   UNL d   1      -0.211  -0.870  -0.015  0.00  0.00     0.160 A 
ATOM      2  C   UNL d   1      -0.472   0.467  -0.006  0.00  0.00     0.164 A 
ATOM      3  N   UNL d   1       1.866   0.866   0.027  0.00  0.00    -0.260 N 
ATOM      4  N   UNL d   1      -1.331  -1.617  -0.080  0.00  0.00    -0.172 N 
ATOM      5  HN  UNL d   1      -1.390  -2.634  -0.129  1.00  0.00     0.186 HD
ATOM      6  N   UNL d   1       1.057  -1.379   0.046  0.00  0.00    -0.287 N 
ATOM      7  C   UNL d   1       2.137  -0.512   0.142  0.00  0.00     0.333 C 
ATOM      8  C   UNL d   1       0.583   1.435  -0.012  0.00  0.00     0.283 C 
ATOM      9  C   UNL d   1      -2.333  -0.763  -0.068  0.00  0.00     0.701 A 
ATOM     10  N   UNL d   1      -1.850   0.539   0.002  0.00  0.00    -0.177 N 
ATOM     11  O   UNL d   1       3.279  -0.943   0.327  0.00  0.00    -0.246 OA
ATOM     12  O   UNL d   1       0.380   2.651  -0.041  0.00  0.00    -0.265 OA
ATOM     13  C   UNL d   1       1.292  -2.811   0.055  0.00  0.00     0.163 C 
ATOM     14  C   UNL d   1      -2.658   1.735   0.000  0.00  0.00     0.176 C 
ENDROOT
BRANCH   9  15
ATOM     15  N   UNL d   1      -3.648  -1.100  -0.150  0.00  0.00    -0.132 N 
ATOM     16  H   UNL d   1      -4.381  -0.484   0.186  0.00  0.00     0.205 HD
BRANCH  15  17
ATOM     17  N   UNL d   1      -3.965  -2.301  -0.714  0.00  0.00    -0.297 N 
ATOM     18  C   UNL d   1      -5.173  -2.748  -0.631  0.00  0.00     0.119 C 
ATOM     19  HN  UNL d   1      -3.250  -2.844  -1.199  1.00  0.00     0.186 HD
BRANCH  18  20
ATOM     20  C   UNL d   1      -5.532  -4.028  -1.296  0.00  0.00    -0.019 A 
ATOM     21  C   UNL d   1      -4.559  -4.760  -1.994  0.00  0.00     0.014 A 
ATOM     22  C   UNL d   1      -4.906  -5.934  -2.668  0.00  0.00     0.024 A 
ATOM     23  C   UNL d   1      -6.226  -6.379  -2.642  0.00  0.00     0.034 A 
ATOM     24  C   UNL d   1      -7.198  -5.665  -1.937  0.00  0.00     0.024 A 
ATOM     25 CL   UNL d   1      -6.663  -7.811  -3.491  0.00  0.00    -0.084 Cl
ATOM     26  C   UNL d   1      -6.852  -4.488  -1.260  0.00  0.00     0.014 A 
ENDBRANCH  18  20
ENDBRANCH  15  17
ENDBRANCH   9  15
BRANCH   3  27
ATOM     27  C   UNL d   1       3.026   1.755   0.021  0.00  0.00     0.175 C 
BRANCH  27  28
ATOM     28  C   UNL d   1       3.655   1.896  -1.356  0.00  0.00    -0.040 A 
ATOM     29  C   UNL d   1       3.272   2.941  -2.210  0.00  0.00     0.010 A 
ATOM     30  C   UNL d   1       3.820   3.049  -3.493  0.00  0.00     0.024 A 
ATOM     31  C   UNL d   1       4.749   2.110  -3.935  0.00  0.00     0.034 A 
ATOM     32  C   UNL d   1       5.157   1.078  -3.096  0.00  0.00     0.024 A 
ATOM     33 CL   UNL d   1       5.385   2.219  -5.531  0.00  0.00    -0.084 Cl
ATOM     34  C   UNL d   1       4.615   0.975  -1.811  0.00  0.00     0.010 A 
ENDBRANCH  27  28
ENDBRANCH   3  27
TORSDOF 5
