REMARK  6 active torsions:
REMARK  status: ('A' for Active; 'I' for Inactive)
REMARK    1  A    between atoms: C_14  and  C_1 
REMARK    2  A    between atoms: C_24  and  N_7 
REMARK    3  A    between atoms: C_9  and  C_21 
REMARK    4  A    between atoms: C_19  and  C_11 
REMARK    5  A    between atoms: N_12  and  C_15 
REMARK       I    between atoms: N_25  and  C_14 
REMARK    6  A    between atoms: N_16  and  N_25 
ROOT
ATOM      1  N   UNL d   1      -4.559  -4.294   0.492  0.00  0.00    -0.292 N 
ATOM      2  HN  UNL d   1      -5.410  -4.458   1.030  1.00  0.00     0.187 HD
ATOM      3  N   UNL d   1      -4.414  -3.487  -0.594  0.00  0.00    -0.266 N 
ATOM      4  C   UNL d   1      -2.403  -4.344  -0.239  0.00  0.00     0.027 A 
ATOM      5  C   UNL d   1      -3.346  -4.828   0.706  0.00  0.00     0.072 A 
ATOM      6  C   UNL d   1      -3.137  -3.557  -1.097  0.00  0.00     0.132 A 
ENDROOT
BRANCH   4   7
ATOM      7  C   UNL d   1      -0.976  -4.542  -0.277  0.00  0.00     0.122 C 
ATOM      8  N   UNL d   1      -0.346  -4.458  -1.405  0.00  0.00    -0.308 N 
ATOM      9  HN  UNL d   1      -0.835  -4.350  -2.294  1.00  0.00     0.186 HD
BRANCH   8  10
ATOM     10  N   UNL d   1       1.031  -4.523  -1.327  0.00  0.00    -0.265 N 
ATOM     11  C   UNL d   1       1.759  -3.714  -0.445  0.00  0.00     0.289 C 
ATOM     12  O   UNL d   1       1.215  -3.045   0.429  0.00  0.00    -0.264 OA
ATOM     13  H   UNL d   1       1.473  -4.737  -2.215  0.00  0.00     0.190 HD
BRANCH  11  14
ATOM     14  C   UNL d   1       3.184  -3.683  -0.676  0.00  0.00     0.132 A 
ATOM     15  N   UNL d   1       4.015  -2.625  -0.329  0.00  0.00    -0.302 N 
ATOM     16  C   UNL d   1       5.297  -2.962  -0.758  0.00  0.00     0.112 A 
ATOM     17  C   UNL d   1       3.736  -1.410   0.308  0.00  0.00     0.099 A 
ATOM     18  C   UNL d   1       6.334  -2.008  -0.559  0.00  0.00     0.049 A 
ATOM     19  N   UNL d   1       5.330  -4.163  -1.285  0.00  0.00    -0.344 N 
ATOM     20  C   UNL d   1       6.063  -0.836   0.047  0.00  0.00     0.005 A 
ATOM     21  C   UNL d   1       4.724  -0.520   0.511  0.00  0.00     0.018 A 
ATOM     22  C   UNL d   1       4.044  -4.639  -1.212  0.00  0.00     0.040 A 
ATOM     23  HN  UNL d   1       6.143  -4.644  -1.670  1.00  0.00     0.167 HD
ATOM     24  C   UNL d   1       3.781  -6.033  -1.649  0.00  0.00     0.071 C 
ENDBRANCH  11  14
ENDBRANCH   8  10
ENDBRANCH   4   7
BRANCH   5  25
ATOM     25  C   UNL d   1      -3.099  -5.770   1.802  0.00  0.00    -0.007 A 
ATOM     26  C   UNL d   1      -2.240  -6.868   1.615  0.00  0.00     0.016 A 
ATOM     27  C   UNL d   1      -1.939  -7.731   2.672  0.00  0.00     0.037 A 
ATOM     28  C   UNL d   1      -2.517  -7.511   3.926  0.00  0.00     0.102 A 
ATOM     29  C   UNL d   1      -3.402  -6.440   4.122  0.00  0.00     0.037 A 
ATOM     30  C   UNL d   1      -3.690  -5.577   3.058  0.00  0.00     0.016 A 
BRANCH  28  31
ATOM     31  N   UNL d   1      -2.194  -8.413   5.042  0.00  0.00    -0.116 N 
ATOM     32  O   UNL d   1      -1.399  -9.337   4.822  0.00  0.00    -0.532 OA
ATOM     33  O   UNL d   1      -2.729  -8.187   6.134  0.00  0.00    -0.532 OA
ENDBRANCH  28  31
ENDBRANCH   5  25
BRANCH   3  34
ATOM     34  C   UNL d   1      -5.475  -2.655  -1.061  0.00  0.00     0.056 A 
ATOM     35  C   UNL d   1      -5.305  -1.833  -2.184  0.00  0.00     0.031 A 
ATOM     36  C   UNL d   1      -6.332  -0.983  -2.600  0.00  0.00     0.002 A 
ATOM     37  C   UNL d   1      -7.537  -0.950  -1.901  0.00  0.00     0.000 A 
ATOM     38  C   UNL d   1      -7.720  -1.772  -0.792  0.00  0.00     0.002 A 
ATOM     39  C   UNL d   1      -6.697  -2.627  -0.371  0.00  0.00     0.031 A 
ENDBRANCH   3  34
TORSDOF 6
