REMARK  2 active torsions:
REMARK  status: ('A' for Active; 'I' for Inactive)
REMARK    1  A    between atoms: C_7  and  C_3 
REMARK       I    between atoms: C_8  and  N_9 
REMARK    2  A    between atoms: N_9  and  C_13 
ROOT
ATOM      1  C   UNL d   1       2.055  -2.375  -0.068  0.00  0.00    -0.009 A 
ATOM      2  C   UNL d   1       1.930  -3.294  -1.115  0.00  0.00     0.016 A 
ATOM      3  C   UNL d   1       3.045  -2.592   0.895  0.00  0.00     0.016 A 
ATOM      4  C   UNL d   1       3.800  -4.595  -0.255  0.00  0.00     0.034 A 
ATOM      5  C   UNL d   1       3.908  -3.690   0.801  0.00  0.00     0.030 A 
ATOM      6  C   UNL d   1       2.799  -4.391  -1.211  0.00  0.00     0.030 A 
ENDROOT
BRANCH   1   7
ATOM      7  C   UNL d   1       1.168  -1.220   0.003  0.00  0.00     0.049 A 
ATOM      8  N   UNL d   1      -0.123  -1.266  -0.501  0.00  0.00    -0.353 N 
ATOM      9  C   UNL d   1      -0.716  -0.105  -0.322  0.00  0.00     0.047 A 
ATOM     10  HN  UNL d   1      -0.549  -2.079  -0.945  1.00  0.00     0.166 HD
ATOM     11  S   UNL d   1       0.238   1.110   0.429  0.00  0.00    -0.087 SA
ATOM     12  C   UNL d   1      -2.112   0.202  -0.734  0.00  0.00     0.076 C 
ATOM     13  C   UNL d   1       1.538   0.000   0.534  0.00  0.00     0.081 A 
ENDBRANCH   1   7
BRANCH   4  14
ATOM     14  N   UNL d   1       4.648  -5.714  -0.412  0.00  0.00    -0.328 N 
ATOM     15  C   UNL d   1       5.690  -6.091   0.419  0.00  0.00     0.218 C 
ATOM     16  O   UNL d   1       6.063  -5.520   1.438  0.00  0.00    -0.274 OA
ATOM     17  C   UNL d   1       6.399  -7.342  -0.036  0.00  0.00     0.117 C 
ATOM     18  H   UNL d   1       4.468  -6.293  -1.223  0.00  0.00     0.169 HD
ENDBRANCH   4  14
TORSDOF 2
