REMARK  5 active torsions:
REMARK  status: ('A' for Active; 'I' for Inactive)
REMARK    1  A    between atoms: C_6  and  N_2 
REMARK    2  A    between atoms: C_7  and  C_6 
REMARK    3  A    between atoms: C_10  and  C_7 
REMARK    4  A    between atoms: O_19  and  C_12 
REMARK    5  A    between atoms: O_21  and  C_14 
ROOT
ATOM      1  C   UNL d   1       2.297  -2.106   0.061  0.00  0.00     0.229 C 
ENDROOT
BRANCH   1   2
ATOM      2  N   UNL d   1       1.076  -1.309   0.038  0.00  0.00    -0.230 N 
ATOM      3  S   UNL d   1       0.015  -1.361   1.346  0.00  0.00     0.269 S 
ATOM      4  C   UNL d   1      -0.869   0.040   0.800  0.00  0.00     0.095 A 
ATOM      5  O   UNL d   1      -0.848  -2.508   1.215  0.00  0.00    -0.200 OA
ATOM      6  O   UNL d   1       0.720  -1.002   2.553  0.00  0.00    -0.200 OA
ATOM      7  C   UNL d   1      -0.353   0.495  -0.405  0.00  0.00     0.056 A 
ATOM      8  C   UNL d   1      -1.884   0.702   1.469  0.00  0.00     0.026 A 
ATOM      9  C   UNL d   1      -0.786   1.689  -0.956  0.00  0.00     0.018 A 
ATOM     10  C   UNL d   1       0.713  -0.365  -0.934  0.00  0.00     0.269 C 
ATOM     11  C   UNL d   1      -1.788   2.397  -0.284  0.00  0.00     0.001 A 
ATOM     12  C   UNL d   1      -2.352   1.892   0.903  0.00  0.00     0.002 A 
ATOM     13  O   UNL d   1       1.218  -0.265  -2.043  0.00  0.00    -0.266 OA
ENDBRANCH   1   2
BRANCH   1  14
ATOM     14  C   UNL d   1       2.047  -3.584  -0.072  0.00  0.00     0.178 C 
ATOM     15  O   UNL d   1       2.002  -4.305   0.926  0.00  0.00    -0.290 OA
BRANCH  14  16
ATOM     16  C   UNL d   1       1.808  -4.186  -1.420  0.00  0.00     0.014 A 
ATOM     17  C   UNL d   1       1.933  -3.459  -2.610  0.00  0.00     0.054 A 
ATOM     18  C   UNL d   1       1.557  -4.040  -3.821  0.00  0.00     0.099 A 
ATOM     19  C   UNL d   1       1.100  -5.357  -3.863  0.00  0.00     0.098 A 
ATOM     20  C   UNL d   1       1.042  -6.113  -2.697  0.00  0.00     0.040 A 
ATOM     21  C   UNL d   1       1.396  -5.527  -1.478  0.00  0.00     0.018 A 
BRANCH  18  22
ATOM     22  O   UNL d   1       1.609  -3.307  -4.974  0.00  0.00    -0.358 OA
ATOM     23  H   UNL d   1       1.719  -2.368  -4.751  0.00  0.00     0.217 HD
ENDBRANCH  18  22
BRANCH  19  24
ATOM     24  O   UNL d   1       0.691  -5.887  -5.053  0.00  0.00    -0.358 OA
ATOM     25  H   UNL d   1       0.330  -6.774  -4.898  0.00  0.00     0.217 HD
ENDBRANCH  19  24
ENDBRANCH  14  16
ENDBRANCH   1  14
TORSDOF 5
