REMARK  8 active torsions:
REMARK  status: ('A' for Active; 'I' for Inactive)
REMARK    1  A    between atoms: N_2  and  C_1 
REMARK    2  A    between atoms: N_4  and  C_1 
REMARK    3  A    between atoms: C_7  and  N_2 
REMARK    4  A    between atoms: C_15  and  N_2 
REMARK    5  A    between atoms: C_3  and  C_5 
REMARK    6  A    between atoms: C_9  and  N_4 
REMARK    7  A    between atoms: C_18  and  C_7 
REMARK    8  A    between atoms: N_11  and  C_8 
ROOT
ATOM      1  C   UNL d   1       1.249   0.220   0.588  0.00  0.00     0.175 C 
ATOM      2  S   UNL d   1       2.896  -0.078   0.723  0.00  0.00    -0.041 SA
ENDROOT
BRANCH   1   3
ATOM      3  N   UNL d   1       0.627   0.770  -0.576  0.00  0.00    -0.350 N 
BRANCH   3   4
ATOM      4  C   UNL d   1      -0.822   0.608  -0.823  0.00  0.00     0.164 C 
BRANCH   4   5
ATOM      5  C   UNL d   1      -1.323  -0.819  -0.880  0.00  0.00    -0.040 A 
ATOM      6  C   UNL d   1      -0.489  -1.936  -0.986  0.00  0.00     0.011 A 
ATOM      7  C   UNL d   1      -1.003  -3.236  -0.852  0.00  0.00     0.030 A 
ATOM      8  C   UNL d   1      -2.367  -3.471  -0.652  0.00  0.00     0.029 A 
ATOM      9  C   UNL d   1      -3.202  -2.342  -0.689  0.00  0.00     0.030 A 
ATOM     10  C   UNL d   1      -2.698  -1.042  -0.793  0.00  0.00     0.011 A 
BRANCH   8  11
ATOM     11  N   UNL d   1      -2.893  -4.732  -0.427  0.00  0.00    -0.390 N 
ATOM     12  C   UNL d   1      -2.194  -5.958  -0.783  0.00  0.00     0.149 C 
ATOM     13  C   UNL d   1      -4.035  -4.881   0.470  0.00  0.00     0.149 C 
ENDBRANCH   8  11
ENDBRANCH   4   5
ENDBRANCH   3   4
BRANCH   3  14
ATOM     14  C   UNL d   1       1.379   1.558  -1.594  0.00  0.00     0.079 C 
ATOM     15  C   UNL d   1       1.272   0.964  -3.002  0.00  0.00     0.032 C 
ATOM     16  C   UNL d   1       0.930   3.028  -1.593  0.00  0.00     0.032 C 
ENDBRANCH   3  14
ENDBRANCH   1   3
BRANCH   1  17
ATOM     17  N   UNL d   1       0.336  -0.015   1.607  0.00  0.00    -0.333 N 
ATOM     18  H   UNL d   1      -0.393   0.681   1.646  0.00  0.00     0.168 HD
BRANCH  17  19
ATOM     19  C   UNL d   1       0.270  -0.974   2.646  0.00  0.00     0.035 A 
ATOM     20  C   UNL d   1       1.010  -2.159   2.708  0.00  0.00     0.045 A 
ATOM     21  C   UNL d   1       0.767  -3.104   3.728  0.00  0.00     0.050 A 
ATOM     22  C   UNL d   1      -0.213  -2.840   4.697  0.00  0.00     0.016 A 
ATOM     23  C   UNL d   1      -0.950  -1.662   4.643  0.00  0.00     0.003 A 
ATOM     24  C   UNL d   1      -0.715  -0.746   3.623  0.00  0.00     0.029 A 
BRANCH  21  25
ATOM     25  C   UNL d   1       1.495  -4.426   3.776  0.00  0.00     0.417 C 
ATOM     26  F   UNL d   1       2.479  -4.559   2.846  0.00  0.00    -0.166 F 
ATOM     27  F   UNL d   1       2.088  -4.652   4.984  0.00  0.00    -0.166 F 
ATOM     28  F   UNL d   1       0.654  -5.482   3.581  0.00  0.00    -0.166 F 
ENDBRANCH  21  25
ENDBRANCH  17  19
ENDBRANCH   1  17
TORSDOF 8
