REMARK  1 active torsions:
REMARK  status: ('A' for Active; 'I' for Inactive)
REMARK    1  A    between atoms: S_12  and  C_6 
ROOT
ATOM      1  C   UNL d   1       1.270  -0.790  -0.008  0.00  0.00     0.089 A 
ATOM      2  C   UNL d   1       0.743   0.500  -0.008  0.00  0.00     0.038 A 
ATOM      3  S   UNL d   1       0.087  -2.011  -0.014  0.00  0.00    -0.075 SA
ATOM      4  C   UNL d   1      -0.712   0.438  -0.038  0.00  0.00    -0.029 A 
ATOM      5  C   UNL d   1      -1.166  -0.873  -0.010  0.00  0.00    -0.008 A 
ATOM      6  C   UNL d   1       1.725   1.512   0.010  0.00  0.00     0.081 A 
ATOM      7  N   UNL d   1       2.567  -1.142   0.000  0.00  0.00    -0.346 N 
ATOM      8  HN  UNL d   1       2.890  -2.109  -0.000  1.00  0.00     0.167 HD
ATOM      9  N   UNL d   1       3.040   1.198   0.015  0.00  0.00    -0.346 N 
ATOM     10  HN  UNL d   1       3.752   1.929   0.024  1.00  0.00     0.167 HD
ATOM     11  C   UNL d   1       3.386  -0.094   0.009  0.00  0.00     0.182 A 
ATOM     12  C   UNL d   1      -1.691   1.580  -0.052  0.00  0.00     0.040 C 
ATOM     13  C   UNL d   1      -2.603  -1.304  -0.015  0.00  0.00     0.047 C 
ATOM     14  C   UNL d   1      -3.126   1.135  -0.383  0.00  0.00     0.005 C 
ATOM     15  C   UNL d   1      -3.513  -0.135   0.379  0.00  0.00     0.005 C 
ENDROOT
BRANCH   6  16
ATOM     16  S   UNL d   1       1.360   3.240   0.017  0.00  0.00    -0.124 SA
ATOM     17  H   UNL d   1       0.129   3.174   0.524  0.00  0.00     0.108 HD
ENDBRANCH   6  16
TORSDOF 1
