REMARK  3 active torsions:
REMARK  status: ('A' for Active; 'I' for Inactive)
REMARK    1  A    between atoms: N_8  and  C_3 
REMARK       I    between atoms: C_5  and  N_7 
REMARK    2  A    between atoms: C_10  and  C_5 
REMARK    3  A    between atoms: N_7  and  N_8 
ROOT
ATOM      1  N   UNL d   1       3.652  -1.268   0.411  0.00  0.00    -0.285 N 
ATOM      2  H   UNL d   1       3.668  -2.272   0.595  0.00  0.00     0.188 HD
ENDROOT
BRANCH   1   3
ATOM      3  N   UNL d   1       4.833  -0.737  -0.112  0.00  0.00    -0.264 N 
ATOM      4  C   UNL d   1       6.017  -1.264   0.363  0.00  0.00     0.270 C 
ATOM      5  O   UNL d   1       6.053  -2.247   1.102  0.00  0.00    -0.266 OA
ATOM      6  H   UNL d   1       4.730   0.201  -0.495  0.00  0.00     0.190 HD
BRANCH   4   7
ATOM      7  C   UNL d   1       7.283  -0.607  -0.081  0.00  0.00     0.033 A 
ATOM      8  C   UNL d   1       7.330   0.309  -1.143  0.00  0.00     0.020 A 
ATOM      9  C   UNL d   1       8.558   0.827  -1.566  0.00  0.00     0.043 A 
ATOM     10  C   UNL d   1       9.732   0.430  -0.933  0.00  0.00     0.116 A 
ATOM     11  C   UNL d   1       9.702  -0.466   0.127  0.00  0.00     0.043 A 
ATOM     12  F   UNL d   1      10.906   0.908  -1.362  0.00  0.00    -0.206 F 
ATOM     13  C   UNL d   1       8.478  -0.984   0.556  0.00  0.00     0.020 A 
ENDBRANCH   4   7
ENDBRANCH   1   3
BRANCH   1  14
ATOM     14  C   UNL d   1       2.479  -0.586   0.127  0.00  0.00     0.106 A 
ATOM     15  N   UNL d   1       2.561   0.608  -0.391  0.00  0.00    -0.343 N 
ATOM     16  C   UNL d   1       1.439   1.386  -0.693  0.00  0.00     0.050 A 
ATOM     17  HN  UNL d   1       3.486   0.992  -0.585  1.00  0.00     0.167 HD
ATOM     18  C   UNL d   1       0.112   1.026  -0.453  0.00  0.00     0.027 A 
ATOM     19  C   UNL d   1       1.701   2.643  -1.263  0.00  0.00     0.031 A 
ATOM     20  S   UNL d   1      -0.362  -0.511   0.292  0.00  0.00    -0.120 SA
ATOM     21  C   UNL d   1      -0.924   1.915  -0.788  0.00  0.00     0.021 A 
ATOM     22  C   UNL d   1       1.214  -1.348   0.462  0.00  0.00     0.157 A 
ATOM     23  C   UNL d   1      -0.647   3.158  -1.356  0.00  0.00     0.002 A 
ATOM     24  C   UNL d   1       0.672   3.524  -1.592  0.00  0.00     0.002 A 
ENDBRANCH   1  14
TORSDOF 3
