REMARK  4 active torsions:
REMARK  status: ('A' for Active; 'I' for Inactive)
REMARK    1  A    between atoms: S_8  and  C_3 
REMARK    2  A    between atoms: C_12  and  S_8 
REMARK    3  A    between atoms: C_9  and  C_12 
REMARK    4  A    between atoms: C_11  and  C_9 
ROOT
ATOM      1  N   UNL d   1       0.507   1.861   0.037  0.00  0.00    -0.303 N 
ATOM      2  C   UNL d   1      -0.466   0.900   0.086  0.00  0.00     0.259 A 
ATOM      3  C   UNL d   1       1.840   1.572   0.008  0.00  0.00     0.147 A 
ATOM      4  N   UNL d   1       2.327   0.378   0.016  0.00  0.00    -0.336 N 
ATOM      5  HN  UNL d   1       3.333   0.213  -0.009  1.00  0.00     0.168 HD
ATOM      6  C   UNL d   1       0.022  -0.491   0.099  0.00  0.00     0.059 A 
ATOM      7  C   UNL d   1       1.408  -0.687   0.060  0.00  0.00     0.049 A 
ATOM      8  O   UNL d   1      -1.659   1.172   0.117  0.00  0.00    -0.267 OA
ATOM      9  C   UNL d   1      -0.866  -1.571   0.147  0.00  0.00     0.019 A 
ATOM     10  C   UNL d   1       1.896  -1.994   0.065  0.00  0.00     0.030 A 
ATOM     11  C   UNL d   1      -0.360  -2.871   0.153  0.00  0.00     0.001 A 
ATOM     12  C   UNL d   1       1.019  -3.082   0.111  0.00  0.00     0.002 A 
ATOM     13  H   UNL d   1       0.216   2.828   0.025  0.00  0.00     0.171 HD
ENDROOT
BRANCH   3  14
ATOM     14  S   UNL d   1       2.825   2.995  -0.042  0.00  0.00    -0.086 SA
BRANCH  14  15
ATOM     15  C   UNL d   1       4.505   2.279  -0.049  0.00  0.00     0.166 C 
BRANCH  15  16
ATOM     16  C   UNL d   1       5.569   3.372  -0.078  0.00  0.00     0.169 C 
ATOM     17  O   UNL d   1       5.305   4.575  -0.076  0.00  0.00    -0.291 OA
BRANCH  16  18
ATOM     18  C   UNL d   1       7.018   2.979  -0.110  0.00  0.00     0.011 A 
ATOM     19  C   UNL d   1       7.454   1.650  -0.105  0.00  0.00     0.015 A 
ATOM     20  C   UNL d   1       8.826   1.358  -0.145  0.00  0.00     0.007 A 
ATOM     21  C   UNL d   1       9.780   2.383  -0.191  0.00  0.00    -0.062 A 
ATOM     22  C   UNL d   1       9.344   3.710  -0.189  0.00  0.00     0.007 A 
ATOM     23  C   UNL d   1      11.245   2.056  -0.244  0.00  0.00     0.048 C 
ATOM     24  C   UNL d   1       7.978   4.003  -0.149  0.00  0.00     0.015 A 
ENDBRANCH  16  18
ENDBRANCH  15  16
ENDBRANCH  14  15
ENDBRANCH   3  14
TORSDOF 4
