REMARK  8 active torsions:
REMARK  status: ('A' for Active; 'I' for Inactive)
REMARK    1  A    between atoms: C_12  and  C_1 
REMARK    2  A    between atoms: C_13  and  C_2 
REMARK    3  A    between atoms: C_4  and  C_3 
REMARK    4  A    between atoms: C_7  and  C_9 
REMARK    5  A    between atoms: C_16  and  C_10 
REMARK    6  A    between atoms: O_23  and  C_12 
REMARK    7  A    between atoms: O_24  and  C_13 
REMARK    8  A    between atoms: O_25  and  C_16 
ROOT
ATOM      1  C   UNL d   1      -1.268  -1.048   0.169  0.00  0.00     0.054 C 
ATOM      2  C   UNL d   1       1.284  -1.030   0.115  0.00  0.00     0.054 C 
ATOM      3  C   UNL d   1       0.016  -1.860  -0.105  0.00  0.00     0.125 C 
ATOM      4  C   UNL d   1      -1.232   0.305   0.077  0.00  0.00     0.018 C 
ATOM      5  C   UNL d   1       1.223   0.320   0.046  0.00  0.00     0.018 C 
ATOM      6  N   UNL d   1      -0.008   0.938  -0.115  0.00  0.00    -0.362 N 
ATOM      7  C   UNL d   1      -2.401   1.256   0.155  0.00  0.00     0.069 C 
ATOM      8  C   UNL d   1       2.417   1.236   0.136  0.00  0.00     0.069 C 
ATOM      9  H   UNL d   1      -0.018   1.957  -0.116  0.00  0.00     0.165 HD
ENDROOT
BRANCH   3  10
ATOM     10  C   UNL d   1      -0.013  -2.377  -1.528  0.00  0.00     0.067 A 
ATOM     11  O   UNL d   1       0.029  -3.724  -1.738  0.00  0.00    -0.313 OA
ATOM     12  C   UNL d   1      -0.002  -3.928  -3.092  0.00  0.00     0.087 A 
ATOM     13  C   UNL d   1      -0.068  -2.701  -3.732  0.00  0.00     0.040 A 
ATOM     14  C   UNL d   1      -0.071  -1.711  -2.733  0.00  0.00     0.036 A 
BRANCH  12  15
ATOM     15  C   UNL d   1       0.078  -5.252  -3.791  0.00  0.00     0.021 A 
ATOM     16  C   UNL d   1       0.099  -6.492  -3.170  0.00  0.00     0.093 A 
ATOM     17  S   UNL d   1       0.302  -7.756  -4.334  0.00  0.00    -0.095 SA
ATOM     18  C   UNL d   1       0.340  -6.665  -5.638  0.00  0.00     0.051 A 
ATOM     19  C   UNL d   1       0.192  -5.367  -5.218  0.00  0.00     0.023 A 
BRANCH  16  20
ATOM     20  C   UNL d   1      -0.067  -6.850  -1.771  0.00  0.00     0.300 C 
ATOM     21  O   UNL d   1      -0.772  -6.275  -0.951  0.00  0.00    -0.259 OA
BRANCH  20  22
ATOM     22  O   UNL d   1       0.674  -7.965  -1.481  0.00  0.00    -0.322 OA
ATOM     23  C   UNL d   1       0.544  -8.444  -0.144  0.00  0.00     0.213 C 
ENDBRANCH  20  22
ENDBRANCH  16  20
ENDBRANCH  12  15
ENDBRANCH   3  10
BRANCH   2  24
ATOM     24  C   UNL d   1       2.570  -1.739   0.318  0.00  0.00     0.292 C 
ATOM     25  O   UNL d   1       3.669  -1.285   0.022  0.00  0.00    -0.260 OA
BRANCH  24  26
ATOM     26  O   UNL d   1       2.377  -2.944   0.909  0.00  0.00    -0.323 OA
ATOM     27  C   UNL d   1       3.589  -3.649   1.186  0.00  0.00     0.213 C 
ENDBRANCH  24  26
ENDBRANCH   2  24
BRANCH   1  28
ATOM     28  C   UNL d   1      -2.506  -1.835   0.431  0.00  0.00     0.292 C 
ATOM     29  O   UNL d   1      -3.645  -1.465   0.197  0.00  0.00    -0.260 OA
BRANCH  28  30
ATOM     30  O   UNL d   1      -2.178  -3.025   0.993  0.00  0.00    -0.323 OA
ATOM     31  C   UNL d   1      -3.275  -3.909   1.232  0.00  0.00     0.213 C 
ENDBRANCH  28  30
ENDBRANCH   1  28
TORSDOF 8
