REMARK  8 active torsions:
REMARK  status: ('A' for Active; 'I' for Inactive)
REMARK    1  A    between atoms: C_10  and  N_1 
REMARK    2  A    between atoms: C_5  and  C_8 
REMARK    3  A    between atoms: C_6  and  C_9 
REMARK    4  A    between atoms: S_13  and  C_7 
REMARK    5  A    between atoms: C_12  and  N_15 
REMARK    6  A    between atoms: C_29  and  S_13 
REMARK    7  A    between atoms: C_14  and  C_29 
REMARK       I    between atoms: N_15  and  C_14 
REMARK    8  A    between atoms: O_33  and  C_30 
ROOT
ATOM      1  C   UNL d   1       0.880  -4.551  -2.922  0.00  0.00     0.231 C 
ATOM      2  N   UNL d   1       1.148  -3.821  -4.062  0.00  0.00    -0.326 N 
ATOM      3  O   UNL d   1       0.769  -5.780  -2.903  0.00  0.00    -0.272 OA
ATOM      4  H   UNL d   1       1.469  -2.868  -3.918  0.00  0.00     0.169 HD
ENDROOT
BRANCH   1   5
ATOM      5  C   UNL d   1       0.812  -3.773  -1.610  0.00  0.00     0.177 C 
BRANCH   5   6
ATOM      6  S   UNL d   1       0.568  -1.973  -1.815  0.00  0.00    -0.145 SA
BRANCH   6   7
ATOM      7  C   UNL d   1       0.329  -1.489  -0.052  0.00  0.00     0.149 C 
ATOM      8  C   UNL d   1       1.566  -1.817   0.745  0.00  0.00     0.245 C 
ATOM      9  N   UNL d   1       2.390  -0.708   0.736  0.00  0.00    -0.251 N 
ATOM     10  O   UNL d   1       1.732  -2.900   1.282  0.00  0.00    -0.271 OA
ATOM     11  C   UNL d   1       1.686   0.402   0.320  0.00  0.00     0.232 C 
ATOM     12  C   UNL d   1       0.249   0.011   0.109  0.00  0.00     0.128 C 
ATOM     13  O   UNL d   1       2.068   1.556   0.160  0.00  0.00    -0.273 OA
BRANCH   9  14
ATOM     14  C   UNL d   1       3.760  -0.721   1.128  0.00  0.00     0.045 A 
ATOM     15  C   UNL d   1       4.468   0.463   1.381  0.00  0.00     0.033 A 
ATOM     16  C   UNL d   1       5.820   0.447   1.761  0.00  0.00     0.039 A 
ATOM     17  C   UNL d   1       6.502  -0.757   1.886  0.00  0.00     0.068 A 
ATOM     18  C   UNL d   1       5.820  -1.942   1.625  0.00  0.00     0.039 A 
ATOM     19  C   UNL d   1       4.470  -1.925   1.253  0.00  0.00     0.033 A 
BRANCH  17  20
ATOM     20  O   UNL d   1       7.811  -0.909   2.244  0.00  0.00    -0.356 OA
ATOM     21  C   UNL d   1       8.527   0.278   2.564  0.00  0.00     0.210 C 
ENDBRANCH  17  20
ENDBRANCH   9  14
ENDBRANCH   6   7
ENDBRANCH   5   6
ENDBRANCH   1   5
BRANCH   2  22
ATOM     22  C   UNL d   1       1.093  -4.302  -5.386  0.00  0.00     0.036 A 
ATOM     23  C   UNL d   1       0.282  -5.378  -5.763  0.00  0.00     0.045 A 
ATOM     24  C   UNL d   1       0.167  -5.757  -7.112  0.00  0.00     0.050 A 
ATOM     25  C   UNL d   1       0.938  -5.088  -8.075  0.00  0.00     0.032 A 
ATOM     26  C   UNL d   1       1.761  -4.011  -7.715  0.00  0.00     0.050 A 
ATOM     27  C   UNL d   1       1.816  -3.616  -6.366  0.00  0.00     0.045 A 
BRANCH  24  28
ATOM     28  C   UNL d   1      -0.833  -6.815  -7.520  0.00  0.00     0.417 C 
ATOM     29  F   UNL d   1      -0.906  -6.990  -8.871  0.00  0.00    -0.166 F 
ATOM     30  F   UNL d   1      -0.562  -8.040  -6.999  0.00  0.00    -0.166 F 
ATOM     31  F   UNL d   1      -2.099  -6.503  -7.124  0.00  0.00    -0.166 F 
ENDBRANCH  24  28
BRANCH  26  32
ATOM     32  C   UNL d   1       2.556  -3.261  -8.757  0.00  0.00     0.417 C 
ATOM     33  F   UNL d   1       2.262  -3.632 -10.034  0.00  0.00    -0.166 F 
ATOM     34  F   UNL d   1       2.337  -1.918  -8.700  0.00  0.00    -0.166 F 
ATOM     35  F   UNL d   1       3.898  -3.430  -8.614  0.00  0.00    -0.166 F 
ENDBRANCH  26  32
ENDBRANCH   2  22
TORSDOF 8
