REMARK  4 active torsions:
REMARK  status: ('A' for Active; 'I' for Inactive)
REMARK    1  A    between atoms: C_12  and  N_1 
REMARK    2  A    between atoms: N_5  and  C_2 
REMARK    3  A    between atoms: C_8  and  C_9 
REMARK    4  A    between atoms: O_18  and  C_11 
ROOT
ATOM      1  N   UNL d   1       0.850  -0.721   0.171  0.00  0.00    -0.240 N 
ATOM      2  C   UNL d   1      -0.485  -1.151   0.102  0.00  0.00     0.128 C 
ATOM      3  N   UNL d   1       0.931   0.630   0.336  0.00  0.00    -0.303 N 
ATOM      4  HN  UNL d   1       1.763   1.187   0.531  1.00  0.00     0.186 HD
ATOM      5  C   UNL d   1      -1.235   0.009   0.037  0.00  0.00     0.069 C 
ATOM      6  C   UNL d   1      -0.319   1.059   0.184  0.00  0.00     0.111 C 
ENDROOT
BRANCH   2   7
ATOM      7  N   UNL d   1      -0.846  -2.462   0.223  0.00  0.00    -0.350 N 
ATOM      8  C   UNL d   1      -1.798  -2.888  -0.540  0.00  0.00     0.104 C 
ATOM      9  HN  UNL d   1      -0.383  -3.080   0.889  1.00  0.00     0.166 HD
BRANCH   8  10
ATOM     10  C   UNL d   1      -2.242  -4.295  -0.455  0.00  0.00     0.014 A 
ATOM     11  C   UNL d   1      -1.964  -5.093   0.663  0.00  0.00     0.077 A 
ATOM     12  C   UNL d   1      -2.383  -6.420   0.702  0.00  0.00     0.039 A 
ATOM     13  C   UNL d   1      -3.064  -6.964  -0.388  0.00  0.00     0.022 A 
ATOM     14  C   UNL d   1      -3.333  -6.169  -1.503  0.00  0.00     0.011 A 
ATOM     15  C   UNL d   1      -2.939  -4.831  -1.540  0.00  0.00     0.034 A 
ATOM     16 BR   UNL d   1      -4.224  -6.920  -2.992  0.00  0.00    -0.051 Br
BRANCH  11  17
ATOM     17  O   UNL d   1      -1.287  -4.634   1.759  0.00  0.00    -0.360 OA
ATOM     18  H   UNL d   1      -0.936  -3.742   1.542  0.00  0.00     0.217 HD
ENDBRANCH  11  17
ENDBRANCH   8  10
ENDBRANCH   2   7
BRANCH   1  19
ATOM     19  C   UNL d   1       2.042  -1.491   0.057  0.00  0.00     0.058 A 
ATOM     20  C   UNL d   1       2.064  -2.685  -0.676  0.00  0.00     0.031 A 
ATOM     21  C   UNL d   1       3.259  -3.395  -0.819  0.00  0.00     0.002 A 
ATOM     22  C   UNL d   1       4.425  -2.936  -0.208  0.00  0.00     0.000 A 
ATOM     23  C   UNL d   1       4.407  -1.753   0.530  0.00  0.00     0.002 A 
ATOM     24  C   UNL d   1       3.224  -1.019   0.645  0.00  0.00     0.031 A 
ENDBRANCH   1  19
TORSDOF 4
