REMARK  6 active torsions:
REMARK  status: ('A' for Active; 'I' for Inactive)
REMARK    1  A    between atoms: C_6  and  C_1 
REMARK    2  A    between atoms: N_16  and  C_2 
REMARK       I    between atoms: N_15  and  C_6 
REMARK    3  A    between atoms: N_10  and  N_15 
REMARK    4  A    between atoms: O_24  and  C_12 
REMARK    5  A    between atoms: O_25  and  C_18 
REMARK    6  A    between atoms: C_22  and  C_21 
ROOT
ATOM      1  C   UNL d   1       3.949  -0.064   0.001  0.00  0.00     0.279 C 
ATOM      2  N   UNL d   1       4.582  -1.312  -0.065  0.00  0.00    -0.266 N 
ATOM      3  O   UNL d   1       4.595   0.986   0.057  0.00  0.00    -0.265 OA
ATOM      4  H   UNL d   1       4.040  -2.167  -0.115  0.00  0.00     0.190 HD
ENDROOT
BRANCH   1   5
ATOM      5  C   UNL d   1       2.482  -0.061   0.002  0.00  0.00     0.103 A 
ATOM      6  C   UNL d   1       1.644   1.048   0.048  0.00  0.00     0.062 A 
ATOM      7  C   UNL d   1       0.232   0.722   0.043  0.00  0.00     0.032 A 
ATOM      8  C   UNL d   1      -0.988   1.466   0.079  0.00  0.00    -0.045 A 
ATOM      9  C   UNL d   1       0.099  -0.666  -0.019  0.00  0.00     0.088 A 
ATOM     10  C   UNL d   1      -2.190   0.728   0.038  0.00  0.00     0.032 A 
ATOM     11  C   UNL d   1      -1.146   2.963   0.156  0.00  0.00     0.049 C 
ATOM     12  C   UNL d   1      -2.171  -0.657  -0.030  0.00  0.00     0.006 A 
ATOM     13  N   UNL d   1      -1.043  -1.383  -0.056  0.00  0.00    -0.354 N 
ATOM     14  C   UNL d   1      -3.465  -1.417  -0.078  0.00  0.00     0.068 C 
ATOM     15  HN  UNL d   1      -1.048  -2.402  -0.099  1.00  0.00     0.166 HD
ATOM     16  S   UNL d   1       1.579  -1.505  -0.051  0.00  0.00    -0.064 SA
BRANCH   6  17
ATOM     17  N   UNL d   1       2.155   2.299   0.086  0.00  0.00    -0.397 N 
ATOM     18  H   UNL d   1       3.171   2.439   0.126  0.00  0.00     0.156 HD
ATOM     19  H   UNL d   1       1.632   3.149   0.227  0.00  0.00     0.156 HD
ENDBRANCH   6  17
ENDBRANCH   1   5
BRANCH   2  20
ATOM     20  N   UNL d   1       5.947  -1.349  -0.100  0.00  0.00    -0.308 N 
ATOM     21  C   UNL d   1       6.542  -2.497  -0.157  0.00  0.00     0.118 C 
ATOM     22  HN  UNL d   1       6.489  -0.485  -0.083  1.00  0.00     0.186 HD
BRANCH  21  23
ATOM     23  C   UNL d   1       8.027  -2.553  -0.218  0.00  0.00    -0.017 A 
ATOM     24  C   UNL d   1       8.696  -3.783  -0.303  0.00  0.00     0.052 A 
ATOM     25  C   UNL d   1      10.096  -3.810  -0.384  0.00  0.00     0.102 A 
ATOM     26  C   UNL d   1      10.806  -2.597  -0.371  0.00  0.00     0.099 A 
ATOM     27  C   UNL d   1      10.146  -1.375  -0.280  0.00  0.00     0.040 A 
ATOM     28  C   UNL d   1       8.755  -1.355  -0.204  0.00  0.00     0.016 A 
BRANCH  25  29
ATOM     29  O   UNL d   1      10.867  -4.939  -0.482  0.00  0.00    -0.353 OA
ATOM     30  C   UNL d   1      10.214  -6.197  -0.503  0.00  0.00     0.210 C 
ENDBRANCH  25  29
BRANCH  26  31
ATOM     31  O   UNL d   1      12.174  -2.620  -0.452  0.00  0.00    -0.358 OA
ATOM     32  H   UNL d   1      12.510  -1.710  -0.433  0.00  0.00     0.217 HD
ENDBRANCH  26  31
ENDBRANCH  21  23
ENDBRANCH   2  20
TORSDOF 6
