REMARK  5 active torsions:
REMARK  status: ('A' for Active; 'I' for Inactive)
REMARK    1  A    between atoms: C_13  and  N_3 
REMARK    2  A    between atoms: N_9  and  C_15 
REMARK    3  A    between atoms: C_14  and  C_13 
REMARK       I    between atoms: N_21  and  C_14 
REMARK    4  A    between atoms: N_16  and  N_21 
REMARK    5  A    between atoms: C_28  and  C_26 
ROOT
ATOM      1  C   UNL d   1      -0.427  -2.846   0.043  0.00  0.00     0.252 C 
ENDROOT
BRANCH   1   2
ATOM      2  N   UNL d   1      -0.163  -1.495   0.562  0.00  0.00    -0.175 N 
ATOM      3  C   UNL d   1      -0.865  -1.124   1.675  0.00  0.00     0.710 A 
ATOM      4  N   UNL d   1      -0.887   0.210   2.051  0.00  0.00    -0.046 N 
ATOM      5  N   UNL d   1      -1.589  -1.838   2.508  0.00  0.00    -0.184 N 
ATOM      6  C   UNL d   1      -0.236   1.252   1.376  0.00  0.00     0.290 A 
ATOM      7  N   UNL d   1      -1.634   0.360   3.174  0.00  0.00    -0.272 N 
ATOM      8  C   UNL d   1       0.568   0.773   0.235  0.00  0.00     0.036 A 
ATOM      9  O   UNL d   1      -0.322   2.419   1.729  0.00  0.00    -0.265 OA
ATOM     10  C   UNL d   1       0.581  -0.525  -0.095  0.00  0.00     0.041 A 
ATOM     11  C   UNL d   1       1.423   1.624  -0.624  0.00  0.00     0.047 C 
ATOM     12  C   UNL d   1       1.539  -0.773  -1.218  0.00  0.00     0.059 C 
ATOM     13  C   UNL d   1       2.250   0.581  -1.383  0.00  0.00     0.011 C 
ATOM     14  C   UNL d   1      -2.021  -0.897   3.405  0.00  0.00     0.216 A 
ATOM     15  HN  UNL d   1      -1.844   1.208   3.701  1.00  0.00     0.189 HD
ATOM     16  HN  UNL d   1      -1.781  -2.839   2.490  1.00  0.00     0.185 HD
ENDBRANCH   1   2
BRANCH   1  17
ATOM     17  C   UNL d   1      -1.862  -2.971  -0.498  0.00  0.00     0.254 C 
ATOM     18  N   UNL d   1      -2.738  -3.576   0.403  0.00  0.00    -0.269 N 
ATOM     19  H   UNL d   1      -2.503  -3.452   1.393  0.00  0.00     0.190 HD
ATOM     20  O   UNL d   1      -2.158  -2.560  -1.625  0.00  0.00    -0.270 OA
BRANCH  18  21
ATOM     21  N   UNL d   1      -4.078  -3.829   0.195  0.00  0.00    -0.308 N 
ATOM     22  C   UNL d   1      -4.480  -4.078  -1.011  0.00  0.00     0.118 C 
ATOM     23  HN  UNL d   1      -4.738  -3.820   0.973  1.00  0.00     0.186 HD
BRANCH  22  24
ATOM     24  C   UNL d   1      -5.902  -4.327  -1.332  0.00  0.00    -0.019 A 
ATOM     25  C   UNL d   1      -6.857  -4.529  -0.328  0.00  0.00     0.015 A 
ATOM     26  C   UNL d   1      -8.198  -4.739  -0.671  0.00  0.00     0.037 A 
ATOM     27  C   UNL d   1      -8.578  -4.738  -2.021  0.00  0.00     0.102 A 
ATOM     28  C   UNL d   1      -7.620  -4.553  -3.028  0.00  0.00     0.037 A 
ATOM     29  C   UNL d   1      -6.281  -4.351  -2.680  0.00  0.00     0.015 A 
BRANCH  27  30
ATOM     30  N   UNL d   1      -9.990  -4.916  -2.386  0.00  0.00    -0.116 N 
ATOM     31  O   UNL d   1     -10.811  -5.047  -1.468  0.00  0.00    -0.532 OA
ATOM     32  O   UNL d   1     -10.277  -4.920  -3.592  0.00  0.00    -0.532 OA
ENDBRANCH  27  30
ENDBRANCH  22  24
ENDBRANCH  18  21
ENDBRANCH   1  17
TORSDOF 5
