REMARK  4 active torsions:
REMARK  status: ('A' for Active; 'I' for Inactive)
REMARK    1  A    between atoms: C_2  and  C_1 
REMARK       I    between atoms: N_5  and  C_1 
REMARK    2  A    between atoms: C_3  and  C_4 
REMARK    3  A    between atoms: C_6  and  N_5 
REMARK    4  A    between atoms: C_20  and  N_5 
ROOT
ATOM      1  C   UNL d   1       1.093  -0.035  -0.086  0.00  0.00     0.260 C 
ATOM      2  N   UNL d   1       0.498   0.293  -1.311  0.00  0.00    -0.314 N 
ATOM      3  O   UNL d   1       0.455  -0.126   0.961  0.00  0.00    -0.267 OA
ENDROOT
BRANCH   1   4
ATOM      4  C   UNL d   1       2.563  -0.228   0.019  0.00  0.00     0.062 A 
ATOM      5  C   UNL d   1       3.120  -1.246   0.809  0.00  0.00     0.066 A 
ATOM      6  C   UNL d   1       4.520  -1.347   0.876  0.00  0.00     0.034 A 
ATOM      7  C   UNL d   1       5.299  -0.445   0.172  0.00  0.00     0.088 A 
ATOM      8  N   UNL d   1       4.785   0.561  -0.559  0.00  0.00    -0.374 N 
ATOM      9  C   UNL d   1       3.434   0.659  -0.603  0.00  0.00     0.105 A 
ATOM     10  HN  UNL d   1       5.385   1.220  -1.056  1.00  0.00     0.164 HD
BRANCH   5  11
ATOM     11  C   UNL d   1       2.268  -2.204   1.600  0.00  0.00     0.418 C 
ATOM     12  F   UNL d   1       1.211  -2.700   0.903  0.00  0.00    -0.166 F 
ATOM     13  F   UNL d   1       2.975  -3.310   1.988  0.00  0.00    -0.166 F 
ATOM     14  F   UNL d   1       1.788  -1.673   2.755  0.00  0.00    -0.166 F 
ENDBRANCH   5  11
ENDBRANCH   1   4
BRANCH   2  15
ATOM     15  C   UNL d   1       1.128   0.154  -2.573  0.00  0.00     0.037 A 
ATOM     16  C   UNL d   1       1.692  -1.062  -2.973  0.00  0.00     0.031 A 
ATOM     17  C   UNL d   1       2.349  -1.152  -4.203  0.00  0.00     0.026 A 
ATOM     18  C   UNL d   1       2.459  -0.024  -5.017  0.00  0.00     0.034 A 
ATOM     19  C   UNL d   1       1.892   1.187  -4.627  0.00  0.00     0.026 A 
ATOM     20 CL   UNL d   1       3.304  -0.126  -6.511  0.00  0.00    -0.084 Cl
ATOM     21  C   UNL d   1       1.207   1.271  -3.414  0.00  0.00     0.031 A 
ENDBRANCH   2  15
BRANCH   2  22
ATOM     22  C   UNL d   1      -0.960   0.479  -1.336  0.00  0.00     0.128 C 
ATOM     23  C   UNL d   1      -1.703  -0.845  -1.480  0.00  0.00     0.027 C 
ENDBRANCH   2  22
TORSDOF 4
