REMARK  6 active torsions:
REMARK  status: ('A' for Active; 'I' for Inactive)
REMARK    1  A    between atoms: C_13  and  C_3 
REMARK    2  A    between atoms: C_4  and  C_6 
REMARK    3  A    between atoms: C_6  and  N_10 
REMARK    4  A    between atoms: O_11  and  N_8 
REMARK    5  A    between atoms: N_10  and  C_12 
REMARK    6  A    between atoms: C_12  and  C_13 
ROOT
ATOM      1  C   UNL d   1       0.859  -8.146  -2.453  0.00  0.00     0.275 C 
ENDROOT
BRANCH   1   2
ATOM      2  N   UNL d   1      -0.178  -7.112  -2.633  0.00  0.00     0.098 N 
ATOM      3  H   UNL d   1      -0.587  -7.236  -3.565  0.00  0.00     0.317 HD
BRANCH   2   4
ATOM      4  C   UNL d   1       0.320  -5.715  -2.522  0.00  0.00     0.190 C 
ATOM      5  C   UNL d   1       0.905  -5.424  -1.129  0.00  0.00     0.055 C 
ATOM      6  C   UNL d   1       1.395  -5.420  -3.591  0.00  0.00     0.055 C 
BRANCH   4   7
ATOM      7  C   UNL d   1      -0.896  -4.753  -2.733  0.00  0.00     0.043 C 
ATOM      8  N   UNL d   1      -0.837  -3.852  -3.674  0.00  0.00    -0.275 N 
ATOM      9  HN  UNL d   1      -0.054  -3.751  -4.319  1.00  0.00     0.193 HD
ATOM     10  C   UNL d   1      -2.088  -4.867  -1.799  0.00  0.00     0.068 C 
BRANCH   8  11
ATOM     11  O   UNL d   1      -1.975  -3.037  -3.693  0.00  0.00    -0.290 OA
ATOM     12  H   UNL d   1      -1.773  -2.415  -4.416  0.00  0.00     0.244 HD
ENDBRANCH   8  11
ENDBRANCH   4   7
ENDBRANCH   2   4
ENDBRANCH   1   2
BRANCH   1  13
ATOM     13  C   UNL d   1       0.359  -9.587  -2.654  0.00  0.00     0.071 C 
BRANCH  13  14
ATOM     14  C   UNL d   1      -0.073  -9.882  -4.057  0.00  0.00    -0.029 A 
ATOM     15  C   UNL d   1       0.736 -10.256  -5.112  0.00  0.00     0.096 A 
ATOM     16  N   UNL d   1      -0.054 -10.426  -6.218  0.00  0.00    -0.365 N 
ATOM     17  C   UNL d   1      -1.368 -10.168  -5.909  0.00  0.00     0.042 A 
ATOM     18  H   UNL d   1       0.275 -10.698  -7.134  0.00  0.00     0.165 HD
ATOM     19  C   UNL d   1      -1.413  -9.831  -4.556  0.00  0.00    -0.002 A 
ATOM     20  C   UNL d   1      -2.513 -10.209  -6.714  0.00  0.00     0.030 A 
ATOM     21  C   UNL d   1      -2.658  -9.519  -3.978  0.00  0.00     0.014 A 
ATOM     22  C   UNL d   1      -3.812  -9.554  -4.768  0.00  0.00     0.001 A 
ATOM     23  C   UNL d   1      -3.735  -9.892  -6.117  0.00  0.00     0.002 A 
ENDBRANCH  13  14
ENDBRANCH   1  13
TORSDOF 6
