REMARK  4 active torsions:
REMARK  status: ('A' for Active; 'I' for Inactive)
REMARK       I    between atoms: N_2  and  C_1 
REMARK    1  A    between atoms: C_3  and  C_1 
REMARK    2  A    between atoms: C_8  and  N_2 
REMARK    3  A    between atoms: C_4  and  C_8 
REMARK    4  A    between atoms: O_9  and  C_4 
ROOT
ATOM      1  C   UNL d   1       2.418  -0.129  -0.013  0.00  0.00     0.252 C 
ATOM      2  N   UNL d   1       3.065  -1.346  -0.011  0.00  0.00    -0.347 N 
ATOM      3  O   UNL d   1       3.050   0.924  -0.026  0.00  0.00    -0.268 OA
ATOM      4  H   UNL d   1       2.575  -2.233  -0.000  0.00  0.00     0.163 HD
ENDROOT
BRANCH   1   5
ATOM      5  C   UNL d   1       0.920  -0.108  -0.003  0.00  0.00     0.032 A 
ATOM      6  C   UNL d   1       0.285   1.148  -0.002  0.00  0.00     0.023 A 
ATOM      7  C   UNL d   1      -1.113   1.257   0.004  0.00  0.00    -0.061 A 
ATOM      8  C   UNL d   1      -1.790   2.597   0.006  0.00  0.00     0.048 C 
ATOM      9  C   UNL d   1      -1.882   0.090   0.008  0.00  0.00     0.007 A 
ATOM     10  C   UNL d   1      -1.265  -1.161   0.009  0.00  0.00     0.002 A 
ATOM     11  C   UNL d   1       0.130  -1.263   0.004  0.00  0.00     0.017 A 
ENDBRANCH   1   5
BRANCH   2  12
ATOM     12  C   UNL d   1       4.516  -1.395  -0.028  0.00  0.00     0.232 C 
BRANCH  12  13
ATOM     13  C   UNL d   1       5.039  -2.824  -0.021  0.00  0.00     0.158 C 
ATOM     14  O   UNL d   1       4.326  -3.819  -0.005  0.00  0.00    -0.649 OA
BRANCH  13  15
ATOM     15  O   UNL d   1       6.392  -2.897  -0.037  0.00  0.00    -0.775 OA
ATOM     16  H   UNL d   1       6.839  -2.028  -0.050  0.00  0.00     0.167 HD
ENDBRANCH  13  15
ENDBRANCH  12  13
ENDBRANCH   2  12
TORSDOF 4
