REMARK  8 active torsions:
REMARK  status: ('A' for Active; 'I' for Inactive)
REMARK    1  A    between atoms: O_14  and  C_2 
REMARK       I    between atoms: C_3  and  N_4 
REMARK    2  A    between atoms: C_16  and  C_3 
REMARK    3  A    between atoms: N_4  and  C_5 
REMARK    4  A    between atoms: C_6  and  C_17 
REMARK    5  A    between atoms: O_13  and  C_6 
REMARK    6  A    between atoms: O_15  and  C_7 
REMARK    7  A    between atoms: O_12  and  C_16 
REMARK    8  A    between atoms: C_17  and  O_12 
ROOT
ATOM      1  C   UNL d   1       3.270   1.991  -0.668  0.00  0.00     0.245 C 
ATOM      2  N   UNL d   1       1.937   2.071  -0.291  0.00  0.00    -0.325 N 
ATOM      3  O   UNL d   1       3.871   0.975  -1.017  0.00  0.00    -0.271 OA
ATOM      4  H   UNL d   1       1.542   2.999  -0.206  0.00  0.00     0.169 HD
ENDROOT
BRANCH   2   5
ATOM      5  C   UNL d   1       1.053   0.983  -0.148  0.00  0.00     0.037 A 
ATOM      6  C   UNL d   1       1.497  -0.337  -0.054  0.00  0.00     0.069 A 
ATOM      7  C   UNL d   1       0.603  -1.416   0.025  0.00  0.00     0.103 A 
ATOM      8  C   UNL d   1      -0.774  -1.157   0.064  0.00  0.00     0.101 A 
ATOM      9  C   UNL d   1      -1.216   0.175   0.016  0.00  0.00     0.042 A 
ATOM     10  C   UNL d   1      -0.315   1.238  -0.085  0.00  0.00     0.032 A 
BRANCH   7  11
ATOM     11  O   UNL d   1       1.057  -2.706   0.119  0.00  0.00    -0.353 OA
ATOM     12  C   UNL d   1       2.303  -2.979  -0.520  0.00  0.00     0.210 C 
ENDBRANCH   7  11
BRANCH   8  13
ATOM     13  O   UNL d   1      -1.810  -2.050   0.141  0.00  0.00    -0.353 OA
ATOM     14  C   UNL d   1      -1.512  -3.438   0.091  0.00  0.00     0.210 C 
ENDBRANCH   8  13
ENDBRANCH   2   5
BRANCH   1  15
ATOM     15  C   UNL d   1       3.969   3.345  -0.702  0.00  0.00     0.271 C 
BRANCH  15  16
ATOM     16  O   UNL d   1       3.844   4.038   0.542  0.00  0.00    -0.372 OA
BRANCH  16  17
ATOM     17  C   UNL d   1       4.750   5.146   0.601  0.00  0.00     0.277 C 
BRANCH  17  18
ATOM     18  C   UNL d   1       4.174   6.325  -0.166  0.00  0.00     0.164 C 
ATOM     19  O   UNL d   1       4.803   7.038  -0.929  0.00  0.00    -0.648 OA
BRANCH  18  20
ATOM     20  O   UNL d   1       2.850   6.489   0.088  0.00  0.00    -0.775 OA
ATOM     21  H   UNL d   1       2.540   5.800   0.715  0.00  0.00     0.167 HD
ENDBRANCH  18  20
ENDBRANCH  17  18
ENDBRANCH  16  17
ENDBRANCH  15  16
ENDBRANCH   1  15
TORSDOF 8
