REMARK  8 active torsions:
REMARK  status: ('A' for Active; 'I' for Inactive)
REMARK    1  A    between atoms: C_11  and  N_1 
REMARK    2  A    between atoms: S_10  and  C_2 
REMARK    3  A    between atoms: C_15  and  C_3 
REMARK    4  A    between atoms: C_18  and  S_10 
REMARK    5  A    between atoms: C_12  and  O_16 
REMARK    6  A    between atoms: C_13  and  C_18 
REMARK    7  A    between atoms: C_14  and  C_13 
REMARK    8  A    between atoms: O_16  and  C_15 
ROOT
ATOM      1  N   UNL d   1      -0.324  -1.313  -0.094  0.00  0.00    -0.277 N 
ATOM      2  C   UNL d   1       0.918  -0.688  -0.158  0.00  0.00     0.168 A 
ATOM      3  C   UNL d   1      -1.222  -0.244  -0.050  0.00  0.00     0.129 A 
ATOM      4  N   UNL d   1       0.786   0.614  -0.087  0.00  0.00    -0.278 N 
ATOM      5  HN  UNL d   1       1.544   1.296  -0.088  1.00  0.00     0.189 HD
ATOM      6  N   UNL d   1      -0.546   0.892  -0.011  0.00  0.00    -0.285 N 
ATOM      7  HN  UNL d   1      -0.954   1.824   0.064  1.00  0.00     0.188 HD
ENDROOT
BRANCH   3   8
ATOM      8  C   UNL d   1      -2.708  -0.312   0.091  0.00  0.00     0.254 C 
BRANCH   8   9
ATOM      9  O   UNL d   1      -3.258   0.161  -1.142  0.00  0.00    -0.343 OA
BRANCH   9  10
ATOM     10  C   UNL d   1      -4.615   0.324  -1.204  0.00  0.00     0.076 A 
ATOM     11  C   UNL d   1      -5.114   1.008  -2.311  0.00  0.00    -0.018 A 
ATOM     12  C   UNL d   1      -6.490   1.182  -2.505  0.00  0.00    -0.043 A 
ATOM     13  C   UNL d   1      -4.325   1.649  -3.408  0.00  0.00     0.042 A 
ATOM     14  C   UNL d   1      -6.782   1.931  -3.766  0.00  0.00     0.040 A 
ATOM     15  C   UNL d   1      -7.414   0.681  -1.593  0.00  0.00    -0.055 A 
ATOM     16  C   UNL d   1      -5.394   2.237  -4.340  0.00  0.00     0.009 A 
ATOM     17  C   UNL d   1      -6.918   0.014  -0.468  0.00  0.00     0.010 A 
ATOM     18  C   UNL d   1      -8.890   0.847  -1.804  0.00  0.00     0.049 C 
ATOM     19  C   UNL d   1      -5.535  -0.163  -0.274  0.00  0.00     0.038 A 
ENDBRANCH   9  10
ENDBRANCH   8   9
ENDBRANCH   3   8
BRANCH   1  20
ATOM     20  C   UNL d   1      -0.595  -2.715  -0.098  0.00  0.00     0.043 A 
ATOM     21  C   UNL d   1       0.262  -3.601   0.577  0.00  0.00     0.030 A 
ATOM     22  C   UNL d   1       0.066  -4.981   0.500  0.00  0.00     0.002 A 
ATOM     23  C   UNL d   1      -1.006  -5.491  -0.224  0.00  0.00     0.000 A 
ATOM     24  C   UNL d   1      -1.885  -4.619  -0.866  0.00  0.00     0.002 A 
ATOM     25  C   UNL d   1      -1.682  -3.235  -0.810  0.00  0.00     0.030 A 
ENDBRANCH   1  20
BRANCH   2  26
ATOM     26  S   UNL d   1       2.425  -1.486  -0.485  0.00  0.00    -0.084 SA
BRANCH  26  27
ATOM     27  C   UNL d   1       3.425  -0.126  -1.145  0.00  0.00     0.166 C 
BRANCH  27  28
ATOM     28  C   UNL d   1       4.816  -0.608  -1.535  0.00  0.00     0.169 C 
ATOM     29  O   UNL d   1       5.263  -1.716  -1.249  0.00  0.00    -0.291 OA
BRANCH  28  30
ATOM     30  C   UNL d   1       5.700   0.325  -2.301  0.00  0.00     0.012 A 
ATOM     31  C   UNL d   1       5.346   1.652  -2.563  0.00  0.00     0.039 A 
ATOM     32  C   UNL d   1       6.217   2.467  -3.290  0.00  0.00     0.035 A 
ATOM     33 CL   UNL d   1       5.777   4.098  -3.620  0.00  0.00    -0.084 Cl
ATOM     34  C   UNL d   1       7.436   1.977  -3.754  0.00  0.00     0.024 A 
ATOM     35  C   UNL d   1       7.799   0.659  -3.488  0.00  0.00     0.003 A 
ATOM     36  C   UNL d   1       6.934  -0.163  -2.764  0.00  0.00     0.015 A 
ENDBRANCH  28  30
ENDBRANCH  27  28
ENDBRANCH  26  27
ENDBRANCH   2  26
TORSDOF 8
