REMARK  13 active torsions:
REMARK  status: ('A' for Active; 'I' for Inactive)
REMARK    1  A    between atoms: C_7  and  N_1 
REMARK    2  A    between atoms: N_2  and  C_6 
REMARK    3  A    between atoms: C_12  and  N_8 
REMARK    4  A    between atoms: N_13  and  C_10 
REMARK       I    between atoms: C_21  and  N_13 
REMARK    5  A    between atoms: N_24  and  C_20 
REMARK    6  A    between atoms: C_31  and  N_24 
REMARK    7  A    between atoms: C_32  and  N_24 
REMARK    8  A    between atoms: O_28  and  C_34 
REMARK    9  A    between atoms: C_36  and  O_28 
REMARK   10  A    between atoms: O_29  and  C_33 
REMARK   11  A    between atoms: C_35  and  O_29 
REMARK   12  A    between atoms: C_33  and  C_31 
REMARK   13  A    between atoms: C_34  and  C_35 
ROOT
ATOM      1  C   UNL d   1       1.474   4.188   4.653  0.00  0.00     0.076 C 
ATOM      2  C   UNL d   1       0.827   1.880   4.366  0.00  0.00     0.076 C 
ATOM      3  C   UNL d   1       0.527   3.254   4.184  0.00  0.00     0.089 C 
ATOM      4  C   UNL d   1       2.748   2.455   5.755  0.00  0.00     0.105 C 
ATOM      5  C   UNL d   1       0.056   0.822   3.736  0.00  0.00     0.102 C 
ATOM      6  C   UNL d   1       1.401   5.576   4.323  0.00  0.00     0.102 C 
ATOM      7  C   UNL d   1       2.543   3.801   5.476  0.00  0.00     0.061 C 
ATOM      8  C   UNL d   1       1.911   1.488   5.174  0.00  0.00     0.061 C 
ATOM      9  N   UNL d   1      -0.476  -0.072   3.251  0.00  0.00    -0.191 NA
ATOM     10  N   UNL d   1       1.357   6.704   4.067  0.00  0.00    -0.191 NA
ENDROOT
BRANCH   3  11
ATOM     11  N   UNL d   1      -0.671   3.592   3.521  0.00  0.00    -0.297 N 
ATOM     12  N   UNL d   1      -1.383   4.593   3.757  0.00  0.00    -0.298 N 
ATOM     13  HN  UNL d   1      -1.961   4.902   2.975  1.00  0.00     0.187 HD
ATOM     14  HN  UNL d   1      -0.985   2.964   2.781  1.00  0.00     0.187 HD
BRANCH  12  15
ATOM     15  C   UNL d   1      -1.516   5.367   4.940  0.00  0.00     0.074 C 
ATOM     16  C   UNL d   1      -1.411   4.958   6.285  0.00  0.00     0.065 C 
ATOM     17  C   UNL d   1      -1.887   5.802   7.323  0.00  0.00     0.061 C 
ATOM     18  C   UNL d   1      -2.574   6.993   7.051  0.00  0.00     0.032 C 
ATOM     19  C   UNL d   1      -2.425   7.498   5.757  0.00  0.00     0.032 C 
ATOM     20  C   UNL d   1      -1.903   6.708   4.725  0.00  0.00     0.035 C 
BRANCH  16  21
ATOM     21  N   UNL d   1      -1.034   3.642   6.668  0.00  0.00    -0.325 N 
ATOM     22  C   UNL d   1       0.038   3.383   7.513  0.00  0.00     0.218 C 
ATOM     23  O   UNL d   1       0.831   4.232   7.915  0.00  0.00    -0.274 OA
ATOM     24  C   UNL d   1       0.260   1.916   7.829  0.00  0.00     0.117 C 
ATOM     25  H   UNL d   1      -1.428   2.895   6.111  0.00  0.00     0.169 HD
ENDBRANCH  16  21
BRANCH  18  26
ATOM     26  N   UNL d   1      -3.423   7.641   7.950  0.00  0.00    -0.379 N 
BRANCH  26  27
ATOM     27  C   UNL d   1      -3.304   7.514   9.414  0.00  0.00     0.149 C 
BRANCH  27  28
ATOM     28  C   UNL d   1      -1.982   7.995  10.003  0.00  0.00     0.187 C 
BRANCH  28  29
ATOM     29  O   UNL d   1      -1.717   9.390   9.818  0.00  0.00    -0.387 OA
BRANCH  29  30
ATOM     30  C   UNL d   1      -0.455   9.677  10.429  0.00  0.00     0.193 C 
BRANCH  30  31
ATOM     31  C   UNL d   1      -0.051  11.121  10.225  0.00  0.00     0.193 C 
BRANCH  31  32
ATOM     32  O   UNL d   1       1.200  11.330  10.884  0.00  0.00    -0.389 OA
BRANCH  32  33
ATOM     33  C   UNL d   1       1.639  12.673  10.722  0.00  0.00     0.163 C 
ATOM     34  C   UNL d   1       2.968  12.839  11.428  0.00  0.00     0.033 C 
ENDBRANCH  32  33
ENDBRANCH  31  32
ENDBRANCH  30  31
ENDBRANCH  29  30
ENDBRANCH  28  29
ENDBRANCH  27  28
ENDBRANCH  26  27
BRANCH  26  35
ATOM     35  C   UNL d   1      -4.824   7.847   7.488  0.00  0.00     0.118 C 
ATOM     36  C   UNL d   1      -5.767   6.686   7.821  0.00  0.00     0.026 C 
ENDBRANCH  26  35
ENDBRANCH  18  26
ENDBRANCH  12  15
ENDBRANCH   3  11
BRANCH   4  37
ATOM     37  N   UNL d   1       3.751   2.073   6.764  0.00  0.00    -0.116 N 
ATOM     38  O   UNL d   1       4.547   2.941   7.143  0.00  0.00    -0.532 OA
ATOM     39  O   UNL d   1       3.717   0.908   7.184  0.00  0.00    -0.532 OA
ENDBRANCH   4  37
TORSDOF 13
