REMARK  2 active torsions:
REMARK  status: ('A' for Active; 'I' for Inactive)
REMARK    1  A    between atoms: C_2  and  N_1 
REMARK    2  A    between atoms: C_4  and  C_3 
ROOT
ATOM      1  C   UNL d   1       0.273  -1.163  -0.474  0.00  0.00     0.078 C 
ATOM      2  C   UNL d   1      -1.075  -1.142  -0.488  0.00  0.00     0.050 C 
ATOM      3  C   UNL d   1       1.193  -0.052  -0.075  0.00  0.00     0.075 C 
ENDROOT
BRANCH   2   4
ATOM      4  C   UNL d   1      -1.799   0.025  -0.126  0.00  0.00     0.006 A 
ATOM      5  S   UNL d   1      -2.253   0.295   1.510  0.00  0.00    -0.102 SA
ATOM      6  C   UNL d   1      -3.013   1.777   1.129  0.00  0.00     0.050 A 
ATOM      7  C   UNL d   1      -2.957   2.055  -0.218  0.00  0.00     0.008 A 
ATOM      8  C   UNL d   1      -2.267   1.039  -0.942  0.00  0.00     0.019 A 
ENDBRANCH   2   4
BRANCH   1   9
ATOM      9  N   UNL d   1       0.915  -2.410  -0.904  0.00  0.00    -0.120 N 
ATOM     10  O   UNL d   1       0.195  -3.371  -1.205  0.00  0.00    -0.532 OA
ATOM     11  O   UNL d   1       2.153  -2.432  -0.952  0.00  0.00    -0.532 OA
ENDBRANCH   1   9
TORSDOF 2
