REMARK  6 active torsions:
REMARK  status: ('A' for Active; 'I' for Inactive)
REMARK    1  A    between atoms: C_2  and  S_1 
REMARK    2  A    between atoms: N_4  and  S_1 
REMARK    3  A    between atoms: C_15  and  N_4 
REMARK    4  A    between atoms: N_9  and  C_8 
REMARK    5  A    between atoms: C_18  and  C_15 
REMARK    6  A    between atoms: C_19  and  C_18 
ROOT
ATOM      1  C   UNL d   1       0.574   1.673   0.395  0.00  0.00     0.085 A 
ATOM      2  C   UNL d   1      -0.161   2.011   1.580  0.00  0.00    -0.001 A 
ATOM      3  C   UNL d   1      -0.467   3.392   1.811  0.00  0.00    -0.003 A 
ATOM      4  C   UNL d   1      -1.194   3.789   2.975  0.00  0.00     0.017 A 
ATOM      5  C   UNL d   1       1.014   2.678  -0.483  0.00  0.00     0.026 A 
ATOM      6  C   UNL d   1      -0.592   1.100   2.579  0.00  0.00     0.014 A 
ATOM      7  C   UNL d   1      -0.025   4.352   0.873  0.00  0.00     0.014 A 
ATOM      8  C   UNL d   1       0.701   4.006  -0.259  0.00  0.00     0.002 A 
ATOM      9  C   UNL d   1      -1.241   1.504   3.745  0.00  0.00     0.003 A 
ATOM     10  C   UNL d   1      -1.516   2.842   3.951  0.00  0.00     0.024 A 
ENDROOT
BRANCH   1  11
ATOM     11  S   UNL d   1       1.130   0.009  -0.029  0.00  0.00     0.244 S 
ATOM     12  O   UNL d   1       0.679  -0.942   0.961  0.00  0.00    -0.206 OA
ATOM     13  O   UNL d   1       2.542   0.111  -0.348  0.00  0.00    -0.206 OA
BRANCH  11  14
ATOM     14  N   UNL d   1       0.277  -0.336  -1.500  0.00  0.00    -0.211 NA
ATOM     15  C   UNL d   1      -0.370  -1.671  -1.506  0.00  0.00     0.129 C 
BRANCH  14  16
ATOM     16  C   UNL d   1       1.046  -0.029  -2.748  0.00  0.00     0.107 C 
BRANCH  16  17
ATOM     17  C   UNL d   1       0.259  -0.277  -4.035  0.00  0.00     0.015 C 
BRANCH  17  18
ATOM     18  C   UNL d   1      -1.052   0.507  -4.107  0.00  0.00    -0.003 C 
ATOM     19  C   UNL d   1      -1.828   0.135  -5.360  0.00  0.00     0.005 C 
ENDBRANCH  17  18
ENDBRANCH  16  17
ENDBRANCH  14  16
ENDBRANCH  11  14
ENDBRANCH   1  11
BRANCH   4  20
ATOM     20  N   UNL d   1      -1.421   5.146   3.303  0.00  0.00    -0.302 NA
ATOM     21  H   UNL d   1      -1.581   5.739   2.496  0.00  0.00     0.124 HD
ATOM     22  H   UNL d   1      -2.151   5.271   3.998  0.00  0.00     0.124 HD
ENDBRANCH   4  20
TORSDOF 6
