REMARK  5 active torsions:
REMARK  status: ('A' for Active; 'I' for Inactive)
REMARK    1  A    between atoms: C_2  and  C_4 
REMARK    2  A    between atoms: C_3  and  C_2 
REMARK       I    between atoms: N_8  and  C_3 
REMARK    3  A    between atoms: C_5  and  C_7 
REMARK    4  A    between atoms: O_15  and  C_5 
REMARK    5  A    between atoms: C_12  and  N_8 
ROOT
ATOM      1  C   UNL d   1       2.532  -2.567   0.626  0.00  0.00     0.224 C 
ATOM      2  N   UNL d   1       2.872  -1.492  -0.175  0.00  0.00    -0.327 N 
ATOM      3  O   UNL d   1       3.323  -3.305   1.204  0.00  0.00    -0.273 OA
ATOM      4  H   UNL d   1       2.120  -0.837  -0.392  0.00  0.00     0.169 HD
ENDROOT
BRANCH   1   5
ATOM      5  C   UNL d   1       1.040  -2.777   0.771  0.00  0.00     0.148 C 
BRANCH   5   6
ATOM      6  C   UNL d   1       0.396  -1.971   1.901  0.00  0.00     0.320 C 
ATOM      7  C   UNL d   1       0.445  -0.453   1.630  0.00  0.00     0.251 C 
ATOM      8  N   UNL d   1       0.120   0.368   2.682  0.00  0.00    -0.358 N 
ATOM      9  O   UNL d   1       0.667   0.024   0.518  0.00  0.00    -0.271 OA
ATOM     10  C   UNL d   1       0.280  -0.049   4.063  0.00  0.00     0.152 C 
ATOM     11  H   UNL d   1       0.171   1.357   2.470  0.00  0.00     0.162 HD
ATOM     12  C   UNL d   1       0.193  -1.567   4.269  0.00  0.00     0.290 C 
ATOM     13  N   UNL d   1       0.929  -2.313   3.242  0.00  0.00     0.099 N 
ATOM     14  H   UNL d   1       1.923  -2.082   3.280  0.00  0.00     0.317 HD
ENDBRANCH   5   6
ENDBRANCH   1   5
BRANCH   2  15
ATOM     15  C   UNL d   1       4.169  -1.113  -0.586  0.00  0.00     0.035 A 
ATOM     16  C   UNL d   1       5.305  -1.909  -0.410  0.00  0.00     0.047 A 
ATOM     17  C   UNL d   1       6.567  -1.451  -0.819  0.00  0.00     0.041 A 
ATOM     18  C   UNL d   1       6.685  -0.198  -1.436  0.00  0.00     0.018 A 
ATOM     19  C   UNL d   1       5.554   0.590  -1.634  0.00  0.00     0.003 A 
ATOM     20  C   UNL d   1       4.302   0.133  -1.212  0.00  0.00     0.029 A 
BRANCH  17  21
ATOM     21  C   UNL d   1       7.810  -2.241  -0.601  0.00  0.00     0.293 C 
ATOM     22  O   UNL d   1       8.884  -1.962  -1.111  0.00  0.00    -0.259 OA
BRANCH  21  23
ATOM     23  O   UNL d   1       7.580  -3.250   0.274  0.00  0.00    -0.323 OA
ATOM     24  C   UNL d   1       8.738  -3.990   0.666  0.00  0.00     0.213 C 
ENDBRANCH  21  23
ENDBRANCH  17  21
ENDBRANCH   2  15
TORSDOF 5
