REMARK  4 active torsions:
REMARK  status: ('A' for Active; 'I' for Inactive)
REMARK    1  A    between atoms: N_15  and  C_3 
REMARK    2  A    between atoms: C_19  and  C_9 
REMARK    3  A    between atoms: C_14  and  C_20 
REMARK    4  A    between atoms: N_16  and  N_15 
ROOT
ATOM      1  N   UNL d   1       0.184  -0.817   0.122  0.00  0.00    -0.067 N 
ATOM      2  C   UNL d   1       0.198   0.577   0.004  0.00  0.00     0.706 A 
ATOM      3  C   UNL d   1      -1.017  -1.542   0.103  0.00  0.00     0.162 A 
ATOM      4  N   UNL d   1      -0.956   1.306  -0.040  0.00  0.00    -0.189 N 
ATOM      5  HN  UNL d   1      -0.943   2.324  -0.095  1.00  0.00     0.184 HD
ATOM      6  C   UNL d   1      -2.169  -0.857   0.005  0.00  0.00     0.083 A 
ATOM      7  N   UNL d   1       1.447   0.987  -0.047  0.00  0.00    -0.184 N 
ATOM      8  HN  UNL d   1       1.793   1.942  -0.142  1.00  0.00     0.185 HD
ATOM      9  C   UNL d   1      -2.074   0.637  -0.007  0.00  0.00     0.063 A 
ATOM     10  N   UNL d   1       1.462  -1.288   0.180  0.00  0.00    -0.273 N 
ATOM     11  HN  UNL d   1       1.792  -2.247   0.289  1.00  0.00     0.189 HD
ATOM     12  C   UNL d   1       2.167  -0.162   0.058  0.00  0.00     0.215 A 
ENDROOT
BRANCH   3  13
ATOM     13  N   UNL d   1      -0.943  -2.936   0.123  0.00  0.00    -0.284 N 
ATOM     14  H   UNL d   1       0.034  -3.240   0.245  0.00  0.00     0.188 HD
BRANCH  13  15
ATOM     15  N   UNL d   1      -1.680  -3.627  -0.792  0.00  0.00    -0.309 N 
ATOM     16  C   UNL d   1      -1.534  -4.914  -0.779  0.00  0.00     0.120 C 
ATOM     17  HN  UNL d   1      -2.307  -3.160  -1.446  1.00  0.00     0.186 HD
BRANCH  16  18
ATOM     18  C   UNL d   1      -2.155  -5.740  -1.840  0.00  0.00     0.003 A 
ATOM     19  C   UNL d   1      -2.144  -7.139  -1.806  0.00  0.00     0.047 A 
ATOM     20  C   UNL d   1      -2.692  -7.869  -2.869  0.00  0.00     0.048 A 
ATOM     21 CL   UNL d   1      -1.473  -8.036  -0.491  0.00  0.00    -0.083 Cl
ATOM     22  C   UNL d   1      -3.246  -7.203  -3.957  0.00  0.00     0.035 A 
ATOM     23  C   UNL d   1      -3.264  -5.811  -4.003  0.00  0.00     0.025 A 
ATOM     24 CL   UNL d   1      -3.904  -8.102  -5.270  0.00  0.00    -0.084 Cl
ATOM     25  C   UNL d   1      -2.720  -5.082  -2.946  0.00  0.00     0.016 A 
ENDBRANCH  16  18
ENDBRANCH  13  15
ENDBRANCH   3  13
BRANCH   9  26
ATOM     26  C   UNL d   1      -3.369   1.380   0.020  0.00  0.00    -0.009 A 
ATOM     27  C   UNL d   1      -4.488   0.872   0.698  0.00  0.00     0.014 A 
ATOM     28  C   UNL d   1      -5.679   1.600   0.733  0.00  0.00     0.001 A 
ATOM     29  C   UNL d   1      -5.757   2.840   0.103  0.00  0.00     0.000 A 
ATOM     30  C   UNL d   1      -4.645   3.359  -0.559  0.00  0.00     0.001 A 
ATOM     31  C   UNL d   1      -3.450   2.634  -0.597  0.00  0.00     0.014 A 
ENDBRANCH   9  26
TORSDOF 4
