REMARK  7 active torsions:
REMARK  status: ('A' for Active; 'I' for Inactive)
REMARK    1  A    between atoms: C_9  and  C_1 
REMARK    2  A    between atoms: C_10  and  N_3 
REMARK    3  A    between atoms: O_8  and  C_4 
REMARK    4  A    between atoms: C_13  and  C_9 
REMARK    5  A    between atoms: C_14  and  C_10 
REMARK    6  A    between atoms: C_16  and  C_13 
REMARK    7  A    between atoms: C_15  and  C_14 
ROOT
ATOM      1  C   UNL d   1       2.388  -0.746  -0.088  0.00  0.00     0.044 A 
ATOM      2  C   UNL d   1       2.386   0.758  -0.046  0.00  0.00     0.257 A 
ATOM      3  N   UNL d   1       1.158   1.421  -0.020  0.00  0.00    -0.313 N 
ATOM      4  C   UNL d   1       1.220  -1.405  -0.017  0.00  0.00     0.089 A 
ATOM      5  C   UNL d   1      -0.064  -0.694  -0.005  0.00  0.00     0.025 A 
ATOM      6  C   UNL d   1      -0.083   0.711  -0.001  0.00  0.00     0.050 A 
ATOM      7  O   UNL d   1       3.459   1.360  -0.025  0.00  0.00    -0.267 OA
ATOM      8  C   UNL d   1      -1.277  -1.407  -0.006  0.00  0.00     0.016 A 
ATOM      9  C   UNL d   1      -1.329   1.364   0.011  0.00  0.00     0.031 A 
ATOM     10  C   UNL d   1      -2.502  -0.745  -0.014  0.00  0.00     0.001 A 
ATOM     11  C   UNL d   1      -2.526   0.643  -0.005  0.00  0.00     0.002 A 
ENDROOT
BRANCH   1  12
ATOM     12  C   UNL d   1       3.750  -1.413  -0.159  0.00  0.00     0.047 C 
BRANCH  12  13
ATOM     13  C   UNL d   1       3.998  -2.364  -1.342  0.00  0.00     0.004 C 
BRANCH  13  14
ATOM     14  C   UNL d   1       3.903  -1.703  -2.718  0.00  0.00    -0.004 C 
ATOM     15  C   UNL d   1       4.169  -2.721  -3.821  0.00  0.00     0.005 C 
ENDBRANCH  13  14
ENDBRANCH  12  13
ENDBRANCH   1  12
BRANCH   4  16
ATOM     16  O   UNL d   1       1.115  -2.783   0.053  0.00  0.00    -0.359 OA
ATOM     17  H   UNL d   1       1.988  -3.165   0.233  0.00  0.00     0.217 HD
ENDBRANCH   4  16
BRANCH   3  18
ATOM     18  C   UNL d   1       1.185   2.890   0.042  0.00  0.00     0.132 C 
BRANCH  18  19
ATOM     19  C   UNL d   1       1.143   3.416   1.482  0.00  0.00     0.020 C 
BRANCH  19  20
ATOM     20  C   UNL d   1       1.124   4.946   1.533  0.00  0.00    -0.003 C 
ATOM     21  C   UNL d   1       1.117   5.456   2.967  0.00  0.00     0.005 C 
ENDBRANCH  19  20
ENDBRANCH  18  19
ENDBRANCH   3  18
TORSDOF 7
