REMARK  3 active torsions:
REMARK  status: ('A' for Active; 'I' for Inactive)
REMARK    1  A    between atoms: C_6  and  N_2 
REMARK    2  A    between atoms: C_7  and  C_6 
REMARK       I    between atoms: N_11  and  C_7 
REMARK    3  A    between atoms: C_14  and  N_11 
ROOT
ATOM      1  S   UNL d   1       1.344   0.424  -0.201  0.00  0.00     0.269 S 
ATOM      2  N   UNL d   1       1.259  -1.092   0.521  0.00  0.00    -0.228 N 
ATOM      3  C   UNL d   1       0.128  -1.246   1.348  0.00  0.00     0.269 C 
ATOM      4  C   UNL d   1      -0.810  -0.139   1.093  0.00  0.00     0.056 A 
ATOM      5  C   UNL d   1      -0.281   0.837   0.259  0.00  0.00     0.095 A 
ATOM      6  O   UNL d   1       2.263   1.243   0.557  0.00  0.00    -0.200 OA
ATOM      7  O   UNL d   1       1.404   0.275  -1.633  0.00  0.00    -0.200 OA
ATOM      8  O   UNL d   1      -0.047  -2.158   2.138  0.00  0.00    -0.266 OA
ATOM      9  C   UNL d   1      -2.120  -0.055   1.535  0.00  0.00     0.018 A 
ATOM     10  C   UNL d   1      -1.017   1.917  -0.188  0.00  0.00     0.026 A 
ATOM     11  C   UNL d   1      -2.889   1.030   1.100  0.00  0.00     0.001 A 
ATOM     12  C   UNL d   1      -2.342   2.006   0.245  0.00  0.00     0.002 A 
ENDROOT
BRANCH   2  13
ATOM     13  C   UNL d   1       2.423  -1.971   0.415  0.00  0.00     0.248 C 
BRANCH  13  14
ATOM     14  C   UNL d   1       2.064  -3.410   0.057  0.00  0.00     0.241 C 
ATOM     15  N   UNL d   1       1.471  -4.106   1.098  0.00  0.00    -0.326 N 
ATOM     16  H   UNL d   1       1.073  -3.537   1.846  0.00  0.00     0.169 HD
ATOM     17  O   UNL d   1       2.309  -3.862  -1.059  0.00  0.00    -0.271 OA
BRANCH  15  18
ATOM     18  C   UNL d   1       1.126  -5.471   1.128  0.00  0.00     0.034 A 
ATOM     19  C   UNL d   1       1.611  -6.412   0.218  0.00  0.00     0.029 A 
ATOM     20  C   UNL d   1       1.218  -7.750   0.310  0.00  0.00     0.002 A 
ATOM     21  C   UNL d   1       0.338  -8.158   1.310  0.00  0.00     0.000 A 
ATOM     22  C   UNL d   1      -0.138  -7.229   2.233  0.00  0.00     0.002 A 
ATOM     23  C   UNL d   1       0.262  -5.894   2.147  0.00  0.00     0.029 A 
ENDBRANCH  15  18
ENDBRANCH  13  14
ENDBRANCH   2  13
TORSDOF 3
