REMARK  4 active torsions:
REMARK  status: ('A' for Active; 'I' for Inactive)
REMARK    1  A    between atoms: N_3  and  S_1 
REMARK    2  A    between atoms: C_9  and  S_1 
REMARK    3  A    between atoms: C_2  and  N_3 
REMARK    4  A    between atoms: C_14  and  C_8 
ROOT
ATOM      1  C   UNL d   1       0.839   1.682  -2.020  0.00  0.00     0.133 A 
ATOM      2  C   UNL d   1       0.015   2.478  -2.776  0.00  0.00     0.082 A 
ATOM      3  N   UNL d   1       2.020   3.519  -2.581  0.00  0.00    -0.296 N 
ATOM      4  HN  UNL d   1       2.787   4.187  -2.664  1.00  0.00     0.187 HD
ATOM      5  N   UNL d   1       2.047   2.319  -1.979  0.00  0.00    -0.280 N 
ATOM      6  C   UNL d   1       0.768   3.653  -3.052  0.00  0.00     0.062 A 
ATOM      7  C   UNL d   1       3.305   1.805  -1.493  0.00  0.00     0.179 C 
ENDROOT
BRANCH   1   8
ATOM      8  N   UNL d   1       0.454   0.499  -1.423  0.00  0.00    -0.264 N 
ATOM      9  H   UNL d   1      -0.013  -0.200  -1.984  0.00  0.00     0.180 HD
BRANCH   8  10
ATOM     10  S   UNL d   1      -0.005   0.452   0.152  0.00  0.00     0.264 S 
ATOM     11  O   UNL d   1       1.013   1.051   0.994  0.00  0.00    -0.200 OA
ATOM     12  O   UNL d   1      -0.536  -0.859   0.451  0.00  0.00    -0.200 OA
BRANCH  10  13
ATOM     13  C   UNL d   1      -1.419   1.556   0.155  0.00  0.00     0.081 A 
ATOM     14  C   UNL d   1      -2.547   1.207  -0.599  0.00  0.00     0.049 A 
ATOM     15  C   UNL d   1      -3.588   2.126  -0.744  0.00  0.00     0.041 A 
ATOM     16 CL   UNL d   1      -4.917   1.678  -1.752  0.00  0.00    -0.084 Cl
ATOM     17  C   UNL d   1      -3.528   3.385  -0.126  0.00  0.00    -0.040 A 
ATOM     18  C   UNL d   1      -2.412   3.693   0.671  0.00  0.00     0.010 A 
ATOM     19  C   UNL d   1      -4.611   4.415  -0.307  0.00  0.00     0.050 C 
ATOM     20  C   UNL d   1      -1.358   2.787   0.811  0.00  0.00     0.026 A 
ENDBRANCH  10  13
ENDBRANCH   8  10
ENDBRANCH   1   8
BRANCH   6  21
ATOM     21  C   UNL d   1       0.319   4.886  -3.708  0.00  0.00    -0.008 A 
ATOM     22  C   UNL d   1      -1.018   5.065  -4.095  0.00  0.00     0.014 A 
ATOM     23  C   UNL d   1      -1.436   6.263  -4.683  0.00  0.00     0.001 A 
ATOM     24  C   UNL d   1      -0.525   7.296  -4.891  0.00  0.00     0.000 A 
ATOM     25  C   UNL d   1       0.806   7.133  -4.517  0.00  0.00     0.001 A 
ATOM     26  C   UNL d   1       1.224   5.936  -3.931  0.00  0.00     0.014 A 
ENDBRANCH   6  21
TORSDOF 4
