REMARK  4 active torsions:
REMARK  status: ('A' for Active; 'I' for Inactive)
REMARK       I    between atoms: C_9  and  N_11 
REMARK    1  A    between atoms: C_14  and  C_9 
REMARK    2  A    between atoms: N_11  and  C_10 
REMARK    3  A    between atoms: C_21  and  C_20 
REMARK    4  A    between atoms: C_22  and  C_21 
ROOT
ATOM      1  C   UNL d   1      -5.101  -0.650  -0.118  0.00  0.00     0.256 C 
ATOM      2  N   UNL d   1      -3.875  -1.258  -0.343  0.00  0.00    -0.323 N 
ATOM      3  O   UNL d   1      -6.141  -1.201   0.215  0.00  0.00    -0.267 OA
ATOM      4  H   UNL d   1      -3.100  -0.653  -0.586  0.00  0.00     0.169 HD
ENDROOT
BRANCH   2   5
ATOM      5  C   UNL d   1      -3.575  -2.637  -0.244  0.00  0.00     0.037 A 
ATOM      6  C   UNL d   1      -4.511  -3.581   0.216  0.00  0.00     0.061 A 
ATOM      7  C   UNL d   1      -4.099  -4.937   0.226  0.00  0.00     0.069 A 
ATOM      8  C   UNL d   1      -2.721  -5.328  -0.228  0.00  0.00     0.067 A 
ATOM      9  N   UNL d   1      -4.842  -5.984   0.617  0.00  0.00    -0.310 N 
ATOM     10  N   UNL d   1      -2.499  -6.650  -0.173  0.00  0.00    -0.310 N 
ATOM     11  C   UNL d   1      -1.798  -4.350  -0.659  0.00  0.00     0.035 A 
ATOM     12  S   UNL d   1      -3.900  -7.335   0.404  0.00  0.00     0.068 SA
ATOM     13  HN  UNL d   1      -1.642  -7.138  -0.434  1.00  0.00     0.176 HD
ATOM     14  C   UNL d   1      -2.263  -3.018  -0.646  0.00  0.00     0.032 A 
ATOM     15  HN  UNL d   1      -5.797  -5.957   0.974  1.00  0.00     0.176 HD
ENDBRANCH   2   5
BRANCH   1  16
ATOM     16  C   UNL d   1      -5.103   0.831  -0.256  0.00  0.00     0.032 A 
ATOM     17  C   UNL d   1      -4.341   1.489  -1.227  0.00  0.00     0.017 A 
ATOM     18  C   UNL d   1      -4.283   2.884  -1.236  0.00  0.00     0.008 A 
ATOM     19  C   UNL d   1      -4.987   3.630  -0.281  0.00  0.00    -0.058 A 
ATOM     20  C   UNL d   1      -5.823   2.965   0.626  0.00  0.00     0.008 A 
ATOM     21  C   UNL d   1      -5.878   1.572   0.642  0.00  0.00     0.017 A 
BRANCH  19  22
ATOM     22  C   UNL d   1      -4.805   5.127  -0.196  0.00  0.00     0.038 C 
BRANCH  22  23
ATOM     23  C   UNL d   1      -4.219   5.587   1.148  0.00  0.00     0.000 C 
ATOM     24  C   UNL d   1      -2.841   5.005   1.440  0.00  0.00     0.005 C 
ENDBRANCH  22  23
ENDBRANCH  19  22
ENDBRANCH   1  16
TORSDOF 4
