REMARK  1 active torsions:
REMARK  status: ('A' for Active; 'I' for Inactive)
REMARK    1  A    between atoms: C_13  and  C_9 
ROOT
ATOM      1  C   UNL d   1       0.225   0.542   0.010  0.00  0.00     0.172 A 
ATOM      2  N   UNL d   1       0.446  -0.792   0.026  0.00  0.00    -0.242 N 
ATOM      3  S   UNL d   1      -1.454   0.851  -0.047  0.00  0.00    -0.032 SA
ATOM      4  C   UNL d   1      -1.665  -0.923  -0.064  0.00  0.00     0.110 A 
ATOM      5  N   UNL d   1      -0.587  -1.660  -0.010  0.00  0.00    -0.284 N 
ATOM      6  HN  UNL d   1      -0.536  -2.678   0.002  1.00  0.00     0.188 HD
ATOM      7  N   UNL d   1       1.312   1.260   0.004  0.00  0.00    -0.333 N 
ATOM      8  HN  UNL d   1       1.401   2.276  -0.008  1.00  0.00     0.168 HD
ATOM      9  C   UNL d   1       2.323   0.302   0.017  0.00  0.00     0.062 A 
ATOM     10  C   UNL d   1       1.791  -0.982   0.044  0.00  0.00     0.149 A 
ATOM     11  C   UNL d   1      -3.014  -1.440  -0.153  0.00  0.00     0.040 A 
ATOM     12  S   UNL d   1      -3.259  -3.144  -0.122  0.00  0.00    -0.099 SA
ATOM     13  C   UNL d   1      -4.224  -0.779  -0.279  0.00  0.00     0.022 A 
ATOM     14  C   UNL d   1      -4.949  -2.985  -0.288  0.00  0.00     0.050 A 
ATOM     15  C   UNL d   1      -5.337  -1.668  -0.361  0.00  0.00     0.008 A 
ENDROOT
BRANCH   9  16
ATOM     16  C   UNL d   1       3.739   0.645  -0.018  0.00  0.00    -0.008 A 
ATOM     17  C   UNL d   1       4.121   1.994  -0.079  0.00  0.00     0.014 A 
ATOM     18  C   UNL d   1       5.470   2.355  -0.130  0.00  0.00     0.001 A 
ATOM     19  C   UNL d   1       6.456   1.371  -0.121  0.00  0.00     0.000 A 
ATOM     20  C   UNL d   1       6.093   0.028  -0.059  0.00  0.00     0.001 A 
ATOM     21  C   UNL d   1       4.744  -0.334  -0.008  0.00  0.00     0.014 A 
ENDBRANCH   9  16
TORSDOF 1
