REMARK  3 active torsions:
REMARK  status: ('A' for Active; 'I' for Inactive)
REMARK    1  A    between atoms: C_2  and  N_1 
REMARK    2  A    between atoms: O_15  and  C_6 
REMARK    3  A    between atoms: O_16  and  C_11 
ROOT
ATOM      1  C   UNL d   1       0.029   2.285   0.045  0.00  0.00     0.081 A 
ATOM      2  C   UNL d   1      -0.629   3.000   1.063  0.00  0.00     0.059 A 
ATOM      3  C   UNL d   1       0.663   3.039  -0.961  0.00  0.00     0.098 A 
ATOM      4  C   UNL d   1       0.614   4.444  -0.914  0.00  0.00     0.077 A 
ATOM      5  C   UNL d   1      -0.667   4.406   1.109  0.00  0.00     0.069 A 
ATOM      6  C   UNL d   1      -0.038   5.146   0.111  0.00  0.00     0.092 A 
ATOM      7 CL   UNL d   1      -1.532   5.065   2.453  0.00  0.00    -0.081 Cl
ENDROOT
BRANCH   1   8
ATOM      8  N   UNL d   1       0.011   0.855   0.067  0.00  0.00    -0.242 N 
ATOM      9  C   UNL d   1       0.978   0.024  -0.431  0.00  0.00     0.255 A 
ATOM     10  C   UNL d   1       0.527  -1.357  -0.210  0.00  0.00     0.080 A 
ATOM     11  O   UNL d   1       2.100   0.243  -0.859  0.00  0.00    -0.268 OA
ATOM     12  C   UNL d   1      -0.596  -1.315   0.499  0.00  0.00     0.080 A 
ATOM     13  C   UNL d   1      -0.935   0.095   0.709  0.00  0.00     0.255 A 
ATOM     14  O   UNL d   1      -1.926   0.411   1.343  0.00  0.00    -0.268 OA
ENDBRANCH   1   8
BRANCH   3  15
ATOM     15  O   UNL d   1       1.192   2.393  -2.050  0.00  0.00    -0.354 OA
ATOM     16  C   UNL d   1       2.278   3.055  -2.700  0.00  0.00     0.210 C 
ENDBRANCH   3  15
BRANCH   6  17
ATOM     17  O   UNL d   1       0.062   6.495  -0.081  0.00  0.00    -0.354 OA
ATOM     18  C   UNL d   1      -0.517   7.403   0.838  0.00  0.00     0.210 C 
ENDBRANCH   6  17
TORSDOF 3
