REMARK  4 active torsions:
REMARK  status: ('A' for Active; 'I' for Inactive)
REMARK    1  A    between atoms: C_4  and  C_2 
REMARK    2  A    between atoms: C_8  and  C_3 
REMARK    3  A    between atoms: C_5  and  C_8 
REMARK    4  A    between atoms: N_15  and  C_10 
ROOT
ATOM      1  S   UNL d   1      -0.963   0.090   0.024  0.00  0.00    -0.085 SA
ATOM      2  C   UNL d   1       0.251   1.306  -0.004  0.00  0.00     0.022 A 
ATOM      3  C   UNL d   1       0.170  -1.192   0.035  0.00  0.00     0.055 A 
ATOM      4  C   UNL d   1       1.509   0.733   0.025  0.00  0.00     0.021 A 
ATOM      5  C   UNL d   1       1.460  -0.691   0.051  0.00  0.00     0.024 A 
ENDROOT
BRANCH   3   6
ATOM      6  C   UNL d   1      -0.192  -2.613   0.025  0.00  0.00     0.190 C 
ATOM      7  O   UNL d   1       0.679  -3.486   0.032  0.00  0.00    -0.287 OA
BRANCH   6   8
ATOM      8  C   UNL d   1      -1.632  -3.035  -0.001  0.00  0.00     0.073 C 
ATOM      9  C   UNL d   1      -1.971  -4.334  -0.031  0.00  0.00     0.088 C 
BRANCH   9  10
ATOM     10  N   UNL d   1      -3.225  -4.934  -0.057  0.00  0.00    -0.398 N 
ATOM     11  C   UNL d   1      -4.497  -4.214  -0.053  0.00  0.00     0.148 C 
ATOM     12  C   UNL d   1      -3.378  -6.392  -0.100  0.00  0.00     0.148 C 
ENDBRANCH   9  10
ENDBRANCH   6   8
ENDBRANCH   3   6
BRANCH   2  13
ATOM     13  C   UNL d   1      -0.081   2.714  -0.063  0.00  0.00     0.021 A 
ATOM     14  S   UNL d   1       0.963   3.853  -0.822  0.00  0.00    -0.101 SA
ATOM     15  C   UNL d   1      -0.100   5.154  -0.515  0.00  0.00     0.050 A 
ATOM     16  C   UNL d   1      -1.223   4.748   0.168  0.00  0.00     0.008 A 
ATOM     17  C   UNL d   1      -1.211   3.345   0.429  0.00  0.00     0.021 A 
ENDBRANCH   2  13
TORSDOF 4
