REMARK  3 active torsions:
REMARK  status: ('A' for Active; 'I' for Inactive)
REMARK    1  A    between atoms: C_8  and  C_1 
REMARK    2  A    between atoms: C_16  and  C_7 
REMARK       I    between atoms: N_9  and  C_8 
REMARK    3  A    between atoms: C_10  and  N_9 
ROOT
ATOM      1  C   UNL d   1      -2.137  -2.873  -0.008  0.00  0.00     0.233 A 
ATOM      2  O   UNL d   1      -3.234  -2.049  -0.166  0.00  0.00    -0.268 OA
ATOM      3  N   UNL d   1      -2.471  -4.130   0.213  0.00  0.00    -0.273 N 
ATOM      4  HN  UNL d   1      -1.836  -4.914   0.365  1.00  0.00     0.189 HD
ATOM      5  N   UNL d   1      -3.843  -4.176   0.198  0.00  0.00    -0.277 N 
ATOM      6  HN  UNL d   1      -4.423  -5.004   0.333  1.00  0.00     0.189 HD
ATOM      7  C   UNL d   1      -4.271  -2.945  -0.024  0.00  0.00     0.175 A 
ENDROOT
BRANCH   1   8
ATOM      8  C   UNL d   1      -0.767  -2.381  -0.078  0.00  0.00     0.294 C 
ATOM      9  N   UNL d   1       0.192  -3.366   0.147  0.00  0.00    -0.349 N 
ATOM     10  H   UNL d   1      -0.151  -4.319   0.234  0.00  0.00     0.163 HD
ATOM     11  O   UNL d   1      -0.457  -1.214  -0.306  0.00  0.00    -0.264 OA
BRANCH   9  12
ATOM     12  C   UNL d   1       1.635  -3.139   0.108  0.00  0.00     0.093 C 
ATOM     13  C   UNL d   1       2.259  -3.406  -1.285  0.00  0.00     0.064 C 
ATOM     14  C   UNL d   1       3.629  -3.908  -0.933  0.00  0.00    -0.050 A 
ATOM     15  C   UNL d   1       4.723  -4.068  -1.771  0.00  0.00     0.007 A 
ATOM     16  C   UNL d   1       3.699  -4.283   0.410  0.00  0.00    -0.050 A 
ATOM     17  C   UNL d   1       5.899  -4.607  -1.240  0.00  0.00     0.001 A 
ATOM     18  C   UNL d   1       5.963  -4.992   0.107  0.00  0.00     0.001 A 
ATOM     19  C   UNL d   1       4.855  -4.836   0.942  0.00  0.00     0.007 A 
ATOM     20  C   UNL d   1       2.393  -4.053   1.105  0.00  0.00     0.064 C 
ENDBRANCH   9  12
ENDBRANCH   1   8
BRANCH   7  21
ATOM     21  C   UNL d   1      -5.652  -2.482  -0.144  0.00  0.00     0.017 A 
ATOM     22  C   UNL d   1      -6.017  -1.134  -0.271  0.00  0.00     0.016 A 
ATOM     23  C   UNL d   1      -7.368  -0.766  -0.375  0.00  0.00     0.001 A 
ATOM     24  C   UNL d   1      -8.370  -1.737  -0.355  0.00  0.00     0.000 A 
ATOM     25  C   UNL d   1      -8.027  -3.078  -0.230  0.00  0.00     0.001 A 
ATOM     26  C   UNL d   1      -6.683  -3.442  -0.123  0.00  0.00     0.016 A 
ENDBRANCH   7  21
TORSDOF 3
