REMARK  2 active torsions:
REMARK  status: ('A' for Active; 'I' for Inactive)
REMARK    1  A    between atoms: C_9  and  C_3 
REMARK    2  A    between atoms: O_16  and  C_12 
ROOT
ATOM      1  N   UNL d   1       0.998   1.504   0.389  0.00  0.00    -0.357 N 
ATOM      2  HN  UNL d   1       0.897   2.363   0.930  1.00  0.00     0.166 HD
ATOM      3  C   UNL d   1       2.173   1.167  -0.060  0.00  0.00     0.031 C 
ATOM      4  C   UNL d   1      -0.216  -0.721   0.203  0.00  0.00     0.068 A 
ATOM      5  N   UNL d   1       0.931  -1.513   0.440  0.00  0.00    -0.324 N 
ATOM      6  C   UNL d   1      -0.147   0.701   0.141  0.00  0.00     0.060 A 
ATOM      7  C   UNL d   1       2.196  -1.272  -0.011  0.00  0.00     0.227 C 
ATOM      8  C   UNL d   1       2.384  -0.071  -0.882  0.00  0.00     0.161 C 
ATOM      9  C   UNL d   1      -1.459  -1.390   0.028  0.00  0.00    -0.027 A 
ATOM     10  C   UNL d   1      -2.628  -0.629  -0.215  0.00  0.00    -0.054 A 
ATOM     11  C   UNL d   1      -1.329   1.415  -0.075  0.00  0.00     0.032 A 
ATOM     12  O   UNL d   1       3.118  -2.043   0.247  0.00  0.00    -0.273 OA
ATOM     13  C   UNL d   1      -2.549   0.767  -0.258  0.00  0.00     0.010 A 
ATOM     14  C   UNL d   1      -1.578  -2.899   0.008  0.00  0.00     0.051 C 
ATOM     15  C   UNL d   1      -3.962  -1.286  -0.466  0.00  0.00     0.049 C 
ATOM     16  H   UNL d   1       0.828  -2.420   0.873  0.00  0.00     0.169 HD
ENDROOT
BRANCH   3  17
ATOM     17  C   UNL d   1       3.356   2.032   0.234  0.00  0.00     0.020 A 
ATOM     18  C   UNL d   1       3.200   3.408   0.459  0.00  0.00     0.077 A 
ATOM     19  C   UNL d   1       4.312   4.229   0.648  0.00  0.00     0.037 A 
ATOM     20  C   UNL d   1       5.594   3.681   0.635  0.00  0.00     0.003 A 
ATOM     21  C   UNL d   1       5.761   2.309   0.458  0.00  0.00     0.001 A 
ATOM     22  C   UNL d   1       4.648   1.486   0.270  0.00  0.00     0.016 A 
BRANCH  18  23
ATOM     23  O   UNL d   1       1.975   4.017   0.499  0.00  0.00    -0.360 OA
ATOM     24  H   UNL d   1       1.304   3.299   0.541  0.00  0.00     0.217 HD
ENDBRANCH  18  23
ENDBRANCH   3  17
TORSDOF 2
