REMARK  2 active torsions:
REMARK  status: ('A' for Active; 'I' for Inactive)
REMARK    1  A    between atoms: N_3  and  C_1 
REMARK    2  A    between atoms: C_5  and  C_2 
ROOT
ATOM      1  C   UNL d   1       1.853  -0.050  -0.435  0.00  0.00     0.183 C 
ATOM      2  C   UNL d   1       1.091   1.251  -0.145  0.00  0.00     0.148 C 
ATOM      3  N   UNL d   1      -0.360   1.079  -0.055  0.00  0.00    -0.350 N 
ATOM      4  C   UNL d   1      -0.998  -0.068   0.314  0.00  0.00     0.218 C 
ATOM      5  C   UNL d   1       1.266  -1.212   0.369  0.00  0.00     0.043 C 
ATOM      6  O   UNL d   1      -2.176  -0.031   0.658  0.00  0.00    -0.274 OA
ATOM      7  C   UNL d   1      -0.238  -1.366   0.176  0.00  0.00     0.105 C 
ATOM      8  H   UNL d   1      -0.927   1.905   0.102  0.00  0.00     0.163 HD
ENDROOT
BRANCH   2   9
ATOM      9  C   UNL d   1       1.482   2.483  -0.957  0.00  0.00    -0.011 A 
ATOM     10  C   UNL d   1       2.708   3.150  -0.767  0.00  0.00     0.042 A 
ATOM     11 CL   UNL d   1       3.892   2.597   0.365  0.00  0.00    -0.084 Cl
ATOM     12  C   UNL d   1       3.013   4.316  -1.479  0.00  0.00     0.024 A 
ATOM     13  C   UNL d   1       2.100   4.848  -2.385  0.00  0.00     0.002 A 
ATOM     14  C   UNL d   1       0.890   4.199  -2.603  0.00  0.00     0.001 A 
ATOM     15  C   UNL d   1       0.592   3.023  -1.909  0.00  0.00     0.011 A 
ENDBRANCH   2   9
BRANCH   1  16
ATOM     16  N   UNL d   1       1.852  -0.408  -1.898  0.00  0.00    -0.148 N 
ATOM     17  O   UNL d   1       0.822  -0.228  -2.554  0.00  0.00    -0.536 OA
ATOM     18  O   UNL d   1       2.892  -0.922  -2.333  0.00  0.00    -0.536 OA
ENDBRANCH   1  16
TORSDOF 2
