REMARK  6 active torsions:
REMARK  status: ('A' for Active; 'I' for Inactive)
REMARK    1  A    between atoms: N_7  and  C_2 
REMARK    2  A    between atoms: C_15  and  C_6 
REMARK    3  A    between atoms: C_13  and  N_7 
REMARK    4  A    between atoms: C_14  and  N_7 
REMARK    5  A    between atoms: C_16  and  C_13 
REMARK    6  A    between atoms: C_17  and  C_14 
ROOT
ATOM      1  C   UNL d   1       1.913   0.344  -1.515  0.00  0.00     0.043 A 
ATOM      2  C   UNL d   1       1.386   1.315  -0.613  0.00  0.00     0.117 A 
ATOM      3  C   UNL d   1       1.222  -0.853  -1.607  0.00  0.00     0.089 A 
ATOM      4  C   UNL d   1       2.997   0.340  -2.467  0.00  0.00     0.038 C 
ATOM      5  S   UNL d   1       1.795  -1.871  -2.854  0.00  0.00    -0.071 SA
ATOM      6  C   UNL d   1       2.930  -0.703  -3.380  0.00  0.00     0.018 C 
ATOM      7  N   UNL d   1       0.294   0.945   0.107  0.00  0.00    -0.338 N 
ATOM      8  HN  UNL d   1      -0.123   1.599   0.770  1.00  0.00     0.168 HD
ATOM      9  N   UNL d   1       0.157  -1.230  -0.888  0.00  0.00    -0.346 N 
ATOM     10  HN  UNL d   1      -0.298  -2.139  -0.974  1.00  0.00     0.167 HD
ATOM     11  C   UNL d   1      -0.239  -0.278  -0.048  0.00  0.00     0.182 A 
ENDROOT
BRANCH   2  12
ATOM     12  N   UNL d   1       1.808   2.640  -0.537  0.00  0.00    -0.358 N 
BRANCH  12  13
ATOM     13  C   UNL d   1       0.827   3.636  -0.069  0.00  0.00     0.163 C 
BRANCH  13  14
ATOM     14  C   UNL d   1       0.698   4.833  -1.002  0.00  0.00    -0.040 A 
ATOM     15  C   UNL d   1       0.780   4.710  -2.393  0.00  0.00     0.009 A 
ATOM     16  C   UNL d   1       0.642   5.831  -3.220  0.00  0.00     0.001 A 
ATOM     17  C   UNL d   1       0.388   7.083  -2.666  0.00  0.00     0.000 A 
ATOM     18  C   UNL d   1       0.256   7.216  -1.287  0.00  0.00     0.001 A 
ATOM     19  C   UNL d   1       0.403   6.096  -0.463  0.00  0.00     0.009 A 
ENDBRANCH  13  14
ENDBRANCH  12  13
BRANCH  12  20
ATOM     20  C   UNL d   1       3.221   2.940  -0.296  0.00  0.00     0.163 C 
BRANCH  20  21
ATOM     21  C   UNL d   1       3.823   2.412   0.996  0.00  0.00    -0.040 A 
ATOM     22  C   UNL d   1       5.197   2.114   1.028  0.00  0.00     0.009 A 
ATOM     23  C   UNL d   1       5.838   1.788   2.227  0.00  0.00     0.001 A 
ATOM     24  C   UNL d   1       5.116   1.758   3.416  0.00  0.00     0.000 A 
ATOM     25  C   UNL d   1       3.750   2.023   3.401  0.00  0.00     0.001 A 
ATOM     26  C   UNL d   1       3.109   2.343   2.201  0.00  0.00     0.009 A 
ENDBRANCH  20  21
ENDBRANCH  12  20
ENDBRANCH   2  12
BRANCH   6  27
ATOM     27  C   UNL d   1       3.566  -0.788  -4.707  0.00  0.00    -0.019 A 
ATOM     28  C   UNL d   1       3.868  -2.001  -5.351  0.00  0.00     0.013 A 
ATOM     29  C   UNL d   1       4.291  -2.012  -6.684  0.00  0.00     0.001 A 
ATOM     30  C   UNL d   1       4.434  -0.818  -7.392  0.00  0.00     0.000 A 
ATOM     31  C   UNL d   1       4.186   0.394  -6.753  0.00  0.00     0.001 A 
ATOM     32  C   UNL d   1       3.768   0.406  -5.424  0.00  0.00     0.013 A 
ENDBRANCH   6  27
TORSDOF 6
