REMARK  3 active torsions:
REMARK  status: ('A' for Active; 'I' for Inactive)
REMARK       I    between atoms: N_2  and  C_1 
REMARK       I    between atoms: N_5  and  C_1 
REMARK       I    between atoms: C_3  and  N_4 
REMARK    1  A    between atoms: C_7  and  C_3 
REMARK    2  A    between atoms: C_12  and  N_5 
REMARK    3  A    between atoms: O_17  and  C_16 
ROOT
ATOM      1  C   UNL d   1       0.887  -0.126   0.073  0.00  0.00     0.323 C 
ATOM      2  N   UNL d   1       0.235  -1.345   0.210  0.00  0.00    -0.331 N 
ATOM      3  C   UNL d   1      -1.419  -5.056   0.883  0.00  0.00     0.248 C 
ATOM      4  N   UNL d   1      -0.641  -4.061   0.308  0.00  0.00    -0.347 N 
ATOM      5  N   UNL d   1       0.484   0.643  -0.992  0.00  0.00    -0.309 N 
ATOM      6  O   UNL d   1       1.775   0.195   0.861  0.00  0.00    -0.247 OA
ATOM      7  C   UNL d   1       0.642  -2.213   1.329  0.00  0.00     0.147 C 
ATOM      8  C   UNL d   1      -1.040  -1.733  -0.415  0.00  0.00     0.147 C 
ATOM      9  C   UNL d   1       0.638  -3.693   0.924  0.00  0.00     0.146 C 
ATOM     10  C   UNL d   1      -1.025  -3.214  -0.827  0.00  0.00     0.146 C 
ATOM     11  O   UNL d   1      -1.053  -5.643   1.904  0.00  0.00    -0.270 OA
ATOM     12  H   UNL d   1      -0.005   0.169  -1.731  0.00  0.00     0.170 HD
ENDROOT
BRANCH   5  13
ATOM     13  C   UNL d   1       0.901   1.960  -1.300  0.00  0.00     0.039 A 
ATOM     14  C   UNL d   1       1.654   2.756  -0.430  0.00  0.00     0.066 A 
ATOM     15  C   UNL d   1       2.026   4.056  -0.785  0.00  0.00     0.070 A 
ATOM     16  C   UNL d   1       1.639   4.564  -2.025  0.00  0.00     0.037 A 
ATOM     17  C   UNL d   1       0.883   3.785  -2.900  0.00  0.00     0.005 A 
ATOM     18  C   UNL d   1       0.513   2.490  -2.537  0.00  0.00     0.030 A 
BRANCH  15  19
ATOM     19  O   UNL d   1       2.753   4.918  -0.007  0.00  0.00    -0.356 OA
ATOM     20  C   UNL d   1       3.144   4.440   1.276  0.00  0.00     0.210 C 
ENDBRANCH  15  19
ENDBRANCH   5  13
BRANCH   3  21
ATOM     21  C   UNL d   1      -2.796  -5.354   0.246  0.00  0.00     0.213 C 
ATOM     22  O   UNL d   1      -2.724  -5.734  -1.136  0.00  0.00    -0.376 OA
ATOM     23  C   UNL d   1      -3.546  -6.888  -1.348  0.00  0.00     0.168 C 
ATOM     24  C   UNL d   1      -4.412  -7.045  -0.121  0.00  0.00     0.029 C 
ATOM     25  C   UNL d   1      -3.540  -6.473   0.964  0.00  0.00     0.043 C 
ENDBRANCH   3  21
TORSDOF 3
