REMARK  2 active torsions:
REMARK  status: ('A' for Active; 'I' for Inactive)
REMARK    1  A    between atoms: N_2  and  C_1 
REMARK    2  A    between atoms: C_7  and  N_2 
ROOT
ATOM      1  N   UNL d   1       2.194   0.912  -5.108  0.00  0.00    -0.375 N 
ATOM      2  HN  UNL d   1       2.589   1.065  -6.035  1.00  0.00     0.164 HD
ATOM      3  C   UNL d   1       1.148   0.534  -2.535  0.00  0.00     0.036 A 
ATOM      4  C   UNL d   1       2.205  -0.249  -2.992  0.00  0.00     0.046 A 
ATOM      5  C   UNL d   1       0.589   1.475  -3.399  0.00  0.00     0.046 A 
ATOM      6  C   UNL d   1       1.150   1.636  -4.655  0.00  0.00     0.090 A 
ATOM      7  C   UNL d   1       2.688  -0.023  -4.272  0.00  0.00     0.090 A 
ENDROOT
BRANCH   3   8
ATOM      8  N   UNL d   1       0.570   0.402  -1.256  0.00  0.00    -0.333 N 
ATOM      9  H   UNL d   1      -0.367   0.778  -1.148  0.00  0.00     0.168 HD
BRANCH   8  10
ATOM     10  C   UNL d   1       1.045  -0.166  -0.121  0.00  0.00     0.169 C 
ATOM     11  S   UNL d   1       0.036  -0.452   1.169  0.00  0.00    -0.041 SA
ATOM     12  N   UNL d   1       2.361  -0.440  -0.021  0.00  0.00    -0.376 N 
ATOM     13  H   UNL d   1       3.003   0.157  -0.525  0.00  0.00     0.158 HD
ATOM     14  H   UNL d   1       2.684  -0.732   0.895  0.00  0.00     0.158 HD
ENDBRANCH   8  10
ENDBRANCH   3   8
TORSDOF 2
