REMARK  5 active torsions:
REMARK  status: ('A' for Active; 'I' for Inactive)
REMARK    1  A    between atoms: C_2  and  S_1 
REMARK    2  A    between atoms: N_8  and  S_1 
REMARK    3  A    between atoms: C_3  and  C_7 
REMARK    4  A    between atoms: C_9  and  C_10 
REMARK    5  A    between atoms: C_14  and  N_12 
ROOT
ATOM      1  N   UNL d   1       0.424   1.569  -0.166  0.00  0.00    -0.204 NA
ATOM      2  N   UNL d   1       0.674   4.499  -0.906  0.00  0.00    -0.366 N 
ATOM      3  C   UNL d   1       1.467   2.510   0.394  0.00  0.00     0.127 C 
ATOM      4  C   UNL d   1       1.022   3.983   0.422  0.00  0.00     0.140 C 
ATOM      5  C   UNL d   1      -0.948   2.878  -1.839  0.00  0.00     0.035 C 
ATOM      6  C   UNL d   1       0.170   1.865  -1.626  0.00  0.00     0.109 C 
ATOM      7  C   UNL d   1      -0.709   4.298  -1.323  0.00  0.00     0.125 C 
ENDROOT
BRANCH   1   8
ATOM      8  S   UNL d   1       0.879  -0.094   0.030  0.00  0.00     0.250 S 
ATOM      9  O   UNL d   1      -0.169  -0.923  -0.524  0.00  0.00    -0.205 OA
ATOM     10  O   UNL d   1       2.248  -0.211  -0.438  0.00  0.00    -0.205 OA
BRANCH   8  11
ATOM     11  C   UNL d   1       0.967  -0.560   1.748  0.00  0.00     0.116 A 
ATOM     12  S   UNL d   1      -0.473  -0.463   2.669  0.00  0.00    -0.075 SA
ATOM     13  C   UNL d   1       0.284  -1.123   4.056  0.00  0.00     0.033 A 
ATOM     14  C   UNL d   1       1.615  -1.402   3.824  0.00  0.00     0.023 A 
ATOM     15  C   UNL d   1       2.006  -1.084   2.493  0.00  0.00     0.034 A 
BRANCH  13  16
ATOM     16  C   UNL d   1      -0.364  -1.375   5.388  0.00  0.00     0.056 A 
ATOM     17  N   UNL d   1       0.401  -1.785   6.473  0.00  0.00    -0.353 N 
ATOM     18  C   UNL d   1      -0.352  -1.891   7.546  0.00  0.00     0.047 A 
ATOM     19  HN  UNL d   1       1.402  -1.975   6.442  1.00  0.00     0.166 HD
ATOM     20  C   UNL d   1       0.157  -2.246   8.900  0.00  0.00     0.076 C 
ATOM     21  S   UNL d   1      -2.023  -1.572   7.307  0.00  0.00    -0.087 SA
ATOM     22  C   UNL d   1      -1.709  -1.219   5.656  0.00  0.00     0.082 A 
ENDBRANCH  13  16
ENDBRANCH   8  11
ENDBRANCH   1   8
BRANCH   2  23
ATOM     23  C   UNL d   1       1.500   5.326  -1.639  0.00  0.00     0.102 A 
ATOM     24  N   UNL d   1       0.948   6.167  -2.540  0.00  0.00    -0.352 N 
ATOM     25  C   UNL d   1       1.741   6.997  -3.262  0.00  0.00     0.106 A 
ATOM     26  HN  UNL d   1      -0.063   6.178  -2.677  1.00  0.00     0.166 HD
ATOM     27  C   UNL d   1       3.120   7.027  -3.165  0.00  0.00     0.063 A 
ATOM     28  C   UNL d   1       3.699   6.145  -2.257  0.00  0.00     0.021 A 
ATOM     29  C   UNL d   1       2.889   5.303  -1.494  0.00  0.00     0.049 A 
BRANCH  27  30
ATOM     30  C   UNL d   1       3.940   7.954  -4.008  0.00  0.00     0.418 C 
ATOM     31  F   UNL d   1       3.201   8.749  -4.828  0.00  0.00    -0.166 F 
ATOM     32  F   UNL d   1       4.703   8.798  -3.259  0.00  0.00    -0.166 F 
ATOM     33  F   UNL d   1       4.809   7.289  -4.817  0.00  0.00    -0.166 F 
ENDBRANCH  27  30
ENDBRANCH   2  23
TORSDOF 5
