REMARK  8 active torsions:
REMARK  status: ('A' for Active; 'I' for Inactive)
REMARK    1  A    between atoms: C_16  and  C_1 
REMARK    2  A    between atoms: O_14  and  C_2 
REMARK       I    between atoms: N_5  and  C_9 
REMARK    3  A    between atoms: C_7  and  N_5 
REMARK    4  A    between atoms: C_17  and  C_6 
REMARK    5  A    between atoms: C_9  and  C_18 
REMARK    6  A    between atoms: S_13  and  C_17 
REMARK    7  A    between atoms: C_18  and  S_13 
REMARK    8  A    between atoms: O_19  and  C_16 
ROOT
ATOM      1  C   UNL d   1       2.951   1.756  -0.175  0.00  0.00     0.115 C 
ENDROOT
BRANCH   1   2
ATOM      2  S   UNL d   1       2.730   3.364  -0.993  0.00  0.00    -0.155 SA
BRANCH   2   3
ATOM      3  C   UNL d   1       4.415   3.988  -0.700  0.00  0.00     0.177 C 
BRANCH   3   4
ATOM      4  C   UNL d   1       4.637   5.464  -0.995  0.00  0.00     0.231 C 
ATOM      5  N   UNL d   1       3.949   5.982  -2.069  0.00  0.00    -0.324 N 
ATOM      6  H   UNL d   1       3.428   5.328  -2.652  0.00  0.00     0.169 HD
ATOM      7  O   UNL d   1       5.490   6.071  -0.348  0.00  0.00    -0.272 OA
BRANCH   5   8
ATOM      8  C   UNL d   1       4.092   7.294  -2.582  0.00  0.00     0.073 A 
ATOM      9  C   UNL d   1       3.746   7.525  -3.914  0.00  0.00     0.143 A 
ATOM     10  F   UNL d   1       3.268   6.516  -4.662  0.00  0.00    -0.204 F 
ATOM     11  C   UNL d   1       3.942   8.773  -4.506  0.00  0.00     0.044 A 
ATOM     12  C   UNL d   1       4.447   9.827  -3.756  0.00  0.00     0.003 A 
ATOM     13  C   UNL d   1       4.757   9.625  -2.412  0.00  0.00     0.002 A 
ATOM     14  C   UNL d   1       4.582   8.365  -1.826  0.00  0.00     0.033 A 
ENDBRANCH   5   8
ENDBRANCH   3   4
ENDBRANCH   2   3
ENDBRANCH   1   2
BRANCH   1  15
ATOM     15  C   UNL d   1       1.781   0.811  -0.278  0.00  0.00    -0.022 A 
ATOM     16  C   UNL d   1       0.689   0.799   0.620  0.00  0.00     0.009 A 
ATOM     17  C   UNL d   1      -0.232  -0.261   0.514  0.00  0.00     0.096 A 
ATOM     18  C   UNL d   1      -0.083  -1.226  -0.485  0.00  0.00     0.039 A 
ATOM     19  C   UNL d   1      -1.065  -2.350  -0.649  0.00  0.00     0.071 C 
ATOM     20  N   UNL d   1       0.920  -1.176  -1.393  0.00  0.00    -0.367 N 
ATOM     21  C   UNL d   1       1.819  -0.178  -1.265  0.00  0.00     0.096 A 
ATOM     22  HN  UNL d   1       0.993  -1.864  -2.143  1.00  0.00     0.165 HD
BRANCH  16  23
ATOM     23  C   UNL d   1       0.536   1.917   1.628  0.00  0.00     0.206 C 
BRANCH  23  24
ATOM     24  O   UNL d   1      -0.626   1.759   2.443  0.00  0.00    -0.396 OA
ATOM     25  H   UNL d   1      -0.901   2.657   2.703  0.00  0.00     0.209 HD
ENDBRANCH  23  24
ENDBRANCH  16  23
BRANCH  17  26
ATOM     26  O   UNL d   1      -1.275  -0.400   1.390  0.00  0.00    -0.358 OA
ATOM     27  H   UNL d   1      -1.202   0.331   2.043  0.00  0.00     0.217 HD
ENDBRANCH  17  26
ENDBRANCH   1  15
TORSDOF 8
