REMARK  9 active torsions:
REMARK  status: ('A' for Active; 'I' for Inactive)
REMARK    1  A    between atoms: C1*_3  and  N_1 
REMARK    2  A    between atoms: N_17  and  C_2 
REMARK    3  A    between atoms: C2*_8  and  O2*_26 
REMARK    4  A    between atoms: C3*_10  and  O3*_29 
REMARK    5  A    between atoms: C4*_11  and  C5*_31 
REMARK    6  A    between atoms: N_28  and  C_14 
REMARK    7  A    between atoms: N_18  and  N_17 
REMARK    8  A    between atoms: C_24  and  C_27 
REMARK    9  A    between atoms: O5*_32  and  C5*_31 
ROOT
ATOM      1  N   UNL d   1       1.645   1.246   0.202  0.00  0.00    -0.134 N 
ATOM      2  C   UNL d   1       2.489   0.186   0.489  0.00  0.00     0.703 C 
ATOM      3  C   UNL d   1       0.361   0.770   0.264  0.00  0.00     0.158 A 
ATOM      4  N   UNL d   1       1.816  -0.954   0.484  0.00  0.00    -0.182 N 
ATOM      5  HN  UNL d   1       2.198  -1.895   0.578  1.00  0.00     0.184 HD
ATOM      6  C   UNL d   1       0.497  -0.603   0.328  0.00  0.00     0.137 A 
ATOM      7  N   UNL d   1      -0.781   1.466   0.170  0.00  0.00    -0.336 N 
ATOM      8  HN  UNL d   1      -0.836   2.484   0.141  1.00  0.00     0.168 HD
ATOM      9  C   UNL d   1      -0.679  -1.359   0.200  0.00  0.00     0.131 A 
ATOM     10  N   UNL d   1      -1.861  -0.707   0.121  0.00  0.00    -0.337 N 
ATOM     11  HN  UNL d   1      -2.739  -1.222   0.066  1.00  0.00     0.168 HD
ATOM     12  C   UNL d   1      -1.849   0.643   0.119  0.00  0.00     0.183 A 
ENDROOT
BRANCH   2  13
ATOM     13  N   UNL d   1       3.821   0.353   0.694  0.00  0.00    -0.132 N 
ATOM     14  H   UNL d   1       4.208   1.278   0.864  0.00  0.00     0.205 HD
BRANCH  13  15
ATOM     15  N   UNL d   1       4.685  -0.671   0.476  0.00  0.00    -0.297 N 
ATOM     16  C   UNL d   1       5.942  -0.432   0.683  0.00  0.00     0.120 C 
ATOM     17  HN  UNL d   1       4.360  -1.586   0.164  1.00  0.00     0.186 HD
BRANCH  16  18
ATOM     18  C   UNL d   1       6.968  -1.439   0.318  0.00  0.00    -0.005 A 
ATOM     19  C   UNL d   1       8.356  -1.172   0.429  0.00  0.00     0.002 A 
ATOM     20  C   UNL d   1       9.217  -2.122  -0.164  0.00  0.00     0.043 A 
ATOM     21  C   UNL d   1       8.937  -0.042   1.066  0.00  0.00     0.014 A 
ATOM     22  C   UNL d   1      10.584  -1.882  -0.174  0.00  0.00     0.030 A 
ATOM     23  N   UNL d   1       8.780  -3.252  -0.741  0.00  0.00    -0.365 N 
ATOM     24  C   UNL d   1      11.142  -0.752   0.424  0.00  0.00     0.002 A 
ATOM     25  C   UNL d   1      10.318   0.160   1.065  0.00  0.00     0.001 A 
ATOM     26  C   UNL d   1       7.455  -3.495  -0.765  0.00  0.00     0.089 A 
ATOM     27  HN  UNL d   1       9.438  -3.914  -1.153  1.00  0.00     0.165 HD
ATOM     28  C   UNL d   1       6.517  -2.627  -0.263  0.00  0.00     0.030 A 
ENDBRANCH  16  18
ENDBRANCH  13  15
ENDBRANCH   2  13
BRANCH   1  29
ATOM     29  C1* UNL d   1       2.034   2.486  -0.437  0.00  0.00     0.279 C 
ATOM     30  C2* UNL d   1       1.357   3.776   0.032  0.00  0.00     0.199 C 
ATOM     31  C3* UNL d   1       0.391   4.131  -1.093  0.00  0.00     0.182 C 
ATOM     32  C4* UNL d   1       1.014   3.466  -2.315  0.00  0.00     0.179 C 
ATOM     33  O4* UNL d   1       1.792   2.347  -1.855  0.00  0.00    -0.353 OA
BRANCH  30  34
ATOM     34  O2* UNL d   1       2.336   4.834   0.170  0.00  0.00    -0.388 OA
ATOM     35  H2* UNL d   1       2.730   4.998  -0.709  0.00  0.00     0.210 HD
ENDBRANCH  30  34
BRANCH  31  36
ATOM     36  O3* UNL d   1       0.301   5.545  -1.288  0.00  0.00    -0.390 OA
ATOM     37  H3* UNL d   1       0.669   5.970  -0.489  0.00  0.00     0.210 HD
ENDBRANCH  31  36
BRANCH  32  38
ATOM     38  C5* UNL d   1      -0.005   2.990  -3.354  0.00  0.00     0.198 C 
BRANCH  38  39
ATOM     39  O5* UNL d   1      -0.907   2.031  -2.814  0.00  0.00    -0.398 OA
ATOM     40  H5* UNL d   1      -0.364   1.303  -2.455  0.00  0.00     0.209 HD
ENDBRANCH  38  39
ENDBRANCH  32  38
ENDBRANCH   1  29
BRANCH   9  41
ATOM     41  N   UNL d   1      -0.686  -2.744   0.125  0.00  0.00    -0.383 N 
ATOM     42  H   UNL d   1       0.158  -3.185   0.472  0.00  0.00     0.157 HD
ATOM     43  H   UNL d   1      -1.581  -3.153   0.350  0.00  0.00     0.157 HD
ENDBRANCH   9  41
TORSDOF 9
