REMARK  7 active torsions:
REMARK  status: ('A' for Active; 'I' for Inactive)
REMARK    1  A    between atoms: C_7  and  C_3 
REMARK    2  A    between atoms: C_9  and  C_4 
REMARK    3  A    between atoms: C_25  and  C_8 
REMARK    4  A    between atoms: C_11  and  C_9 
REMARK    5  A    between atoms: C_12  and  C_24 
REMARK    6  A    between atoms: O_26  and  C_25 
REMARK    7  A    between atoms: C_27  and  O_26 
ROOT
ATOM      1  C   UNL d   1       4.741  -7.412   0.332  0.00  0.00     0.096 C 
ATOM      2  C   UNL d   1       5.965  -7.051  -0.102  0.00  0.00     0.038 C 
ATOM      3  C   UNL d   1       4.470  -7.716   1.691  0.00  0.00     0.103 C 
ATOM      4  N   UNL d   1       4.241  -7.979   2.800  0.00  0.00    -0.191 NA
ENDROOT
BRANCH   1   5
ATOM      5  C   UNL d   1       3.624  -7.446  -0.675  0.00  0.00     0.209 C 
ATOM      6  O   UNL d   1       3.695  -6.699  -1.654  0.00  0.00    -0.285 OA
BRANCH   5   7
ATOM      7  C   UNL d   1       2.511  -8.370  -0.465  0.00  0.00     0.056 A 
ATOM      8  S   UNL d   1       0.963  -7.964  -1.089  0.00  0.00    -0.098 SA
ATOM      9  C   UNL d   1       0.267  -9.413  -0.508  0.00  0.00     0.050 A 
ATOM     10  C   UNL d   1       1.188 -10.204   0.137  0.00  0.00     0.009 A 
ATOM     11  C   UNL d   1       2.482  -9.605   0.160  0.00  0.00     0.023 A 
ENDBRANCH   5   7
ENDBRANCH   1   5
BRANCH   2  12
ATOM     12  C   UNL d   1       7.167  -6.986   0.734  0.00  0.00    -0.035 A 
ATOM     13  C   UNL d   1       8.008  -8.099   0.834  0.00  0.00     0.014 A 
ATOM     14  C   UNL d   1       9.175  -8.030   1.598  0.00  0.00     0.037 A 
ATOM     15  C   UNL d   1       9.498  -6.860   2.284  0.00  0.00     0.069 A 
ATOM     16  C   UNL d   1       8.670  -5.743   2.175  0.00  0.00     0.037 A 
ATOM     17  C   UNL d   1       7.499  -5.810   1.412  0.00  0.00     0.014 A 
BRANCH  15  18
ATOM     18  O   UNL d   1      10.653  -6.903   3.014  0.00  0.00    -0.343 OA
BRANCH  18  19
ATOM     19  C   UNL d   1      10.652  -6.078   4.182  0.00  0.00     0.262 C 
BRANCH  19  20
ATOM     20  C   UNL d   1      11.621  -6.664   5.137  0.00  0.00     0.172 A 
ATOM     21  N   UNL d   1      12.683  -6.128   5.696  0.00  0.00    -0.321 N 
ATOM     22  C   UNL d   1      13.133  -7.153   6.489  0.00  0.00     0.138 A 
ATOM     23  HN  UNL d   1      13.071  -5.192   5.574  1.00  0.00     0.169 HD
ATOM     24  N   UNL d   1      12.386  -8.265   6.457  0.00  0.00    -0.242 N 
ATOM     25  O   UNL d   1      11.372  -7.940   5.556  0.00  0.00    -0.220 OA
ATOM     26  HN  UNL d   1      12.525  -9.137   6.968  1.00  0.00     0.196 HD
BRANCH  22  27
ATOM     27  C   UNL d   1      14.351  -6.994   7.283  0.00  0.00     0.017 A 
ATOM     28  C   UNL d   1      15.099  -5.838   7.359  0.00  0.00     0.065 A 
ATOM     29  S   UNL d   1      16.470  -6.021   8.367  0.00  0.00    -0.113 SA
ATOM     30  C   UNL d   1      16.070  -7.650   8.707  0.00  0.00     0.050 A 
ATOM     31  C   UNL d   1      14.913  -8.044   8.071  0.00  0.00     0.023 A 
ENDBRANCH  22  27
ENDBRANCH  19  20
ENDBRANCH  18  19
ENDBRANCH  15  18
ENDBRANCH   2  12
TORSDOF 7
