REMARK  5 active torsions:
REMARK  status: ('A' for Active; 'I' for Inactive)
REMARK    1  A    between atoms: C_7  and  N_1 
REMARK    2  A    between atoms: C_14  and  C_3 
REMARK    3  A    between atoms: C_5  and  O_15 
REMARK    4  A    between atoms: C_8  and  C_7 
REMARK    5  A    between atoms: O_15  and  C_24 
ROOT
ATOM      1  N   UNL d   1      -2.533   0.341  -0.328  0.00  0.00     0.107 N 
ATOM      2  C   UNL d   1      -0.139   0.857   0.012  0.00  0.00    -0.007 A 
ATOM      3  C   UNL d   1      -1.561   1.345   0.189  0.00  0.00     0.290 C 
ATOM      4  C   UNL d   1       0.173  -0.472  -0.197  0.00  0.00    -0.007 A 
ATOM      5  S   UNL d   1       1.843  -0.760  -0.319  0.00  0.00    -0.106 SA
ATOM      6  C   UNL d   1      -2.243  -1.054   0.062  0.00  0.00     0.279 C 
ATOM      7  C   UNL d   1       1.052   1.656   0.030  0.00  0.00     0.018 A 
ATOM      8  C   UNL d   1      -0.839  -1.557  -0.339  0.00  0.00     0.077 C 
ATOM      9  C   UNL d   1       2.193   0.905  -0.127  0.00  0.00     0.051 A 
ENDROOT
BRANCH   3  10
ATOM     10  C   UNL d   1      -1.664   1.753   1.660  0.00  0.00    -0.020 A 
ATOM     11  C   UNL d   1      -1.994   3.083   1.982  0.00  0.00     0.012 A 
ATOM     12  C   UNL d   1      -2.135   3.502   3.312  0.00  0.00     0.037 A 
ATOM     13  C   UNL d   1      -1.975   2.588   4.350  0.00  0.00     0.078 A 
ATOM     14  C   UNL d   1      -1.593   1.281   4.048  0.00  0.00     0.037 A 
ATOM     15  C   UNL d   1      -1.435   0.869   2.725  0.00  0.00     0.012 A 
BRANCH  13  16
ATOM     16  O   UNL d   1      -2.148   2.825   5.681  0.00  0.00    -0.255 OA
BRANCH  16  17
ATOM     17  C   UNL d   1      -2.867   3.982   6.067  0.00  0.00     0.530 C 
ATOM     18  F   UNL d   1      -3.924   4.230   5.264  0.00  0.00    -0.144 F 
ATOM     19  F   UNL d   1      -3.341   3.791   7.321  0.00  0.00    -0.144 F 
ATOM     20  F   UNL d   1      -2.052   5.058   6.083  0.00  0.00    -0.144 F 
ENDBRANCH  16  17
ENDBRANCH  13  16
ENDBRANCH   3  10
BRANCH   1  21
ATOM     21  C   UNL d   1      -3.928   0.675  -0.016  0.00  0.00     0.330 C 
BRANCH  21  22
ATOM     22  C   UNL d   1      -4.375   1.938  -0.675  0.00  0.00     0.037 A 
ATOM     23  N   UNL d   1      -4.319   2.103  -2.039  0.00  0.00    -0.368 N 
ATOM     24  C   UNL d   1      -4.811   3.338  -2.372  0.00  0.00     0.088 A 
ATOM     25  H   UNL d   1      -3.954   1.416  -2.686  0.00  0.00     0.165 HD
ATOM     26  C   UNL d   1      -5.184   3.976  -1.211  0.00  0.00     0.019 A 
ATOM     27  C   UNL d   1      -4.914   3.092  -0.141  0.00  0.00     0.028 A 
ENDBRANCH  21  22
ENDBRANCH   1  21
TORSDOF 5
