REMARK  4 active torsions:
REMARK  status: ('A' for Active; 'I' for Inactive)
REMARK    1  A    between atoms: C_12  and  N_3 
REMARK    2  A    between atoms: C_16  and  N_10 
REMARK    3  A    between atoms: C_17  and  C_12 
REMARK    4  A    between atoms: C_14  and  C_16 
ROOT
ATOM      1  C   UNL d   1       0.189   0.665  -0.084  0.00  0.00     0.155 A 
ATOM      2  C   UNL d   1       0.300  -0.701  -0.010  0.00  0.00     0.160 A 
ATOM      3  N   UNL d   1       1.485   1.094  -0.031  0.00  0.00    -0.254 N 
ATOM      4  N   UNL d   1      -0.938   1.413  -0.160  0.00  0.00    -0.335 N 
ATOM      5  HN  UNL d   1      -0.942   2.431  -0.221  1.00  0.00     0.168 HD
ATOM      6  N   UNL d   1       1.610  -1.072   0.043  0.00  0.00    -0.276 N 
ATOM      7  HN  UNL d   1       1.966  -2.026   0.093  1.00  0.00     0.184 HD
ATOM      8  N   UNL d   1       2.340   0.042   0.016  0.00  0.00    -0.018 NA
ATOM      9  C   UNL d   1      -0.898  -1.503   0.003  0.00  0.00     0.280 A 
ATOM     10  N   UNL d   1      -2.062  -0.713  -0.061  0.00  0.00    -0.305 N 
ATOM     11  C   UNL d   1      -2.014   0.681  -0.146  0.00  0.00     0.188 A 
ATOM     12  O   UNL d   1      -0.895  -2.729   0.051  0.00  0.00    -0.265 OA
ENDROOT
BRANCH   3  13
ATOM     13  C   UNL d   1       1.979   2.455   0.030  0.00  0.00     0.187 C 
BRANCH  13  14
ATOM     14  C   UNL d   1       2.084   2.907   1.467  0.00  0.00    -0.038 A 
ATOM     15  C   UNL d   1       3.270   2.706   2.191  0.00  0.00     0.012 A 
ATOM     16  C   UNL d   1       3.328   3.018   3.550  0.00  0.00     0.043 A 
ATOM     17  C   UNL d   1       2.202   3.530   4.184  0.00  0.00     0.116 A 
ATOM     18  C   UNL d   1       1.024   3.754   3.482  0.00  0.00     0.043 A 
ATOM     19  F   UNL d   1       2.248   3.798   5.496  0.00  0.00    -0.206 F 
ATOM     20  C   UNL d   1       0.965   3.446   2.123  0.00  0.00     0.012 A 
ENDBRANCH  13  14
ENDBRANCH   3  13
BRANCH  10  21
ATOM     21  C   UNL d   1      -3.347  -1.382  -0.076  0.00  0.00     0.159 C 
BRANCH  21  22
ATOM     22  C   UNL d   1      -3.962  -1.500   1.297  0.00  0.00    -0.017 C 
ATOM     23  C   UNL d   1      -3.493  -1.053   2.469  0.00  0.00     0.008 C 
ENDBRANCH  21  22
ENDBRANCH  10  21
TORSDOF 4
