REMARK  8 active torsions:
REMARK  status: ('A' for Active; 'I' for Inactive)
REMARK    1  A    between atoms: N_11  and  C_5 
REMARK    2  A    between atoms: C_12  and  N_7 
REMARK    3  A    between atoms: C_15  and  N_11 
REMARK    4  A    between atoms: C_16  and  N_11 
REMARK    5  A    between atoms: C_21  and  C_12 
REMARK    6  A    between atoms: C_19  and  C_15 
REMARK    7  A    between atoms: C_20  and  C_16 
REMARK    8  A    between atoms: O_22  and  C_21 
ROOT
ATOM      1  C   UNL d   1      -0.388  -0.871  -0.447  0.00  0.00     0.160 A 
ATOM      2  C   UNL d   1      -0.698   0.446  -0.587  0.00  0.00     0.164 A 
ATOM      3  N   UNL d   1      -1.484  -1.658  -0.480  0.00  0.00    -0.174 N 
ATOM      4  HN  UNL d   1      -1.512  -2.676  -0.414  1.00  0.00     0.186 HD
ATOM      5  C   UNL d   1      -2.509  -0.844  -0.615  0.00  0.00     0.685 A 
ATOM      6  N   UNL d   1       0.893  -1.321  -0.231  0.00  0.00    -0.287 N 
ATOM      7  N   UNL d   1      -2.084   0.485  -0.721  0.00  0.00    -0.171 N 
ATOM      8  N   UNL d   1       1.601   0.955  -0.288  0.00  0.00    -0.269 N 
ATOM      9  C   UNL d   1       1.937  -0.401  -0.142  0.00  0.00     0.332 A 
ATOM     10  C   UNL d   1       0.309   1.462  -0.506  0.00  0.00     0.282 A 
ATOM     11  O   UNL d   1       3.094  -0.771   0.066  0.00  0.00    -0.246 OA
ATOM     12  O   UNL d   1       0.078   2.663  -0.604  0.00  0.00    -0.265 OA
ATOM     13  C   UNL d   1       1.187  -2.732  -0.069  0.00  0.00     0.163 C 
ATOM     14  C   UNL d   1       2.670   1.926  -0.150  0.00  0.00     0.164 C 
ENDROOT
BRANCH   5  15
ATOM     15  N   UNL d   1      -3.809  -1.242  -0.543  0.00  0.00    -0.209 N 
BRANCH  15  16
ATOM     16  C   UNL d   1      -4.101  -2.369   0.359  0.00  0.00     0.180 C 
BRANCH  16  17
ATOM     17  C   UNL d   1      -4.537  -1.911   1.735  0.00  0.00    -0.040 A 
ATOM     18  C   UNL d   1      -5.901  -1.857   2.061  0.00  0.00     0.009 A 
ATOM     19  C   UNL d   1      -6.310  -1.559   3.362  0.00  0.00     0.001 A 
ATOM     20  C   UNL d   1      -5.361  -1.295   4.348  0.00  0.00     0.000 A 
ATOM     21  C   UNL d   1      -4.004  -1.311   4.029  0.00  0.00     0.001 A 
ATOM     22  C   UNL d   1      -3.592  -1.613   2.729  0.00  0.00     0.009 A 
ENDBRANCH  16  17
ENDBRANCH  15  16
BRANCH  15  23
ATOM     23  C   UNL d   1      -4.586  -1.241  -1.793  0.00  0.00     0.180 C 
BRANCH  23  24
ATOM     24  C   UNL d   1      -4.555  -2.443  -2.717  0.00  0.00    -0.040 A 
ATOM     25  C   UNL d   1      -3.646  -3.503  -2.643  0.00  0.00     0.009 A 
ATOM     26  C   UNL d   1      -3.686  -4.536  -3.586  0.00  0.00     0.001 A 
ATOM     27  C   UNL d   1      -4.608  -4.504  -4.632  0.00  0.00     0.000 A 
ATOM     28  C   UNL d   1      -5.497  -3.442  -4.740  0.00  0.00     0.001 A 
ATOM     29  C   UNL d   1      -5.472  -2.424  -3.788  0.00  0.00     0.009 A 
ENDBRANCH  23  24
ENDBRANCH  15  23
ENDBRANCH   5  15
BRANCH   7  30
ATOM     30  C   UNL d   1      -2.889   1.709  -0.644  0.00  0.00     0.179 C 
BRANCH  30  31
ATOM     31  C   UNL d   1      -3.954   1.966  -1.732  0.00  0.00     0.133 C 
ATOM     32  C   UNL d   1      -4.184   3.447  -2.022  0.00  0.00     0.041 C 
BRANCH  31  33
ATOM     33  O   UNL d   1      -5.236   1.461  -1.341  0.00  0.00    -0.394 OA
ATOM     34  H   UNL d   1      -5.484   1.867  -0.491  0.00  0.00     0.210 HD
ENDBRANCH  31  33
ENDBRANCH  30  31
ENDBRANCH   7  30
TORSDOF 8
