REMARK  3 active torsions:
REMARK  status: ('A' for Active; 'I' for Inactive)
REMARK    1  A    between atoms: N_2  and  C_1 
REMARK    2  A    between atoms: N_9  and  C_3 
REMARK    3  A    between atoms: N_7  and  C_5 
ROOT
ATOM      1  C   UNL d   1       1.651  -1.290   0.067  0.00  0.00     0.131 A 
ATOM      2  C   UNL d   1       2.453  -0.133   0.051  0.00  0.00     0.066 A 
ATOM      3  C   UNL d   1       0.244  -1.254   0.056  0.00  0.00     0.064 A 
ATOM      4  C   UNL d   1       0.304   1.151   0.021  0.00  0.00     0.062 A 
ATOM      5  C   UNL d   1       1.720   1.080   0.022  0.00  0.00     0.063 A 
ATOM      6  C   UNL d   1      -0.434  -0.036   0.026  0.00  0.00     0.063 A 
ATOM      7 CL   UNL d   1      -2.149  -0.143  -0.161  0.00  0.00    -0.082 Cl
ENDROOT
BRANCH   2   8
ATOM      8  N   UNL d   1       3.837  -0.069   0.123  0.00  0.00    -0.379 N 
ATOM      9  C   UNL d   1       4.688  -1.088   0.753  0.00  0.00     0.123 C 
ATOM     10  C   UNL d   1       5.704  -0.416   1.682  0.00  0.00     0.020 C 
ATOM     11  C   UNL d   1       6.465   0.724   1.010  0.00  0.00     0.003 C 
ATOM     12  C   UNL d   1       5.514   1.690   0.305  0.00  0.00     0.020 C 
ATOM     13  C   UNL d   1       4.590   0.934  -0.648  0.00  0.00     0.123 C 
ENDBRANCH   2   8
BRANCH   1  14
ATOM     14  N   UNL d   1       2.215  -2.624   0.011  0.00  0.00    -0.113 N 
ATOM     15  O   UNL d   1       2.862  -2.934  -1.000  0.00  0.00    -0.532 OA
ATOM     16  O   UNL d   1       1.962  -3.377   0.963  0.00  0.00    -0.532 OA
ENDBRANCH   1  14
BRANCH   4  17
ATOM     17  N   UNL d   1      -0.298   2.444   0.048  0.00  0.00    -0.331 N 
ATOM     18  C   UNL d   1       0.226   3.592  -0.524  0.00  0.00     0.096 A 
ATOM     19  C   UNL d   1      -0.626   4.649  -0.284  0.00  0.00     0.019 A 
ATOM     20  C   UNL d   1      -1.691   4.156   0.494  0.00  0.00     0.019 A 
ATOM     21  C   UNL d   1      -1.460   2.813   0.697  0.00  0.00     0.096 A 
ENDBRANCH   4  17
TORSDOF 3
