REMARK  4 active torsions:
REMARK  status: ('A' for Active; 'I' for Inactive)
REMARK    1  A    between atoms: C_8  and  C_1 
REMARK    2  A    between atoms: C_12  and  N_5 
REMARK       I    between atoms: N_10  and  C_8 
REMARK    3  A    between atoms: C_22  and  N_10 
REMARK    4  A    between atoms: C_16  and  C_17 
ROOT
ATOM      1  C   UNL d   1      -0.547   1.108   0.117  0.00  0.00     0.124 C 
ATOM      2  C   UNL d   1       1.544  -0.140   0.266  0.00  0.00     0.098 C 
ATOM      3  N   UNL d   1      -1.304   0.095  -0.206  0.00  0.00    -0.286 N 
ATOM      4  HN  UNL d   1      -2.291   0.206  -0.440  1.00  0.00     0.188 HD
ATOM      5  N   UNL d   1      -0.677  -1.148  -0.209  0.00  0.00    -0.238 N 
ATOM      6  C   UNL d   1       0.724  -1.294  -0.217  0.00  0.00     0.142 C 
ATOM      7  C   UNL d   1       0.918   1.027   0.496  0.00  0.00    -0.004 C 
ATOM      8  C   UNL d   1       2.924  -0.343   0.535  0.00  0.00     0.104 C 
ATOM      9  N   UNL d   1       4.050  -0.516   0.736  0.00  0.00    -0.191 NA
ATOM     10  N   UNL d   1       1.311  -2.390  -0.619  0.00  0.00    -0.383 N 
ATOM     11  HN  UNL d   1       0.792  -3.198  -0.962  1.00  0.00     0.157 HD
ATOM     12  C   UNL d   1       1.612   2.208   1.119  0.00  0.00     0.052 C 
ATOM     13  H   UNL d   1       2.333  -2.374  -0.564  0.00  0.00     0.157 HD
ENDROOT
BRANCH   1  14
ATOM     14  C   UNL d   1      -1.198   2.508   0.156  0.00  0.00     0.274 C 
ATOM     15  N   UNL d   1      -2.158   2.765  -0.812  0.00  0.00    -0.322 N 
ATOM     16  H   UNL d   1      -2.487   1.969  -1.348  0.00  0.00     0.169 HD
ATOM     17  O   UNL d   1      -0.852   3.274   1.043  0.00  0.00    -0.266 OA
BRANCH  15  18
ATOM     18  C   UNL d   1      -2.887   3.982  -0.910  0.00  0.00     0.035 A 
ATOM     19  C   UNL d   1      -2.486   5.170  -0.281  0.00  0.00     0.029 A 
ATOM     20  C   UNL d   1      -3.296   6.311  -0.300  0.00  0.00     0.002 A 
ATOM     21  C   UNL d   1      -4.512   6.288  -0.971  0.00  0.00     0.000 A 
ATOM     22  C   UNL d   1      -4.895   5.138  -1.658  0.00  0.00     0.002 A 
ATOM     23  C   UNL d   1      -4.081   3.994  -1.640  0.00  0.00     0.029 A 
ENDBRANCH  15  18
ENDBRANCH   1  14
BRANCH   5  24
ATOM     24  C   UNL d   1      -1.524  -2.306  -0.117  0.00  0.00     0.058 A 
ATOM     25  C   UNL d   1      -2.795  -2.365  -0.694  0.00  0.00     0.032 A 
ATOM     26  C   UNL d   1      -3.533  -3.569  -0.699  0.00  0.00     0.010 A 
ATOM     27  C   UNL d   1      -3.039  -4.753  -0.110  0.00  0.00    -0.051 A 
ATOM     28  C   UNL d   1      -1.812  -4.657   0.549  0.00  0.00     0.010 A 
ATOM     29  C   UNL d   1      -1.084  -3.463   0.551  0.00  0.00     0.032 A 
BRANCH  27  30
ATOM     30  C   UNL d   1      -3.804  -6.086  -0.212  0.00  0.00    -0.024 C 
ATOM     31  C   UNL d   1      -3.063  -7.286   0.431  0.00  0.00     0.019 C 
ATOM     32  C   UNL d   1      -5.167  -5.962   0.493  0.00  0.00     0.019 C 
ATOM     33  C   UNL d   1      -4.025  -6.453  -1.696  0.00  0.00     0.019 C 
ENDBRANCH  27  30
ENDBRANCH   5  24
TORSDOF 4
