REMARK  5 active torsions:
REMARK  status: ('A' for Active; 'I' for Inactive)
REMARK    1  A    between atoms: C_3  and  C_1 
REMARK    2  A    between atoms: O_7  and  C_3 
REMARK    3  A    between atoms: C_12  and  O_7 
REMARK    4  A    between atoms: C_8  and  C_12 
REMARK    5  A    between atoms: C_10  and  C_8 
ROOT
ATOM      1  C   UNL d   1      -1.336   3.795  -1.298  0.00  0.00     0.295 C 
ATOM      2  O   UNL d   1      -0.751   4.068  -2.336  0.00  0.00    -0.259 OA
ENDROOT
BRANCH   1   3
ATOM      3  C   UNL d   1      -2.788   3.459  -1.259  0.00  0.00     0.059 A 
ATOM      4  C   UNL d   1      -3.688   3.731  -0.206  0.00  0.00     0.044 A 
ATOM      5  C   UNL d   1      -5.032   3.312  -0.334  0.00  0.00     0.053 A 
ATOM      6  I   UNL d   1      -3.115   4.846   1.517  0.00  0.00    -0.042 I 
ATOM      7 CL   UNL d   1      -6.239   3.551   0.888  0.00  0.00    -0.083 Cl
ATOM      8  C   UNL d   1      -5.474   2.666  -1.493  0.00  0.00     0.049 A 
ATOM      9  C   UNL d   1      -4.589   2.429  -2.534  0.00  0.00     0.036 A 
ATOM     10  C   UNL d   1      -3.258   2.815  -2.422  0.00  0.00     0.043 A 
ATOM     11 CL   UNL d   1      -5.141   1.656  -3.967  0.00  0.00    -0.084 Cl
ENDBRANCH   1   3
BRANCH   1  12
ATOM     12  O   UNL d   1      -0.747   3.572  -0.104  0.00  0.00    -0.310 OA
BRANCH  12  13
ATOM     13  C   UNL d   1       0.665   3.790  -0.063  0.00  0.00     0.263 C 
BRANCH  13  14
ATOM     14  C   UNL d   1       1.102   5.257   0.029  0.00  0.00     0.183 C 
ATOM     15  O   UNL d   1       0.306   6.189  -0.048  0.00  0.00    -0.290 OA
BRANCH  14  16
ATOM     16  C   UNL d   1       2.556   5.548   0.263  0.00  0.00     0.012 A 
ATOM     17  C   UNL d   1       3.513   4.532   0.395  0.00  0.00     0.016 A 
ATOM     18  C   UNL d   1       4.851   4.847   0.661  0.00  0.00     0.020 A 
ATOM     19  C   UNL d   1       5.240   6.179   0.790  0.00  0.00     0.011 A 
ATOM     20  C   UNL d   1       4.306   7.201   0.646  0.00  0.00     0.020 A 
ATOM     21 BR   UNL d   1       7.044   6.595   1.171  0.00  0.00    -0.051 Br
ATOM     22  C   UNL d   1       2.967   6.886   0.383  0.00  0.00     0.016 A 
ENDBRANCH  14  16
ENDBRANCH  13  14
ENDBRANCH  12  13
ENDBRANCH   1  12
TORSDOF 5
