REMARK  9 active torsions:
REMARK  status: ('A' for Active; 'I' for Inactive)
REMARK    1  A    between atoms: C_7  and  N_1 
REMARK    2  A    between atoms: S_9  and  C_2 
REMARK    3  A    between atoms: C_13  and  C_6 
REMARK    4  A    between atoms: O_18  and  C_8 
REMARK    5  A    between atoms: C_15  and  S_9 
REMARK    6  A    between atoms: C_12  and  C_15 
REMARK    7  A    between atoms: O_19  and  C_12 
REMARK    8  A    between atoms: O_20  and  C_16 
REMARK    9  A    between atoms: C_23  and  O_19 
ROOT
ATOM      1  N   UNL d   1      -0.291  -1.144   0.141  0.00  0.00    -0.298 N 
ATOM      2  C   UNL d   1       1.020  -0.667  -0.017  0.00  0.00     0.152 A 
ATOM      3  N   UNL d   1       1.085   0.650   0.009  0.00  0.00    -0.335 N 
ATOM      4  HN  UNL d   1       1.916   1.229  -0.117  1.00  0.00     0.168 HD
ATOM      5  C   UNL d   1      -1.034  -0.001   0.392  0.00  0.00     0.130 A 
ATOM      6  C   UNL d   1      -0.192   1.075   0.241  0.00  0.00     0.060 A 
ENDROOT
BRANCH   1   7
ATOM      7  C   UNL d   1      -0.819  -2.484   0.023  0.00  0.00     0.074 A 
ATOM      8  C   UNL d   1      -2.150  -2.742  -0.389  0.00  0.00     0.098 A 
ATOM      9  C   UNL d   1      -2.571  -4.071  -0.593  0.00  0.00     0.075 A 
ATOM     10  C   UNL d   1      -1.698  -5.144  -0.422  0.00  0.00     0.070 A 
ATOM     11  C   UNL d   1      -0.410  -4.893   0.028  0.00  0.00     0.039 A 
ATOM     12  C   UNL d   1       0.015  -3.584   0.275  0.00  0.00     0.036 A 
BRANCH   8  13
ATOM     13  O   UNL d   1      -3.003  -1.687  -0.592  0.00  0.00    -0.354 OA
ATOM     14  C   UNL d   1      -4.186  -1.904  -1.352  0.00  0.00     0.210 C 
ENDBRANCH   8  13
BRANCH  10  15
ATOM     15  O   UNL d   1      -1.989  -6.461  -0.638  0.00  0.00    -0.356 OA
ATOM     16  C   UNL d   1      -3.263  -6.754  -1.201  0.00  0.00     0.210 C 
ENDBRANCH  10  15
ENDBRANCH   1   7
BRANCH   2  17
ATOM     17  S   UNL d   1       2.423  -1.623  -0.422  0.00  0.00    -0.083 SA
BRANCH  17  18
ATOM     18  C   UNL d   1       3.770  -0.637   0.275  0.00  0.00     0.193 C 
BRANCH  18  19
ATOM     19  C   UNL d   1       3.585  -0.311   1.744  0.00  0.00     0.268 C 
ATOM     20  O   UNL d   1       2.932  -0.948   2.555  0.00  0.00    -0.264 OA
BRANCH  19  21
ATOM     21  O   UNL d   1       4.304   0.818   2.028  0.00  0.00    -0.321 OA
BRANCH  21  22
ATOM     22  C   UNL d   1       3.961   1.479   3.252  0.00  0.00     0.174 C 
ATOM     23  C   UNL d   1       2.773   2.388   2.986  0.00  0.00     0.034 C 
ENDBRANCH  21  22
ENDBRANCH  19  21
ENDBRANCH  18  19
ENDBRANCH  17  18
ENDBRANCH   2  17
BRANCH   6  24
ATOM     24  C   UNL d   1      -0.596   2.471   0.259  0.00  0.00    -0.008 A 
ATOM     25  C   UNL d   1      -1.638   2.925   1.078  0.00  0.00     0.014 A 
ATOM     26  C   UNL d   1      -2.031   4.267   1.050  0.00  0.00     0.001 A 
ATOM     27  C   UNL d   1      -1.390   5.165   0.198  0.00  0.00     0.000 A 
ATOM     28  C   UNL d   1      -0.353   4.725  -0.622  0.00  0.00     0.001 A 
ATOM     29  C   UNL d   1       0.045   3.385  -0.588  0.00  0.00     0.014 A 
ENDBRANCH   6  24
TORSDOF 9
