REMARK  7 active torsions:
REMARK  status: ('A' for Active; 'I' for Inactive)
REMARK    1  A    between atoms: C_9  and  C_1 
REMARK    2  A    between atoms: C_11  and  N_2 
REMARK    3  A    between atoms: C_13  and  C_6 
REMARK    4  A    between atoms: N_7  and  C_15 
REMARK    5  A    between atoms: O_28  and  C_9 
REMARK    6  A    between atoms: C_33  and  O_28 
REMARK    7  A    between atoms: O_32  and  C_29 
ROOT
ATOM      1  C   UNL d   1      -1.312  -0.001  -0.196  0.00  0.00     0.241 C 
ATOM      2  N   UNL d   1      -0.391   1.097   0.195  0.00  0.00    -0.257 N 
ATOM      3  N   UNL d   1       0.915   0.700   0.207  0.00  0.00    -0.298 N 
ATOM      4  HN  UNL d   1       1.727   1.309   0.300  1.00  0.00     0.187 HD
ATOM      5  C   UNL d   1       0.939  -0.593   0.077  0.00  0.00     0.055 C 
ATOM      6  C   UNL d   1      -0.428  -1.251   0.066  0.00  0.00     0.126 C 
ATOM      7  C   UNL d   1       2.186  -1.322   0.022  0.00  0.00     0.029 A 
ATOM      8  C   UNL d   1      -1.716   0.139  -1.615  0.00  0.00     0.105 C 
ATOM      9  N   UNL d   1      -2.022   0.260  -2.728  0.00  0.00    -0.194 NA
ATOM     10  S   UNL d   1       3.538  -0.606  -0.760  0.00  0.00    -0.100 SA
ATOM     11  C   UNL d   1       2.487  -2.590   0.479  0.00  0.00     0.021 A 
ATOM     12  C   UNL d   1       4.494  -2.003  -0.538  0.00  0.00     0.050 A 
ATOM     13  C   UNL d   1       3.821  -2.982   0.156  0.00  0.00     0.008 A 
ENDROOT
BRANCH   1  14
ATOM     14  C   UNL d   1      -2.560  -0.035   0.698  0.00  0.00     0.305 C 
ATOM     15  O   UNL d   1      -3.705  -0.214   0.295  0.00  0.00    -0.261 OA
BRANCH  14  16
ATOM     16  O   UNL d   1      -2.264   0.183   2.017  0.00  0.00    -0.319 OA
BRANCH  16  17
ATOM     17  C   UNL d   1      -3.369   0.592   2.843  0.00  0.00     0.174 C 
ATOM     18  C   UNL d   1      -3.998  -0.588   3.556  0.00  0.00     0.034 C 
ENDBRANCH  16  17
ENDBRANCH  14  16
ENDBRANCH   1  14
BRANCH   2  19
ATOM     19  C   UNL d   1      -0.689   2.426   0.467  0.00  0.00     0.053 A 
ATOM     20  C   UNL d   1       0.199   3.186   1.256  0.00  0.00     0.034 A 
ATOM     21  C   UNL d   1      -0.055   4.517   1.597  0.00  0.00     0.038 A 
ATOM     22  C   UNL d   1      -1.214   5.128   1.122  0.00  0.00     0.103 A 
ATOM     23  C   UNL d   1      -2.109   4.414   0.320  0.00  0.00     0.038 A 
ATOM     24  C   UNL d   1      -1.846   3.071   0.005  0.00  0.00     0.034 A 
BRANCH  22  25
ATOM     25  N   UNL d   1      -1.492   6.527   1.469  0.00  0.00    -0.116 N 
ATOM     26  O   UNL d   1      -2.505   7.050   0.983  0.00  0.00    -0.532 OA
ATOM     27  O   UNL d   1      -0.704   7.098   2.236  0.00  0.00    -0.532 OA
ENDBRANCH  22  25
ENDBRANCH   2  19
BRANCH   6  28
ATOM     28  C   UNL d   1      -0.596  -2.441  -0.859  0.00  0.00    -0.044 A 
ATOM     29  C   UNL d   1      -1.417  -3.510  -0.466  0.00  0.00     0.011 A 
ATOM     30  C   UNL d   1      -1.576  -4.632  -1.288  0.00  0.00     0.037 A 
ATOM     31  C   UNL d   1      -0.917  -4.704  -2.513  0.00  0.00     0.068 A 
ATOM     32  C   UNL d   1      -0.133  -3.631  -2.930  0.00  0.00     0.037 A 
ATOM     33  C   UNL d   1       0.029  -2.510  -2.114  0.00  0.00     0.011 A 
BRANCH  31  34
ATOM     34  O   UNL d   1      -0.998  -5.743  -3.396  0.00  0.00    -0.356 OA
ATOM     35  C   UNL d   1      -1.249  -7.020  -2.821  0.00  0.00     0.210 C 
ENDBRANCH  31  34
ENDBRANCH   6  28
TORSDOF 7
