REMARK  4 active torsions:
REMARK  status: ('A' for Active; 'I' for Inactive)
REMARK    1  A    between atoms: C_7  and  C_3 
REMARK    2  A    between atoms: C_12  and  N_4 
REMARK       I    between atoms: N_10  and  C_7 
REMARK       I    between atoms: C_8  and  N_11 
REMARK    3  A    between atoms: C_9  and  C_8 
REMARK    4  A    between atoms: N_11  and  N_10 
ROOT
ATOM      1  C   UNL d   1      -0.741  -2.545   0.012  0.00  0.00     0.288 C 
ATOM      2  N   UNL d   1       0.287  -3.470   0.051  0.00  0.00    -0.262 N 
ATOM      3  O   UNL d   1      -1.921  -2.900  -0.028  0.00  0.00    -0.264 OA
ATOM      4  H   UNL d   1       1.263  -3.189   0.121  0.00  0.00     0.190 HD
ENDROOT
BRANCH   1   5
ATOM      5  C   UNL d   1      -0.345  -1.129   0.023  0.00  0.00     0.119 A 
ATOM      6  N   UNL d   1       0.926  -0.694   0.042  0.00  0.00    -0.292 N 
ATOM      7  N   UNL d   1       0.841   0.671   0.028  0.00  0.00    -0.287 N 
ATOM      8  HN  UNL d   1       1.773  -1.261   0.062  1.00  0.00     0.187 HD
ATOM      9  C   UNL d   1      -0.472   1.107   0.021  0.00  0.00     0.028 A 
ATOM     10  C   UNL d   1      -0.972   2.506   0.020  0.00  0.00     0.070 C 
ATOM     11  C   UNL d   1      -1.241  -0.037   0.010  0.00  0.00     0.063 A 
BRANCH   7  12
ATOM     12  C   UNL d   1       2.090   1.470   0.025  0.00  0.00     0.043 C 
ATOM     13  C   UNL d   1       3.347   0.561   0.001  0.00  0.00     0.039 C 
ATOM     14  C   UNL d   1       2.174   2.364  -1.231  0.00  0.00     0.039 C 
ATOM     15  C   UNL d   1       2.196   2.328   1.302  0.00  0.00     0.039 C 
ENDBRANCH   7  12
ENDBRANCH   1   5
BRANCH   2  16
ATOM     16  N   UNL d   1      -0.053  -4.835   0.057  0.00  0.00    -0.263 N 
ATOM     17  C   UNL d   1       0.907  -5.816   0.207  0.00  0.00     0.277 C 
ATOM     18  O   UNL d   1       2.101  -5.536   0.296  0.00  0.00    -0.265 OA
ATOM     19  H   UNL d   1      -1.045  -5.059  -0.012  0.00  0.00     0.190 HD
BRANCH  17  20
ATOM     20  C   UNL d   1       0.407  -7.192   0.246  0.00  0.00     0.074 A 
ATOM     21  S   UNL d   1      -1.271  -7.561   0.212  0.00  0.00    -0.097 SA
ATOM     22  C   UNL d   1      -0.984  -9.243   0.295  0.00  0.00     0.050 A 
ATOM     23  C   UNL d   1       0.361  -9.534   0.347  0.00  0.00     0.009 A 
ATOM     24  C   UNL d   1       1.160  -8.353   0.322  0.00  0.00     0.025 A 
ENDBRANCH  17  20
ENDBRANCH   2  16
TORSDOF 4
