REMARK  3 active torsions:
REMARK  status: ('A' for Active; 'I' for Inactive)
REMARK    1  A    between atoms: N_7  and  C_1 
REMARK       I    between atoms: C_8  and  N_7 
REMARK       I    between atoms: N_12  and  C_8 
REMARK    2  A    between atoms: C_10  and  C_14 
REMARK    3  A    between atoms: C_14  and  N_12 
ROOT
ATOM      1  N   UNL d   1       0.186   2.168   0.314  0.00  0.00    -0.305 N 
ATOM      2  C   UNL d   1       1.179   3.048   0.106  0.00  0.00     0.321 C 
ATOM      3  N   UNL d   1       2.372   2.691  -0.440  0.00  0.00    -0.339 N 
ATOM      4  O   UNL d   1       0.927   4.217   0.416  0.00  0.00    -0.247 OA
ATOM      5  H   UNL d   1      -0.617   2.692   0.647  0.00  0.00     0.171 HD
ATOM      6  H   UNL d   1       2.331   1.921  -1.090  0.00  0.00     0.164 HD
ENDROOT
BRANCH   1   7
ATOM      7  C   UNL d   1      -0.034   0.810   0.223  0.00  0.00     0.092 A 
ATOM      8  C   UNL d   1       0.754  -0.285  -0.055  0.00  0.00     0.101 A 
ATOM      9  O   UNL d   1      -0.017  -1.411  -0.012  0.00  0.00    -0.240 OA
ATOM     10  C   UNL d   1       2.161  -0.566  -0.360  0.00  0.00     0.081 C 
ATOM     11  N   UNL d   1      -1.311  -1.096   0.324  0.00  0.00    -0.263 N 
ATOM     12  C   UNL d   1      -1.324   0.228   0.479  0.00  0.00     0.058 A 
ATOM     13  HN  UNL d   1      -2.096  -1.739   0.431  1.00  0.00     0.194 HD
ATOM     14  C   UNL d   1      -2.581   0.913   0.874  0.00  0.00     0.072 C 
ENDBRANCH   1   7
BRANCH   3  15
ATOM     15  C   UNL d   1       3.221   3.808  -0.823  0.00  0.00     0.164 C 
BRANCH  15  16
ATOM     16  C   UNL d   1       4.672   3.583  -1.182  0.00  0.00    -0.019 A 
ATOM     17  C   UNL d   1       5.176   2.542  -1.971  0.00  0.00     0.043 A 
ATOM     18  C   UNL d   1       6.526   2.517  -2.356  0.00  0.00     0.048 A 
ATOM     19 CL   UNL d   1       4.172   1.287  -2.588  0.00  0.00    -0.084 Cl
ATOM     20  C   UNL d   1       7.376   3.558  -1.998  0.00  0.00     0.035 A 
ATOM     21  C   UNL d   1       6.901   4.617  -1.238  0.00  0.00     0.024 A 
ATOM     22 CL   UNL d   1       9.011   3.558  -2.532  0.00  0.00    -0.084 Cl
ATOM     23  C   UNL d   1       5.566   4.624  -0.831  0.00  0.00     0.012 A 
ENDBRANCH  15  16
ENDBRANCH   3  15
TORSDOF 3
