REMARK  2 active torsions:
REMARK  status: ('A' for Active; 'I' for Inactive)
REMARK    1  A    between atoms: C_2  and  C_1 
REMARK       I    between atoms: N_11  and  C_1 
REMARK    2  A    between atoms: N_13  and  N_11 
ROOT
ATOM      1  C   UNL d   1       0.156  -1.341   0.096  0.00  0.00     0.036 A 
ATOM      2  C   UNL d   1      -1.551  -2.814  -0.654  0.00  0.00     0.106 A 
ATOM      3  C   UNL d   1      -0.906  -1.604  -0.781  0.00  0.00     0.057 A 
ATOM      4  C   UNL d   1      -1.187  -3.740   0.296  0.00  0.00     0.105 A 
ATOM      5  O   UNL d   1      -2.597  -3.233  -1.415  0.00  0.00    -0.323 OA
ATOM      6  O   UNL d   1      -1.957  -4.860   0.247  0.00  0.00    -0.323 OA
ATOM      7  C   UNL d   1      -2.845  -4.535  -0.844  0.00  0.00     0.352 A 
ATOM      8  C   UNL d   1       0.520  -2.284   1.082  0.00  0.00     0.020 A 
ATOM      9  C   UNL d   1      -0.157  -3.506   1.181  0.00  0.00     0.041 A 
ENDROOT
BRANCH   1  10
ATOM     10  C   UNL d   1       0.896  -0.053   0.029  0.00  0.00     0.265 C 
ATOM     11  O   UNL d   1       1.370   0.453   1.042  0.00  0.00    -0.266 OA
ATOM     12  N   UNL d   1       1.022   0.504  -1.238  0.00  0.00    -0.290 N 
ATOM     13  H   UNL d   1       0.834  -0.059  -2.066  0.00  0.00     0.183 HD
BRANCH  12  14
ATOM     14  N   UNL d   1       1.765   1.694  -1.396  0.00  0.00    -0.247 NA
ATOM     15  H   UNL d   1       2.226   1.876  -0.492  0.00  0.00     0.143 HD
ATOM     16  H   UNL d   1       1.100   2.465  -1.490  0.00  0.00     0.143 HD
ENDBRANCH  12  14
ENDBRANCH   1  10
TORSDOF 2
