REMARK  4 active torsions:
REMARK  status: ('A' for Active; 'I' for Inactive)
REMARK    1  A    between atoms: C_3  and  C_1 
REMARK    2  A    between atoms: C_4  and  C_1 
REMARK    3  A    between atoms: N_7  and  C_2 
REMARK    4  A    between atoms: C_11  and  N_7 
ROOT
ATOM      1  N   UNL d   1       0.886  -1.606   1.938  0.00  0.00    -0.365 N 
ATOM      2  H   UNL d   1       1.912  -1.610   1.979  0.00  0.00     0.165 HD
ENDROOT
BRANCH   1   3
ATOM      3  C   UNL d   1       0.349  -0.822   0.943  0.00  0.00     0.107 C 
ATOM      4  C   UNL d   1       0.985  -0.011   0.075  0.00  0.00     0.070 C 
BRANCH   4   5
ATOM      5  C   UNL d   1       0.200   0.797  -0.907  0.00  0.00     0.160 C 
ATOM      6  O   UNL d   1       0.732   1.161  -1.959  0.00  0.00    -0.293 OA
ATOM      7  C   UNL d   1      -1.235   1.190  -0.630  0.00  0.00     0.097 C 
ENDBRANCH   4   5
BRANCH   4   8
ATOM      8  C   UNL d   1       2.488   0.011   0.110  0.00  0.00     0.160 C 
ATOM      9  O   UNL d   1       3.117  -0.900   0.663  0.00  0.00    -0.293 OA
ATOM     10  C   UNL d   1       3.249   1.173  -0.474  0.00  0.00     0.097 C 
ENDBRANCH   4   8
ENDBRANCH   1   3
BRANCH   1  11
ATOM     11  C   UNL d   1       0.245  -2.574   2.727  0.00  0.00     0.033 A 
ATOM     12  C   UNL d   1       0.761  -2.854   3.999  0.00  0.00     0.055 A 
ATOM     13  C   UNL d   1       0.113  -3.747   4.861  0.00  0.00     0.058 A 
ATOM     14 CL   UNL d   1       0.806  -4.003   6.423  0.00  0.00    -0.082 Cl
ATOM     15  C   UNL d   1      -1.062  -4.381   4.451  0.00  0.00     0.055 A 
ATOM     16  C   UNL d   1      -1.588  -4.107   3.188  0.00  0.00     0.028 A 
ATOM     17 CL   UNL d   1      -1.913  -5.503   5.450  0.00  0.00    -0.083 Cl
ATOM     18  C   UNL d   1      -0.948  -3.199   2.341  0.00  0.00     0.031 A 
ENDBRANCH   1  11
TORSDOF 4
