REMARK  3 active torsions:
REMARK  status: ('A' for Active; 'I' for Inactive)
REMARK    1  A    between atoms: C_8  and  N_2 
REMARK    2  A    between atoms: C_13  and  C_8 
REMARK    3  A    between atoms: C_14  and  C_13 
ROOT
ATOM      1  C   UNL d   1       2.481  -0.623  -0.049  0.00  0.00     0.254 A 
ATOM      2  N   UNL d   1       1.287  -1.333   0.017  0.00  0.00    -0.313 N 
ATOM      3  C   UNL d   1       2.410   0.873  -0.039  0.00  0.00     0.013 A 
ATOM      4  C   UNL d   1       1.224   1.517   0.004  0.00  0.00    -0.038 A 
ATOM      5  C   UNL d   1       0.019  -0.677   0.008  0.00  0.00     0.048 A 
ATOM      6  C   UNL d   1      -0.031   0.730   0.003  0.00  0.00    -0.003 A 
ATOM      7  O   UNL d   1       3.579  -1.179  -0.111  0.00  0.00    -0.267 OA
ATOM      8  C   UNL d   1       3.734   1.590  -0.083  0.00  0.00     0.054 C 
ATOM      9  C   UNL d   1       1.119   3.023   0.045  0.00  0.00     0.050 C 
ATOM     10  C   UNL d   1      -1.188  -1.402  -0.006  0.00  0.00     0.030 A 
ATOM     11  C   UNL d   1      -1.291   1.363  -0.017  0.00  0.00     0.014 A 
ATOM     12  C   UNL d   1      -2.425  -0.755  -0.029  0.00  0.00     0.002 A 
ATOM     13  C   UNL d   1      -2.477   0.629  -0.035  0.00  0.00     0.001 A 
ENDROOT
BRANCH   2  14
ATOM     14  C   UNL d   1       1.381  -2.796  -0.004  0.00  0.00     0.132 C 
BRANCH  14  15
ATOM     15  C   UNL d   1       1.314  -3.350  -1.431  0.00  0.00     0.020 C 
BRANCH  15  16
ATOM     16  C   UNL d   1       1.343  -4.878  -1.449  0.00  0.00    -0.003 C 
ATOM     17  C   UNL d   1       1.282  -5.413  -2.872  0.00  0.00     0.005 C 
ENDBRANCH  15  16
ENDBRANCH  14  15
ENDBRANCH   2  14
TORSDOF 3
