REMARK  3 active torsions:
REMARK  status: ('A' for Active; 'I' for Inactive)
REMARK    1  A    between atoms: C_2  and  S_1 
REMARK    2  A    between atoms: O_11  and  S_1 
REMARK    3  A    between atoms: C_20  and  O_11 
ROOT
ATOM      1  N   UNL d   1       6.770   4.121  -2.865  0.00  0.00    -0.191 NA
ATOM      2  C   UNL d   1       6.029   3.365  -2.391  0.00  0.00     0.099 C 
ATOM      3  C   UNL d   1       3.295   0.580  -0.707  0.00  0.00     0.089 A 
ATOM      4  C   UNL d   1       5.111   2.427  -1.809  0.00  0.00     0.044 A 
ATOM      5  C   UNL d   1       3.787   2.798  -1.554  0.00  0.00     0.025 A 
ATOM      6  C   UNL d   1       2.881   1.879  -1.003  0.00  0.00     0.040 A 
ATOM      7  C   UNL d   1       4.625   0.215  -0.950  0.00  0.00     0.040 A 
ATOM      8  C   UNL d   1       5.530   1.131  -1.498  0.00  0.00     0.025 A 
ENDROOT
BRANCH   3   9
ATOM      9  O   UNL d   1       2.505  -0.412  -0.177  0.00  0.00    -0.229 OA
BRANCH   9  10
ATOM     10  S   UNL d   1       0.900  -0.246   0.021  0.00  0.00     0.306 S 
ATOM     11  O   UNL d   1       0.642   0.573   1.186  0.00  0.00    -0.193 OA
ATOM     12  O   UNL d   1       0.237  -0.045  -1.249  0.00  0.00    -0.193 OA
BRANCH  10  13
ATOM     13  C   UNL d   1       0.402  -1.829   0.485  0.00  0.00     0.132 A 
ATOM     14  C   UNL d   1       0.962  -3.071   0.062  0.00  0.00     0.069 A 
ATOM     15  C   UNL d   1       0.210  -4.054   0.702  0.00  0.00     0.132 A 
ATOM     16  C   UNL d   1       1.998  -3.512  -0.784  0.00  0.00     0.172 A 
ATOM     17  C   UNL d   1       0.443  -5.424   0.576  0.00  0.00     0.192 A 
ATOM     18  O   UNL d   1      -0.777  -3.488   1.442  0.00  0.00    -0.310 OA
ATOM     19  F   UNL d   1      -0.309  -6.326   1.219  0.00  0.00    -0.200 F 
ATOM     20  C   UNL d   1       1.486  -5.821  -0.251  0.00  0.00     0.199 A 
ATOM     21  C   UNL d   1       2.251  -4.880  -0.926  0.00  0.00     0.197 A 
ATOM     22  F   UNL d   1       1.753  -7.126  -0.402  0.00  0.00    -0.199 F 
ATOM     23  F   UNL d   1       3.249  -5.284  -1.725  0.00  0.00    -0.199 F 
ATOM     24  C   UNL d   1      -0.683  -2.137   1.288  0.00  0.00     0.074 A 
ATOM     25  C   UNL d   1      -1.740  -1.368   1.984  0.00  0.00     0.078 C 
ATOM     26  F   UNL d   1       2.745  -2.637  -1.467  0.00  0.00    -0.202 F 
ENDBRANCH  10  13
ENDBRANCH   9  10
ENDBRANCH   3   9
TORSDOF 3
