REMARK  4 active torsions:
REMARK  status: ('A' for Active; 'I' for Inactive)
REMARK    1  A    between atoms: C_3  and  N_1 
REMARK    2  A    between atoms: C_7  and  C_3 
REMARK    3  A    between atoms: C_8  and  C_3 
REMARK    4  A    between atoms: C_13  and  N_4 
ROOT
ATOM      1  N   UNL d   1       0.916  -0.086  -0.230  0.00  0.00    -0.317 N 
ATOM      2  HN  UNL d   1       0.455  -0.825  -0.762  1.00  0.00     0.181 HD
ATOM      3  N   UNL d   1       2.140  -0.069   0.028  0.00  0.00    -0.304 N 
ATOM      4  HN  UNL d   1       2.597   0.705   0.511  1.00  0.00     0.186 HD
ENDROOT
BRANCH   3   5
ATOM      5  C   UNL d   1       2.828  -1.219  -0.411  0.00  0.00     0.048 A 
ATOM      6  C   UNL d   1       3.914  -1.663   0.359  0.00  0.00     0.043 A 
ATOM      7  C   UNL d   1       4.671  -2.783  -0.018  0.00  0.00     0.001 A 
ATOM      8  C   UNL d   1       5.822  -3.260   0.814  0.00  0.00     0.212 C 
ATOM      9  C   UNL d   1       4.361  -3.446  -1.204  0.00  0.00     0.080 A 
ATOM     10  O   UNL d   1       6.140  -4.609   0.492  0.00  0.00    -0.362 OA
ATOM     11  C   UNL d   1       6.275  -4.751  -0.916  0.00  0.00     0.345 C 
ATOM     12  O   UNL d   1       5.063  -4.534  -1.643  0.00  0.00    -0.326 OA
ATOM     13  C   UNL d   1       3.292  -3.018  -1.988  0.00  0.00     0.040 A 
ATOM     14  C   UNL d   1       2.532  -1.910  -1.596  0.00  0.00     0.034 A 
ENDBRANCH   3   5
BRANCH   1  15
ATOM     15  C   UNL d   1       0.218   1.093   0.329  0.00  0.00     0.236 C 
BRANCH  15  16
ATOM     16  C   UNL d   1      -0.344   1.915  -0.812  0.00  0.00     0.154 C 
ATOM     17  O   UNL d   1      -1.551   2.147  -0.935  0.00  0.00    -0.296 OA
ATOM     18  C   UNL d   1       0.624   2.498  -1.807  0.00  0.00     0.093 C 
ENDBRANCH  15  16
BRANCH  15  19
ATOM     19  C   UNL d   1      -0.845   0.586   1.283  0.00  0.00     0.154 C 
ATOM     20  O   UNL d   1      -0.791   0.843   2.493  0.00  0.00    -0.296 OA
ATOM     21  C   UNL d   1      -1.963  -0.272   0.739  0.00  0.00     0.093 C 
ENDBRANCH  15  19
ENDBRANCH   1  15
TORSDOF 4
