REMARK  4 active torsions:
REMARK  status: ('A' for Active; 'I' for Inactive)
REMARK    1  A    between atoms: N_5  and  N_1 
REMARK    2  A    between atoms: C_4  and  N_5 
REMARK    3  A    between atoms: N_8  and  C_4 
REMARK    4  A    between atoms: C_9  and  N_8 
ROOT
ATOM      1  C   UNL d   1      -1.385   0.892   2.590  0.00  0.00     0.182 C 
ATOM      2  S   UNL d   1      -0.872  -0.332   1.579  0.00  0.00    -0.040 SA
ENDROOT
BRANCH   1   3
ATOM      3  N   UNL d   1      -2.735   1.044   2.784  0.00  0.00    -0.293 N 
ATOM      4  H   UNL d   1      -3.340   0.432   2.241  0.00  0.00     0.183 HD
BRANCH   3   5
ATOM      5  N   UNL d   1      -3.313   1.921   3.748  0.00  0.00    -0.199 NA
ATOM      6  C   UNL d   1      -3.887   1.163   4.900  0.00  0.00     0.151 C 
ATOM      7  S   UNL d   1      -4.674   2.487   5.911  0.00  0.00    -0.144 SA
ATOM      8  C   UNL d   1      -4.993   0.221   4.363  0.00  0.00     0.108 C 
ATOM      9  C   UNL d   1      -5.066   3.445   4.404  0.00  0.00     0.108 C 
ATOM     10  C   UNL d   1      -4.571   2.554   3.245  0.00  0.00     0.151 C 
ATOM     11  S   UNL d   1      -5.765   1.166   3.000  0.00  0.00    -0.144 SA
ENDBRANCH   3   5
ENDBRANCH   1   3
BRANCH   1  12
ATOM     12  N   UNL d   1      -0.599   1.797   3.248  0.00  0.00    -0.361 N 
ATOM     13  H   UNL d   1      -1.145   2.499   3.737  0.00  0.00     0.162 HD
BRANCH  12  14
ATOM     14  C   UNL d   1       0.821   2.047   3.013  0.00  0.00     0.088 C 
ATOM     15  C   UNL d   1       1.144   2.641   1.609  0.00  0.00     0.009 C 
ATOM     16  C   UNL d   1       2.423   3.442   1.870  0.00  0.00     0.011 C 
ATOM     17  C   UNL d   1       0.171   3.781   1.272  0.00  0.00     0.007 C 
ATOM     18  C   UNL d   1       1.789   4.254   2.998  0.00  0.00    -0.012 C 
ATOM     19  C   UNL d   1       1.376   3.130   3.964  0.00  0.00     0.030 C 
ATOM     20  C   UNL d   1       0.529   4.838   2.328  0.00  0.00     0.005 C 
ENDBRANCH  12  14
ENDBRANCH   1  12
TORSDOF 4
