REMARK  17 active torsions:
REMARK  status: ('A' for Active; 'I' for Inactive)
REMARK       I    between atoms: C_9  and  N_1 
REMARK    1  A    between atoms: C_2  and  C_3 
REMARK    2  A    between atoms: C_3  and  O_12 
REMARK    3  A    between atoms: C_3  and  C_6 
REMARK    4  A    between atoms: C_4  and  C_11 
REMARK    5  A    between atoms: C_8  and  C_6 
REMARK    6  A    between atoms: C_6  and  O_13 
REMARK    7  A    between atoms: C_10  and  C_8 
REMARK    8  A    between atoms: C_8  and  O_14 
REMARK    9  A    between atoms: C_10  and  O_15 
REMARK   10  A    between atoms: C_21  and  C_10 
REMARK   11  A    between atoms: O_30  and  C_11 
REMARK   12  A    between atoms: C_16  and  O_12 
REMARK   13  A    between atoms: C_17  and  O_13 
REMARK   14  A    between atoms: C_18  and  O_14 
REMARK   15  A    between atoms: C_19  and  O_15 
REMARK   16  A    between atoms: C_20  and  O_24 
REMARK   17  A    between atoms: O_24  and  C_21 
ROOT
ATOM      1  C   UNL d   1      -4.291   0.091   0.960  0.00  0.00     0.196 C 
ENDROOT
BRANCH   1   2
ATOM      2  C   UNL d   1      -4.643   0.597  -0.482  0.00  0.00     0.195 C 
BRANCH   2   3
ATOM      3  C   UNL d   1      -6.154   0.670  -0.868  0.00  0.00     0.188 C 
BRANCH   3   4
ATOM      4  O   UNL d   1      -6.780  -0.612  -0.608  0.00  0.00    -0.311 OA
BRANCH   4   5
ATOM      5  C   UNL d   1      -7.211  -1.307  -1.696  0.00  0.00     0.255 C 
ATOM      6  O   UNL d   1      -6.995  -1.007  -2.861  0.00  0.00    -0.266 OA
ATOM      7  C   UNL d   1      -7.976  -2.525  -1.273  0.00  0.00     0.126 C 
ENDBRANCH   4   5
ENDBRANCH   3   4
BRANCH   3   8
ATOM      8  C   UNL d   1      -7.026   1.740  -0.202  0.00  0.00     0.213 C 
BRANCH   8   9
ATOM      9  O   UNL d   1      -8.393   1.677  -0.702  0.00  0.00    -0.319 OA
BRANCH   9  10
ATOM     10  C   UNL d   1      -8.700   2.489  -1.740  0.00  0.00     0.254 C 
ATOM     11  O   UNL d   1      -7.906   3.220  -2.319  0.00  0.00    -0.266 OA
ATOM     12  C   UNL d   1     -10.166   2.406  -2.076  0.00  0.00     0.126 C 
ENDBRANCH   9  10
ENDBRANCH   8   9
ENDBRANCH   3   8
ENDBRANCH   2   3
BRANCH   2  13
ATOM     13  O   UNL d   1      -4.043   1.909  -0.667  0.00  0.00    -0.311 OA
BRANCH  13  14
ATOM     14  C   UNL d   1      -2.812   1.946  -1.244  0.00  0.00     0.255 C 
ATOM     15  O   UNL d   1      -2.291   1.022  -1.845  0.00  0.00    -0.266 OA
ATOM     16  C   UNL d   1      -2.131   3.254  -0.994  0.00  0.00     0.126 C 
ENDBRANCH  13  14
ENDBRANCH   2  13
ENDBRANCH   1   2
BRANCH   1  17
ATOM     17  O   UNL d   1      -4.362   1.285   1.813  0.00  0.00    -0.311 OA
BRANCH  17  18
ATOM     18  C   UNL d   1      -5.437   1.444   2.642  0.00  0.00     0.255 C 
ATOM     19  O   UNL d   1      -6.216   0.543   2.932  0.00  0.00    -0.266 OA
ATOM     20  C   UNL d   1      -5.611   2.874   3.065  0.00  0.00     0.126 C 
ENDBRANCH  17  18
ENDBRANCH   1  17
BRANCH   1  21
ATOM     21  C   UNL d   1      -2.847  -0.548   1.119  0.00  0.00     0.197 C 
BRANCH  21  22
ATOM     22  C   UNL d   1      -2.555  -2.008   0.549  0.00  0.00     0.183 C 
ATOM     23  N   UNL d   1      -3.307  -3.237   0.942  0.00  0.00    -0.320 N 
ATOM     24  C   UNL d   1      -3.126  -4.330  -0.064  0.00  0.00     0.204 C 
ATOM     25  C   UNL d   1      -3.797  -3.650   2.157  0.00  0.00     0.217 C 
ATOM     26  C   UNL d   1      -3.345  -3.689  -1.434  0.00  0.00     0.033 C 
ATOM     27  C   UNL d   1      -4.835  -3.357  -1.549  0.00  0.00     0.029 C 
ATOM     28  C   UNL d   1      -2.971  -4.515  -2.662  0.00  0.00     0.029 C 
ATOM     29  S   UNL d   1      -2.451  -2.108  -1.296  0.00  0.00    -0.129 SA
ATOM     30  O   UNL d   1      -3.855  -4.862   2.416  0.00  0.00    -0.274 OA
ATOM     31  C   UNL d   1      -4.414  -2.681   3.116  0.00  0.00     0.117 C 
BRANCH  24  32
ATOM     32  C   UNL d   1      -1.818  -5.137   0.126  0.00  0.00     0.165 C 
ATOM     33  O   UNL d   1      -0.844  -5.111  -0.611  0.00  0.00    -0.648 OA
BRANCH  32  34
ATOM     34  O   UNL d   1      -1.852  -5.941   1.219  0.00  0.00    -0.775 OA
ATOM     35  H   UNL d   1      -2.675  -5.824   1.757  0.00  0.00     0.167 HD
ENDBRANCH  32  34
ENDBRANCH  24  32
ENDBRANCH  21  22
BRANCH  21  36
ATOM     36  O   UNL d   1      -2.485  -0.528   2.545  0.00  0.00    -0.311 OA
BRANCH  36  37
ATOM     37  C   UNL d   1      -1.171  -0.695   2.877  0.00  0.00     0.255 C 
ATOM     38  O   UNL d   1      -0.249  -0.715   2.077  0.00  0.00    -0.266 OA
ATOM     39  C   UNL d   1      -1.005  -0.964   4.345  0.00  0.00     0.126 C 
ENDBRANCH  36  37
ENDBRANCH  21  36
ENDBRANCH   1  21
TORSDOF 17
