REMARK  4 active torsions:
REMARK  status: ('A' for Active; 'I' for Inactive)
REMARK    1  A    between atoms: C_2  and  C_1 
REMARK    2  A    between atoms: N_4  and  C_1 
REMARK    3  A    between atoms: C_3  and  C_2 
REMARK       I    between atoms: N_14  and  C_3 
REMARK    4  A    between atoms: C_10  and  N_4 
ROOT
ATOM      1  C   UNL d   1       2.386   0.572  -0.657  0.00  0.00     0.245 C 
ATOM      2  C   UNL d   1       3.552   0.368  -1.526  0.00  0.00     0.080 C 
ATOM      3  N   UNL d   1       4.515   0.231  -2.163  0.00  0.00    -0.196 NA
ENDROOT
BRANCH   1   4
ATOM      4  C   UNL d   1       1.081   0.653  -1.467  0.00  0.00     0.105 C 
ATOM      5  S   UNL d   1       0.840   1.991  -2.476  0.00  0.00    -0.063 SA
BRANCH   4   6
ATOM      6  N   UNL d   1       0.195  -0.405  -1.325  0.00  0.00    -0.349 N 
ATOM      7  H   UNL d   1       0.594  -1.300  -1.024  0.00  0.00     0.166 HD
BRANCH   6   8
ATOM      8  C   UNL d   1      -1.218  -0.411  -1.406  0.00  0.00     0.034 A 
ATOM      9  C   UNL d   1      -1.855  -1.642  -1.580  0.00  0.00     0.053 A 
ATOM     10  C   UNL d   1      -3.254  -1.727  -1.583  0.00  0.00     0.042 A 
ATOM     11 CL   UNL d   1      -3.970  -3.277  -1.851  0.00  0.00    -0.084 Cl
ATOM     12  C   UNL d   1      -4.042  -0.588  -1.367  0.00  0.00    -0.040 A 
ATOM     13  C   UNL d   1      -3.396   0.641  -1.186  0.00  0.00     0.011 A 
ATOM     14  C   UNL d   1      -5.543  -0.647  -1.317  0.00  0.00     0.050 C 
ATOM     15  C   UNL d   1      -2.000   0.728  -1.207  0.00  0.00     0.030 A 
ENDBRANCH   6   8
ENDBRANCH   4   6
ENDBRANCH   1   4
BRANCH   1  16
ATOM     16  C   UNL d   1       2.438  -0.497   0.420  0.00  0.00     0.239 C 
ATOM     17  O   UNL d   1       1.900  -1.599   0.314  0.00  0.00    -0.272 OA
ATOM     18  N   UNL d   1       3.135  -0.188   1.557  0.00  0.00    -0.369 N 
ATOM     19  H   UNL d   1       3.810   0.566   1.602  0.00  0.00     0.159 HD
ATOM     20  H   UNL d   1       3.239  -0.929   2.241  0.00  0.00     0.159 HD
ENDBRANCH   1  16
TORSDOF 4
