REMARK  4 active torsions:
REMARK  status: ('A' for Active; 'I' for Inactive)
REMARK    1  A    between atoms: C_3  and  C_1 
REMARK       I    between atoms: N_9  and  C_3 
REMARK    2  A    between atoms: N_6  and  C_10 
REMARK    3  A    between atoms: C_18  and  N_9 
REMARK    4  A    between atoms: C_19  and  C_18 
ROOT
ATOM      1  C   UNL d   1       3.501  -3.212   0.054  0.00  0.00     0.161 C 
ENDROOT
BRANCH   1   2
ATOM      2  N   UNL d   1       2.961  -2.882  -1.244  0.00  0.00    -0.353 N 
ATOM      3  C   UNL d   1       1.889  -2.017  -1.329  0.00  0.00     0.253 C 
ATOM      4  O   UNL d   1       1.391  -1.537  -0.313  0.00  0.00    -0.268 OA
ATOM      5  H   UNL d   1       3.396  -3.277  -2.061  0.00  0.00     0.163 HD
BRANCH   3   6
ATOM      6  C   UNL d   1       1.379  -1.704  -2.674  0.00  0.00     0.050 A 
ATOM      7  C   UNL d   1       1.867  -2.231  -3.857  0.00  0.00     0.068 A 
ATOM      8  S   UNL d   1       1.051  -1.666  -5.242  0.00  0.00    -0.100 SA
ATOM      9  C   UNL d   1      -0.004  -0.682  -4.312  0.00  0.00     0.016 A 
ATOM     10  C   UNL d   1       0.273  -0.786  -2.944  0.00  0.00    -0.003 A 
ATOM     11  C   UNL d   1      -1.036   0.144  -4.805  0.00  0.00     0.019 A 
ATOM     12  C   UNL d   1      -0.534  -0.012  -2.065  0.00  0.00     0.014 A 
ATOM     13  C   UNL d   1      -1.557   0.810  -2.547  0.00  0.00     0.001 A 
ATOM     14  C   UNL d   1      -1.806   0.885  -3.907  0.00  0.00     0.001 A 
ENDBRANCH   3   6
ENDBRANCH   1   2
BRANCH   1  15
ATOM     15  C   UNL d   1       4.688  -4.126  -0.041  0.00  0.00    -0.040 A 
ATOM     16  C   UNL d   1       5.973  -3.605  -0.196  0.00  0.00     0.011 A 
ATOM     17  C   UNL d   1       7.078  -4.458  -0.288  0.00  0.00     0.030 A 
ATOM     18  C   UNL d   1       6.953  -5.855  -0.238  0.00  0.00     0.030 A 
ATOM     19  C   UNL d   1       5.654  -6.358  -0.085  0.00  0.00     0.030 A 
ATOM     20  C   UNL d   1       4.537  -5.514   0.007  0.00  0.00     0.011 A 
BRANCH  18  21
ATOM     21  N   UNL d   1       8.060  -6.666  -0.414  0.00  0.00    -0.378 N 
ATOM     22  C   UNL d   1       7.941  -8.085  -0.787  0.00  0.00     0.153 C 
ATOM     23  C   UNL d   1       9.151  -8.489  -1.666  0.00  0.00     0.291 C 
ATOM     24  N   UNL d   1      10.456  -8.211  -1.024  0.00  0.00     0.087 N 
ATOM     25  C   UNL d   1      10.516  -6.781  -0.642  0.00  0.00     0.291 C 
ATOM     26  C   UNL d   1      11.553  -8.546  -1.929  0.00  0.00     0.310 C 
ATOM     27  C   UNL d   1       9.335  -6.357   0.263  0.00  0.00     0.153 C 
ENDBRANCH  18  21
ENDBRANCH   1  15
TORSDOF 4
