REMARK  2 active torsions:
REMARK  status: ('A' for Active; 'I' for Inactive)
REMARK    1  A    between atoms: C_6  and  N_1 
REMARK    2  A    between atoms: N_7  and  C_6 
ROOT
ATOM      1  N   UNL d   1       1.928  -0.005  -0.504  0.00  0.00    -0.263 N 
ATOM      2  C   UNL d   1       1.295   0.531  -1.590  0.00  0.00     0.263 A 
ATOM      3  C   UNL d   1       1.042  -0.557   0.379  0.00  0.00     0.263 A 
ATOM      4  C   UNL d   1      -0.141   0.395  -1.342  0.00  0.00     0.048 A 
ATOM      5  C   UNL d   1      -0.294  -0.295  -0.155  0.00  0.00     0.048 A 
ATOM      6  O   UNL d   1       1.763   1.026  -2.600  0.00  0.00    -0.267 OA
ATOM      7  O   UNL d   1       1.251  -1.143   1.425  0.00  0.00    -0.267 OA
ATOM      8  C   UNL d   1      -1.541  -0.599   0.356  0.00  0.00     0.018 A 
ATOM      9  C   UNL d   1      -1.221   0.848  -2.072  0.00  0.00     0.018 A 
ATOM     10  C   UNL d   1      -2.495   0.567  -1.569  0.00  0.00     0.001 A 
ATOM     11  C   UNL d   1      -2.654  -0.160  -0.370  0.00  0.00     0.001 A 
ENDROOT
BRANCH   1  12
ATOM     12  C   UNL d   1       3.357   0.042  -0.302  0.00  0.00     0.256 C 
BRANCH  12  13
ATOM     13  N   UNL d   1       3.703   1.373   0.107  0.00  0.00    -0.392 N 
ATOM     14  C   UNL d   1       3.341   1.887   1.413  0.00  0.00     0.150 C 
ATOM     15  C   UNL d   1       2.746   3.295   1.218  0.00  0.00     0.135 C 
ATOM     16  C   UNL d   1       2.338   3.914   2.545  0.00  0.00     0.041 C 
ATOM     17  O   UNL d   1       3.707   4.157   0.580  0.00  0.00    -0.378 OA
ATOM     18  C   UNL d   1       4.043   3.653  -0.731  0.00  0.00     0.135 C 
ATOM     19  C   UNL d   1       4.603   2.210  -0.662  0.00  0.00     0.150 C 
ATOM     20  C   UNL d   1       5.047   4.613  -1.354  0.00  0.00     0.041 C 
ENDBRANCH  12  13
ENDBRANCH   1  12
TORSDOF 2
