REMARK  5 active torsions:
REMARK  status: ('A' for Active; 'I' for Inactive)
REMARK    1  A    between atoms: C_3  and  N_1 
REMARK    2  A    between atoms: C_4  and  C_2 
REMARK       I    between atoms: N_6  and  C_4 
REMARK    3  A    between atoms: C_5  and  C_12 
REMARK       I    between atoms: N_11  and  C_5 
REMARK    4  A    between atoms: C_12  and  N_6 
REMARK    5  A    between atoms: N_13  and  N_11 
ROOT
ATOM      1  C   UNL d   1       1.744   2.792  -0.199  0.00  0.00     0.254 C 
ATOM      2  N   UNL d   1       2.387   3.984   0.037  0.00  0.00    -0.348 N 
ATOM      3  O   UNL d   1       2.054   2.042  -1.119  0.00  0.00    -0.268 OA
ATOM      4  H   UNL d   1       2.224   4.560   0.860  0.00  0.00     0.163 HD
ENDROOT
BRANCH   1   5
ATOM      5  C   UNL d   1       0.658   2.389   0.726  0.00  0.00     0.065 A 
ATOM      6  C   UNL d   1      -0.312   3.254   1.234  0.00  0.00     0.118 A 
ATOM      7  C   UNL d   1      -1.336   2.809   2.082  0.00  0.00     0.037 A 
ATOM      8  C   UNL d   1      -1.405   1.456   2.411  0.00  0.00     0.002 A 
ATOM      9  C   UNL d   1      -0.462   0.566   1.894  0.00  0.00     0.001 A 
ATOM     10  C   UNL d   1       0.561   1.027   1.057  0.00  0.00     0.020 A 
BRANCH   6  11
ATOM     11  N   UNL d   1      -0.332   4.642   0.845  0.00  0.00    -0.115 N 
ATOM     12  O   UNL d   1      -0.677   4.902  -0.314  0.00  0.00    -0.532 OA
ATOM     13  O   UNL d   1      -0.001   5.463   1.708  0.00  0.00    -0.532 OA
ENDBRANCH   6  11
ENDBRANCH   1   5
BRANCH   2  14
ATOM     14  C   UNL d   1       3.364   4.489  -0.912  0.00  0.00     0.227 C 
BRANCH  14  15
ATOM     15  C   UNL d   1       4.193   5.621  -0.314  0.00  0.00     0.249 C 
ATOM     16  O   UNL d   1       3.993   6.084   0.810  0.00  0.00    -0.270 OA
ATOM     17  N   UNL d   1       5.183   6.092  -1.171  0.00  0.00    -0.293 N 
ATOM     18  H   UNL d   1       5.416   5.574  -2.017  0.00  0.00     0.183 HD
BRANCH  17  19
ATOM     19  N   UNL d   1       6.089   7.073  -0.712  0.00  0.00    -0.247 NA
ATOM     20  H   UNL d   1       5.936   7.176   0.302  0.00  0.00     0.143 HD
ATOM     21  H   UNL d   1       5.799   7.978  -1.095  0.00  0.00     0.143 HD
ENDBRANCH  17  19
ENDBRANCH  14  15
ENDBRANCH   2  14
TORSDOF 5
