REMARK  7 active torsions:
REMARK  status: ('A' for Active; 'I' for Inactive)
REMARK    1  A    between atoms: C_4  and  C_1 
REMARK    2  A    between atoms: O_11  and  C_4 
REMARK    3  A    between atoms: C_7  and  O_13 
REMARK    4  A    between atoms: N_8  and  O_11 
REMARK    5  A    between atoms: C_12  and  C_10 
REMARK    6  A    between atoms: N_20  and  C_10 
REMARK    7  A    between atoms: O_13  and  C_21 
ROOT
ATOM      1  N   UNL d   1       2.418   3.689  -0.068  0.00  0.00    -0.246 N 
ATOM      2  HN  UNL d   1       3.197   3.058  -0.258  1.00  0.00     0.196 HD
ATOM      3  C   UNL d   1       2.558   4.968   0.117  0.00  0.00     0.109 C 
ENDROOT
BRANCH   1   4
ATOM      4  O   UNL d   1       1.062   3.261   0.023  0.00  0.00    -0.192 OA
BRANCH   4   5
ATOM      5  C   UNL d   1       1.026   1.887  -0.132  0.00  0.00     0.339 C 
ATOM      6  O   UNL d   1       2.006   1.177  -0.320  0.00  0.00    -0.255 OA
BRANCH   5   7
ATOM      7  C   UNL d   1      -0.337   1.370  -0.056  0.00  0.00     0.159 A 
ATOM      8  O   UNL d   1      -1.400   2.214   0.170  0.00  0.00    -0.303 OA
ATOM      9  C   UNL d   1      -2.535   1.454   0.183  0.00  0.00     0.087 A 
ATOM     10  C   UNL d   1      -3.836   1.915   0.383  0.00  0.00     0.038 A 
ATOM     11  C   UNL d   1      -2.221   0.119  -0.035  0.00  0.00     0.007 A 
ATOM     12  C   UNL d   1      -4.859   0.957   0.349  0.00  0.00     0.003 A 
ATOM     13  C   UNL d   1      -4.581  -0.393   0.128  0.00  0.00     0.001 A 
ATOM     14  C   UNL d   1      -3.265  -0.828  -0.066  0.00  0.00     0.015 A 
ATOM     15  C   UNL d   1      -0.805   0.062  -0.182  0.00  0.00    -0.009 A 
ATOM     16  C   UNL d   1      -0.025  -1.182  -0.427  0.00  0.00     0.052 C 
ENDBRANCH   5   7
ENDBRANCH   4   5
ENDBRANCH   1   4
BRANCH   3  17
ATOM     17  C   UNL d   1       3.947   5.539   0.053  0.00  0.00     0.004 A 
ATOM     18  C   UNL d   1       4.941   4.909  -0.706  0.00  0.00     0.017 A 
ATOM     19  C   UNL d   1       6.230   5.462  -0.800  0.00  0.00     0.038 A 
ATOM     20  C   UNL d   1       6.528   6.659  -0.151  0.00  0.00     0.078 A 
ATOM     21  C   UNL d   1       5.549   7.255   0.652  0.00  0.00     0.038 A 
ATOM     22  C   UNL d   1       4.266   6.707   0.751  0.00  0.00     0.017 A 
BRANCH  20  23
ATOM     23  O   UNL d   1       7.719   7.317  -0.167  0.00  0.00    -0.255 OA
BRANCH  23  24
ATOM     24  C   UNL d   1       8.585   7.202  -1.288  0.00  0.00     0.530 C 
ATOM     25  F   UNL d   1       8.014   6.639  -2.373  0.00  0.00    -0.144 F 
ATOM     26  F   UNL d   1       8.992   8.444  -1.638  0.00  0.00    -0.144 F 
ATOM     27  F   UNL d   1       9.677   6.487  -0.943  0.00  0.00    -0.144 F 
ENDBRANCH  23  24
ENDBRANCH  20  23
ENDBRANCH   3  17
BRANCH   3  28
ATOM     28  N   UNL d   1       1.505   5.823   0.345  0.00  0.00    -0.286 NA
ATOM     29  H   UNL d   1       0.611   5.403   0.110  0.00  0.00     0.125 HD
ATOM     30  H   UNL d   1       1.607   6.751  -0.054  0.00  0.00     0.125 HD
ENDBRANCH   3  28
TORSDOF 7
