REMARK  3 active torsions:
REMARK  status: ('A' for Active; 'I' for Inactive)
REMARK    1  A    between atoms: C_12  and  C_2 
REMARK    2  A    between atoms: N_6  and  C_12 
REMARK    3  A    between atoms: C_20  and  C_15 
ROOT
ATOM      1  N   UNL d   1      -0.493  -0.794   0.010  0.00  0.00    -0.217 N 
ATOM      2  C   UNL d   1      -1.852  -1.025  -0.057  0.00  0.00     0.140 A 
ATOM      3  N   UNL d   1       0.483  -1.725   0.237  0.00  0.00    -0.293 N 
ATOM      4  HN  UNL d   1       0.261  -2.666   0.562  1.00  0.00     0.187 HD
ATOM      5  C   UNL d   1      -0.380   0.571  -0.108  0.00  0.00     0.182 A 
ATOM      6  N   UNL d   1      -2.489   0.121  -0.239  0.00  0.00    -0.284 N 
ATOM      7  HN  UNL d   1      -3.497   0.235  -0.344  1.00  0.00     0.188 HD
ATOM      8  N   UNL d   1      -1.555   1.130  -0.261  0.00  0.00    -0.277 N 
ATOM      9  HN  UNL d   1      -1.741   2.126  -0.375  1.00  0.00     0.189 HD
ATOM     10  C   UNL d   1       1.716  -1.347   0.017  0.00  0.00     0.046 C 
ATOM     11  S   UNL d   1       1.153   1.343  -0.013  0.00  0.00    -0.085 SA
ATOM     12  C   UNL d   1       2.118  -0.039  -0.662  0.00  0.00     0.142 C 
ENDROOT
BRANCH   2  13
ATOM     13  C   UNL d   1      -2.480  -2.357   0.084  0.00  0.00     0.227 C 
BRANCH  13  14
ATOM     14  N   UNL d   1      -2.100  -3.259  -0.986  0.00  0.00    -0.266 N 
ATOM     15  N   UNL d   1      -1.432  -4.396  -0.695  0.00  0.00    -0.019 NA
ATOM     16  N   UNL d   1      -1.220  -5.041  -1.833  0.00  0.00    -0.282 N 
ATOM     17  C   UNL d   1      -1.786  -4.314  -2.844  0.00  0.00     0.074 A 
ATOM     18  HN  UNL d   1      -0.723  -5.925  -1.936  1.00  0.00     0.184 HD
ATOM     19  C   UNL d   1      -2.378  -3.167  -2.327  0.00  0.00     0.077 A 
ATOM     20  C   UNL d   1      -1.838  -4.560  -4.224  0.00  0.00     0.033 A 
ATOM     21  C   UNL d   1      -3.053  -2.234  -3.123  0.00  0.00     0.033 A 
ATOM     22  C   UNL d   1      -3.094  -2.495  -4.499  0.00  0.00     0.002 A 
ATOM     23  C   UNL d   1      -2.494  -3.634  -5.044  0.00  0.00     0.002 A 
ENDBRANCH  13  14
ENDBRANCH   2  13
BRANCH  10  24
ATOM     24  C   UNL d   1       2.816  -2.311   0.344  0.00  0.00    -0.011 A 
ATOM     25  C   UNL d   1       2.585  -3.686   0.200  0.00  0.00     0.015 A 
ATOM     26  C   UNL d   1       3.596  -4.604   0.500  0.00  0.00     0.024 A 
ATOM     27  C   UNL d   1       4.834  -4.151   0.951  0.00  0.00     0.034 A 
ATOM     28  C   UNL d   1       5.069  -2.787   1.111  0.00  0.00     0.024 A 
ATOM     29 CL   UNL d   1       6.079  -5.279   1.323  0.00  0.00    -0.084 Cl
ATOM     30  C   UNL d   1       4.059  -1.866   0.814  0.00  0.00     0.015 A 
ENDBRANCH  10  24
TORSDOF 3
