REMARK  1 active torsions:
REMARK  status: ('A' for Active; 'I' for Inactive)
REMARK    1  A    between atoms: C_7  and  C_2 
ROOT
ATOM      1  N   UNL d   1      -1.883   0.859  -0.521  0.00  0.00    -0.311 N 
ATOM      2  C   UNL d   1      -1.875  -0.414  -0.019  0.00  0.00     0.134 A 
ATOM      3  N   UNL d   1      -0.719  -0.788   0.460  0.00  0.00    -0.282 N 
ATOM      4  HN  UNL d   1      -0.482  -1.680   0.895  1.00  0.00     0.188 HD
ATOM      5  C   UNL d   1      -0.594   1.311  -0.356  0.00  0.00     0.194 A 
ATOM      6  N   UNL d   1       0.101   0.279   0.250  0.00  0.00    -0.274 N 
ATOM      7  S   UNL d   1       0.083   2.770  -0.755  0.00  0.00    -0.039 SA
ATOM      8  C   UNL d   1      -2.991   1.670  -1.001  0.00  0.00     0.160 C 
ATOM      9  H   UNL d   1       1.074   0.281   0.530  0.00  0.00     0.189 HD
ENDROOT
BRANCH   2  10
ATOM     10  C   UNL d   1      -3.054  -1.298   0.009  0.00  0.00     0.010 A 
ATOM     11  C   UNL d   1      -3.943  -1.391  -1.068  0.00  0.00     0.017 A 
ATOM     12  C   UNL d   1      -5.048  -2.244  -0.993  0.00  0.00     0.025 A 
ATOM     13  C   UNL d   1      -5.244  -3.029   0.143  0.00  0.00     0.034 A 
ATOM     14  C   UNL d   1      -4.339  -2.979   1.201  0.00  0.00     0.025 A 
ATOM     15 CL   UNL d   1      -6.607  -4.074   0.233  0.00  0.00    -0.084 Cl
ATOM     16  C   UNL d   1      -3.241  -2.116   1.132  0.00  0.00     0.017 A 
ENDBRANCH   2  10
TORSDOF 1
