REMARK  5 active torsions:
REMARK  status: ('A' for Active; 'I' for Inactive)
REMARK    1  A    between atoms: C_2  and  C_1 
REMARK    2  A    between atoms: C_16  and  C_8 
REMARK    3  A    between atoms: C_10  and  C_9 
REMARK    4  A    between atoms: O_17  and  C_14 
REMARK    5  A    between atoms: C_23  and  O_17 
ROOT
ATOM      1  C   UNL d   1      -0.785  -2.363  -0.007  0.00  0.00     0.047 A 
ATOM      2  C   UNL d   1      -1.515  -2.874  -1.091  0.00  0.00     0.067 A 
ATOM      3  C   UNL d   1      -0.473  -3.257   1.019  0.00  0.00     0.106 A 
ATOM      4  N   UNL d   1      -0.797  -4.568   1.038  0.00  0.00    -0.346 N 
ATOM      5  HN  UNL d   1      -0.544  -5.169   1.822  1.00  0.00     0.167 HD
ATOM      6  C   UNL d   1      -1.471  -5.044  -0.029  0.00  0.00     0.148 A 
ATOM      7  C   UNL d   1      -1.877  -4.241  -1.077  0.00  0.00     0.073 A 
ENDROOT
BRANCH   1   8
ATOM      8  C   UNL d   1      -0.339  -0.987   0.131  0.00  0.00     0.177 A 
ATOM      9  O   UNL d   1       0.856  -0.808   0.784  0.00  0.00    -0.273 OA
ATOM     10  C   UNL d   1       0.973   0.557   0.802  0.00  0.00     0.174 A 
ATOM     11  N   UNL d   1      -0.043   1.153   0.211  0.00  0.00    -0.277 N 
ATOM     12  N   UNL d   1      -0.896   0.151  -0.217  0.00  0.00    -0.277 N 
ATOM     13  HN  UNL d   1      -0.175   2.157   0.091  1.00  0.00     0.189 HD
ATOM     14  HN  UNL d   1      -1.784   0.272  -0.705  1.00  0.00     0.189 HD
BRANCH  10  15
ATOM     15  C   UNL d   1       2.128   1.117   1.495  0.00  0.00     0.017 A 
ATOM     16  C   UNL d   1       3.090   0.302   2.118  0.00  0.00     0.017 A 
ATOM     17  C   UNL d   1       4.161   0.867   2.820  0.00  0.00     0.025 A 
ATOM     18  C   UNL d   1       4.283   2.252   2.902  0.00  0.00     0.034 A 
ATOM     19  C   UNL d   1       3.350   3.076   2.279  0.00  0.00     0.025 A 
ATOM     20 CL   UNL d   1       5.584   2.946   3.786  0.00  0.00    -0.084 Cl
ATOM     21  C   UNL d   1       2.278   2.511   1.579  0.00  0.00     0.017 A 
ENDBRANCH  10  15
ENDBRANCH   1   8
BRANCH   2  22
ATOM     22  C   UNL d   1      -1.945  -2.074  -2.297  0.00  0.00     0.418 C 
ATOM     23  F   UNL d   1      -1.264  -0.923  -2.509  0.00  0.00    -0.166 F 
ATOM     24  F   UNL d   1      -1.781  -2.791  -3.448  0.00  0.00    -0.166 F 
ATOM     25  F   UNL d   1      -3.264  -1.753  -2.253  0.00  0.00    -0.166 F 
ENDBRANCH   2  22
BRANCH   6  26
ATOM     26  O   UNL d   1      -1.794  -6.388  -0.093  0.00  0.00    -0.294 OA
BRANCH  26  27
ATOM     27  C   UNL d   1      -0.924  -7.286   0.487  0.00  0.00     0.077 A 
ATOM     28  C   UNL d   1      -1.495  -8.412   1.085  0.00  0.00     0.039 A 
ATOM     29  C   UNL d   1      -0.678  -9.380   1.674  0.00  0.00     0.026 A 
ATOM     30  C   UNL d   1       0.707  -9.225   1.655  0.00  0.00     0.034 A 
ATOM     31  C   UNL d   1       1.284  -8.118   1.035  0.00  0.00     0.026 A 
ATOM     32 CL   UNL d   1       1.713 -10.406   2.397  0.00  0.00    -0.084 Cl
ATOM     33  C   UNL d   1       0.468  -7.157   0.434  0.00  0.00     0.039 A 
ENDBRANCH  26  27
ENDBRANCH   6  26
TORSDOF 5
