REMARK  2 active torsions:
REMARK  status: ('A' for Active; 'I' for Inactive)
REMARK    1  A    between atoms: C_5  and  C_1 
REMARK    2  A    between atoms: C_6  and  C_2 
ROOT
ATOM      1  C   UNL d   1      -1.358  -0.811   0.044  0.00  0.00     0.086 A 
ATOM      2  C   UNL d   1      -0.021  -1.324  -0.046  0.00  0.00     0.075 A 
ATOM      3  N   UNL d   1      -1.328   0.519   0.227  0.00  0.00    -0.259 N 
ATOM      4  HN  UNL d   1      -2.132   1.136   0.344  1.00  0.00     0.195 HD
ATOM      5  O   UNL d   1      -0.003   0.889   0.228  0.00  0.00    -0.241 OA
ATOM      6  C   UNL d   1       0.779  -0.207   0.078  0.00  0.00     0.089 A 
ATOM      7  C   UNL d   1       2.233   0.049   0.058  0.00  0.00     0.080 C 
ENDROOT
BRANCH   1   8
ATOM      8  C   UNL d   1      -2.632  -1.538   0.024  0.00  0.00     0.054 A 
ATOM      9  C   UNL d   1      -2.755  -2.733   0.751  0.00  0.00     0.130 A 
ATOM     10  F   UNL d   1      -1.742  -3.180   1.510  0.00  0.00    -0.205 F 
ATOM     11  C   UNL d   1      -3.916  -3.505   0.723  0.00  0.00     0.043 A 
ATOM     12  C   UNL d   1      -5.014  -3.072  -0.007  0.00  0.00     0.005 A 
ATOM     13  C   UNL d   1      -4.941  -1.866  -0.702  0.00  0.00     0.025 A 
ATOM     14  C   UNL d   1      -3.759  -1.105  -0.698  0.00  0.00     0.049 A 
ATOM     15 CL   UNL d   1      -3.785   0.336  -1.658  0.00  0.00    -0.083 Cl
ENDBRANCH   1   8
BRANCH   2  16
ATOM     16  C   UNL d   1       0.432  -2.675  -0.190  0.00  0.00     0.153 C 
ATOM     17  N   UNL d   1       1.520  -3.113   0.359  0.00  0.00    -0.368 N 
ATOM     18  C   UNL d   1       1.536  -4.536   0.015  0.00  0.00     0.148 C 
ATOM     19  HN  UNL d   1       2.205  -2.589   0.904  1.00  0.00     0.161 HD
ATOM     20  C   UNL d   1       0.245  -4.797  -0.725  0.00  0.00     0.197 C 
ATOM     21  O   UNL d   1      -0.339  -3.519  -0.919  0.00  0.00    -0.334 OA
ENDBRANCH   2  16
TORSDOF 2
