REMARK  3 active torsions:
REMARK  status: ('A' for Active; 'I' for Inactive)
REMARK       I    between atoms: N_3  and  C_1 
REMARK    1  A    between atoms: C_5  and  C_1 
REMARK    2  A    between atoms: N_2  and  C_4 
REMARK    3  A    between atoms: C_11  and  N_3 
ROOT
ATOM      1  C   UNL d   1       2.233   4.878  -1.724  0.00  0.00     0.030 A 
ATOM      2  C   UNL d   1       1.116   4.882  -0.883  0.00  0.00     0.031 A 
ATOM      3  C   UNL d   1       2.737   3.619  -2.089  0.00  0.00     0.031 A 
ATOM      4  C   UNL d   1       0.990   2.462  -0.862  0.00  0.00     0.035 A 
ATOM      5  C   UNL d   1       0.502   3.699  -0.459  0.00  0.00     0.032 A 
ATOM      6  C   UNL d   1       2.133   2.427  -1.662  0.00  0.00     0.032 A 
ENDROOT
BRANCH   4   7
ATOM      7  N   UNL d   1       0.391   1.240  -0.497  0.00  0.00    -0.323 N 
ATOM      8  C   UNL d   1      -0.861   1.092   0.077  0.00  0.00     0.256 C 
ATOM      9  O   UNL d   1      -1.692   1.972   0.269  0.00  0.00    -0.267 OA
ATOM     10  H   UNL d   1       0.874   0.403  -0.788  0.00  0.00     0.169 HD
BRANCH   8  11
ATOM     11  C   UNL d   1      -1.235  -0.299   0.437  0.00  0.00     0.032 A 
ATOM     12  C   UNL d   1      -0.291  -1.210   0.931  0.00  0.00     0.020 A 
ATOM     13  C   UNL d   1      -0.696  -2.500   1.281  0.00  0.00     0.043 A 
ATOM     14  C   UNL d   1      -2.031  -2.866   1.144  0.00  0.00     0.116 A 
ATOM     15  C   UNL d   1      -2.979  -1.965   0.673  0.00  0.00     0.043 A 
ATOM     16  F   UNL d   1      -2.412  -4.103   1.484  0.00  0.00    -0.206 F 
ATOM     17  C   UNL d   1      -2.582  -0.675   0.323  0.00  0.00     0.020 A 
ENDBRANCH   8  11
ENDBRANCH   4   7
BRANCH   1  18
ATOM     18  N   UNL d   1       2.775   6.044  -2.230  0.00  0.00    -0.381 N 
ATOM     19  C   UNL d   1       1.975   7.265  -2.342  0.00  0.00     0.123 C 
ATOM     20  C   UNL d   1       2.263   7.901  -3.700  0.00  0.00     0.020 C 
ATOM     21  C   UNL d   1       3.757   8.149  -3.894  0.00  0.00     0.003 C 
ATOM     22  C   UNL d   1       4.577   6.882  -3.634  0.00  0.00     0.020 C 
ATOM     23  C   UNL d   1       4.223   6.242  -2.291  0.00  0.00     0.123 C 
ENDBRANCH   1  18
TORSDOF 3
