REMARK  6 active torsions:
REMARK  status: ('A' for Active; 'I' for Inactive)
REMARK    1  A    between atoms: C_3  and  S_1 
REMARK    2  A    between atoms: N_5  and  S_1 
REMARK    3  A    between atoms: S_2  and  C_7 
REMARK    4  A    between atoms: N_15  and  S_2 
REMARK    5  A    between atoms: C_21  and  N_5 
REMARK    6  A    between atoms: C_23  and  C_21 
ROOT
ATOM      1  S   UNL d   1       1.088  -0.051  -0.085  0.00  0.00     0.241 S 
ATOM      2  O   UNL d   1       0.132   0.768  -0.796  0.00  0.00    -0.206 OA
ATOM      3  O   UNL d   1       2.495  -0.055  -0.428  0.00  0.00    -0.206 OA
ENDROOT
BRANCH   1   4
ATOM      4  C   UNL d   1       0.503  -1.733  -0.156  0.00  0.00     0.075 A 
ATOM      5  C   UNL d   1       1.399  -2.799  -0.015  0.00  0.00     0.034 A 
ATOM      6  C   UNL d   1       0.952  -4.122  -0.190  0.00  0.00    -0.023 A 
ATOM      7  C   UNL d   1       1.915  -5.266  -0.054  0.00  0.00     0.044 C 
ATOM      8  C   UNL d   1      -0.395  -4.358  -0.485  0.00  0.00     0.076 A 
ATOM      9  C   UNL d   1       1.351  -6.520  -0.708  0.00  0.00     0.042 C 
ATOM     10  C   UNL d   1      -0.119  -6.734  -0.322  0.00  0.00     0.061 C 
ATOM     11  O   UNL d   1      -0.934  -5.602  -0.676  0.00  0.00    -0.340 OA
ATOM     12  C   UNL d   1      -0.677  -7.924  -1.120  0.00  0.00     0.046 C 
ATOM     13  C   UNL d   1      -0.299  -7.026   1.176  0.00  0.00     0.046 C 
ATOM     14  C   UNL d   1      -1.279  -3.289  -0.643  0.00  0.00     0.039 A 
ATOM     15  C   UNL d   1      -0.834  -1.975  -0.484  0.00  0.00     0.027 A 
ENDBRANCH   1   4
BRANCH   1  16
ATOM     16  N   UNL d   1       0.936   0.340   1.553  0.00  0.00    -0.211 NA
ATOM     17  H   UNL d   1       0.032   0.060   1.932  0.00  0.00     0.140 HD
BRANCH  16  18
ATOM     18  C   UNL d   1       2.075  -0.006   2.413  0.00  0.00     0.143 C 
BRANCH  18  19
ATOM     19  C   UNL d   1       1.830   0.377   3.856  0.00  0.00    -0.044 A 
ATOM     20  C   UNL d   1       1.863  -0.595   4.864  0.00  0.00     0.010 A 
ATOM     21  C   UNL d   1       1.686  -0.246   6.199  0.00  0.00     0.026 A 
ATOM     22  C   UNL d   1       1.487   1.092   6.533  0.00  0.00     0.079 A 
ATOM     23  C   UNL d   1       1.442   2.081   5.551  0.00  0.00     0.026 A 
ATOM     24  C   UNL d   1       1.611   1.721   4.211  0.00  0.00     0.010 A 
BRANCH  22  25
ATOM     25  S   UNL d   1       1.292   1.538   8.240  0.00  0.00     0.256 S 
ATOM     26  O   UNL d   1       1.805   0.470   9.065  0.00  0.00    -0.201 OA
ATOM     27  O   UNL d   1       1.669   2.913   8.402  0.00  0.00    -0.201 OA
BRANCH  25  28
ATOM     28  N   UNL d   1      -0.374   1.462   8.309  0.00  0.00    -0.324 N 
ATOM     29  H   UNL d   1      -0.768   0.642   8.760  0.00  0.00     0.169 HD
ATOM     30  H   UNL d   1      -0.863   2.353   8.303  0.00  0.00     0.169 HD
ENDBRANCH  25  28
ENDBRANCH  22  25
ENDBRANCH  18  19
ENDBRANCH  16  18
ENDBRANCH   1  16
TORSDOF 6
