REMARK  7 active torsions:
REMARK  status: ('A' for Active; 'I' for Inactive)
REMARK    1  A    between atoms: N_2  and  C_1 
REMARK    2  A    between atoms: N_8  and  C_1 
REMARK    3  A    between atoms: C_3  and  N_2 
REMARK    4  A    between atoms: N_5  and  N_8 
REMARK    5  A    between atoms: C_14  and  C_13 
REMARK    6  A    between atoms: O_21  and  C_16 
REMARK    7  A    between atoms: C_22  and  O_21 
ROOT
ATOM      1  N   UNL d   1       2.581   0.088   0.695  0.00  0.00    -0.277 N 
ATOM      2  H   UNL d   1       3.044  -0.815   0.711  0.00  0.00     0.189 HD
ENDROOT
BRANCH   1   3
ATOM      3  N   UNL d   1       3.318   1.236   0.757  0.00  0.00    -0.309 N 
ATOM      4  C   UNL d   1       4.588   1.046   0.942  0.00  0.00     0.118 C 
ATOM      5  HN  UNL d   1       2.905   2.164   0.666  1.00  0.00     0.186 HD
BRANCH   4   6
ATOM      6  C   UNL d   1       5.556   2.163   0.894  0.00  0.00    -0.019 A 
ATOM      7  C   UNL d   1       5.104   3.457   0.647  0.00  0.00     0.015 A 
ATOM      8  C   UNL d   1       6.021   4.498   0.494  0.00  0.00     0.037 A 
ATOM      9  C   UNL d   1       7.390   4.258   0.583  0.00  0.00     0.068 A 
ATOM     10  C   UNL d   1       7.839   2.963   0.865  0.00  0.00     0.037 A 
ATOM     11  C   UNL d   1       6.927   1.912   1.022  0.00  0.00     0.015 A 
BRANCH   9  12
ATOM     12  O   UNL d   1       8.372   5.199   0.407  0.00  0.00    -0.352 OA
BRANCH  12  13
ATOM     13  C   UNL d   1       7.930   6.501   0.016  0.00  0.00     0.171 C 
ATOM     14  C   UNL d   1       9.139   7.392  -0.206  0.00  0.00     0.034 C 
ENDBRANCH  12  13
ENDBRANCH   9  12
ENDBRANCH   4   6
ENDBRANCH   1   3
BRANCH   1  15
ATOM     15  C   UNL d   1       1.217   0.083   0.513  0.00  0.00     0.186 C 
ATOM     16  S   UNL d   1       0.448  -1.388   0.327  0.00  0.00    -0.040 SA
BRANCH  15  17
ATOM     17  N   UNL d   1       0.628   1.326   0.538  0.00  0.00    -0.361 N 
ATOM     18  H   UNL d   1       1.314   2.043   0.760  0.00  0.00     0.162 HD
BRANCH  17  19
ATOM     19  C   UNL d   1      -0.761   1.559   0.890  0.00  0.00     0.088 C 
ATOM     20  C   UNL d   1      -1.084   2.974   1.412  0.00  0.00     0.009 C 
ATOM     21  C   UNL d   1      -2.607   2.847   1.525  0.00  0.00     0.011 C 
ATOM     22  C   UNL d   1      -0.930   4.041   0.304  0.00  0.00     0.007 C 
ATOM     23  C   UNL d   1      -2.785   2.563   0.030  0.00  0.00    -0.012 C 
ATOM     24  C   UNL d   1      -1.806   1.391  -0.235  0.00  0.00     0.030 C 
ATOM     25  C   UNL d   1      -2.184   3.843  -0.561  0.00  0.00     0.005 C 
ENDBRANCH  17  19
ENDBRANCH  15  17
ENDBRANCH   1  15
TORSDOF 7
