REMARK  5 active torsions:
REMARK  status: ('A' for Active; 'I' for Inactive)
REMARK    1  A    between atoms: S_2  and  C_1 
REMARK    2  A    between atoms: N_8  and  S_2 
REMARK    3  A    between atoms: C_19  and  N_8 
REMARK    4  A    between atoms: C_9  and  C_13 
REMARK    5  A    between atoms: C_20  and  C_19 
ROOT
ATOM      1  N   UNL d   1      -2.554  -2.718   1.462  0.00  0.00    -0.311 N 
ATOM      2  H   UNL d   1      -3.304  -3.403   1.425  0.00  0.00     0.172 HD
ENDROOT
BRANCH   1   3
ATOM      3  S   UNL d   1      -1.644  -2.684   0.049  0.00  0.00     0.267 S 
ATOM      4  O   UNL d   1      -0.635  -1.664   0.183  0.00  0.00    -0.200 OA
ATOM      5  O   UNL d   1      -2.587  -2.707  -1.048  0.00  0.00    -0.200 OA
BRANCH   3   6
ATOM      6  C   UNL d   1      -0.826  -4.250  -0.056  0.00  0.00     0.143 A 
ATOM      7  S   UNL d   1       0.885  -4.266  -0.072  0.00  0.00    -0.062 SA
ATOM      8  C   UNL d   1       0.865  -5.976  -0.193  0.00  0.00     0.048 A 
ATOM      9  C   UNL d   1       2.134  -6.747  -0.294  0.00  0.00     0.076 C 
ATOM     10  N   UNL d   1      -0.329  -6.527  -0.189  0.00  0.00    -0.356 N 
ATOM     11  C   UNL d   1      -1.308  -5.547  -0.128  0.00  0.00     0.036 A 
ATOM     12  HN  UNL d   1      -0.509  -7.530  -0.226  1.00  0.00     0.166 HD
ATOM     13  C   UNL d   1      -2.728  -5.986  -0.147  0.00  0.00     0.070 C 
ENDBRANCH   3   6
ENDBRANCH   1   3
BRANCH   1  14
ATOM     14  C   UNL d   1      -1.803  -2.667   2.718  0.00  0.00     0.170 C 
BRANCH  14  15
ATOM     15  C   UNL d   1      -2.734  -2.693   3.907  0.00  0.00    -0.040 A 
ATOM     16  C   UNL d   1      -3.568  -3.794   4.136  0.00  0.00     0.010 A 
ATOM     17  C   UNL d   1      -4.444  -3.808   5.224  0.00  0.00     0.013 A 
ATOM     18  C   UNL d   1      -4.502  -2.731   6.122  0.00  0.00    -0.019 A 
ATOM     19  C   UNL d   1      -3.651  -1.638   5.895  0.00  0.00     0.013 A 
ATOM     20  C   UNL d   1      -2.781  -1.616   4.800  0.00  0.00     0.010 A 
BRANCH  18  21
ATOM     21  C   UNL d   1      -5.400  -2.744   7.291  0.00  0.00     0.015 A 
ATOM     22  S   UNL d   1      -6.926  -3.537   7.224  0.00  0.00    -0.101 SA
ATOM     23  C   UNL d   1      -7.285  -3.156   8.847  0.00  0.00     0.050 A 
ATOM     24  C   UNL d   1      -6.291  -2.406   9.431  0.00  0.00     0.008 A 
ATOM     25  C   UNL d   1      -5.212  -2.163   8.534  0.00  0.00     0.020 A 
ENDBRANCH  18  21
ENDBRANCH  14  15
ENDBRANCH   1  14
TORSDOF 5
