REMARK  4 active torsions:
REMARK  status: ('A' for Active; 'I' for Inactive)
REMARK    1  A    between atoms: C_20  and  C_5 
REMARK    2  A    between atoms: N_21  and  C_6 
REMARK    3  A    between atoms: C_12  and  C_19 
REMARK    4  A    between atoms: N_13  and  N_21 
ROOT
ATOM      1  C   UNL d   1       0.281   1.029   0.004  0.00  0.00     0.044 A 
ATOM      2  C   UNL d   1       0.017  -0.329  -0.018  0.00  0.00     0.089 A 
ATOM      3  C   UNL d   1      -0.949   1.775  -0.015  0.00  0.00     0.038 A 
ATOM      4  S   UNL d   1      -1.646  -0.682  -0.022  0.00  0.00    -0.071 SA
ATOM      5  C   UNL d   1      -2.083   0.979  -0.025  0.00  0.00     0.018 A 
ATOM      6  C   UNL d   1       1.644   1.400   0.023  0.00  0.00     0.134 A 
ATOM      7  N   UNL d   1       0.918  -1.324  -0.029  0.00  0.00    -0.346 N 
ATOM      8  HN  UNL d   1       0.672  -2.314  -0.039  1.00  0.00     0.167 HD
ATOM      9  N   UNL d   1       2.573   0.410  -0.001  0.00  0.00    -0.337 N 
ATOM     10  HN  UNL d   1       3.567   0.637  -0.002  1.00  0.00     0.168 HD
ATOM     11  C   UNL d   1       2.171  -0.867  -0.024  0.00  0.00     0.182 A 
ENDROOT
BRANCH   6  12
ATOM     12  N   UNL d   1       2.046   2.751   0.092  0.00  0.00    -0.285 N 
ATOM     13  H   UNL d   1       1.282   3.417   0.085  0.00  0.00     0.188 HD
BRANCH  12  14
ATOM     14  N   UNL d   1       3.240   3.077  -0.483  0.00  0.00    -0.308 N 
ATOM     15  C   UNL d   1       3.534   4.338  -0.492  0.00  0.00     0.144 C 
ATOM     16  HN  UNL d   1       3.861   2.372  -0.880  1.00  0.00     0.186 HD
BRANCH  15  17
ATOM     17  C   UNL d   1       4.748   4.802  -1.099  0.00  0.00     0.092 A 
ATOM     18  O   UNL d   1       5.033   6.139  -1.056  0.00  0.00    -0.314 OA
ATOM     19  C   UNL d   1       6.230   6.316  -1.689  0.00  0.00     0.050 A 
ATOM     20  C   UNL d   1       6.757   7.694  -1.757  0.00  0.00     0.076 C 
ATOM     21  C   UNL d   1       6.706   5.107  -2.144  0.00  0.00     0.035 A 
ATOM     22  C   UNL d   1       5.756   4.134  -1.766  0.00  0.00     0.041 A 
ENDBRANCH  15  17
ENDBRANCH  12  14
ENDBRANCH   6  12
BRANCH   5  23
ATOM     23  C   UNL d   1      -3.501   1.386   0.010  0.00  0.00    -0.019 A 
ATOM     24  C   UNL d   1      -4.511   0.635  -0.612  0.00  0.00     0.013 A 
ATOM     25  C   UNL d   1      -5.853   1.019  -0.522  0.00  0.00     0.001 A 
ATOM     26  C   UNL d   1      -6.205   2.166   0.182  0.00  0.00     0.000 A 
ATOM     27  C   UNL d   1      -5.216   2.938   0.785  0.00  0.00     0.001 A 
ATOM     28  C   UNL d   1      -3.876   2.552   0.698  0.00  0.00     0.013 A 
ENDBRANCH   5  23
TORSDOF 4
