REMARK  5 active torsions:
REMARK  status: ('A' for Active; 'I' for Inactive)
REMARK    1  A    between atoms: C_4  and  N_1 
REMARK    2  A    between atoms: C_5  and  C_3 
REMARK    3  A    between atoms: C_7  and  C_4 
REMARK    4  A    between atoms: C_8  and  C_4 
REMARK    5  A    between atoms: O_9  and  C_6 
ROOT
ATOM      1  C   UNL d   1       0.221  -1.274   0.106  0.00  0.00     0.148 C 
ENDROOT
BRANCH   1   2
ATOM      2  N   UNL d   1       0.908   0.009   0.314  0.00  0.00    -0.380 N 
ATOM      3  C   UNL d   1       0.346   1.161   0.132  0.00  0.00     0.015 C 
ATOM      4  C   UNL d   1      -1.078   1.376  -0.343  0.00  0.00     0.068 C 
ATOM      5  HN  UNL d   1       1.882  -0.009   0.618  1.00  0.00     0.160 HD
BRANCH   3   6
ATOM      6  C   UNL d   1       1.176   2.389   0.427  0.00  0.00     0.019 A 
ATOM      7  C   UNL d   1       2.496   2.268   0.899  0.00  0.00     0.077 A 
ATOM      8  C   UNL d   1       3.284   3.393   1.133  0.00  0.00     0.037 A 
ATOM      9  C   UNL d   1       2.763   4.665   0.914  0.00  0.00     0.003 A 
ATOM     10  C   UNL d   1       1.449   4.809   0.476  0.00  0.00     0.001 A 
ATOM     11  C   UNL d   1       0.658   3.680   0.235  0.00  0.00     0.016 A 
BRANCH   7  12
ATOM     12  O   UNL d   1       3.089   1.062   1.165  0.00  0.00    -0.360 OA
ATOM     13  H   UNL d   1       2.437   0.372   0.902  0.00  0.00     0.217 HD
ENDBRANCH   7  12
ENDBRANCH   3   6
ENDBRANCH   1   2
BRANCH   1  14
ATOM     14  C   UNL d   1       1.236  -2.325  -0.357  0.00  0.00    -0.031 A 
ATOM     15  C   UNL d   1       2.391  -2.609   0.391  0.00  0.00     0.009 A 
ATOM     16  C   UNL d   1       3.333  -3.535  -0.070  0.00  0.00     0.001 A 
ATOM     17  C   UNL d   1       3.128  -4.197  -1.277  0.00  0.00     0.000 A 
ATOM     18  C   UNL d   1       1.984  -3.939  -2.026  0.00  0.00     0.001 A 
ATOM     19  C   UNL d   1       1.041  -3.011  -1.568  0.00  0.00     0.009 A 
ENDBRANCH   1  14
BRANCH   1  20
ATOM     20  C   UNL d   1      -0.549  -1.718   1.349  0.00  0.00    -0.031 A 
ATOM     21  C   UNL d   1      -1.692  -2.522   1.220  0.00  0.00     0.009 A 
ATOM     22  C   UNL d   1      -2.386  -2.963   2.349  0.00  0.00     0.001 A 
ATOM     23  C   UNL d   1      -1.946  -2.610   3.624  0.00  0.00     0.000 A 
ATOM     24  C   UNL d   1      -0.820  -1.806   3.770  0.00  0.00     0.001 A 
ATOM     25  C   UNL d   1      -0.126  -1.363   2.642  0.00  0.00     0.009 A 
ENDBRANCH   1  20
TORSDOF 5
