REMARK  3 active torsions:
REMARK  status: ('A' for Active; 'I' for Inactive)
REMARK    1  A    between atoms: C_7  and  N_1 
REMARK    2  A    between atoms: S_9  and  C_2 
REMARK    3  A    between atoms: N_10  and  C_8 
ROOT
ATOM      1  C   UNL d   1      -0.316  -2.755  -0.064  0.00  0.00     0.057 A 
ATOM      2  C   UNL d   1      -1.014  -5.528   0.021  0.00  0.00     0.029 A 
ATOM      3  C   UNL d   1       0.248  -3.602   0.889  0.00  0.00     0.033 A 
ATOM      4  C   UNL d   1      -1.259  -3.282  -0.951  0.00  0.00     0.033 A 
ATOM      5  C   UNL d   1      -1.591  -4.644  -0.905  0.00  0.00     0.031 A 
ATOM      6  C   UNL d   1      -0.100  -4.964   0.923  0.00  0.00     0.031 A 
ENDROOT
BRANCH   1   7
ATOM      7  N   UNL d   1      -0.007  -1.370  -0.129  0.00  0.00    -0.219 N 
ATOM      8  C   UNL d   1       1.063  -0.622   0.337  0.00  0.00     0.174 A 
ATOM      9  N   UNL d   1       0.811   0.656   0.153  0.00  0.00    -0.264 N 
ATOM     10  N   UNL d   1      -0.386   0.712  -0.503  0.00  0.00    -0.006 NA
ATOM     11  HN  UNL d   1       1.391   1.444   0.441  1.00  0.00     0.186 HD
ATOM     12  N   UNL d   1      -0.865  -0.501  -0.732  0.00  0.00     0.001 NA
BRANCH   8  13
ATOM     13  S   UNL d   1       2.601  -1.218   0.868  0.00  0.00    -0.104 SA
ATOM     14  H   UNL d   1       2.627  -2.363   0.169  0.00  0.00     0.110 HD
ENDBRANCH   8  13
ENDBRANCH   1   7
BRANCH   2  15
ATOM     15  N   UNL d   1      -1.411  -6.864   0.074  0.00  0.00    -0.390 N 
ATOM     16  C   UNL d   1      -1.539  -7.602  -1.185  0.00  0.00     0.149 C 
ATOM     17  C   UNL d   1      -1.031  -7.691   1.217  0.00  0.00     0.149 C 
ENDBRANCH   2  15
TORSDOF 3
