REMARK  6 active torsions:
REMARK  status: ('A' for Active; 'I' for Inactive)
REMARK    1  A    between atoms: N_6  and  C_1 
REMARK    2  A    between atoms: C_8  and  C_2 
REMARK    3  A    between atoms: C_10  and  C_5 
REMARK       I    between atoms: C_7  and  N_6 
REMARK    4  A    between atoms: C_9  and  C_7 
REMARK    5  A    between atoms: O_15  and  C_8 
REMARK    6  A    between atoms: C_22  and  O_15 
ROOT
ATOM      1  C   UNL d   1       0.364   1.092   0.280  0.00  0.00     0.094 A 
ATOM      2  C   UNL d   1       1.553   0.434   0.542  0.00  0.00     0.074 A 
ATOM      3  S   UNL d   1      -0.860  -0.009  -0.214  0.00  0.00    -0.071 SA
ATOM      4  C   UNL d   1       1.376  -0.993   0.435  0.00  0.00     0.040 A 
ATOM      5  C   UNL d   1       0.110  -1.376   0.063  0.00  0.00     0.018 A 
ENDROOT
BRANCH   1   6
ATOM      6  N   UNL d   1       0.058   2.453   0.259  0.00  0.00    -0.316 N 
ATOM      7  C   UNL d   1      -1.225   2.918   0.541  0.00  0.00     0.256 C 
ATOM      8  O   UNL d   1      -2.094   2.265   1.117  0.00  0.00    -0.267 OA
ATOM      9  H   UNL d   1       0.834   3.107   0.279  0.00  0.00     0.169 HD
BRANCH   7  10
ATOM     10  C   UNL d   1      -1.580   4.321   0.161  0.00  0.00     0.032 A 
ATOM     11  C   UNL d   1      -0.809   5.117  -0.697  0.00  0.00     0.018 A 
ATOM     12  C   UNL d   1      -1.274   6.383  -1.087  0.00  0.00     0.025 A 
ATOM     13  C   UNL d   1      -2.508   6.852  -0.636  0.00  0.00     0.034 A 
ATOM     14  C   UNL d   1      -3.287   6.073   0.215  0.00  0.00     0.025 A 
ATOM     15 CL   UNL d   1      -3.086   8.389  -1.149  0.00  0.00    -0.084 Cl
ATOM     16  C   UNL d   1      -2.821   4.820   0.606  0.00  0.00     0.018 A 
ENDBRANCH   7  10
ENDBRANCH   1   6
BRANCH   2  17
ATOM     17  C   UNL d   1       2.842   1.011   0.905  0.00  0.00     0.296 C 
ATOM     18  O   UNL d   1       3.230   2.114   0.543  0.00  0.00    -0.259 OA
BRANCH  17  19
ATOM     19  O   UNL d   1       3.575   0.109   1.619  0.00  0.00    -0.318 OA
BRANCH  19  20
ATOM     20  C   UNL d   1       4.954  -0.066   1.280  0.00  0.00     0.174 C 
ATOM     21  C   UNL d   1       5.720  -0.464   2.531  0.00  0.00     0.034 C 
ENDBRANCH  19  20
ENDBRANCH  17  19
ENDBRANCH   2  17
BRANCH   5  22
ATOM     22  C   UNL d   1      -0.391  -2.740  -0.112  0.00  0.00    -0.019 A 
ATOM     23  C   UNL d   1       0.431  -3.714  -0.703  0.00  0.00     0.013 A 
ATOM     24  C   UNL d   1       0.013  -5.042  -0.794  0.00  0.00     0.001 A 
ATOM     25  C   UNL d   1      -1.235  -5.411  -0.300  0.00  0.00     0.000 A 
ATOM     26  C   UNL d   1      -2.066  -4.453   0.278  0.00  0.00     0.001 A 
ATOM     27  C   UNL d   1      -1.648  -3.125   0.372  0.00  0.00     0.013 A 
ENDBRANCH   5  22
TORSDOF 6
