REMARK  5 active torsions:
REMARK  status: ('A' for Active; 'I' for Inactive)
REMARK    1  A    between atoms: C_4  and  C_1 
REMARK    2  A    between atoms: C_2  and  C_3 
REMARK    3  A    between atoms: N_13  and  N_5 
REMARK    4  A    between atoms: C_19  and  N_13 
REMARK    5  A    between atoms: C_18  and  C_20 
ROOT
ATOM      1  N   UNL d   1       0.160  -6.505  -0.807  0.00  0.00    -0.311 N 
ATOM      2  HN  UNL d   1       1.121  -6.365  -0.495  1.00  0.00     0.186 HD
ATOM      3  C   UNL d   1      -0.661  -5.518  -0.966  0.00  0.00     0.118 C 
ENDROOT
BRANCH   1   4
ATOM      4  N   UNL d   1      -0.338  -7.737  -1.079  0.00  0.00    -0.301 N 
ATOM      5  H   UNL d   1      -1.042  -7.845  -1.806  0.00  0.00     0.187 HD
BRANCH   4   6
ATOM      6  C   UNL d   1       0.551  -8.831  -0.985  0.00  0.00     0.048 A 
ATOM      7  C   UNL d   1       1.836  -8.700  -0.442  0.00  0.00     0.031 A 
ATOM      8  C   UNL d   1       2.680  -9.804  -0.297  0.00  0.00     0.018 A 
ATOM      9  C   UNL d   1       2.244 -11.083  -0.665  0.00  0.00     0.048 A 
ATOM     10  C   UNL d   1       0.945 -11.230  -1.171  0.00  0.00     0.018 A 
ATOM     11  C   UNL d   1       0.107 -10.117  -1.320  0.00  0.00     0.031 A 
BRANCH   9  12
ATOM     12  C   UNL d   1       3.169 -12.263  -0.506  0.00  0.00     0.417 C 
ATOM     13  F   UNL d   1       2.610 -13.449  -0.877  0.00  0.00    -0.166 F 
ATOM     14  F   UNL d   1       4.304 -12.138  -1.249  0.00  0.00    -0.166 F 
ATOM     15  F   UNL d   1       3.583 -12.433   0.781  0.00  0.00    -0.166 F 
ENDBRANCH   9  12
ENDBRANCH   4   6
ENDBRANCH   1   4
BRANCH   3  16
ATOM     16  C   UNL d   1      -0.244  -4.132  -0.669  0.00  0.00    -0.019 A 
ATOM     17  C   UNL d   1       1.050  -3.864  -0.211  0.00  0.00     0.013 A 
ATOM     18  C   UNL d   1       1.426  -2.554   0.088  0.00  0.00     0.017 A 
ATOM     19  C   UNL d   1       0.515  -1.497  -0.067  0.00  0.00     0.048 A 
ATOM     20  C   UNL d   1      -0.781  -1.780  -0.532  0.00  0.00     0.017 A 
ATOM     21  C   UNL d   1      -1.161  -3.092  -0.832  0.00  0.00     0.013 A 
BRANCH  19  22
ATOM     22  C   UNL d   1       0.938  -0.087   0.271  0.00  0.00     0.417 C 
ATOM     23  F   UNL d   1      -0.040   0.838   0.063  0.00  0.00    -0.166 F 
ATOM     24  F   UNL d   1       2.005   0.327  -0.467  0.00  0.00    -0.166 F 
ATOM     25  F   UNL d   1       1.308   0.047   1.574  0.00  0.00    -0.166 F 
ENDBRANCH  19  22
ENDBRANCH   3  16
TORSDOF 5
