REMARK  8 active torsions:
REMARK  status: ('A' for Active; 'I' for Inactive)
REMARK       I    between atoms: C_2  and  N_1 
REMARK    1  A    between atoms: O_14  and  C_2 
REMARK       I    between atoms: C_3  and  N_4 
REMARK    2  A    between atoms: C_16  and  C_3 
REMARK    3  A    between atoms: N_4  and  C_13 
REMARK    4  A    between atoms: C_5  and  C_17 
REMARK    5  A    between atoms: O_15  and  C_5 
REMARK    6  A    between atoms: C_19  and  O_14 
REMARK    7  A    between atoms: C_18  and  C_16 
REMARK    8  A    between atoms: C_17  and  C_18 
ROOT
ATOM      1  N   UNL d   1       1.357  -0.022   0.328  0.00  0.00    -0.328 N 
ATOM      2  C   UNL d   1       2.559  -0.007   1.010  0.00  0.00     0.362 C 
ATOM      3  C   UNL d   1       0.784   1.234  -0.125  0.00  0.00     0.130 C 
ATOM      4  C   UNL d   1       0.719  -1.235  -0.173  0.00  0.00     0.130 C 
ATOM      5  O   UNL d   1       3.155   1.017   1.319  0.00  0.00    -0.238 OA
ATOM      6  C   UNL d   1      -0.691   1.300   0.242  0.00  0.00     0.045 C 
ATOM      7  C   UNL d   1      -0.768  -1.238   0.160  0.00  0.00     0.045 C 
ATOM      8  C   UNL d   1      -1.462   0.069  -0.246  0.00  0.00     0.087 C 
ENDROOT
BRANCH   8   9
ATOM      9  N   UNL d   1      -1.694   0.132  -1.685  0.00  0.00    -0.356 N 
ATOM     10  C   UNL d   1      -2.834  -0.390  -2.255  0.00  0.00     0.217 C 
ATOM     11  O   UNL d   1      -3.717  -0.946  -1.609  0.00  0.00    -0.274 OA
ATOM     12  H   UNL d   1      -0.947   0.440  -2.297  0.00  0.00     0.162 HD
BRANCH  10  13
ATOM     13  C   UNL d   1      -2.911  -0.195  -3.755  0.00  0.00     0.103 C 
BRANCH  13  14
ATOM     14  C   UNL d   1      -4.355  -0.022  -4.237  0.00  0.00     0.019 C 
BRANCH  14  15
ATOM     15  C   UNL d   1      -5.067   1.193  -3.633  0.00  0.00     0.110 C 
BRANCH  15  16
ATOM     16  C   UNL d   1      -4.397   2.498  -3.994  0.00  0.00     0.139 C 
ATOM     17  O   UNL d   1      -3.769   2.694  -5.023  0.00  0.00    -0.650 OA
BRANCH  16  18
ATOM     18  O   UNL d   1      -4.564   3.458  -3.059  0.00  0.00    -0.776 OA
ATOM     19  H   UNL d   1      -5.087   3.175  -2.285  0.00  0.00     0.167 HD
ENDBRANCH  16  18
ENDBRANCH  15  16
ENDBRANCH  14  15
ENDBRANCH  13  14
ENDBRANCH  10  13
ENDBRANCH   8   9
BRANCH   2  20
ATOM     20  O   UNL d   1       3.025  -1.259   1.260  0.00  0.00    -0.304 OA
BRANCH  20  21
ATOM     21  C   UNL d   1       4.402  -1.332   1.651  0.00  0.00     0.176 C 
ATOM     22  C   UNL d   1       5.240  -1.392   0.389  0.00  0.00     0.034 C 
ENDBRANCH  20  21
ENDBRANCH   2  20
TORSDOF 8
