REMARK  3 active torsions:
REMARK  status: ('A' for Active; 'I' for Inactive)
REMARK    1  A    between atoms: S_11  and  C_3 
REMARK    2  A    between atoms: C_12  and  S_11 
REMARK    3  A    between atoms: C_14  and  C_12 
ROOT
ATOM      1  N   UNL d   1       0.801  -0.638   0.093  0.00  0.00    -0.268 N 
ATOM      2  C   UNL d   1       1.548   0.503   0.090  0.00  0.00     0.173 A 
ATOM      3  C   UNL d   1       1.709  -1.651   0.196  0.00  0.00     0.168 A 
ATOM      4  N   UNL d   1       2.823   0.244   0.195  0.00  0.00    -0.277 N 
ATOM      5  HN  UNL d   1       3.587   0.920   0.220  1.00  0.00     0.189 HD
ATOM      6  S   UNL d   1       0.602   1.947  -0.011  0.00  0.00    -0.050 SA
ATOM      7  N   UNL d   1       2.927  -1.142   0.264  0.00  0.00    -0.277 N 
ATOM      8  HN  UNL d   1       3.793  -1.673   0.352  1.00  0.00     0.189 HD
ATOM      9  C   UNL d   1      -0.578  -0.456   0.029  0.00  0.00     0.061 A 
ATOM     10  C   UNL d   1      -0.871   0.918  -0.028  0.00  0.00     0.035 A 
ATOM     11  C   UNL d   1      -1.572  -1.419   0.038  0.00  0.00     0.031 A 
ATOM     12  C   UNL d   1      -2.185   1.352  -0.075  0.00  0.00     0.021 A 
ATOM     13  C   UNL d   1      -2.897  -0.980  -0.008  0.00  0.00     0.002 A 
ATOM     14  C   UNL d   1      -3.201   0.391  -0.062  0.00  0.00     0.002 A 
ENDROOT
BRANCH   3  15
ATOM     15  S   UNL d   1       1.304  -3.324   0.235  0.00  0.00    -0.087 SA
BRANCH  15  16
ATOM     16  C   UNL d   1       2.636  -3.973   1.288  0.00  0.00     0.121 C 
BRANCH  16  17
ATOM     17  C   UNL d   1       2.317  -5.391   1.700  0.00  0.00    -0.048 A 
ATOM     18  C   UNL d   1       2.599  -6.462   0.835  0.00  0.00     0.011 A 
ATOM     19  C   UNL d   1       2.236  -7.763   1.183  0.00  0.00     0.043 A 
ATOM     20  C   UNL d   1       1.593  -7.997   2.392  0.00  0.00     0.116 A 
ATOM     21  C   UNL d   1       1.309  -6.953   3.265  0.00  0.00     0.043 A 
ATOM     22  F   UNL d   1       1.233  -9.245   2.718  0.00  0.00    -0.206 F 
ATOM     23  C   UNL d   1       1.668  -5.649   2.919  0.00  0.00     0.011 A 
ENDBRANCH  16  17
ENDBRANCH  15  16
ENDBRANCH   3  15
TORSDOF 3
