REMARK  4 active torsions:
REMARK  status: ('A' for Active; 'I' for Inactive)
REMARK    1  A    between atoms: C_2  and  C_1 
REMARK       I    between atoms: N_3  and  C_1 
REMARK    2  A    between atoms: O_6  and  C_2 
REMARK    3  A    between atoms: C_10  and  N_3 
REMARK    4  A    between atoms: C_9  and  O_6 
ROOT
ATOM      1  N   UNL d   1       2.768   4.023   6.135  0.00  0.00    -0.191 NA
ATOM      2  C   UNL d   1       2.269   3.261   5.414  0.00  0.00     0.099 C 
ATOM      3  C   UNL d   1       1.659   2.331   4.519  0.00  0.00     0.044 A 
ATOM      4  C   UNL d   1       0.467   0.505   2.744  0.00  0.00     0.070 A 
ATOM      5  C   UNL d   1       2.373   1.841   3.425  0.00  0.00     0.025 A 
ATOM      6  C   UNL d   1       1.778   0.934   2.543  0.00  0.00     0.038 A 
ATOM      7  C   UNL d   1      -0.247   1.001   3.839  0.00  0.00     0.038 A 
ATOM      8  C   UNL d   1       0.343   1.907   4.727  0.00  0.00     0.025 A 
ENDROOT
BRANCH   4   9
ATOM      9  O   UNL d   1      -0.242  -0.349   1.946  0.00  0.00    -0.331 OA
BRANCH   9  10
ATOM     10  C   UNL d   1       0.392  -1.101   0.901  0.00  0.00     0.141 C 
ATOM     11  C   UNL d   1      -0.741  -1.901   0.228  0.00  0.00     0.057 C 
ATOM     12  C   UNL d   1       1.378  -2.131   1.484  0.00  0.00     0.057 C 
BRANCH  10  13
ATOM     13  C   UNL d   1       1.029  -0.253  -0.238  0.00  0.00     0.256 C 
ATOM     14  N   UNL d   1       0.369   0.950  -0.459  0.00  0.00    -0.325 N 
ATOM     15  H   UNL d   1      -0.324   1.204   0.238  0.00  0.00     0.169 HD
ATOM     16  O   UNL d   1       2.017  -0.652  -0.849  0.00  0.00    -0.270 OA
BRANCH  14  17
ATOM     17  C   UNL d   1       0.753   1.960  -1.366  0.00  0.00     0.034 A 
ATOM     18  C   UNL d   1       1.624   1.740  -2.435  0.00  0.00     0.029 A 
ATOM     19  C   UNL d   1       2.000   2.793  -3.275  0.00  0.00     0.002 A 
ATOM     20  C   UNL d   1       1.509   4.076  -3.052  0.00  0.00     0.000 A 
ATOM     21  C   UNL d   1       0.625   4.303  -2.001  0.00  0.00     0.002 A 
ATOM     22  C   UNL d   1       0.238   3.248  -1.168  0.00  0.00     0.029 A 
ENDBRANCH  14  17
ENDBRANCH  10  13
ENDBRANCH   9  10
ENDBRANCH   4   9
TORSDOF 4
