REMARK  9 active torsions:
REMARK  status: ('A' for Active; 'I' for Inactive)
REMARK    1  A    between atoms: C_2  and  C_1 
REMARK    2  A    between atoms: C_4  and  C_1 
REMARK    3  A    between atoms: C_5  and  C_1 
REMARK    4  A    between atoms: N_6  and  C_1 
REMARK    5  A    between atoms: C_3  and  C_2 
REMARK    6  A    between atoms: O_21  and  C_4 
REMARK    7  A    between atoms: O_20  and  C_5 
REMARK       I    between atoms: C_9  and  N_6 
REMARK    8  A    between atoms: C_24  and  O_20 
REMARK    9  A    between atoms: C_25  and  O_21 
ROOT
ATOM      1  C   UNL d   1       1.092   0.033   0.021  0.00  0.00     0.213 C 
ENDROOT
BRANCH   1   2
ATOM      2  C   UNL d   1       0.560  -0.642   1.320  0.00  0.00     0.094 C 
BRANCH   2   3
ATOM      3  C   UNL d   1       0.919  -0.013   2.661  0.00  0.00    -0.018 A 
ATOM      4  C   UNL d   1       0.498  -0.628   3.859  0.00  0.00     0.086 A 
ATOM      5  C   UNL d   1       0.786  -0.059   5.105  0.00  0.00     0.002 A 
ATOM      6  O   UNL d   1      -0.226  -1.789   3.753  0.00  0.00    -0.325 OA
ATOM      7  C   UNL d   1       0.325  -0.734   6.358  0.00  0.00     0.212 C 
ATOM      8  C   UNL d   1       1.529   1.124   5.180  0.00  0.00     0.054 A 
ATOM      9  O   UNL d   1      -0.730  -1.644   6.080  0.00  0.00    -0.362 OA
ATOM     10  C   UNL d   1      -0.357  -2.483   4.993  0.00  0.00     0.345 C 
ATOM     11  C   UNL d   1       1.954   1.728   4.012  0.00  0.00     0.117 A 
ATOM     12  C   UNL d   1       1.656   1.179   2.772  0.00  0.00     0.052 A 
ATOM     13  F   UNL d   1       2.659   2.867   4.070  0.00  0.00    -0.206 F 
ENDBRANCH   2   3
ENDBRANCH   1   2
BRANCH   1  14
ATOM     14  C   UNL d   1       0.467   1.433  -0.168  0.00  0.00     0.298 C 
ATOM     15  O   UNL d   1       1.028   2.337  -0.774  0.00  0.00    -0.262 OA
BRANCH  14  16
ATOM     16  O   UNL d   1      -0.740   1.549   0.446  0.00  0.00    -0.319 OA
BRANCH  16  17
ATOM     17  C   UNL d   1      -1.329   2.858   0.516  0.00  0.00     0.174 C 
ATOM     18  C   UNL d   1      -0.733   3.645   1.670  0.00  0.00     0.034 C 
ENDBRANCH  16  17
ENDBRANCH  14  16
ENDBRANCH   1  14
BRANCH   1  19
ATOM     19  C   UNL d   1       0.657  -0.808  -1.189  0.00  0.00     0.298 C 
ATOM     20  O   UNL d   1      -0.499  -1.142  -1.423  0.00  0.00    -0.262 OA
BRANCH  19  21
ATOM     21  O   UNL d   1       1.726  -1.164  -1.963  0.00  0.00    -0.319 OA
BRANCH  21  22
ATOM     22  C   UNL d   1       1.538  -2.313  -2.796  0.00  0.00     0.174 C 
ATOM     23  C   UNL d   1       1.792  -3.550  -1.954  0.00  0.00     0.034 C 
ENDBRANCH  21  22
ENDBRANCH  19  21
ENDBRANCH   1  19
BRANCH   1  24
ATOM     24  N   UNL d   1       2.584   0.219   0.024  0.00  0.00    -0.335 N 
ATOM     25  C   UNL d   1       3.477  -0.744   0.431  0.00  0.00     0.215 C 
ATOM     26  O   UNL d   1       3.151  -1.828   0.900  0.00  0.00    -0.274 OA
ATOM     27  C   UNL d   1       4.922  -0.359   0.292  0.00  0.00     0.117 C 
ATOM     28  H   UNL d   1       2.923   0.957  -0.585  0.00  0.00     0.164 HD
ENDBRANCH   1  24
TORSDOF 9
