REMARK  6 active torsions:
REMARK  status: ('A' for Active; 'I' for Inactive)
REMARK    1  A    between atoms: C_15  and  N_1 
REMARK    2  A    between atoms: S_8  and  C_2 
REMARK    3  A    between atoms: C_12  and  C_3 
REMARK    4  A    between atoms: N_11  and  C_4 
REMARK    5  A    between atoms: C_7  and  S_8 
REMARK    6  A    between atoms: O_21  and  C_19 
ROOT
ATOM      1  N   UNL d   1      -0.315  -1.331  -0.104  0.00  0.00    -0.274 N 
ATOM      2  C   UNL d   1       0.911  -0.680  -0.001  0.00  0.00     0.173 A 
ATOM      3  C   UNL d   1      -1.260  -0.277  -0.041  0.00  0.00     0.142 A 
ATOM      4  N   UNL d   1      -0.593   0.849   0.149  0.00  0.00    -0.282 N 
ATOM      5  HN  UNL d   1      -1.020   1.761   0.309  1.00  0.00     0.188 HD
ATOM      6  N   UNL d   1       0.741   0.614   0.101  0.00  0.00    -0.277 N 
ATOM      7  HN  UNL d   1       1.478   1.318   0.137  1.00  0.00     0.189 HD
ENDROOT
BRANCH   2   8
ATOM      8  S   UNL d   1       2.490  -1.385  -0.183  0.00  0.00    -0.042 SA
BRANCH   8   9
ATOM      9  C   UNL d   1       2.998  -1.514   1.525  0.00  0.00     0.082 A 
ATOM     10  C   UNL d   1       3.910  -2.407   2.084  0.00  0.00     0.127 A 
ATOM     11  C   UNL d   1       3.995  -2.262   3.517  0.00  0.00     0.045 A 
ATOM     12  C   UNL d   1       3.197  -1.254   3.999  0.00  0.00     0.053 A 
ATOM     13  S   UNL d   1       2.373  -0.459   2.747  0.00  0.00    -0.092 SA
BRANCH  10  14
ATOM     14  N   UNL d   1       4.687  -3.413   1.380  0.00  0.00    -0.114 N 
ATOM     15  O   UNL d   1       4.552  -3.515   0.151  0.00  0.00    -0.532 OA
ATOM     16  O   UNL d   1       5.431  -4.116   2.069  0.00  0.00    -0.532 OA
ENDBRANCH  10  14
ENDBRANCH   8   9
ENDBRANCH   2   8
BRANCH   1  17
ATOM     17  C   UNL d   1      -0.562  -2.741  -0.163  0.00  0.00     0.043 A 
ATOM     18  C   UNL d   1       0.204  -3.627   0.610  0.00  0.00     0.030 A 
ATOM     19  C   UNL d   1      -0.113  -4.987   0.669  0.00  0.00     0.002 A 
ATOM     20  C   UNL d   1      -1.214  -5.473  -0.025  0.00  0.00     0.000 A 
ATOM     21  C   UNL d   1      -1.973  -4.609  -0.811  0.00  0.00     0.002 A 
ATOM     22  C   UNL d   1      -1.636  -3.253  -0.902  0.00  0.00     0.030 A 
ENDBRANCH   1  17
BRANCH   3  23
ATOM     23  C   UNL d   1      -2.740  -0.348   0.032  0.00  0.00     0.043 A 
ATOM     24  C   UNL d   1      -3.635   0.547  -0.601  0.00  0.00     0.082 A 
ATOM     25  C   UNL d   1      -5.027   0.348  -0.469  0.00  0.00     0.038 A 
ATOM     26  C   UNL d   1      -5.556  -0.725   0.241  0.00  0.00     0.003 A 
ATOM     27  C   UNL d   1      -4.695  -1.598   0.878  0.00  0.00     0.001 A 
ATOM     28  C   UNL d   1      -3.316  -1.378   0.816  0.00  0.00     0.018 A 
BRANCH  24  29
ATOM     29  O   UNL d   1      -3.406   1.582  -1.468  0.00  0.00    -0.355 OA
ATOM     30  C   UNL d   1      -2.260   2.403  -1.342  0.00  0.00     0.210 C 
ENDBRANCH  24  29
ENDBRANCH   3  23
TORSDOF 6
